MODEL 1
REMARK VINA RESULT:     -12.9      0.000      0.000
REMARK SMILES CC(C)n1ccc(C[C@@H](C(=O)NCCCNC(=O)c2ccc(-c3c4nc(c(-c5c(F)c(F)c(F)c(F)c5F)c5ccc([nH]5)c(-c5c(F)c(F)c(F)c(F)c5F)c5nc(c(-c6c(F)c(F)c(F)c(F)c6F)c6ccc3[nH]6)C=C5)C=C4)cc2)c2cccc(Cl)c2)n1
REMARK SMILES IDX 13 1 12 2 10 3 11 4 9 6 8 7 7 8 4 9 5 10 89 11 6 12 2 13
REMARK SMILES IDX 1 14 3 15 82 16 83 17 88 18 84 19 86 20 85 21 87 22 14 23
REMARK SMILES IDX 15 24 16 25 17 26 18 28 19 29 20 30 81 31 21 32 80 33 22 34
REMARK SMILES IDX 23 35 24 36 74 37 25 38 79 39 73 40 75 41 26 42 78 43 72 44
REMARK SMILES IDX 71 45 27 47 59 48 39 49 58 50 40 51 43 52 57 53 76 54 41 55
REMARK SMILES IDX 42 56 56 58 77 59 44 60 28 61 29 62 37 63 30 64 31 65 35 66
REMARK SMILES IDX 38 67 32 68 33 69 36 70 34 71 60 72 61 73 69 74 62 75 63 76
REMARK SMILES IDX 67 77 70 78 64 79 65 80 68 81 66 82 45 83 46 84 54 85 47 86
REMARK SMILES IDX 48 87 52 88 55 89 49 90 50 91 53 92 51 93
REMARK H PARENT 12 5 16 27 75 46 43 57
REMARK Flexibility Score: inf
ROOT
ATOM      1  C   UNL A   1      37.832  22.964  25.855  1.00  0.00     0.117 C 
ENDROOT
BRANCH   1   2
ATOM      2  N   UNL A   1      37.565  23.411  24.493  1.00  0.00    -0.355 N 
ATOM      3  C   UNL A   1      36.428  23.195  23.761  1.00  0.00     0.227 C 
ATOM      4  O   UNL A   1      36.574  23.011  22.549  1.00  0.00    -0.274 OA
ATOM      5  H   UNL A   1      38.280  23.926  24.053  1.00  0.00     0.163 HD
BRANCH   3   6
ATOM      6  C   UNL A   1      35.044  23.252  24.432  1.00  0.00     0.114 C 
BRANCH   6   7
ATOM      7  C   UNL A   1      34.024  22.366  23.684  1.00  0.00     0.076 C 
BRANCH   7   8
ATOM      8  C   UNL A   1      33.497  21.160  24.392  1.00  0.00     0.064 A 
ATOM      9  N   UNL A   1      32.839  19.157  24.748  1.00  0.00    -0.270 N 
ATOM     10  C   UNL A   1      32.856  19.761  25.979  1.00  0.00     0.109 A 
ATOM     11  N   UNL A   1      33.263  19.996  23.763  1.00  0.00    -0.178 NA
ATOM     12  C   UNL A   1      33.261  21.056  25.780  1.00  0.00     0.045 A 
BRANCH   9  13
ATOM     13  C   UNL A   1      32.503  17.757  24.464  1.00  0.00     0.101 C 
ATOM     14  C   UNL A   1      33.210  17.211  23.212  1.00  0.00     0.033 C 
ATOM     15  C   UNL A   1      32.778  16.783  25.620  1.00  0.00     0.033 C 
ENDBRANCH   9  13
ENDBRANCH   7   8
ENDBRANCH   6   7
BRANCH   6  16
ATOM     16  C   UNL A   1      34.456  24.688  24.495  1.00  0.00    -0.034 A 
ATOM     17  C   UNL A   1      34.440  25.359  25.734  1.00  0.00     0.004 A 
ATOM     18  C   UNL A   1      33.842  25.330  23.403  1.00  0.00     0.025 A 
ATOM     19  C   UNL A   1      33.775  26.580  25.892  1.00  0.00     0.002 A 
ATOM     20  C   UNL A   1      33.186  26.556  23.565  1.00  0.00     0.041 A 
ATOM     21  C   UNL A   1      33.136  27.174  24.809  1.00  0.00     0.020 A 
ATOM     22  Cl  UNL A   1      32.403  27.293  22.218  1.00  0.00    -0.084 Cl
ENDBRANCH   6  16
ENDBRANCH   3   6
ENDBRANCH   1   2
BRANCH   1  23
ATOM     23  C   UNL A   1      38.795  21.783  25.848  1.00  0.00     0.042 C 
BRANCH  23  24
ATOM     24  C   UNL A   1      39.978  21.915  26.769  1.00  0.00     0.118 C 
BRANCH  24  25
ATOM     25  N   UNL A   1      41.278  22.104  26.142  1.00  0.00    -0.352 N 
ATOM     26  C   UNL A   1      42.059  23.261  26.036  1.00  0.00     0.251 C 
ATOM     27  H   UNL A   1      41.666  21.297  25.729  1.00  0.00     0.163 HD
ATOM     28  O   UNL A   1      43.075  23.247  25.387  1.00  0.00    -0.269 OA
BRANCH  26  29
ATOM     29  C   UNL A   1      41.623  24.524  26.706  1.00  0.00     0.039 A 
ATOM     30  C   UNL A   1      40.460  25.222  26.358  1.00  0.00     0.014 A 
ATOM     31  C   UNL A   1      42.382  25.045  27.723  1.00  0.00     0.014 A 
ATOM     32  C   UNL A   1      40.211  26.455  26.984  1.00  0.00     0.010 A 
ATOM     33  C   UNL A   1      41.760  25.815  28.641  1.00  0.00     0.010 A 
ATOM     34  C   UNL A   1      40.971  26.785  28.101  1.00  0.00    -0.014 A 
BRANCH  34  35
ATOM     35  C   UNL A   1      41.053  28.076  28.763  1.00  0.00     0.031 A 
ATOM     36  C   UNL A   1      42.168  28.938  28.334  1.00  0.00     0.074 A 
ATOM     37  C   UNL A   1      40.001  28.614  29.431  1.00  0.00     0.049 A 
ATOM     38  N   UNL A   1      43.181  29.328  29.028  1.00  0.00    -0.248 NA
ATOM     39  C   UNL A   1      42.215  29.332  26.919  1.00  0.00     0.031 C 
ATOM     40  C   UNL A   1      38.632  28.097  29.590  1.00  0.00     0.029 A 
ATOM     41  N   UNL A   1      39.924  29.832  30.038  1.00  0.00    -0.354 N 
ATOM     42  C   UNL A   1      43.930  30.137  28.182  1.00  0.00     0.074 A 
ATOM     43  C   UNL A   1      43.394  29.948  26.860  1.00  0.00     0.031 C 
ATOM     44  C   UNL A   1      37.828  29.070  30.082  1.00  0.00     0.029 A 
ATOM     45  C   UNL A   1      38.645  30.219  30.419  1.00  0.00     0.049 A 
ATOM     46  H   UNL A   1      40.715  30.395  30.195  1.00  0.00     0.167 HD
ATOM     47  C   UNL A   1      44.802  31.062  28.668  1.00  0.00     0.037 A 
ATOM     48  C   UNL A   1      38.294  31.417  30.947  1.00  0.00     0.037 A 
ATOM     49  C   UNL A   1      45.040  30.864  30.076  1.00  0.00     0.049 A 
ATOM     50  C   UNL A   1      39.537  32.058  31.450  1.00  0.00     0.074 A 
ATOM     51  C   UNL A   1      45.575  29.836  30.829  1.00  0.00     0.029 A 
ATOM     52  N   UNL A   1      44.341  31.647  30.963  1.00  0.00    -0.354 N 
ATOM     53  N   UNL A   1      40.233  31.612  32.459  1.00  0.00    -0.248 NA
ATOM     54  C   UNL A   1      40.253  32.944  30.544  1.00  0.00     0.031 C 
ATOM     55  C   UNL A   1      44.778  29.790  32.013  1.00  0.00     0.029 A 
ATOM     56  C   UNL A   1      43.836  30.818  31.934  1.00  0.00     0.049 A 
ATOM     57  H   UNL A   1      44.226  32.623  30.912  1.00  0.00     0.167 HD
ATOM     58  C   UNL A   1      41.558  31.815  32.098  1.00  0.00     0.074 A 
ATOM     59  C   UNL A   1      41.504  32.728  30.960  1.00  0.00     0.031 C 
ATOM     60  C   UNL A   1      42.551  31.006  32.571  1.00  0.00     0.037 A 
BRANCH  47  61
ATOM     61  C   UNL A   1      45.212  32.319  27.948  1.00  0.00     0.064 A 
ATOM     62  C   UNL A   1      44.246  33.312  27.697  1.00  0.00     0.173 A 
ATOM     63  C   UNL A   1      46.445  32.488  27.282  1.00  0.00     0.173 A 
ATOM     64  F   UNL A   1      43.030  33.239  28.259  1.00  0.00    -0.203 F 
ATOM     65  C   UNL A   1      44.479  34.360  26.805  1.00  0.00     0.198 A 
ATOM     66  C   UNL A   1      46.698  33.570  26.442  1.00  0.00     0.198 A 
ATOM     67  F   UNL A   1      47.413  31.564  27.326  1.00  0.00    -0.203 F 
ATOM     68  F   UNL A   1      43.490  35.214  26.510  1.00  0.00    -0.200 F 
ATOM     69  C   UNL A   1      45.705  34.490  26.179  1.00  0.00     0.200 A 
ATOM     70  F   UNL A   1      47.888  33.670  25.833  1.00  0.00    -0.200 F 
ATOM     71  F   UNL A   1      45.915  35.467  25.287  1.00  0.00    -0.200 F 
ENDBRANCH  47  61
BRANCH  48  72
ATOM     72  C   UNL A   1      37.016  32.152  30.804  1.00  0.00     0.064 A 
ATOM     73  C   UNL A   1      36.109  32.262  31.870  1.00  0.00     0.173 A 
ATOM     74  C   UNL A   1      36.784  32.989  29.696  1.00  0.00     0.173 A 
ATOM     75  F   UNL A   1      36.284  31.531  32.981  1.00  0.00    -0.203 F 
ATOM     76  C   UNL A   1      35.045  33.171  31.838  1.00  0.00     0.198 A 
ATOM     77  C   UNL A   1      35.720  33.892  29.662  1.00  0.00     0.198 A 
ATOM     78  F   UNL A   1      37.640  33.012  28.664  1.00  0.00    -0.203 F 
ATOM     79  F   UNL A   1      34.233  33.289  32.899  1.00  0.00    -0.200 F 
ATOM     80  C   UNL A   1      34.858  33.993  30.738  1.00  0.00     0.200 A 
ATOM     81  F   UNL A   1      35.571  34.707  28.607  1.00  0.00    -0.200 F 
ATOM     82  F   UNL A   1      33.876  34.905  30.732  1.00  0.00    -0.200 F 
ENDBRANCH  48  72
BRANCH  60  83
ATOM     83  C   UNL A   1      42.198  30.050  33.682  1.00  0.00     0.064 A 
ATOM     84  C   UNL A   1      41.739  28.737  33.467  1.00  0.00     0.173 A 
ATOM     85  C   UNL A   1      42.469  30.421  35.004  1.00  0.00     0.173 A 
ATOM     86  F   UNL A   1      41.558  28.265  32.231  1.00  0.00    -0.203 F 
ATOM     87  C   UNL A   1      41.515  27.860  34.527  1.00  0.00     0.198 A 
ATOM     88  C   UNL A   1      42.281  29.530  36.060  1.00  0.00     0.198 A 
ATOM     89  F   UNL A   1      42.967  31.639  35.271  1.00  0.00    -0.203 F 
ATOM     90  F   UNL A   1      41.065  26.619  34.289  1.00  0.00    -0.200 F 
ATOM     91  C   UNL A   1      41.794  28.255  35.822  1.00  0.00     0.200 A 
ATOM     92  F   UNL A   1      42.601  29.900  37.308  1.00  0.00    -0.200 F 
ATOM     93  F   UNL A   1      41.621  27.399  36.840  1.00  0.00    -0.200 F 
ENDBRANCH  60  83
ENDBRANCH  34  35
ENDBRANCH  26  29
ENDBRANCH  24  25
ENDBRANCH  23  24
ENDBRANCH   1  23
TORSDOF 14
ENDMDL
MODEL 2
REMARK VINA RESULT:     -12.5      1.961      3.645
REMARK SMILES CC(C)n1ccc(C[C@@H](C(=O)NCCCNC(=O)c2ccc(-c3c4nc(c(-c5c(F)c(F)c(F)c(F)c5F)c5ccc([nH]5)c(-c5c(F)c(F)c(F)c(F)c5F)c5nc(c(-c6c(F)c(F)c(F)c(F)c6F)c6ccc3[nH]6)C=C5)C=C4)cc2)c2cccc(Cl)c2)n1
REMARK SMILES IDX 13 1 12 2 10 3 11 4 9 6 8 7 7 8 4 9 5 10 89 11 6 12 2 13
REMARK SMILES IDX 1 14 3 15 82 16 83 17 88 18 84 19 86 20 85 21 87 22 14 23
REMARK SMILES IDX 15 24 16 25 17 26 18 28 19 29 20 30 81 31 21 32 80 33 22 34
REMARK SMILES IDX 23 35 24 36 74 37 25 38 79 39 73 40 75 41 26 42 78 43 72 44
REMARK SMILES IDX 71 45 27 47 59 48 39 49 58 50 40 51 43 52 57 53 76 54 41 55
REMARK SMILES IDX 42 56 56 58 77 59 44 60 28 61 29 62 37 63 30 64 31 65 35 66
REMARK SMILES IDX 38 67 32 68 33 69 36 70 34 71 60 72 61 73 69 74 62 75 63 76
REMARK SMILES IDX 67 77 70 78 64 79 65 80 68 81 66 82 45 83 46 84 54 85 47 86
REMARK SMILES IDX 48 87 52 88 55 89 49 90 50 91 53 92 51 93
REMARK H PARENT 12 5 16 27 75 46 43 57
REMARK Flexibility Score: inf
ROOT
ATOM      1  C   UNL A   1      36.364  21.627  25.002  1.00  0.00     0.117 C 
ENDROOT
BRANCH   1   2
ATOM      2  N   UNL A   1      35.517  21.143  26.085  1.00  0.00    -0.355 N 
ATOM      3  C   UNL A   1      34.157  21.276  26.193  1.00  0.00     0.227 C 
ATOM      4  O   UNL A   1      33.705  21.450  27.328  1.00  0.00    -0.274 OA
ATOM      5  H   UNL A   1      35.971  20.669  26.819  1.00  0.00     0.163 HD
BRANCH   3   6
ATOM      6  C   UNL A   1      33.259  21.141  24.951  1.00  0.00     0.114 C 
BRANCH   6   7
ATOM      7  C   UNL A   1      31.779  21.408  25.301  1.00  0.00     0.076 C 
BRANCH   7   8
ATOM      8  C   UNL A   1      31.329  22.831  25.386  1.00  0.00     0.064 A 
ATOM      9  N   UNL A   1      30.929  24.856  24.829  1.00  0.00    -0.270 N 
ATOM     10  C   UNL A   1      30.359  24.698  26.066  1.00  0.00     0.109 A 
ATOM     11  N   UNL A   1      31.502  23.705  24.380  1.00  0.00    -0.178 NA
ATOM     12  C   UNL A   1      30.614  23.408  26.457  1.00  0.00     0.045 A 
BRANCH   9  13
ATOM     13  C   UNL A   1      30.887  26.062  23.994  1.00  0.00     0.101 C 
ATOM     14  C   UNL A   1      31.177  27.351  24.782  1.00  0.00     0.033 C 
ATOM     15  C   UNL A   1      31.823  26.035  22.777  1.00  0.00     0.033 C 
ENDBRANCH   9  13
ENDBRANCH   7   8
ENDBRANCH   6   7
BRANCH   6  16
ATOM     16  C   UNL A   1      33.336  19.736  24.293  1.00  0.00    -0.034 A 
ATOM     17  C   UNL A   1      32.498  19.456  23.195  1.00  0.00     0.004 A 
ATOM     18  C   UNL A   1      34.125  18.681  24.790  1.00  0.00     0.025 A 
ATOM     19  C   UNL A   1      32.397  18.165  22.667  1.00  0.00     0.002 A 
ATOM     20  C   UNL A   1      34.027  17.393  24.252  1.00  0.00     0.041 A 
ATOM     21  C   UNL A   1      33.154  17.127  23.204  1.00  0.00     0.020 A 
ATOM     22  Cl  UNL A   1      34.972  16.114  24.915  1.00  0.00    -0.084 Cl
ENDBRANCH   6  16
ENDBRANCH   3   6
ENDBRANCH   1   2
BRANCH   1  23
ATOM     23  C   UNL A   1      36.547  23.136  25.102  1.00  0.00     0.042 C 
BRANCH  23  24
ATOM     24  C   UNL A   1      37.813  23.585  25.779  1.00  0.00     0.118 C 
BRANCH  24  25
ATOM     25  N   UNL A   1      38.605  22.556  26.439  1.00  0.00    -0.352 N 
ATOM     26  C   UNL A   1      39.740  22.684  27.248  1.00  0.00     0.251 C 
ATOM     27  H   UNL A   1      38.296  21.632  26.292  1.00  0.00     0.163 HD
ATOM     28  O   UNL A   1      40.324  21.700  27.629  1.00  0.00    -0.269 OA
BRANCH  26  29
ATOM     29  C   UNL A   1      40.245  24.040  27.622  1.00  0.00     0.039 A 
ATOM     30  C   UNL A   1      41.599  24.330  27.832  1.00  0.00     0.014 A 
ATOM     31  C   UNL A   1      39.356  25.074  27.770  1.00  0.00     0.014 A 
ATOM     32  C   UNL A   1      41.942  25.615  28.286  1.00  0.00     0.010 A 
ATOM     33  C   UNL A   1      39.812  26.329  27.572  1.00  0.00     0.010 A 
ATOM     34  C   UNL A   1      40.967  26.605  28.240  1.00  0.00    -0.014 A 
BRANCH  34  35
ATOM     35  C   UNL A   1      41.015  27.921  28.857  1.00  0.00     0.031 A 
ATOM     36  C   UNL A   1      42.057  28.825  28.339  1.00  0.00     0.074 A 
ATOM     37  C   UNL A   1      39.974  28.425  29.565  1.00  0.00     0.049 A 
ATOM     38  N   UNL A   1      43.084  29.290  28.963  1.00  0.00    -0.248 NA
ATOM     39  C   UNL A   1      42.005  29.173  26.913  1.00  0.00     0.031 C 
ATOM     40  C   UNL A   1      38.646  27.843  29.817  1.00  0.00     0.029 A 
ATOM     41  N   UNL A   1      39.864  29.657  30.138  1.00  0.00    -0.354 N 
ATOM     42  C   UNL A   1      43.741  30.108  28.052  1.00  0.00     0.074 A 
ATOM     43  C   UNL A   1      43.145  29.847  26.768  1.00  0.00     0.031 C 
ATOM     44  C   UNL A   1      37.818  28.789  30.323  1.00  0.00     0.029 A 
ATOM     45  C   UNL A   1      38.589  29.990  30.579  1.00  0.00     0.049 A 
ATOM     46  H   UNL A   1      40.631  30.266  30.233  1.00  0.00     0.167 HD
ATOM     47  C   UNL A   1      44.587  31.093  28.459  1.00  0.00     0.037 A 
ATOM     48  C   UNL A   1      38.203  31.185  31.088  1.00  0.00     0.037 A 
ATOM     49  C   UNL A   1      44.912  30.955  29.857  1.00  0.00     0.049 A 
ATOM     50  C   UNL A   1      39.435  31.906  31.501  1.00  0.00     0.074 A 
ATOM     51  C   UNL A   1      45.541  29.983  30.610  1.00  0.00     0.029 A 
ATOM     52  N   UNL A   1      44.221  31.730  30.758  1.00  0.00    -0.354 N 
ATOM     53  N   UNL A   1      40.208  31.531  32.482  1.00  0.00    -0.248 NA
ATOM     54  C   UNL A   1      40.052  32.798  30.529  1.00  0.00     0.031 C 
ATOM     55  C   UNL A   1      44.813  29.935  31.837  1.00  0.00     0.029 A 
ATOM     56  C   UNL A   1      43.815  30.909  31.780  1.00  0.00     0.049 A 
ATOM     57  H   UNL A   1      44.050  32.697  30.683  1.00  0.00     0.167 HD
ATOM     58  C   UNL A   1      41.498  31.791  32.041  1.00  0.00     0.074 A 
ATOM     59  C   UNL A   1      41.333  32.661  30.880  1.00  0.00     0.031 C 
ATOM     60  C   UNL A   1      42.558  31.051  32.482  1.00  0.00     0.037 A 
BRANCH  47  61
ATOM     61  C   UNL A   1      44.889  32.345  27.679  1.00  0.00     0.064 A 
ATOM     62  C   UNL A   1      46.110  32.443  26.986  1.00  0.00     0.173 A 
ATOM     63  C   UNL A   1      44.149  33.543  27.780  1.00  0.00     0.173 A 
ATOM     64  F   UNL A   1      46.907  31.372  26.851  1.00  0.00    -0.203 F 
ATOM     65  C   UNL A   1      46.578  33.658  26.483  1.00  0.00     0.198 A 
ATOM     66  C   UNL A   1      44.588  34.741  27.220  1.00  0.00     0.198 A 
ATOM     67  F   UNL A   1      43.032  33.632  28.511  1.00  0.00    -0.203 F 
ATOM     68  F   UNL A   1      47.798  33.725  25.933  1.00  0.00    -0.200 F 
ATOM     69  C   UNL A   1      45.816  34.806  26.598  1.00  0.00     0.200 A 
ATOM     70  F   UNL A   1      43.841  35.846  27.356  1.00  0.00    -0.200 F 
ATOM     71  F   UNL A   1      46.283  35.982  26.158  1.00  0.00    -0.200 F 
ENDBRANCH  47  61
BRANCH  48  72
ATOM     72  C   UNL A   1      36.881  31.847  30.995  1.00  0.00     0.064 A 
ATOM     73  C   UNL A   1      36.068  32.027  32.126  1.00  0.00     0.173 A 
ATOM     74  C   UNL A   1      36.508  32.556  29.837  1.00  0.00     0.173 A 
ATOM     75  F   UNL A   1      36.379  31.421  33.281  1.00  0.00    -0.203 F 
ATOM     76  C   UNL A   1      34.961  32.882  32.105  1.00  0.00     0.198 A 
ATOM     77  C   UNL A   1      35.401  33.405  29.815  1.00  0.00     0.198 A 
ATOM     78  F   UNL A   1      37.267  32.509  28.732  1.00  0.00    -0.203 F 
ATOM     79  F   UNL A   1      34.242  33.073  33.220  1.00  0.00    -0.200 F 
ATOM     80  C   UNL A   1      34.634  33.579  30.952  1.00  0.00     0.200 A 
ATOM     81  F   UNL A   1      35.117  34.101  28.704  1.00  0.00    -0.200 F 
ATOM     82  F   UNL A   1      33.611  34.444  30.950  1.00  0.00    -0.200 F 
ENDBRANCH  48  72
BRANCH  60  83
ATOM     83  C   UNL A   1      42.318  30.116  33.640  1.00  0.00     0.064 A 
ATOM     84  C   UNL A   1      41.885  28.785  33.494  1.00  0.00     0.173 A 
ATOM     85  C   UNL A   1      42.675  30.530  34.928  1.00  0.00     0.173 A 
ATOM     86  F   UNL A   1      41.628  28.274  32.287  1.00  0.00    -0.203 F 
ATOM     87  C   UNL A   1      41.768  27.931  34.589  1.00  0.00     0.198 A 
ATOM     88  C   UNL A   1      42.594  29.664  36.017  1.00  0.00     0.198 A 
ATOM     89  F   UNL A   1      43.154  31.769  35.127  1.00  0.00    -0.203 F 
ATOM     90  F   UNL A   1      41.341  26.671  34.416  1.00  0.00    -0.200 F 
ATOM     91  C   UNL A   1      42.130  28.369  35.849  1.00  0.00     0.200 A 
ATOM     92  F   UNL A   1      42.994  30.077  37.228  1.00  0.00    -0.200 F 
ATOM     93  F   UNL A   1      42.060  27.537  36.898  1.00  0.00    -0.200 F 
ENDBRANCH  60  83
ENDBRANCH  34  35
ENDBRANCH  26  29
ENDBRANCH  24  25
ENDBRANCH  23  24
ENDBRANCH   1  23
TORSDOF 14
ENDMDL
MODEL 3
REMARK VINA RESULT:     -12.5      3.981      9.416
REMARK SMILES CC(C)n1ccc(C[C@@H](C(=O)NCCCNC(=O)c2ccc(-c3c4nc(c(-c5c(F)c(F)c(F)c(F)c5F)c5ccc([nH]5)c(-c5c(F)c(F)c(F)c(F)c5F)c5nc(c(-c6c(F)c(F)c(F)c(F)c6F)c6ccc3[nH]6)C=C5)C=C4)cc2)c2cccc(Cl)c2)n1
REMARK SMILES IDX 13 1 12 2 10 3 11 4 9 6 8 7 7 8 4 9 5 10 89 11 6 12 2 13
REMARK SMILES IDX 1 14 3 15 82 16 83 17 88 18 84 19 86 20 85 21 87 22 14 23
REMARK SMILES IDX 15 24 16 25 17 26 18 28 19 29 20 30 81 31 21 32 80 33 22 34
REMARK SMILES IDX 23 35 24 36 74 37 25 38 79 39 73 40 75 41 26 42 78 43 72 44
REMARK SMILES IDX 71 45 27 47 59 48 39 49 58 50 40 51 43 52 57 53 76 54 41 55
REMARK SMILES IDX 42 56 56 58 77 59 44 60 28 61 29 62 37 63 30 64 31 65 35 66
REMARK SMILES IDX 38 67 32 68 33 69 36 70 34 71 60 72 61 73 69 74 62 75 63 76
REMARK SMILES IDX 67 77 70 78 64 79 65 80 68 81 66 82 45 83 46 84 54 85 47 86
REMARK SMILES IDX 48 87 52 88 55 89 49 90 50 91 53 92 51 93
REMARK H PARENT 12 5 16 27 75 46 43 57
REMARK Flexibility Score: inf
ROOT
ATOM      1  C   UNL A   1      33.958  29.439  26.969  1.00  0.00     0.117 C 
ENDROOT
BRANCH   1   2
ATOM      2  N   UNL A   1      33.061  28.526  27.667  1.00  0.00    -0.355 N 
ATOM      3  C   UNL A   1      32.030  27.805  27.125  1.00  0.00     0.227 C 
ATOM      4  O   UNL A   1      31.028  27.654  27.830  1.00  0.00    -0.274 OA
ATOM      5  H   UNL A   1      33.215  28.415  28.633  1.00  0.00     0.163 HD
BRANCH   3   6
ATOM      6  C   UNL A   1      32.170  27.169  25.732  1.00  0.00     0.114 C 
BRANCH   6   7
ATOM      7  C   UNL A   1      30.791  26.989  25.059  1.00  0.00     0.076 C 
BRANCH   7   8
ATOM      8  C   UNL A   1      30.418  27.942  23.970  1.00  0.00     0.064 A 
ATOM      9  N   UNL A   1      29.260  29.285  22.776  1.00  0.00    -0.270 N 
ATOM     10  C   UNL A   1      30.535  29.357  22.276  1.00  0.00     0.109 A 
ATOM     11  N   UNL A   1      29.177  28.442  23.842  1.00  0.00    -0.178 NA
ATOM     12  C   UNL A   1      31.300  28.491  23.015  1.00  0.00     0.045 A 
BRANCH   9  13
ATOM     13  C   UNL A   1      28.099  30.061  22.325  1.00  0.00     0.101 C 
ATOM     14  C   UNL A   1      27.596  31.060  23.382  1.00  0.00     0.033 C 
ATOM     15  C   UNL A   1      28.309  30.832  21.014  1.00  0.00     0.033 C 
ENDBRANCH   9  13
ENDBRANCH   7   8
ENDBRANCH   6   7
BRANCH   6  16
ATOM     16  C   UNL A   1      32.859  25.777  25.763  1.00  0.00    -0.034 A 
ATOM     17  C   UNL A   1      32.095  24.652  26.130  1.00  0.00     0.004 A 
ATOM     18  C   UNL A   1      34.235  25.581  25.540  1.00  0.00     0.025 A 
ATOM     19  C   UNL A   1      32.691  23.404  26.340  1.00  0.00     0.002 A 
ATOM     20  C   UNL A   1      34.825  24.328  25.742  1.00  0.00     0.041 A 
ATOM     21  C   UNL A   1      34.062  23.243  26.158  1.00  0.00     0.020 A 
ATOM     22  Cl  UNL A   1      36.521  24.132  25.507  1.00  0.00    -0.084 Cl
ENDBRANCH   6  16
ENDBRANCH   3   6
ENDBRANCH   1   2
BRANCH   1  23
ATOM     23  C   UNL A   1      33.502  30.881  27.156  1.00  0.00     0.042 C 
BRANCH  23  24
ATOM     24  C   UNL A   1      34.551  31.821  27.684  1.00  0.00     0.118 C 
BRANCH  24  25
ATOM     25  N   UNL A   1      34.540  32.078  29.117  1.00  0.00    -0.352 N 
ATOM     26  C   UNL A   1      35.430  31.647  30.108  1.00  0.00     0.251 C 
ATOM     27  H   UNL A   1      33.793  32.636  29.437  1.00  0.00     0.163 HD
ATOM     28  O   UNL A   1      35.201  31.880  31.269  1.00  0.00    -0.269 OA
BRANCH  26  29
ATOM     29  C   UNL A   1      36.654  30.876  29.733  1.00  0.00     0.039 A 
ATOM     30  C   UNL A   1      36.623  29.687  28.994  1.00  0.00     0.014 A 
ATOM     31  C   UNL A   1      37.887  31.339  30.116  1.00  0.00     0.014 A 
ATOM     32  C   UNL A   1      37.830  28.994  28.795  1.00  0.00     0.010 A 
ATOM     33  C   UNL A   1      38.953  30.986  29.367  1.00  0.00     0.010 A 
ATOM     34  C   UNL A   1      39.017  29.652  29.097  1.00  0.00    -0.014 A 
BRANCH  34  35
ATOM     35  C   UNL A   1      40.347  29.073  29.192  1.00  0.00     0.031 A 
ATOM     36  C   UNL A   1      40.825  28.807  30.560  1.00  0.00     0.074 A 
ATOM     37  C   UNL A   1      40.951  28.473  28.136  1.00  0.00     0.049 A 
ATOM     38  N   UNL A   1      41.810  29.364  31.178  1.00  0.00    -0.248 NA
ATOM     39  C   UNL A   1      40.043  27.875  31.383  1.00  0.00     0.031 C 
ATOM     40  C   UNL A   1      40.437  28.234  26.778  1.00  0.00     0.029 A 
ATOM     41  N   UNL A   1      42.158  27.842  28.104  1.00  0.00    -0.354 N 
ATOM     42  C   UNL A   1      41.866  28.754  32.425  1.00  0.00     0.074 A 
ATOM     43  C   UNL A   1      40.652  27.994  32.561  1.00  0.00     0.031 C 
ATOM     44  C   UNL A   1      41.243  27.360  26.128  1.00  0.00     0.029 A 
ATOM     45  C   UNL A   1      42.405  27.100  26.956  1.00  0.00     0.049 A 
ATOM     46  H   UNL A   1      42.808  27.907  28.840  1.00  0.00     0.167 HD
ATOM     47  C   UNL A   1      43.007  28.754  33.167  1.00  0.00     0.037 A 
ATOM     48  C   UNL A   1      43.481  26.308  26.728  1.00  0.00     0.037 A 
ATOM     49  C   UNL A   1      43.972  29.685  32.638  1.00  0.00     0.049 A 
ATOM     50  C   UNL A   1      44.534  26.708  27.696  1.00  0.00     0.074 A 
ATOM     51  C   UNL A   1      43.991  31.054  32.450  1.00  0.00     0.029 A 
ATOM     52  N   UNL A   1      44.973  29.188  31.837  1.00  0.00    -0.354 N 
ATOM     53  N   UNL A   1      45.149  27.859  27.675  1.00  0.00    -0.248 NA
ATOM     54  C   UNL A   1      44.589  25.998  28.966  1.00  0.00     0.031 C 
ATOM     55  C   UNL A   1      44.660  31.248  31.204  1.00  0.00     0.029 A 
ATOM     56  C   UNL A   1      45.049  29.995  30.728  1.00  0.00     0.049 A 
ATOM     57  H   UNL A   1      45.532  28.400  32.025  1.00  0.00     0.167 HD
ATOM     58  C   UNL A   1      45.304  28.206  29.010  1.00  0.00     0.074 A 
ATOM     59  C   UNL A   1      45.034  26.979  29.754  1.00  0.00     0.031 C 
ATOM     60  C   UNL A   1      45.356  29.515  29.398  1.00  0.00     0.037 A 
BRANCH  47  61
ATOM     61  C   UNL A   1      43.368  27.711  34.190  1.00  0.00     0.064 A 
ATOM     62  C   UNL A   1      43.710  26.415  33.758  1.00  0.00     0.173 A 
ATOM     63  C   UNL A   1      43.157  27.852  35.579  1.00  0.00     0.173 A 
ATOM     64  F   UNL A   1      43.910  26.161  32.455  1.00  0.00    -0.203 F 
ATOM     65  C   UNL A   1      43.781  25.336  34.640  1.00  0.00     0.198 A 
ATOM     66  C   UNL A   1      43.292  26.786  36.467  1.00  0.00     0.198 A 
ATOM     67  F   UNL A   1      42.709  28.990  36.121  1.00  0.00    -0.203 F 
ATOM     68  F   UNL A   1      43.996  24.102  34.166  1.00  0.00    -0.200 F 
ATOM     69  C   UNL A   1      43.573  25.522  35.994  1.00  0.00     0.200 A 
ATOM     70  F   UNL A   1      43.072  26.984  37.774  1.00  0.00    -0.200 F 
ATOM     71  F   UNL A   1      43.595  24.480  36.837  1.00  0.00    -0.200 F 
ENDBRANCH  47  61
BRANCH  48  72
ATOM     72  C   UNL A   1      43.562  25.067  25.924  1.00  0.00     0.064 A 
ATOM     73  C   UNL A   1      44.653  24.810  25.078  1.00  0.00     0.173 A 
ATOM     74  C   UNL A   1      42.697  23.985  26.175  1.00  0.00     0.173 A 
ATOM     75  F   UNL A   1      45.548  25.776  24.822  1.00  0.00    -0.203 F 
ATOM     76  C   UNL A   1      44.877  23.540  24.534  1.00  0.00     0.198 A 
ATOM     77  C   UNL A   1      42.917  22.720  25.628  1.00  0.00     0.198 A 
ATOM     78  F   UNL A   1      41.673  24.112  27.032  1.00  0.00    -0.203 F 
ATOM     79  F   UNL A   1      45.961  23.318  23.777  1.00  0.00    -0.200 F 
ATOM     80  C   UNL A   1      44.014  22.493  24.817  1.00  0.00     0.200 A 
ATOM     81  F   UNL A   1      42.096  21.706  25.940  1.00  0.00    -0.200 F 
ATOM     82  F   UNL A   1      44.262  21.264  24.346  1.00  0.00    -0.200 F 
ENDBRANCH  48  72
BRANCH  60  83
ATOM     83  C   UNL A   1      45.488  30.555  28.315  1.00  0.00     0.064 A 
ATOM     84  C   UNL A   1      44.392  31.184  27.697  1.00  0.00     0.173 A 
ATOM     85  C   UNL A   1      46.763  31.037  27.994  1.00  0.00     0.173 A 
ATOM     86  F   UNL A   1      43.138  30.862  28.025  1.00  0.00    -0.203 F 
ATOM     87  C   UNL A   1      44.567  32.208  26.767  1.00  0.00     0.198 A 
ATOM     88  C   UNL A   1      46.935  32.086  27.093  1.00  0.00     0.198 A 
ATOM     89  F   UNL A   1      47.847  30.521  28.595  1.00  0.00    -0.203 F 
ATOM     90  F   UNL A   1      43.501  32.778  26.187  1.00  0.00    -0.200 F 
ATOM     91  C   UNL A   1      45.839  32.664  26.472  1.00  0.00     0.200 A 
ATOM     92  F   UNL A   1      48.165  32.559  26.848  1.00  0.00    -0.200 F 
ATOM     93  F   UNL A   1      46.008  33.677  25.611  1.00  0.00    -0.200 F 
ENDBRANCH  60  83
ENDBRANCH  34  35
ENDBRANCH  26  29
ENDBRANCH  24  25
ENDBRANCH  23  24
ENDBRANCH   1  23
TORSDOF 14
ENDMDL
