MODEL 1
REMARK VINA RESULT:     -13.2      0.000      0.000
REMARK SMILES COc1ccc2c(c1)[C@H]([NH2+][C@H]1CCC[C@H](C(=O)NCCCNC(=O)c3ccc(-c4c5nc(c(-c6c(F)c(F)c(F)c(F)c6F)c6ccc([nH]6)c(-c6c(F)c(F)c(F)c(F)c6F)c6nc(c(-c7c(F)c(F)c(F)c(F)c7F)c7ccc4[nH]7)C=C6)C=C5)cc3)C1)CC2
REMARK SMILES IDX 19 1 18 2 16 3 17 4 15 6 11 7 12 8 88 9 13 10 14 11 10 12
REMARK SMILES IDX 9 15 3 16 4 17 8 18 5 19 7 20 6 21 90 22 89 23 2 24 1 25
REMARK SMILES IDX 20 26 21 27 22 28 23 29 24 31 25 32 26 33 87 34 27 35 86 36
REMARK SMILES IDX 28 37 29 38 30 39 80 40 31 41 85 42 79 43 81 44 32 45 84 46
REMARK SMILES IDX 78 47 77 48 33 50 65 51 45 52 64 53 46 54 49 55 63 56 82 57
REMARK SMILES IDX 47 58 48 59 62 61 83 62 50 63 34 64 35 65 43 66 36 67 37 68
REMARK SMILES IDX 41 69 44 70 38 71 39 72 42 73 40 74 66 75 67 76 75 77 68 78
REMARK SMILES IDX 69 79 73 80 76 81 70 82 71 83 74 84 72 85 51 86 52 87 60 88
REMARK SMILES IDX 53 89 54 90 58 91 61 92 55 93 56 94 59 95 57 96
REMARK H PARENT 18 5 10 13 10 14 22 30 81 49 49 60
REMARK Flexibility Score: inf
ROOT
ATOM      1  C   UNL A   1      32.063  30.653  26.152  1.00  0.00     0.117 C 
ENDROOT
BRANCH   1   2
ATOM      2  N   UNL A   1      31.951  29.533  27.057  1.00  0.00    -0.356 N 
ATOM      3  C   UNL A   1      31.742  28.222  26.808  1.00  0.00     0.223 C 
ATOM      4  O   UNL A   1      31.338  27.531  27.747  1.00  0.00    -0.275 OA
ATOM      5  H   UNL A   1      32.043  29.762  28.009  1.00  0.00     0.163 HD
BRANCH   3   6
ATOM      6  C   UNL A   1      31.976  27.615  25.438  1.00  0.00     0.084 C 
ATOM      7  C   UNL A   1      33.670  26.788  23.769  1.00  0.00     0.183 C 
ATOM      8  C   UNL A   1      32.641  27.086  22.639  1.00  0.00     0.065 C 
ATOM      9  C   UNL A   1      33.368  27.835  24.834  1.00  0.00     0.078 C 
ATOM     10  C   UNL A   1      31.169  27.133  23.109  1.00  0.00     0.007 C 
ATOM     11  C   UNL A   1      30.927  27.953  24.389  1.00  0.00     0.014 C 
BRANCH   7  12
ATOM     12  N   UNL A   1      33.547  25.398  24.188  1.00  0.00    -0.338 N 
ATOM     13  H   UNL A   1      33.994  25.335  25.103  1.00  0.00     0.347 HD
ATOM     14  H   UNL A   1      32.542  25.240  24.115  1.00  0.00     0.347 HD
BRANCH  12  15
ATOM     15  C   UNL A   1      34.093  24.290  23.388  1.00  0.00     0.214 C 
ATOM     16  C   UNL A   1      36.829  22.356  25.330  1.00  0.00     0.119 A 
ATOM     17  C   UNL A   1      36.103  21.192  25.579  1.00  0.00     0.047 A 
ATOM     18  C   UNL A   1      36.267  23.349  24.514  1.00  0.00     0.056 A 
ATOM     19  C   UNL A   1      34.853  21.006  24.977  1.00  0.00     0.008 A 
ATOM     20  C   UNL A   1      34.948  23.262  24.091  1.00  0.00     0.016 A 
ATOM     21  C   UNL A   1      34.304  22.037  24.225  1.00  0.00    -0.038 A 
ATOM     22  C   UNL A   1      33.105  21.966  23.344  1.00  0.00     0.042 C 
ATOM     23  C   UNL A   1      32.830  23.438  23.033  1.00  0.00     0.075 C 
BRANCH  16  24
ATOM     24  O   UNL A   1      38.061  22.686  25.823  1.00  0.00    -0.497 OA
ATOM     25  C   UNL A   1      39.062  21.686  25.940  1.00  0.00     0.278 C 
ENDBRANCH  16  24
ENDBRANCH  12  15
ENDBRANCH   7  12
ENDBRANCH   3   6
ENDBRANCH   1   2
BRANCH   1  26
ATOM     26  C   UNL A   1      31.626  31.930  26.839  1.00  0.00     0.042 C 
BRANCH  26  27
ATOM     27  C   UNL A   1      32.794  32.671  27.461  1.00  0.00     0.118 C 
BRANCH  27  28
ATOM     28  N   UNL A   1      32.511  34.092  27.626  1.00  0.00    -0.352 N 
ATOM     29  C   UNL A   1      33.016  34.970  28.554  1.00  0.00     0.251 C 
ATOM     30  H   UNL A   1      31.870  34.475  26.985  1.00  0.00     0.163 HD
ATOM     31  O   UNL A   1      32.497  36.070  28.724  1.00  0.00    -0.269 OA
BRANCH  29  32
ATOM     32  C   UNL A   1      34.177  34.558  29.364  1.00  0.00     0.039 A 
ATOM     33  C   UNL A   1      33.974  34.032  30.640  1.00  0.00     0.014 A 
ATOM     34  C   UNL A   1      35.463  34.638  28.827  1.00  0.00     0.014 A 
ATOM     35  C   UNL A   1      35.057  33.501  31.340  1.00  0.00     0.010 A 
ATOM     36  C   UNL A   1      36.512  34.002  29.469  1.00  0.00     0.010 A 
ATOM     37  C   UNL A   1      36.324  33.433  30.737  1.00  0.00    -0.014 A 
BRANCH  37  38
ATOM     38  C   UNL A   1      37.478  32.787  31.408  1.00  0.00     0.031 A 
ATOM     39  C   UNL A   1      38.172  31.631  30.739  1.00  0.00     0.074 A 
ATOM     40  C   UNL A   1      37.844  33.181  32.642  1.00  0.00     0.049 A 
ATOM     41  N   UNL A   1      39.117  30.853  31.200  1.00  0.00    -0.248 NA
ATOM     42  C   UNL A   1      37.718  31.283  29.382  1.00  0.00     0.031 C 
ATOM     43  C   UNL A   1      37.219  34.260  33.409  1.00  0.00     0.029 A 
ATOM     44  N   UNL A   1      38.825  32.707  33.477  1.00  0.00    -0.354 N 
ATOM     45  C   UNL A   1      39.359  29.924  30.198  1.00  0.00     0.074 A 
ATOM     46  C   UNL A   1      38.416  30.186  29.135  1.00  0.00     0.031 C 
ATOM     47  C   UNL A   1      37.849  34.386  34.588  1.00  0.00     0.029 A 
ATOM     48  C   UNL A   1      38.887  33.363  34.683  1.00  0.00     0.049 A 
ATOM     49  H   UNL A   1      39.428  31.968  33.235  1.00  0.00     0.167 HD
ATOM     50  C   UNL A   1      40.307  28.958  30.155  1.00  0.00     0.037 A 
ATOM     51  C   UNL A   1      39.682  33.151  35.749  1.00  0.00     0.037 A 
ATOM     52  C   UNL A   1      41.255  28.716  31.207  1.00  0.00     0.049 A 
ATOM     53  C   UNL A   1      40.695  32.039  35.693  1.00  0.00     0.074 A 
ATOM     54  C   UNL A   1      42.286  27.794  31.243  1.00  0.00     0.029 A 
ATOM     55  N   UNL A   1      41.288  29.403  32.413  1.00  0.00    -0.354 N 
ATOM     56  N   UNL A   1      40.961  31.208  34.713  1.00  0.00    -0.248 NA
ATOM     57  C   UNL A   1      41.520  31.832  36.891  1.00  0.00     0.031 C 
ATOM     58  C   UNL A   1      42.908  27.887  32.491  1.00  0.00     0.029 A 
ATOM     59  C   UNL A   1      42.304  28.905  33.211  1.00  0.00     0.049 A 
ATOM     60  H   UNL A   1      40.679  30.135  32.662  1.00  0.00     0.167 HD
ATOM     61  C   UNL A   1      42.000  30.405  35.164  1.00  0.00     0.074 A 
ATOM     62  C   UNL A   1      42.328  30.858  36.499  1.00  0.00     0.031 C 
ATOM     63  C   UNL A   1      42.625  29.382  34.531  1.00  0.00     0.037 A 
BRANCH  50  64
ATOM     64  C   UNL A   1      40.370  28.101  28.924  1.00  0.00     0.064 A 
ATOM     65  C   UNL A   1      39.666  26.890  28.836  1.00  0.00     0.173 A 
ATOM     66  C   UNL A   1      41.110  28.511  27.805  1.00  0.00     0.173 A 
ATOM     67  F   UNL A   1      38.953  26.446  29.882  1.00  0.00    -0.203 F 
ATOM     68  C   UNL A   1      39.723  26.108  27.685  1.00  0.00     0.198 A 
ATOM     69  C   UNL A   1      41.138  27.743  26.643  1.00  0.00     0.198 A 
ATOM     70  F   UNL A   1      41.800  29.662  27.833  1.00  0.00    -0.203 F 
ATOM     71  F   UNL A   1      39.083  24.932  27.644  1.00  0.00    -0.200 F 
ATOM     72  C   UNL A   1      40.452  26.540  26.588  1.00  0.00     0.200 A 
ATOM     73  F   UNL A   1      41.832  28.168  25.578  1.00  0.00    -0.200 F 
ATOM     74  F   UNL A   1      40.497  25.792  25.476  1.00  0.00    -0.200 F 
ENDBRANCH  50  64
BRANCH  51  75
ATOM     75  C   UNL A   1      39.565  34.010  36.958  1.00  0.00     0.064 A 
ATOM     76  C   UNL A   1      38.789  33.607  38.053  1.00  0.00     0.173 A 
ATOM     77  C   UNL A   1      40.197  35.260  37.035  1.00  0.00     0.173 A 
ATOM     78  F   UNL A   1      38.148  32.429  38.022  1.00  0.00    -0.203 F 
ATOM     79  C   UNL A   1      38.626  34.430  39.165  1.00  0.00     0.198 A 
ATOM     80  C   UNL A   1      40.060  36.070  38.161  1.00  0.00     0.198 A 
ATOM     81  F   UNL A   1      40.955  35.694  36.017  1.00  0.00    -0.203 F 
ATOM     82  F   UNL A   1      37.831  34.043  40.173  1.00  0.00    -0.200 F 
ATOM     83  C   UNL A   1      39.265  35.660  39.220  1.00  0.00     0.200 A 
ATOM     84  F   UNL A   1      40.693  37.249  38.216  1.00  0.00    -0.200 F 
ATOM     85  F   UNL A   1      39.106  36.452  40.288  1.00  0.00    -0.200 F 
ENDBRANCH  51  75
BRANCH  63  86
ATOM     86  C   UNL A   1      43.751  28.706  35.256  1.00  0.00     0.064 A 
ATOM     87  C   UNL A   1      45.077  29.143  35.130  1.00  0.00     0.173 A 
ATOM     88  C   UNL A   1      43.490  27.644  36.138  1.00  0.00     0.173 A 
ATOM     89  F   UNL A   1      45.381  30.142  34.289  1.00  0.00    -0.203 F 
ATOM     90  C   UNL A   1      46.103  28.530  35.844  1.00  0.00     0.198 A 
ATOM     91  C   UNL A   1      44.513  27.056  36.875  1.00  0.00     0.198 A 
ATOM     92  F   UNL A   1      42.236  27.194  36.301  1.00  0.00    -0.203 F 
ATOM     93  F   UNL A   1      47.369  28.936  35.675  1.00  0.00    -0.200 F 
ATOM     94  C   UNL A   1      45.819  27.496  36.724  1.00  0.00     0.200 A 
ATOM     95  F   UNL A   1      44.233  26.069  37.737  1.00  0.00    -0.200 F 
ATOM     96  F   UNL A   1      46.806  26.918  37.423  1.00  0.00    -0.200 F 
ENDBRANCH  63  86
ENDBRANCH  37  38
ENDBRANCH  29  32
ENDBRANCH  27  28
ENDBRANCH  26  27
ENDBRANCH   1  26
TORSDOF 13
ENDMDL
MODEL 2
REMARK VINA RESULT:     -13.2      0.394      1.645
REMARK SMILES COc1ccc2c(c1)[C@H]([NH2+][C@H]1CCC[C@H](C(=O)NCCCNC(=O)c3ccc(-c4c5nc(c(-c6c(F)c(F)c(F)c(F)c6F)c6ccc([nH]6)c(-c6c(F)c(F)c(F)c(F)c6F)c6nc(c(-c7c(F)c(F)c(F)c(F)c7F)c7ccc4[nH]7)C=C6)C=C5)cc3)C1)CC2
REMARK SMILES IDX 19 1 18 2 16 3 17 4 15 6 11 7 12 8 88 9 13 10 14 11 10 12
REMARK SMILES IDX 9 15 3 16 4 17 8 18 5 19 7 20 6 21 90 22 89 23 2 24 1 25
REMARK SMILES IDX 20 26 21 27 22 28 23 29 24 31 25 32 26 33 87 34 27 35 86 36
REMARK SMILES IDX 28 37 29 38 30 39 80 40 31 41 85 42 79 43 81 44 32 45 84 46
REMARK SMILES IDX 78 47 77 48 33 50 65 51 45 52 64 53 46 54 49 55 63 56 82 57
REMARK SMILES IDX 47 58 48 59 62 61 83 62 50 63 34 64 35 65 43 66 36 67 37 68
REMARK SMILES IDX 41 69 44 70 38 71 39 72 42 73 40 74 66 75 67 76 75 77 68 78
REMARK SMILES IDX 69 79 73 80 76 81 70 82 71 83 74 84 72 85 51 86 52 87 60 88
REMARK SMILES IDX 53 89 54 90 58 91 61 92 55 93 56 94 59 95 57 96
REMARK H PARENT 18 5 10 13 10 14 22 30 81 49 49 60
REMARK Flexibility Score: inf
ROOT
ATOM      1  C   UNL A   1      32.086  30.574  26.187  1.00  0.00     0.117 C 
ENDROOT
BRANCH   1   2
ATOM      2  N   UNL A   1      31.860  29.448  27.062  1.00  0.00    -0.356 N 
ATOM      3  C   UNL A   1      31.613  28.151  26.776  1.00  0.00     0.223 C 
ATOM      4  O   UNL A   1      31.112  27.465  27.671  1.00  0.00    -0.275 OA
ATOM      5  H   UNL A   1      31.892  29.658  28.023  1.00  0.00     0.163 HD
BRANCH   3   6
ATOM      6  C   UNL A   1      31.920  27.554  25.417  1.00  0.00     0.084 C 
ATOM      7  C   UNL A   1      33.665  26.529  23.918  1.00  0.00     0.183 C 
ATOM      8  C   UNL A   1      32.834  27.009  22.692  1.00  0.00     0.065 C 
ATOM      9  C   UNL A   1      33.392  27.579  24.987  1.00  0.00     0.078 C 
ATOM     10  C   UNL A   1      31.339  27.262  22.990  1.00  0.00     0.007 C 
ATOM     11  C   UNL A   1      31.066  28.074  24.270  1.00  0.00     0.014 C 
BRANCH   7  12
ATOM     12  N   UNL A   1      33.292  25.162  24.258  1.00  0.00    -0.338 N 
ATOM     13  H   UNL A   1      33.816  24.924  25.100  1.00  0.00     0.347 HD
ATOM     14  H   UNL A   1      32.275  25.223  24.307  1.00  0.00     0.347 HD
BRANCH  12  15
ATOM     15  C   UNL A   1      33.489  24.043  23.322  1.00  0.00     0.214 C 
ATOM     16  C   UNL A   1      36.016  21.460  24.715  1.00  0.00     0.119 A 
ATOM     17  C   UNL A   1      35.109  20.440  25.001  1.00  0.00     0.047 A 
ATOM     18  C   UNL A   1      35.560  22.610  24.052  1.00  0.00     0.056 A 
ATOM     19  C   UNL A   1      33.777  20.550  24.584  1.00  0.00     0.008 A 
ATOM     20  C   UNL A   1      34.206  22.814  23.827  1.00  0.00     0.016 A 
ATOM     21  C   UNL A   1      33.351  21.728  23.985  1.00  0.00    -0.038 A 
ATOM     22  C   UNL A   1      32.055  21.965  23.291  1.00  0.00     0.042 C 
ATOM     23  C   UNL A   1      32.043  23.484  23.111  1.00  0.00     0.075 C 
BRANCH  16  24
ATOM     24  O   UNL A   1      37.344  21.504  25.035  1.00  0.00    -0.497 OA
ATOM     25  C   UNL A   1      37.885  22.677  25.625  1.00  0.00     0.278 C 
ENDBRANCH  16  24
ENDBRANCH  12  15
ENDBRANCH   7  12
ENDBRANCH   3   6
ENDBRANCH   1   2
BRANCH   1  26
ATOM     26  C   UNL A   1      31.661  31.860  26.865  1.00  0.00     0.042 C 
BRANCH  26  27
ATOM     27  C   UNL A   1      32.839  32.611  27.455  1.00  0.00     0.118 C 
BRANCH  27  28
ATOM     28  N   UNL A   1      32.548  34.028  27.633  1.00  0.00    -0.352 N 
ATOM     29  C   UNL A   1      33.039  34.899  28.575  1.00  0.00     0.251 C 
ATOM     30  H   UNL A   1      31.912  34.416  26.989  1.00  0.00     0.163 HD
ATOM     31  O   UNL A   1      32.512  35.994  28.752  1.00  0.00    -0.269 OA
BRANCH  29  32
ATOM     32  C   UNL A   1      34.192  34.483  29.394  1.00  0.00     0.039 A 
ATOM     33  C   UNL A   1      33.978  33.946  30.663  1.00  0.00     0.014 A 
ATOM     34  C   UNL A   1      35.484  34.572  28.870  1.00  0.00     0.014 A 
ATOM     35  C   UNL A   1      35.056  33.412  31.370  1.00  0.00     0.010 A 
ATOM     36  C   UNL A   1      36.528  33.933  29.518  1.00  0.00     0.010 A 
ATOM     37  C   UNL A   1      36.329  33.352  30.778  1.00  0.00    -0.014 A 
BRANCH  37  38
ATOM     38  C   UNL A   1      37.478  32.704  31.455  1.00  0.00     0.031 A 
ATOM     39  C   UNL A   1      38.165  31.539  30.796  1.00  0.00     0.074 A 
ATOM     40  C   UNL A   1      37.846  33.106  32.687  1.00  0.00     0.049 A 
ATOM     41  N   UNL A   1      39.104  30.759  31.264  1.00  0.00    -0.248 NA
ATOM     42  C   UNL A   1      37.711  31.183  29.441  1.00  0.00     0.031 C 
ATOM     43  C   UNL A   1      37.227  34.194  33.445  1.00  0.00     0.029 A 
ATOM     44  N   UNL A   1      38.822  32.632  33.526  1.00  0.00    -0.354 N 
ATOM     45  C   UNL A   1      39.342  29.820  30.270  1.00  0.00     0.074 A 
ATOM     46  C   UNL A   1      38.402  30.080  29.203  1.00  0.00     0.031 C 
ATOM     47  C   UNL A   1      37.857  34.325  34.623  1.00  0.00     0.029 A 
ATOM     48  C   UNL A   1      38.888  33.297  34.727  1.00  0.00     0.049 A 
ATOM     49  H   UNL A   1      39.421  31.887  33.291  1.00  0.00     0.167 HD
ATOM     50  C   UNL A   1      40.283  28.848  30.235  1.00  0.00     0.037 A 
ATOM     51  C   UNL A   1      39.681  33.087  35.796  1.00  0.00     0.037 A 
ATOM     52  C   UNL A   1      41.229  28.608  31.290  1.00  0.00     0.049 A 
ATOM     53  C   UNL A   1      40.687  31.968  35.749  1.00  0.00     0.074 A 
ATOM     54  C   UNL A   1      42.254  27.679  31.334  1.00  0.00     0.029 A 
ATOM     55  N   UNL A   1      41.265  29.304  32.490  1.00  0.00    -0.354 N 
ATOM     56  N   UNL A   1      40.948  31.129  34.776  1.00  0.00    -0.248 NA
ATOM     57  C   UNL A   1      41.509  31.766  36.950  1.00  0.00     0.031 C 
ATOM     58  C   UNL A   1      42.876  27.778  32.582  1.00  0.00     0.029 A 
ATOM     59  C   UNL A   1      42.277  28.806  33.293  1.00  0.00     0.049 A 
ATOM     60  H   UNL A   1      40.660  30.042  32.733  1.00  0.00     0.167 HD
ATOM     61  C   UNL A   1      41.981  30.322  35.234  1.00  0.00     0.074 A 
ATOM     62  C   UNL A   1      42.311  30.784  36.566  1.00  0.00     0.031 C 
ATOM     63  C   UNL A   1      42.600  29.291  34.610  1.00  0.00     0.037 A 
BRANCH  50  64
ATOM     64  C   UNL A   1      40.342  27.981  29.010  1.00  0.00     0.064 A 
ATOM     65  C   UNL A   1      41.112  28.340  27.893  1.00  0.00     0.173 A 
ATOM     66  C   UNL A   1      39.652  26.760  28.965  1.00  0.00     0.173 A 
ATOM     67  F   UNL A   1      41.780  29.504  27.879  1.00  0.00    -0.203 F 
ATOM     68  C   UNL A   1      41.167  27.524  26.767  1.00  0.00     0.198 A 
ATOM     69  C   UNL A   1      39.738  25.930  27.850  1.00  0.00     0.198 A 
ATOM     70  F   UNL A   1      38.903  26.366  30.007  1.00  0.00    -0.203 F 
ATOM     71  F   UNL A   1      41.869  27.913  25.694  1.00  0.00    -0.200 F 
ATOM     72  C   UNL A   1      40.487  26.316  26.750  1.00  0.00     0.200 A 
ATOM     73  F   UNL A   1      39.090  24.756  27.841  1.00  0.00    -0.200 F 
ATOM     74  F   UNL A   1      40.551  25.525  25.669  1.00  0.00    -0.200 F 
ENDBRANCH  50  64
BRANCH  51  75
ATOM     75  C   UNL A   1      39.568  33.957  36.998  1.00  0.00     0.064 A 
ATOM     76  C   UNL A   1      38.796  33.563  38.100  1.00  0.00     0.173 A 
ATOM     77  C   UNL A   1      40.200  35.208  37.062  1.00  0.00     0.173 A 
ATOM     78  F   UNL A   1      38.155  32.385  38.080  1.00  0.00    -0.203 F 
ATOM     79  C   UNL A   1      38.637  34.396  39.205  1.00  0.00     0.198 A 
ATOM     80  C   UNL A   1      40.068  36.027  38.182  1.00  0.00     0.198 A 
ATOM     81  F   UNL A   1      40.955  35.633  36.038  1.00  0.00    -0.203 F 
ATOM     82  F   UNL A   1      37.846  34.017  40.219  1.00  0.00    -0.200 F 
ATOM     83  C   UNL A   1      39.276  35.626  39.247  1.00  0.00     0.200 A 
ATOM     84  F   UNL A   1      40.701  37.207  38.225  1.00  0.00    -0.200 F 
ATOM     85  F   UNL A   1      39.121  36.427  40.309  1.00  0.00    -0.200 F 
ENDBRANCH  51  75
BRANCH  63  86
ATOM     86  C   UNL A   1      43.721  28.612  35.342  1.00  0.00     0.064 A 
ATOM     87  C   UNL A   1      43.495  27.509  36.176  1.00  0.00     0.173 A 
ATOM     88  C   UNL A   1      45.047  29.036  35.155  1.00  0.00     0.173 A 
ATOM     89  F   UNL A   1      42.245  27.076  36.399  1.00  0.00    -0.203 F 
ATOM     90  C   UNL A   1      44.553  26.865  36.812  1.00  0.00     0.198 A 
ATOM     91  C   UNL A   1      46.104  28.369  35.766  1.00  0.00     0.198 A 
ATOM     92  F   UNL A   1      45.317  30.082  34.360  1.00  0.00    -0.203 F 
ATOM     93  F   UNL A   1      44.310  25.839  37.639  1.00  0.00    -0.200 F 
ATOM     94  C   UNL A   1      45.857  27.288  36.598  1.00  0.00     0.200 A 
ATOM     95  F   UNL A   1      47.364  28.769  35.544  1.00  0.00    -0.200 F 
ATOM     96  F   UNL A   1      46.875  26.657  37.199  1.00  0.00    -0.200 F 
ENDBRANCH  63  86
ENDBRANCH  37  38
ENDBRANCH  29  32
ENDBRANCH  27  28
ENDBRANCH  26  27
ENDBRANCH   1  26
TORSDOF 13
ENDMDL
MODEL 3
REMARK VINA RESULT:     -13.2      0.768      1.503
REMARK SMILES COc1ccc2c(c1)[C@H]([NH2+][C@H]1CCC[C@H](C(=O)NCCCNC(=O)c3ccc(-c4c5nc(c(-c6c(F)c(F)c(F)c(F)c6F)c6ccc([nH]6)c(-c6c(F)c(F)c(F)c(F)c6F)c6nc(c(-c7c(F)c(F)c(F)c(F)c7F)c7ccc4[nH]7)C=C6)C=C5)cc3)C1)CC2
REMARK SMILES IDX 19 1 18 2 16 3 17 4 15 6 11 7 12 8 88 9 13 10 14 11 10 12
REMARK SMILES IDX 9 15 3 16 4 17 8 18 5 19 7 20 6 21 90 22 89 23 2 24 1 25
REMARK SMILES IDX 20 26 21 27 22 28 23 29 24 31 25 32 26 33 87 34 27 35 86 36
REMARK SMILES IDX 28 37 29 38 30 39 80 40 31 41 85 42 79 43 81 44 32 45 84 46
REMARK SMILES IDX 78 47 77 48 33 50 65 51 45 52 64 53 46 54 49 55 63 56 82 57
REMARK SMILES IDX 47 58 48 59 62 61 83 62 50 63 34 64 35 65 43 66 36 67 37 68
REMARK SMILES IDX 41 69 44 70 38 71 39 72 42 73 40 74 66 75 67 76 75 77 68 78
REMARK SMILES IDX 69 79 73 80 76 81 70 82 71 83 74 84 72 85 51 86 52 87 60 88
REMARK SMILES IDX 53 89 54 90 58 91 61 92 55 93 56 94 59 95 57 96
REMARK H PARENT 18 5 10 13 10 14 22 30 81 49 49 60
REMARK Flexibility Score: inf
ROOT
ATOM      1  C   UNL A   1      32.085  30.620  26.137  1.00  0.00     0.117 C 
ENDROOT
BRANCH   1   2
ATOM      2  N   UNL A   1      31.229  30.361  25.004  1.00  0.00    -0.356 N 
ATOM      3  C   UNL A   1      31.064  29.241  24.268  1.00  0.00     0.223 C 
ATOM      4  O   UNL A   1      30.549  29.373  23.154  1.00  0.00    -0.275 OA
ATOM      5  H   UNL A   1      30.676  31.124  24.722  1.00  0.00     0.163 HD
BRANCH   3   6
ATOM      6  C   UNL A   1      31.497  27.877  24.769  1.00  0.00     0.084 C 
ATOM      7  C   UNL A   1      31.706  25.420  24.258  1.00  0.00     0.183 C 
ATOM      8  C   UNL A   1      31.649  25.140  25.789  1.00  0.00     0.065 C 
ATOM      9  C   UNL A   1      30.853  26.670  24.076  1.00  0.00     0.078 C 
ATOM     10  C   UNL A   1      32.053  26.339  26.675  1.00  0.00     0.007 C 
ATOM     11  C   UNL A   1      31.412  27.681  26.276  1.00  0.00     0.014 C 
BRANCH   7  12
ATOM     12  N   UNL A   1      33.095  25.529  23.832  1.00  0.00    -0.338 N 
ATOM     13  H   UNL A   1      33.150  26.364  23.249  1.00  0.00     0.347 HD
ATOM     14  H   UNL A   1      33.594  25.511  24.721  1.00  0.00     0.347 HD
BRANCH  12  15
ATOM     15  C   UNL A   1      33.767  24.457  23.079  1.00  0.00     0.214 C 
ATOM     16  C   UNL A   1      36.308  22.550  25.294  1.00  0.00     0.119 A 
ATOM     17  C   UNL A   1      35.592  21.361  25.427  1.00  0.00     0.047 A 
ATOM     18  C   UNL A   1      35.817  23.549  24.438  1.00  0.00     0.056 A 
ATOM     19  C   UNL A   1      34.430  21.156  24.675  1.00  0.00     0.008 A 
ATOM     20  C   UNL A   1      34.562  23.435  23.857  1.00  0.00     0.016 A 
ATOM     21  C   UNL A   1      33.943  22.191  23.885  1.00  0.00    -0.038 A 
ATOM     22  C   UNL A   1      32.862  22.109  22.865  1.00  0.00     0.042 C 
ATOM     23  C   UNL A   1      32.581  23.581  22.555  1.00  0.00     0.075 C 
BRANCH  16  24
ATOM     24  O   UNL A   1      37.460  22.902  25.939  1.00  0.00    -0.497 OA
ATOM     25  C   UNL A   1      38.581  22.030  25.900  1.00  0.00     0.278 C 
ENDBRANCH  16  24
ENDBRANCH  12  15
ENDBRANCH   7  12
ENDBRANCH   3   6
ENDBRANCH   1   2
BRANCH   1  26
ATOM     26  C   UNL A   1      31.652  31.886  26.846  1.00  0.00     0.042 C 
BRANCH  26  27
ATOM     27  C   UNL A   1      32.828  32.643  27.432  1.00  0.00     0.118 C 
BRANCH  27  28
ATOM     28  N   UNL A   1      32.526  34.057  27.622  1.00  0.00    -0.352 N 
ATOM     29  C   UNL A   1      33.017  34.926  28.565  1.00  0.00     0.251 C 
ATOM     30  H   UNL A   1      31.880  34.442  26.986  1.00  0.00     0.163 HD
ATOM     31  O   UNL A   1      32.483  36.015  28.754  1.00  0.00    -0.269 OA
BRANCH  29  32
ATOM     32  C   UNL A   1      34.182  34.516  29.370  1.00  0.00     0.039 A 
ATOM     33  C   UNL A   1      33.984  33.952  30.631  1.00  0.00     0.014 A 
ATOM     34  C   UNL A   1      35.469  34.636  28.842  1.00  0.00     0.014 A 
ATOM     35  C   UNL A   1      35.075  33.424  31.322  1.00  0.00     0.010 A 
ATOM     36  C   UNL A   1      36.528  34.004  29.473  1.00  0.00     0.010 A 
ATOM     37  C   UNL A   1      36.345  33.397  30.724  1.00  0.00    -0.014 A 
BRANCH  37  38
ATOM     38  C   UNL A   1      37.509  32.757  31.383  1.00  0.00     0.031 A 
ATOM     39  C   UNL A   1      38.202  31.605  30.707  1.00  0.00     0.074 A 
ATOM     40  C   UNL A   1      37.885  33.153  32.614  1.00  0.00     0.049 A 
ATOM     41  N   UNL A   1      39.155  30.832  31.159  1.00  0.00    -0.248 NA
ATOM     42  C   UNL A   1      37.737  31.255  29.354  1.00  0.00     0.031 C 
ATOM     43  C   UNL A   1      37.262  34.228  33.387  1.00  0.00     0.029 A 
ATOM     44  N   UNL A   1      38.876  32.684  33.439  1.00  0.00    -0.354 N 
ATOM     45  C   UNL A   1      39.393  29.905  30.154  1.00  0.00     0.074 A 
ATOM     46  C   UNL A   1      38.439  30.162  29.100  1.00  0.00     0.031 C 
ATOM     47  C   UNL A   1      37.903  34.357  34.560  1.00  0.00     0.029 A 
ATOM     48  C   UNL A   1      38.947  33.340  34.644  1.00  0.00     0.049 A 
ATOM     49  H   UNL A   1      39.481  31.947  33.191  1.00  0.00     0.167 HD
ATOM     50  C   UNL A   1      40.345  28.943  30.101  1.00  0.00     0.037 A 
ATOM     51  C   UNL A   1      39.753  33.131  35.703  1.00  0.00     0.037 A 
ATOM     52  C   UNL A   1      41.305  28.706  31.144  1.00  0.00     0.049 A 
ATOM     53  C   UNL A   1      40.772  32.024  35.636  1.00  0.00     0.074 A 
ATOM     54  C   UNL A   1      42.340  27.789  31.170  1.00  0.00     0.029 A 
ATOM     55  N   UNL A   1      41.345  29.393  32.350  1.00  0.00    -0.354 N 
ATOM     56  N   UNL A   1      41.032  31.195  34.653  1.00  0.00    -0.248 NA
ATOM     57  C   UNL A   1      41.609  31.821  36.827  1.00  0.00     0.031 C 
ATOM     58  C   UNL A   1      42.975  27.884  32.412  1.00  0.00     0.029 A 
ATOM     59  C   UNL A   1      42.372  28.900  33.137  1.00  0.00     0.049 A 
ATOM     60  H   UNL A   1      40.735  30.122  32.605  1.00  0.00     0.167 HD
ATOM     61  C   UNL A   1      42.079  30.397  35.094  1.00  0.00     0.074 A 
ATOM     62  C   UNL A   1      42.418  30.852  36.426  1.00  0.00     0.031 C 
ATOM     63  C   UNL A   1      42.704  29.378  34.455  1.00  0.00     0.037 A 
BRANCH  50  64
ATOM     64  C   UNL A   1      40.400  28.087  28.869  1.00  0.00     0.064 A 
ATOM     65  C   UNL A   1      41.158  28.462  27.749  1.00  0.00     0.173 A 
ATOM     66  C   UNL A   1      39.720  26.861  28.820  1.00  0.00     0.173 A 
ATOM     67  F   UNL A   1      41.818  29.630  27.739  1.00  0.00    -0.203 F 
ATOM     68  C   UNL A   1      41.211  27.655  26.615  1.00  0.00     0.198 A 
ATOM     69  C   UNL A   1      39.803  26.041  27.697  1.00  0.00     0.198 A 
ATOM     70  F   UNL A   1      38.983  26.453  29.864  1.00  0.00    -0.203 F 
ATOM     71  F   UNL A   1      41.901  28.058  25.540  1.00  0.00    -0.200 F 
ATOM     72  C   UNL A   1      40.541  26.442  26.594  1.00  0.00     0.200 A 
ATOM     73  F   UNL A   1      39.165  24.862  27.684  1.00  0.00    -0.200 F 
ATOM     74  F   UNL A   1      40.601  25.660  25.507  1.00  0.00    -0.200 F 
ENDBRANCH  50  64
BRANCH  51  75
ATOM     75  C   UNL A   1      39.644  33.990  36.913  1.00  0.00     0.064 A 
ATOM     76  C   UNL A   1      38.848  33.600  38.000  1.00  0.00     0.173 A 
ATOM     77  C   UNL A   1      40.302  35.225  37.000  1.00  0.00     0.173 A 
ATOM     78  F   UNL A   1      38.181  32.437  37.958  1.00  0.00    -0.203 F 
ATOM     79  C   UNL A   1      38.692  34.424  39.112  1.00  0.00     0.198 A 
ATOM     80  C   UNL A   1      40.173  36.034  38.127  1.00  0.00     0.198 A 
ATOM     81  F   UNL A   1      41.080  35.645  35.991  1.00  0.00    -0.203 F 
ATOM     82  F   UNL A   1      37.880  34.052  40.111  1.00  0.00    -0.200 F 
ATOM     83  C   UNL A   1      39.358  35.639  39.177  1.00  0.00     0.200 A 
ATOM     84  F   UNL A   1      40.831  37.199  38.192  1.00  0.00    -0.200 F 
ATOM     85  F   UNL A   1      39.206  36.432  40.246  1.00  0.00    -0.200 F 
ENDBRANCH  51  75
BRANCH  63  86
ATOM     86  C   UNL A   1      43.840  28.707  35.169  1.00  0.00     0.064 A 
ATOM     87  C   UNL A   1      45.157  29.176  35.062  1.00  0.00     0.173 A 
ATOM     88  C   UNL A   1      43.597  27.617  36.021  1.00  0.00     0.173 A 
ATOM     89  F   UNL A   1      45.444  30.203  34.249  1.00  0.00    -0.203 F 
ATOM     90  C   UNL A   1      46.192  28.566  35.766  1.00  0.00     0.198 A 
ATOM     91  C   UNL A   1      44.628  27.032  36.748  1.00  0.00     0.198 A 
ATOM     92  F   UNL A   1      42.352  27.136  36.164  1.00  0.00    -0.203 F 
ATOM     93  F   UNL A   1      47.449  29.004  35.616  1.00  0.00    -0.200 F 
ATOM     94  C   UNL A   1      45.925  27.503  36.616  1.00  0.00     0.200 A 
ATOM     95  F   UNL A   1      44.366  26.017  37.582  1.00  0.00    -0.200 F 
ATOM     96  F   UNL A   1      46.921  26.928  37.306  1.00  0.00    -0.200 F 
ENDBRANCH  63  86
ENDBRANCH  37  38
ENDBRANCH  29  32
ENDBRANCH  27  28
ENDBRANCH  26  27
ENDBRANCH   1  26
TORSDOF 13
ENDMDL
