MODEL 1
REMARK VINA RESULT:     -10.0      0.000      0.000
REMARK SMILES CCCCOCc1cc(C(=O)NCCCNC(=O)c2ccc(-c3c4nc(c(-c5c(F)c(F)c(F)c(F)c5F)c5ccc([nH]5)c(-c5c(F)c(F)c(F)c(F)c5F)c5nc(c(-c6c(F)c(F)c(F)c(F)c6F)c6ccc3[nH]6)C=C5)C=C4)cc2)[nH]n1
REMARK SMILES IDX 10 1 11 2 12 3 9 5 7 6 8 7 83 8 82 9 6 11 5 12 4 13 3 14
REMARK SMILES IDX 2 15 1 16 13 17 14 18 15 19 16 20 17 21 18 23 19 24 20 25
REMARK SMILES IDX 81 26 21 27 80 28 22 29 23 30 24 31 74 32 25 33 79 34 73 35
REMARK SMILES IDX 75 36 26 37 78 38 72 39 71 40 27 42 59 43 39 44 58 45 40 46
REMARK SMILES IDX 43 47 57 48 76 49 41 50 42 51 56 53 77 54 44 55 28 56 29 57
REMARK SMILES IDX 37 58 30 59 31 60 35 61 38 62 32 63 33 64 36 65 34 66 60 67
REMARK SMILES IDX 61 68 69 69 62 70 63 71 67 72 70 73 64 74 65 75 68 76 66 77
REMARK SMILES IDX 45 78 46 79 54 80 47 81 48 82 52 83 55 84 49 85 50 86 53 87
REMARK SMILES IDX 51 88
REMARK H PARENT 12 4 82 10 16 22 75 41 43 52
REMARK Flexibility Score: inf
ROOT
ATOM      1  C   UNL A   1      33.159  36.074  31.058  1.00  0.00     0.269 C 
ATOM      2  O   UNL A   1      32.241  36.865  31.277  1.00  0.00    -0.268 OA
ATOM      3  N   UNL A   1      33.566  35.913  29.756  1.00  0.00    -0.351 N 
ATOM      4  H   UNL A   1      33.171  36.552  29.119  1.00  0.00     0.163 HD
ENDROOT
BRANCH   1   5
ATOM      5  C   UNL A   1      33.732  35.272  32.101  1.00  0.00     0.123 A 
ATOM      6  C   UNL A   1      34.999  34.000  33.403  1.00  0.00     0.089 A 
ATOM      7  C   UNL A   1      34.958  35.247  32.735  1.00  0.00     0.061 A 
ATOM      8  N   UNL A   1      33.783  33.434  33.435  1.00  0.00    -0.178 NA
ATOM      9  N   UNL A   1      33.019  34.278  32.718  1.00  0.00    -0.273 N 
ATOM     10  H   UNL A   1      32.041  34.189  32.643  1.00  0.00     0.190 HD
BRANCH   6  11
ATOM     11  C   UNL A   1      36.196  33.285  33.955  1.00  0.00     0.218 C 
BRANCH  11  12
ATOM     12  O   UNL A   1      37.300  33.118  33.049  1.00  0.00    -0.375 OA
BRANCH  12  13
ATOM     13  C   UNL A   1      37.149  32.219  31.954  1.00  0.00     0.160 C 
BRANCH  13  14
ATOM     14  C   UNL A   1      37.808  32.622  30.635  1.00  0.00     0.028 C 
BRANCH  14  15
ATOM     15  C   UNL A   1      37.849  34.117  30.305  1.00  0.00    -0.001 C 
ATOM     16  C   UNL A   1      39.170  34.605  29.726  1.00  0.00     0.004 C 
ENDBRANCH  14  15
ENDBRANCH  13  14
ENDBRANCH  12  13
ENDBRANCH  11  12
ENDBRANCH   6  11
ENDBRANCH   1   5
BRANCH   3  17
ATOM     17  C   UNL A   1      34.484  34.954  29.164  1.00  0.00     0.118 C 
BRANCH  17  18
ATOM     18  C   UNL A   1      33.820  33.635  28.782  1.00  0.00     0.042 C 
BRANCH  18  19
ATOM     19  C   UNL A   1      34.653  32.398  29.089  1.00  0.00     0.118 C 
BRANCH  19  20
ATOM     20  N   UNL A   1      34.121  31.189  28.474  1.00  0.00    -0.352 N 
ATOM     21  C   UNL A   1      34.741  30.040  28.050  1.00  0.00     0.251 C 
ATOM     22  H   UNL A   1      33.145  31.198  28.339  1.00  0.00     0.163 HD
ATOM     23  O   UNL A   1      34.099  29.219  27.399  1.00  0.00    -0.269 OA
BRANCH  21  24
ATOM     24  C   UNL A   1      36.167  29.780  28.347  1.00  0.00     0.039 A 
ATOM     25  C   UNL A   1      36.509  29.280  29.608  1.00  0.00     0.014 A 
ATOM     26  C   UNL A   1      37.174  30.062  27.421  1.00  0.00     0.014 A 
ATOM     27  C   UNL A   1      37.844  29.001  29.912  1.00  0.00     0.010 A 
ATOM     28  C   UNL A   1      38.492  29.703  27.692  1.00  0.00     0.010 A 
ATOM     29  C   UNL A   1      38.844  29.171  28.941  1.00  0.00    -0.014 A 
BRANCH  29  30
ATOM     30  C   UNL A   1      40.259  28.813  29.214  1.00  0.00     0.031 A 
ATOM     31  C   UNL A   1      41.156  29.773  29.948  1.00  0.00     0.074 A 
ATOM     32  C   UNL A   1      40.756  27.650  28.748  1.00  0.00     0.049 A 
ATOM     33  N   UNL A   1      42.438  29.685  30.199  1.00  0.00    -0.248 NA
ATOM     34  C   UNL A   1      40.532  31.009  30.447  1.00  0.00     0.031 C 
ATOM     35  C   UNL A   1      40.002  26.648  27.993  1.00  0.00     0.029 A 
ATOM     36  N   UNL A   1      42.019  27.118  28.833  1.00  0.00    -0.354 N 
ATOM     37  C   UNL A   1      42.773  30.852  30.872  1.00  0.00     0.074 A 
ATOM     38  C   UNL A   1      41.575  31.661  30.940  1.00  0.00     0.031 C 
ATOM     39  C   UNL A   1      40.808  25.614  27.706  1.00  0.00     0.029 A 
ATOM     40  C   UNL A   1      42.144  25.896  28.218  1.00  0.00     0.049 A 
ATOM     41  H   UNL A   1      42.764  27.569  29.292  1.00  0.00     0.167 HD
ATOM     42  C   UNL A   1      43.964  31.208  31.411  1.00  0.00     0.037 A 
ATOM     43  C   UNL A   1      43.221  25.098  28.075  1.00  0.00     0.037 A 
ATOM     44  C   UNL A   1      45.151  30.394  31.363  1.00  0.00     0.049 A 
ATOM     45  C   UNL A   1      44.539  25.532  28.659  1.00  0.00     0.074 A 
ATOM     46  C   UNL A   1      46.399  30.655  31.901  1.00  0.00     0.029 A 
ATOM     47  N   UNL A   1      45.234  29.156  30.742  1.00  0.00    -0.354 N 
ATOM     48  N   UNL A   1      44.830  26.617  29.333  1.00  0.00    -0.248 NA
ATOM     49  C   UNL A   1      45.678  24.623  28.466  1.00  0.00     0.031 C 
ATOM     50  C   UNL A   1      47.247  29.591  31.576  1.00  0.00     0.029 A 
ATOM     51  C   UNL A   1      46.515  28.646  30.876  1.00  0.00     0.049 A 
ATOM     52  H   UNL A   1      44.492  28.708  30.275  1.00  0.00     0.167 HD
ATOM     53  C   UNL A   1      46.171  26.505  29.675  1.00  0.00     0.074 A 
ATOM     54  C   UNL A   1      46.633  25.239  29.146  1.00  0.00     0.031 C 
ATOM     55  C   UNL A   1      46.952  27.373  30.364  1.00  0.00     0.037 A 
BRANCH  42  56
ATOM     56  C   UNL A   1      44.039  32.530  32.119  1.00  0.00     0.064 A 
ATOM     57  C   UNL A   1      44.374  33.708  31.433  1.00  0.00     0.173 A 
ATOM     58  C   UNL A   1      43.732  32.631  33.484  1.00  0.00     0.173 A 
ATOM     59  F   UNL A   1      44.688  33.663  30.130  1.00  0.00    -0.203 F 
ATOM     60  C   UNL A   1      44.423  34.933  32.093  1.00  0.00     0.198 A 
ATOM     61  C   UNL A   1      43.752  33.863  34.134  1.00  0.00     0.198 A 
ATOM     62  F   UNL A   1      43.400  31.537  34.185  1.00  0.00    -0.203 F 
ATOM     63  F   UNL A   1      44.791  36.036  31.426  1.00  0.00    -0.200 F 
ATOM     64  C   UNL A   1      44.105  35.011  33.439  1.00  0.00     0.200 A 
ATOM     65  F   UNL A   1      43.432  33.939  35.433  1.00  0.00    -0.200 F 
ATOM     66  F   UNL A   1      44.143  36.192  34.070  1.00  0.00    -0.200 F 
ENDBRANCH  42  56
BRANCH  43  67
ATOM     67  C   UNL A   1      43.102  23.795  27.368  1.00  0.00     0.064 A 
ATOM     68  C   UNL A   1      43.465  23.675  26.020  1.00  0.00     0.173 A 
ATOM     69  C   UNL A   1      42.594  22.656  28.011  1.00  0.00     0.173 A 
ATOM     70  F   UNL A   1      43.936  24.741  25.356  1.00  0.00    -0.203 F 
ATOM     71  C   UNL A   1      43.296  22.475  25.332  1.00  0.00     0.198 A 
ATOM     72  C   UNL A   1      42.454  21.449  27.330  1.00  0.00     0.198 A 
ATOM     73  F   UNL A   1      42.236  22.716  29.301  1.00  0.00    -0.203 F 
ATOM     74  F   UNL A   1      43.596  22.406  24.027  1.00  0.00    -0.200 F 
ATOM     75  C   UNL A   1      42.794  21.362  25.988  1.00  0.00     0.200 A 
ATOM     76  F   UNL A   1      41.981  20.372  27.972  1.00  0.00    -0.200 F 
ATOM     77  F   UNL A   1      42.626  20.210  25.325  1.00  0.00    -0.200 F 
ENDBRANCH  43  67
BRANCH  55  78
ATOM     78  C   UNL A   1      48.369  26.959  30.634  1.00  0.00     0.064 A 
ATOM     79  C   UNL A   1      49.405  27.241  29.733  1.00  0.00     0.173 A 
ATOM     80  C   UNL A   1      48.697  26.299  31.829  1.00  0.00     0.173 A 
ATOM     81  F   UNL A   1      49.139  27.857  28.571  1.00  0.00    -0.203 F 
ATOM     82  C   UNL A   1      50.714  26.853  30.005  1.00  0.00     0.198 A 
ATOM     83  C   UNL A   1      50.011  25.940  32.110  1.00  0.00     0.198 A 
ATOM     84  F   UNL A   1      47.743  26.012  32.727  1.00  0.00    -0.203 F 
ATOM     85  F   UNL A   1      51.680  27.088  29.106  1.00  0.00    -0.200 F 
ATOM     86  C   UNL A   1      51.017  26.209  31.195  1.00  0.00     0.200 A 
ATOM     87  F   UNL A   1      50.305  25.330  33.268  1.00  0.00    -0.200 F 
ATOM     88  F   UNL A   1      52.278  25.841  31.457  1.00  0.00    -0.200 F 
ENDBRANCH  55  78
ENDBRANCH  29  30
ENDBRANCH  21  24
ENDBRANCH  19  20
ENDBRANCH  18  19
ENDBRANCH  17  18
ENDBRANCH   3  17
TORSDOF 15
ENDMDL
MODEL 2
REMARK VINA RESULT:      -9.9      2.167      2.780
REMARK SMILES CCCCOCc1cc(C(=O)NCCCNC(=O)c2ccc(-c3c4nc(c(-c5c(F)c(F)c(F)c(F)c5F)c5ccc([nH]5)c(-c5c(F)c(F)c(F)c(F)c5F)c5nc(c(-c6c(F)c(F)c(F)c(F)c6F)c6ccc3[nH]6)C=C5)C=C4)cc2)[nH]n1
REMARK SMILES IDX 10 1 11 2 12 3 9 5 7 6 8 7 83 8 82 9 6 11 5 12 4 13 3 14
REMARK SMILES IDX 2 15 1 16 13 17 14 18 15 19 16 20 17 21 18 23 19 24 20 25
REMARK SMILES IDX 81 26 21 27 80 28 22 29 23 30 24 31 74 32 25 33 79 34 73 35
REMARK SMILES IDX 75 36 26 37 78 38 72 39 71 40 27 42 59 43 39 44 58 45 40 46
REMARK SMILES IDX 43 47 57 48 76 49 41 50 42 51 56 53 77 54 44 55 28 56 29 57
REMARK SMILES IDX 37 58 30 59 31 60 35 61 38 62 32 63 33 64 36 65 34 66 60 67
REMARK SMILES IDX 61 68 69 69 62 70 63 71 67 72 70 73 64 74 65 75 68 76 66 77
REMARK SMILES IDX 45 78 46 79 54 80 47 81 48 82 52 83 55 84 49 85 50 86 53 87
REMARK SMILES IDX 51 88
REMARK H PARENT 12 4 82 10 16 22 75 41 43 52
REMARK Flexibility Score: inf
ROOT
ATOM      1  C   UNL A   1      32.480  36.105  31.774  1.00  0.00     0.269 C 
ATOM      2  O   UNL A   1      31.454  36.496  32.333  1.00  0.00    -0.268 OA
ATOM      3  N   UNL A   1      32.576  36.287  30.416  1.00  0.00    -0.351 N 
ATOM      4  H   UNL A   1      31.862  36.840  30.024  1.00  0.00     0.163 HD
ENDROOT
BRANCH   1   5
ATOM      5  C   UNL A   1      33.507  35.400  32.486  1.00  0.00     0.123 A 
ATOM      6  C   UNL A   1      35.373  34.431  33.195  1.00  0.00     0.089 A 
ATOM      7  C   UNL A   1      34.823  35.675  32.804  1.00  0.00     0.061 A 
ATOM      8  N   UNL A   1      34.405  33.523  33.397  1.00  0.00    -0.178 NA
ATOM      9  N   UNL A   1      33.279  34.172  33.049  1.00  0.00    -0.273 N 
ATOM     10  H   UNL A   1      32.378  33.800  33.186  1.00  0.00     0.190 HD
BRANCH   6  11
ATOM     11  C   UNL A   1      36.819  34.054  33.310  1.00  0.00     0.218 C 
BRANCH  11  12
ATOM     12  O   UNL A   1      37.638  34.346  32.165  1.00  0.00    -0.375 OA
BRANCH  12  13
ATOM     13  C   UNL A   1      37.313  33.725  30.924  1.00  0.00     0.160 C 
BRANCH  13  14
ATOM     14  C   UNL A   1      37.906  34.352  29.663  1.00  0.00     0.028 C 
BRANCH  14  15
ATOM     15  C   UNL A   1      39.357  34.835  29.741  1.00  0.00    -0.001 C 
ATOM     16  C   UNL A   1      40.369  33.756  30.100  1.00  0.00     0.004 C 
ENDBRANCH  14  15
ENDBRANCH  13  14
ENDBRANCH  12  13
ENDBRANCH  11  12
ENDBRANCH   6  11
ENDBRANCH   1   5
BRANCH   3  17
ATOM     17  C   UNL A   1      33.557  35.795  29.463  1.00  0.00     0.118 C 
BRANCH  17  18
ATOM     18  C   UNL A   1      33.106  34.542  28.719  1.00  0.00     0.042 C 
BRANCH  18  19
ATOM     19  C   UNL A   1      34.155  33.440  28.646  1.00  0.00     0.118 C 
BRANCH  19  20
ATOM     20  N   UNL A   1      33.719  32.293  27.860  1.00  0.00    -0.352 N 
ATOM     21  C   UNL A   1      34.334  31.098  27.585  1.00  0.00     0.251 C 
ATOM     22  H   UNL A   1      32.826  32.394  27.456  1.00  0.00     0.163 HD
ATOM     23  O   UNL A   1      33.837  30.349  26.747  1.00  0.00    -0.269 OA
BRANCH  21  24
ATOM     24  C   UNL A   1      35.591  30.704  28.261  1.00  0.00     0.039 A 
ATOM     25  C   UNL A   1      35.537  29.717  29.252  1.00  0.00     0.014 A 
ATOM     26  C   UNL A   1      36.808  31.321  27.967  1.00  0.00     0.014 A 
ATOM     27  C   UNL A   1      36.709  29.305  29.892  1.00  0.00     0.010 A 
ATOM     28  C   UNL A   1      37.986  30.850  28.542  1.00  0.00     0.010 A 
ATOM     29  C   UNL A   1      37.950  29.839  29.514  1.00  0.00    -0.014 A 
BRANCH  29  30
ATOM     30  C   UNL A   1      39.218  29.366  30.127  1.00  0.00     0.031 A 
ATOM     31  C   UNL A   1      39.750  30.026  31.371  1.00  0.00     0.074 A 
ATOM     32  C   UNL A   1      39.922  28.384  29.533  1.00  0.00     0.049 A 
ATOM     33  N   UNL A   1      40.880  29.822  32.000  1.00  0.00    -0.248 NA
ATOM     34  C   UNL A   1      38.910  31.074  31.973  1.00  0.00     0.031 C 
ATOM     35  C   UNL A   1      39.533  27.684  28.306  1.00  0.00     0.029 A 
ATOM     36  N   UNL A   1      41.121  27.806  29.875  1.00  0.00    -0.354 N 
ATOM     37  C   UNL A   1      40.890  30.718  33.061  1.00  0.00     0.074 A 
ATOM     38  C   UNL A   1      39.683  31.509  32.958  1.00  0.00     0.031 C 
ATOM     39  C   UNL A   1      40.460  26.759  28.014  1.00  0.00     0.029 A 
ATOM     40  C   UNL A   1      41.529  26.826  29.004  1.00  0.00     0.049 A 
ATOM     41  H   UNL A   1      41.638  28.071  30.670  1.00  0.00     0.167 HD
ATOM     42  C   UNL A   1      41.807  30.851  34.049  1.00  0.00     0.037 A 
ATOM     43  C   UNL A   1      42.646  26.072  29.002  1.00  0.00     0.037 A 
ATOM     44  C   UNL A   1      42.998  30.050  34.163  1.00  0.00     0.049 A 
ATOM     45  C   UNL A   1      43.662  26.262  30.096  1.00  0.00     0.074 A 
ATOM     46  C   UNL A   1      43.976  30.091  35.142  1.00  0.00     0.029 A 
ATOM     47  N   UNL A   1      43.370  29.057  33.269  1.00  0.00    -0.354 N 
ATOM     48  N   UNL A   1      43.636  27.081  31.119  1.00  0.00    -0.248 NA
ATOM     49  C   UNL A   1      44.862  25.416  30.037  1.00  0.00     0.031 C 
ATOM     50  C   UNL A   1      44.957  29.147  34.820  1.00  0.00     0.029 A 
ATOM     51  C   UNL A   1      44.567  28.486  33.668  1.00  0.00     0.049 A 
ATOM     52  H   UNL A   1      42.858  28.797  32.469  1.00  0.00     0.167 HD
ATOM     53  C   UNL A   1      44.793  26.824  31.843  1.00  0.00     0.074 A 
ATOM     54  C   UNL A   1      45.493  25.762  31.149  1.00  0.00     0.031 C 
ATOM     55  C   UNL A   1      45.238  27.414  32.979  1.00  0.00     0.037 A 
BRANCH  42  56
ATOM     56  C   UNL A   1      41.550  31.893  35.100  1.00  0.00     0.064 A 
ATOM     57  C   UNL A   1      42.200  33.136  35.071  1.00  0.00     0.173 A 
ATOM     58  C   UNL A   1      40.614  31.666  36.120  1.00  0.00     0.173 A 
ATOM     59  F   UNL A   1      43.113  33.398  34.123  1.00  0.00    -0.203 F 
ATOM     60  C   UNL A   1      41.942  34.104  36.038  1.00  0.00     0.198 A 
ATOM     61  C   UNL A   1      40.336  32.648  37.068  1.00  0.00     0.198 A 
ATOM     62  F   UNL A   1      39.960  30.497  36.190  1.00  0.00    -0.203 F 
ATOM     63  F   UNL A   1      42.610  35.265  36.015  1.00  0.00    -0.200 F 
ATOM     64  C   UNL A   1      41.005  33.862  37.030  1.00  0.00     0.200 A 
ATOM     65  F   UNL A   1      39.420  32.418  38.019  1.00  0.00    -0.200 F 
ATOM     66  F   UNL A   1      40.751  34.798  37.955  1.00  0.00    -0.200 F 
ENDBRANCH  42  56
BRANCH  43  67
ATOM     67  C   UNL A   1      42.860  25.050  27.943  1.00  0.00     0.064 A 
ATOM     68  C   UNL A   1      43.416  25.405  26.706  1.00  0.00     0.173 A 
ATOM     69  C   UNL A   1      42.486  23.711  28.130  1.00  0.00     0.173 A 
ATOM     70  F   UNL A   1      43.769  26.677  26.472  1.00  0.00    -0.203 F 
ATOM     71  C   UNL A   1      43.559  24.467  25.685  1.00  0.00     0.198 A 
ATOM     72  C   UNL A   1      42.659  22.769  27.119  1.00  0.00     0.198 A 
ATOM     73  F   UNL A   1      41.955  23.318  29.297  1.00  0.00    -0.203 F 
ATOM     74  F   UNL A   1      44.039  24.849  24.493  1.00  0.00    -0.200 F 
ATOM     75  C   UNL A   1      43.185  23.149  25.894  1.00  0.00     0.200 A 
ATOM     76  F   UNL A   1      42.308  21.493  27.329  1.00  0.00    -0.200 F 
ATOM     77  F   UNL A   1      43.318  22.250  24.910  1.00  0.00    -0.200 F 
ENDBRANCH  43  67
BRANCH  55  78
ATOM     78  C   UNL A   1      46.512  26.888  33.574  1.00  0.00     0.064 A 
ATOM     79  C   UNL A   1      47.759  27.442  33.254  1.00  0.00     0.173 A 
ATOM     80  C   UNL A   1      46.476  25.837  34.503  1.00  0.00     0.173 A 
ATOM     81  F   UNL A   1      47.846  28.438  32.360  1.00  0.00    -0.203 F 
ATOM     82  C   UNL A   1      48.929  26.943  33.821  1.00  0.00     0.198 A 
ATOM     83  C   UNL A   1      47.645  25.361  35.090  1.00  0.00     0.198 A 
ATOM     84  F   UNL A   1      45.307  25.278  34.848  1.00  0.00    -0.203 F 
ATOM     85  F   UNL A   1      50.115  27.453  33.462  1.00  0.00    -0.200 F 
ATOM     86  C   UNL A   1      48.871  25.909  34.743  1.00  0.00     0.200 A 
ATOM     87  F   UNL A   1      47.585  24.371  35.992  1.00  0.00    -0.200 F 
ATOM     88  F   UNL A   1      49.997  25.434  35.292  1.00  0.00    -0.200 F 
ENDBRANCH  55  78
ENDBRANCH  29  30
ENDBRANCH  21  24
ENDBRANCH  19  20
ENDBRANCH  18  19
ENDBRANCH  17  18
ENDBRANCH   3  17
TORSDOF 15
ENDMDL
MODEL 3
REMARK VINA RESULT:      -9.7      4.263     10.229
REMARK SMILES CCCCOCc1cc(C(=O)NCCCNC(=O)c2ccc(-c3c4nc(c(-c5c(F)c(F)c(F)c(F)c5F)c5ccc([nH]5)c(-c5c(F)c(F)c(F)c(F)c5F)c5nc(c(-c6c(F)c(F)c(F)c(F)c6F)c6ccc3[nH]6)C=C5)C=C4)cc2)[nH]n1
REMARK SMILES IDX 10 1 11 2 12 3 9 5 7 6 8 7 83 8 82 9 6 11 5 12 4 13 3 14
REMARK SMILES IDX 2 15 1 16 13 17 14 18 15 19 16 20 17 21 18 23 19 24 20 25
REMARK SMILES IDX 81 26 21 27 80 28 22 29 23 30 24 31 74 32 25 33 79 34 73 35
REMARK SMILES IDX 75 36 26 37 78 38 72 39 71 40 27 42 59 43 39 44 58 45 40 46
REMARK SMILES IDX 43 47 57 48 76 49 41 50 42 51 56 53 77 54 44 55 28 56 29 57
REMARK SMILES IDX 37 58 30 59 31 60 35 61 38 62 32 63 33 64 36 65 34 66 60 67
REMARK SMILES IDX 61 68 69 69 62 70 63 71 67 72 70 73 64 74 65 75 68 76 66 77
REMARK SMILES IDX 45 78 46 79 54 80 47 81 48 82 52 83 55 84 49 85 50 86 53 87
REMARK SMILES IDX 51 88
REMARK H PARENT 12 4 82 10 16 22 75 41 43 52
REMARK Flexibility Score: inf
ROOT
ATOM      1  C   UNL A   1      33.372  29.049  26.473  1.00  0.00     0.269 C 
ATOM      2  O   UNL A   1      34.406  28.764  27.077  1.00  0.00    -0.268 OA
ATOM      3  N   UNL A   1      32.805  30.275  26.720  1.00  0.00    -0.351 N 
ATOM      4  H   UNL A   1      33.356  30.880  27.268  1.00  0.00     0.163 HD
ENDROOT
BRANCH   1   5
ATOM      5  C   UNL A   1      32.719  28.109  25.607  1.00  0.00     0.123 A 
ATOM      6  C   UNL A   1      31.656  27.048  23.974  1.00  0.00     0.089 A 
ATOM      7  C   UNL A   1      32.816  27.806  24.264  1.00  0.00     0.061 A 
ATOM      8  N   UNL A   1      31.048  26.654  25.104  1.00  0.00    -0.178 NA
ATOM      9  N   UNL A   1      31.773  27.236  26.077  1.00  0.00    -0.273 N 
ATOM     10  H   UNL A   1      31.636  27.052  27.035  1.00  0.00     0.190 HD
BRANCH   6  11
ATOM     11  C   UNL A   1      31.058  26.748  22.633  1.00  0.00     0.218 C 
BRANCH  11  12
ATOM     12  O   UNL A   1      30.434  27.855  21.961  1.00  0.00    -0.375 OA
BRANCH  12  13
ATOM     13  C   UNL A   1      29.550  28.689  22.706  1.00  0.00     0.160 C 
BRANCH  13  14
ATOM     14  C   UNL A   1      28.869  29.826  21.946  1.00  0.00     0.028 C 
BRANCH  14  15
ATOM     15  C   UNL A   1      27.575  30.386  22.543  1.00  0.00    -0.001 C 
ATOM     16  C   UNL A   1      27.774  31.360  23.696  1.00  0.00     0.004 C 
ENDBRANCH  14  15
ENDBRANCH  13  14
ENDBRANCH  12  13
ENDBRANCH  11  12
ENDBRANCH   6  11
ENDBRANCH   1   5
BRANCH   3  17
ATOM     17  C   UNL A   1      31.525  30.826  26.307  1.00  0.00     0.118 C 
BRANCH  17  18
ATOM     18  C   UNL A   1      31.372  32.310  26.624  1.00  0.00     0.042 C 
BRANCH  18  19
ATOM     19  C   UNL A   1      32.646  32.984  27.115  1.00  0.00     0.118 C 
BRANCH  19  20
ATOM     20  N   UNL A   1      32.413  34.323  27.641  1.00  0.00    -0.352 N 
ATOM     21  C   UNL A   1      32.985  34.995  28.692  1.00  0.00     0.251 C 
ATOM     22  H   UNL A   1      31.724  34.834  27.158  1.00  0.00     0.163 HD
ATOM     23  O   UNL A   1      32.498  36.063  29.055  1.00  0.00    -0.269 OA
BRANCH  21  24
ATOM     24  C   UNL A   1      34.163  34.451  29.405  1.00  0.00     0.039 A 
ATOM     25  C   UNL A   1      33.967  33.823  30.640  1.00  0.00     0.014 A 
ATOM     26  C   UNL A   1      35.457  34.590  28.899  1.00  0.00     0.014 A 
ATOM     27  C   UNL A   1      35.055  33.277  31.327  1.00  0.00     0.010 A 
ATOM     28  C   UNL A   1      36.527  33.971  29.541  1.00  0.00     0.010 A 
ATOM     29  C   UNL A   1      36.340  33.311  30.764  1.00  0.00    -0.014 A 
BRANCH  29  30
ATOM     30  C   UNL A   1      37.500  32.675  31.439  1.00  0.00     0.031 A 
ATOM     31  C   UNL A   1      38.225  31.531  30.782  1.00  0.00     0.074 A 
ATOM     32  C   UNL A   1      37.865  33.085  32.669  1.00  0.00     0.049 A 
ATOM     33  N   UNL A   1      39.195  30.786  31.248  1.00  0.00    -0.248 NA
ATOM     34  C   UNL A   1      37.782  31.160  29.428  1.00  0.00     0.031 C 
ATOM     35  C   UNL A   1      37.225  34.160  33.429  1.00  0.00     0.029 A 
ATOM     36  N   UNL A   1      38.861  32.639  33.503  1.00  0.00    -0.354 N 
ATOM     37  C   UNL A   1      39.471  29.857  30.253  1.00  0.00     0.074 A 
ATOM     38  C   UNL A   1      38.527  30.091  29.182  1.00  0.00     0.031 C 
ATOM     39  C   UNL A   1      37.857  34.306  34.604  1.00  0.00     0.029 A 
ATOM     40  C   UNL A   1      38.919  33.311  34.700  1.00  0.00     0.049 A 
ATOM     41  H   UNL A   1      39.476  31.907  33.266  1.00  0.00     0.167 HD
ATOM     42  C   UNL A   1      40.441  28.912  30.222  1.00  0.00     0.037 A 
ATOM     43  C   UNL A   1      39.732  33.135  35.760  1.00  0.00     0.037 A 
ATOM     44  C   UNL A   1      41.394  28.692  31.278  1.00  0.00     0.049 A 
ATOM     45  C   UNL A   1      40.783  32.058  35.709  1.00  0.00     0.074 A 
ATOM     46  C   UNL A   1      42.430  27.776  31.330  1.00  0.00     0.029 A 
ATOM     47  N   UNL A   1      41.428  29.402  32.470  1.00  0.00    -0.354 N 
ATOM     48  N   UNL A   1      41.061  31.217  34.743  1.00  0.00    -0.248 NA
ATOM     49  C   UNL A   1      41.636  31.910  36.896  1.00  0.00     0.031 C 
ATOM     50  C   UNL A   1      43.070  27.909  32.567  1.00  0.00     0.029 A 
ATOM     51  C   UNL A   1      42.463  28.938  33.266  1.00  0.00     0.049 A 
ATOM     52  H   UNL A   1      40.809  30.129  32.712  1.00  0.00     0.167 HD
ATOM     53  C   UNL A   1      42.142  30.468  35.190  1.00  0.00     0.074 A 
ATOM     54  C   UNL A   1      42.477  30.963  36.509  1.00  0.00     0.031 C 
ATOM     55  C   UNL A   1      42.798  29.459  34.566  1.00  0.00     0.037 A 
BRANCH  42  56
ATOM     56  C   UNL A   1      40.533  28.052  28.994  1.00  0.00     0.064 A 
ATOM     57  C   UNL A   1      39.808  26.855  28.884  1.00  0.00     0.173 A 
ATOM     58  C   UNL A   1      41.317  28.447  27.899  1.00  0.00     0.173 A 
ATOM     59  F   UNL A   1      39.053  26.427  29.907  1.00  0.00    -0.203 F 
ATOM     60  C   UNL A   1      39.884  26.074  27.734  1.00  0.00     0.198 A 
ATOM     61  C   UNL A   1      41.367  27.678  26.740  1.00  0.00     0.198 A 
ATOM     62  F   UNL A   1      42.026  29.585  27.951  1.00  0.00    -0.203 F 
ATOM     63  F   UNL A   1      39.220  24.912  27.672  1.00  0.00    -0.200 F 
ATOM     64  C   UNL A   1      40.657  26.489  26.661  1.00  0.00     0.200 A 
ATOM     65  F   UNL A   1      42.104  28.087  25.697  1.00  0.00    -0.200 F 
ATOM     66  F   UNL A   1      40.722  25.740  25.552  1.00  0.00    -0.200 F 
ENDBRANCH  42  56
BRANCH  43  67
ATOM     67  C   UNL A   1      39.608  34.011  36.956  1.00  0.00     0.064 A 
ATOM     68  C   UNL A   1      40.282  35.239  37.017  1.00  0.00     0.173 A 
ATOM     69  C   UNL A   1      38.847  33.628  38.070  1.00  0.00     0.173 A 
ATOM     70  F   UNL A   1      41.040  35.639  35.985  1.00  0.00    -0.203 F 
ATOM     71  C   UNL A   1      40.224  36.036  38.159  1.00  0.00     0.198 A 
ATOM     72  C   UNL A   1      38.766  34.440  39.198  1.00  0.00     0.198 A 
ATOM     73  F   UNL A   1      38.180  32.466  38.060  1.00  0.00    -0.203 F 
ATOM     74  F   UNL A   1      40.927  37.177  38.211  1.00  0.00    -0.200 F 
ATOM     75  C   UNL A   1      39.464  35.638  39.247  1.00  0.00     0.200 A 
ATOM     76  F   UNL A   1      38.019  34.059  40.243  1.00  0.00    -0.200 F 
ATOM     77  F   UNL A   1      39.413  36.402  40.346  1.00  0.00    -0.200 F 
ENDBRANCH  43  67
BRANCH  55  78
ATOM     78  C   UNL A   1      43.977  28.862  35.277  1.00  0.00     0.064 A 
ATOM     79  C   UNL A   1      45.282  29.323  35.058  1.00  0.00     0.173 A 
ATOM     80  C   UNL A   1      43.790  27.835  36.217  1.00  0.00     0.173 A 
ATOM     81  F   UNL A   1      45.513  30.292  34.159  1.00  0.00    -0.203 F 
ATOM     82  C   UNL A   1      46.362  28.760  35.733  1.00  0.00     0.198 A 
ATOM     83  C   UNL A   1      44.869  27.296  36.911  1.00  0.00     0.198 A 
ATOM     84  F   UNL A   1      42.560  27.363  36.467  1.00  0.00    -0.203 F 
ATOM     85  F   UNL A   1      47.607  29.182  35.470  1.00  0.00    -0.200 F 
ATOM     86  C   UNL A   1      46.154  27.752  36.662  1.00  0.00     0.200 A 
ATOM     87  F   UNL A   1      44.665  26.331  37.819  1.00  0.00    -0.200 F 
ATOM     88  F   UNL A   1      47.194  27.216  37.314  1.00  0.00    -0.200 F 
ENDBRANCH  55  78
ENDBRANCH  29  30
ENDBRANCH  21  24
ENDBRANCH  19  20
ENDBRANCH  18  19
ENDBRANCH  17  18
ENDBRANCH   3  17
TORSDOF 15
ENDMDL
