MODEL 1
REMARK VINA RESULT:     -12.1      0.000      0.000
REMARK SMILES CC1([C@](C)(Nc2cccc(Cl)c2)C(=O)NCCCNC(=O)c2ccc(-c3c4nc(c(-c5c(F)c(F)c(F)c(F)c5F)c5ccc([nH]5)c(-c5c(F)c(F)c(F)c(F)c5F)c5nc(c(-c6c(F)c(F)c(F)c(F)c6F)c6ccc3[nH]6)C=C5)C=C4)cc2)CC1
REMARK SMILES IDX 17 1 16 2 15 3 13 4 14 5 3 7 4 8 2 9 1 10 85 11 86 12 5 13
REMARK SMILES IDX 6 15 7 16 12 17 8 18 10 19 9 20 11 21 18 22 19 23 20 24
REMARK SMILES IDX 21 26 22 27 23 28 84 29 24 30 83 31 25 32 26 33 27 34 77 35
REMARK SMILES IDX 28 36 82 37 76 38 78 39 29 40 81 41 75 42 74 43 30 45 62 46
REMARK SMILES IDX 42 47 61 48 43 49 46 50 60 51 79 52 44 53 45 54 59 56 80 57
REMARK SMILES IDX 47 58 31 59 32 60 40 61 33 62 34 63 38 64 41 65 35 66 36 67
REMARK SMILES IDX 39 68 37 69 63 70 64 71 72 72 65 73 66 74 70 75 73 76 67 77
REMARK SMILES IDX 68 78 71 79 69 80 48 81 49 82 57 83 50 84 51 85 55 86 58 87
REMARK SMILES IDX 52 88 53 89 56 90 54 91
REMARK H PARENT 15 6 5 14 19 25 78 44 46 55
REMARK Flexibility Score: inf
ROOT
ATOM      1  C   UNL A   1      31.468  32.427  26.498  1.00  0.00     0.042 C 
ENDROOT
BRANCH   1   2
ATOM      2  C   UNL A   1      31.464  30.910  26.379  1.00  0.00     0.117 C 
BRANCH   2   3
ATOM      3  N   UNL A   1      30.949  30.388  25.127  1.00  0.00    -0.354 N 
ATOM      4  C   UNL A   1      31.005  29.122  24.603  1.00  0.00     0.245 C 
ATOM      5  O   UNL A   1      30.358  28.938  23.564  1.00  0.00    -0.272 OA
ATOM      6  H   UNL A   1      30.484  31.048  24.563  1.00  0.00     0.163 HD
BRANCH   4   7
ATOM      7  C   UNL A   1      31.849  27.984  25.268  1.00  0.00     0.119 C 
ATOM      8  C   UNL A   1      31.691  28.074  26.810  1.00  0.00     0.046 C 
BRANCH   7   9
ATOM      9  C   UNL A   1      33.405  28.125  24.938  1.00  0.00    -0.001 C 
ATOM     10  C   UNL A   1      34.328  28.236  26.137  1.00  0.00     0.014 C 
ATOM     11  C   UNL A   1      33.829  28.954  23.723  1.00  0.00     0.010 C 
ATOM     12  C   UNL A   1      34.026  27.478  23.693  1.00  0.00     0.010 C 
ENDBRANCH   7   9
BRANCH   7  13
ATOM     13  N   UNL A   1      31.377  26.615  24.904  1.00  0.00    -0.371 N 
ATOM     14  H   UNL A   1      30.780  26.599  24.122  1.00  0.00     0.161 HD
BRANCH  13  15
ATOM     15  C   UNL A   1      31.612  25.363  25.447  1.00  0.00     0.036 A 
ATOM     16  C   UNL A   1      32.864  24.785  25.672  1.00  0.00     0.026 A 
ATOM     17  C   UNL A   1      30.500  24.656  25.947  1.00  0.00     0.046 A 
ATOM     18  C   UNL A   1      33.016  23.621  26.445  1.00  0.00     0.004 A 
ATOM     19  C   UNL A   1      30.642  23.472  26.676  1.00  0.00     0.043 A 
ATOM     20  C   UNL A   1      31.903  22.968  26.959  1.00  0.00     0.020 A 
ATOM     21  Cl  UNL A   1      29.244  22.648  27.251  1.00  0.00    -0.084 Cl
ENDBRANCH  13  15
ENDBRANCH   7  13
ENDBRANCH   4   7
ENDBRANCH   2   3
ENDBRANCH   1   2
BRANCH   1  22
ATOM     22  C   UNL A   1      32.660  33.019  27.229  1.00  0.00     0.118 C 
BRANCH  22  23
ATOM     23  N   UNL A   1      32.414  34.371  27.706  1.00  0.00    -0.352 N 
ATOM     24  C   UNL A   1      32.993  35.052  28.749  1.00  0.00     0.251 C 
ATOM     25  H   UNL A   1      31.730  34.873  27.206  1.00  0.00     0.163 HD
ATOM     26  O   UNL A   1      32.528  36.128  29.110  1.00  0.00    -0.269 OA
BRANCH  24  27
ATOM     27  C   UNL A   1      34.157  34.481  29.463  1.00  0.00     0.039 A 
ATOM     28  C   UNL A   1      33.943  33.837  30.684  1.00  0.00     0.014 A 
ATOM     29  C   UNL A   1      35.454  34.591  28.952  1.00  0.00     0.014 A 
ATOM     30  C   UNL A   1      35.015  33.254  31.362  1.00  0.00     0.010 A 
ATOM     31  C   UNL A   1      36.511  33.940  29.587  1.00  0.00     0.010 A 
ATOM     32  C   UNL A   1      36.303  33.271  30.803  1.00  0.00    -0.014 A 
BRANCH  32  33
ATOM     33  C   UNL A   1      37.437  32.593  31.484  1.00  0.00     0.031 A 
ATOM     34  C   UNL A   1      38.140  31.438  30.829  1.00  0.00     0.074 A 
ATOM     35  C   UNL A   1      37.803  32.987  32.719  1.00  0.00     0.049 A 
ATOM     36  N   UNL A   1      39.134  30.711  31.277  1.00  0.00    -0.248 NA
ATOM     37  C   UNL A   1      37.647  31.027  29.506  1.00  0.00     0.031 C 
ATOM     38  C   UNL A   1      37.164  34.057  33.486  1.00  0.00     0.029 A 
ATOM     39  N   UNL A   1      38.795  32.528  33.550  1.00  0.00    -0.354 N 
ATOM     40  C   UNL A   1      39.374  29.754  30.300  1.00  0.00     0.074 A 
ATOM     41  C   UNL A   1      38.389  29.958  29.260  1.00  0.00     0.031 C 
ATOM     42  C   UNL A   1      37.792  34.188  34.665  1.00  0.00     0.029 A 
ATOM     43  C   UNL A   1      38.853  33.188  34.753  1.00  0.00     0.049 A 
ATOM     44  H   UNL A   1      39.408  31.797  33.306  1.00  0.00     0.167 HD
ATOM     45  C   UNL A   1      40.342  28.806  30.262  1.00  0.00     0.037 A 
ATOM     46  C   UNL A   1      39.664  33.004  35.813  1.00  0.00     0.037 A 
ATOM     47  C   UNL A   1      41.333  28.619  31.291  1.00  0.00     0.049 A 
ATOM     48  C   UNL A   1      40.729  31.943  35.751  1.00  0.00     0.074 A 
ATOM     49  C   UNL A   1      42.403  27.743  31.307  1.00  0.00     0.029 A 
ATOM     50  N   UNL A   1      41.366  29.312  32.493  1.00  0.00    -0.354 N 
ATOM     51  N   UNL A   1      41.007  31.106  34.781  1.00  0.00    -0.248 NA
ATOM     52  C   UNL A   1      41.601  31.810  36.927  1.00  0.00     0.031 C 
ATOM     53  C   UNL A   1      43.046  27.860  32.544  1.00  0.00     0.029 A 
ATOM     54  C   UNL A   1      42.416  28.854  33.274  1.00  0.00     0.049 A 
ATOM     55  H   UNL A   1      40.737  30.023  32.751  1.00  0.00     0.167 HD
ATOM     56  C   UNL A   1      42.092  30.359  35.219  1.00  0.00     0.074 A 
ATOM     57  C   UNL A   1      42.436  30.857  36.535  1.00  0.00     0.031 C 
ATOM     58  C   UNL A   1      42.743  29.351  34.588  1.00  0.00     0.037 A 
BRANCH  45  59
ATOM     59  C   UNL A   1      40.368  27.888  29.073  1.00  0.00     0.064 A 
ATOM     60  C   UNL A   1      41.127  28.178  27.928  1.00  0.00     0.173 A 
ATOM     61  C   UNL A   1      39.642  26.687  29.087  1.00  0.00     0.173 A 
ATOM     62  F   UNL A   1      41.834  29.317  27.858  1.00  0.00    -0.203 F 
ATOM     63  C   UNL A   1      41.126  27.321  26.830  1.00  0.00     0.198 A 
ATOM     64  C   UNL A   1      39.671  25.817  28.001  1.00  0.00     0.198 A 
ATOM     65  F   UNL A   1      38.904  26.354  30.158  1.00  0.00    -0.203 F 
ATOM     66  F   UNL A   1      41.812  27.650  25.726  1.00  0.00    -0.200 F 
ATOM     67  C   UNL A   1      40.405  26.140  26.869  1.00  0.00     0.200 A 
ATOM     68  F   UNL A   1      38.985  24.667  28.047  1.00  0.00    -0.200 F 
ATOM     69  F   UNL A   1      40.407  25.314  25.813  1.00  0.00    -0.200 F 
ENDBRANCH  45  59
BRANCH  46  70
ATOM     70  C   UNL A   1      39.502  33.860  37.017  1.00  0.00     0.064 A 
ATOM     71  C   UNL A   1      40.094  35.128  37.088  1.00  0.00     0.173 A 
ATOM     72  C   UNL A   1      38.734  33.435  38.112  1.00  0.00     0.173 A 
ATOM     73  F   UNL A   1      40.855  35.569  36.076  1.00  0.00    -0.203 F 
ATOM     74  C   UNL A   1      39.934  35.934  38.212  1.00  0.00     0.198 A 
ATOM     75  C   UNL A   1      38.549  34.255  39.223  1.00  0.00     0.198 A 
ATOM     76  F   UNL A   1      38.143  32.232  38.091  1.00  0.00    -0.203 F 
ATOM     77  F   UNL A   1      40.540  37.128  38.270  1.00  0.00    -0.200 F 
ATOM     78  C   UNL A   1      39.154  35.501  39.275  1.00  0.00     0.200 A 
ATOM     79  F   UNL A   1      37.783  33.839  40.240  1.00  0.00    -0.200 F 
ATOM     80  F   UNL A   1      38.990  36.284  40.351  1.00  0.00    -0.200 F 
ENDBRANCH  46  70
BRANCH  58  81
ATOM     81  C   UNL A   1      43.908  28.727  35.303  1.00  0.00     0.064 A 
ATOM     82  C   UNL A   1      45.220  29.188  35.117  1.00  0.00     0.173 A 
ATOM     83  C   UNL A   1      43.704  27.682  36.218  1.00  0.00     0.173 A 
ATOM     84  F   UNL A   1      45.472  30.174  34.243  1.00  0.00    -0.203 F 
ATOM     85  C   UNL A   1      46.286  28.608  35.799  1.00  0.00     0.198 A 
ATOM     86  C   UNL A   1      44.769  27.128  36.923  1.00  0.00     0.198 A 
ATOM     87  F   UNL A   1      42.469  27.208  36.439  1.00  0.00    -0.203 F 
ATOM     88  F   UNL A   1      47.537  29.032  35.567  1.00  0.00    -0.200 F 
ATOM     89  C   UNL A   1      46.059  27.585  36.707  1.00  0.00     0.200 A 
ATOM     90  F   UNL A   1      44.545  26.149  37.811  1.00  0.00    -0.200 F 
ATOM     91  F   UNL A   1      47.087  27.034  37.369  1.00  0.00    -0.200 F 
ENDBRANCH  58  81
ENDBRANCH  32  33
ENDBRANCH  24  27
ENDBRANCH  22  23
ENDBRANCH   1  22
TORSDOF 13
ENDMDL
MODEL 2
REMARK VINA RESULT:     -12.1      6.191     11.377
REMARK SMILES CC1([C@](C)(Nc2cccc(Cl)c2)C(=O)NCCCNC(=O)c2ccc(-c3c4nc(c(-c5c(F)c(F)c(F)c(F)c5F)c5ccc([nH]5)c(-c5c(F)c(F)c(F)c(F)c5F)c5nc(c(-c6c(F)c(F)c(F)c(F)c6F)c6ccc3[nH]6)C=C5)C=C4)cc2)CC1
REMARK SMILES IDX 17 1 16 2 15 3 13 4 14 5 3 7 4 8 2 9 1 10 85 11 86 12 5 13
REMARK SMILES IDX 6 15 7 16 12 17 8 18 10 19 9 20 11 21 18 22 19 23 20 24
REMARK SMILES IDX 21 26 22 27 23 28 84 29 24 30 83 31 25 32 26 33 27 34 77 35
REMARK SMILES IDX 28 36 82 37 76 38 78 39 29 40 81 41 75 42 74 43 30 45 62 46
REMARK SMILES IDX 42 47 61 48 43 49 46 50 60 51 79 52 44 53 45 54 59 56 80 57
REMARK SMILES IDX 47 58 31 59 32 60 40 61 33 62 34 63 38 64 41 65 35 66 36 67
REMARK SMILES IDX 39 68 37 69 63 70 64 71 72 72 65 73 66 74 70 75 73 76 67 77
REMARK SMILES IDX 68 78 71 79 69 80 48 81 49 82 57 83 50 84 51 85 55 86 58 87
REMARK SMILES IDX 52 88 53 89 56 90 54 91
REMARK H PARENT 15 6 5 14 19 25 78 44 46 55
REMARK Flexibility Score: inf
ROOT
ATOM      1  C   UNL A   1      37.734  19.753  24.955  1.00  0.00     0.042 C 
ENDROOT
BRANCH   1   2
ATOM      2  C   UNL A   1      36.578  20.737  24.862  1.00  0.00     0.117 C 
BRANCH   2   3
ATOM      3  N   UNL A   1      35.966  21.095  26.129  1.00  0.00    -0.354 N 
ATOM      4  C   UNL A   1      34.677  21.460  26.420  1.00  0.00     0.245 C 
ATOM      5  O   UNL A   1      34.409  21.583  27.622  1.00  0.00    -0.272 OA
ATOM      6  H   UNL A   1      36.574  21.071  26.903  1.00  0.00     0.163 HD
BRANCH   4   7
ATOM      7  C   UNL A   1      33.615  21.722  25.301  1.00  0.00     0.119 C 
ATOM      8  C   UNL A   1      34.349  21.945  23.951  1.00  0.00     0.046 C 
BRANCH   7   9
ATOM      9  C   UNL A   1      32.748  23.029  25.595  1.00  0.00    -0.001 C 
ATOM     10  C   UNL A   1      33.535  24.301  25.854  1.00  0.00     0.014 C 
ATOM     11  C   UNL A   1      31.462  22.892  26.414  1.00  0.00     0.010 C 
ATOM     12  C   UNL A   1      31.363  23.235  24.968  1.00  0.00     0.010 C 
ENDBRANCH   7   9
BRANCH   7  13
ATOM     13  N   UNL A   1      32.711  20.557  25.067  1.00  0.00    -0.371 N 
ATOM     14  H   UNL A   1      31.807  20.678  25.439  1.00  0.00     0.161 HD
BRANCH  13  15
ATOM     15  C   UNL A   1      32.889  19.340  24.431  1.00  0.00     0.036 A 
ATOM     16  C   UNL A   1      32.419  19.000  23.160  1.00  0.00     0.026 A 
ATOM     17  C   UNL A   1      33.732  18.401  25.056  1.00  0.00     0.046 A 
ATOM     18  C   UNL A   1      32.850  17.838  22.496  1.00  0.00     0.004 A 
ATOM     19  C   UNL A   1      34.126  17.220  24.420  1.00  0.00     0.043 A 
ATOM     20  C   UNL A   1      33.715  16.950  23.122  1.00  0.00     0.020 A 
ATOM     21  Cl  UNL A   1      35.150  16.106  25.240  1.00  0.00    -0.084 Cl
ENDBRANCH  13  15
ENDBRANCH   7  13
ENDBRANCH   4   7
ENDBRANCH   2   3
ENDBRANCH   1   2
BRANCH   1  22
ATOM     22  C   UNL A   1      38.914  20.213  25.794  1.00  0.00     0.118 C 
BRANCH  22  23
ATOM     23  N   UNL A   1      39.946  19.196  25.922  1.00  0.00    -0.352 N 
ATOM     24  C   UNL A   1      41.297  19.339  26.125  1.00  0.00     0.251 C 
ATOM     25  H   UNL A   1      39.629  18.267  25.854  1.00  0.00     0.163 HD
ATOM     26  O   UNL A   1      42.035  18.364  26.031  1.00  0.00    -0.269 OA
BRANCH  24  27
ATOM     27  C   UNL A   1      41.875  20.668  26.425  1.00  0.00     0.039 A 
ATOM     28  C   UNL A   1      42.145  21.535  25.364  1.00  0.00     0.014 A 
ATOM     29  C   UNL A   1      42.169  21.057  27.736  1.00  0.00     0.014 A 
ATOM     30  C   UNL A   1      42.652  22.811  25.619  1.00  0.00     0.010 A 
ATOM     31  C   UNL A   1      42.598  22.358  27.996  1.00  0.00     0.010 A 
ATOM     32  C   UNL A   1      42.853  23.245  26.940  1.00  0.00    -0.014 A 
BRANCH  32  33
ATOM     33  C   UNL A   1      43.327  24.625  27.222  1.00  0.00     0.031 A 
ATOM     34  C   UNL A   1      42.384  25.660  27.769  1.00  0.00     0.074 A 
ATOM     35  C   UNL A   1      44.600  24.962  26.938  1.00  0.00     0.049 A 
ATOM     36  N   UNL A   1      42.611  26.917  28.059  1.00  0.00    -0.248 NA
ATOM     37  C   UNL A   1      40.996  25.233  27.999  1.00  0.00     0.031 C 
ATOM     38  C   UNL A   1      45.598  24.067  26.352  1.00  0.00     0.029 A 
ATOM     39  N   UNL A   1      45.270  26.150  27.097  1.00  0.00    -0.354 N 
ATOM     40  C   UNL A   1      41.396  27.432  28.491  1.00  0.00     0.074 A 
ATOM     41  C   UNL A   1      40.423  26.367  28.374  1.00  0.00     0.031 C 
ATOM     42  C   UNL A   1      46.758  24.729  26.220  1.00  0.00     0.029 A 
ATOM     43  C   UNL A   1      46.577  26.105  26.677  1.00  0.00     0.049 A 
ATOM     44  H   UNL A   1      44.854  26.958  27.477  1.00  0.00     0.167 HD
ATOM     45  C   UNL A   1      41.121  28.672  28.962  1.00  0.00     0.037 A 
ATOM     46  C   UNL A   1      47.522  27.064  26.654  1.00  0.00     0.037 A 
ATOM     47  C   UNL A   1      42.096  29.723  29.094  1.00  0.00     0.049 A 
ATOM     48  C   UNL A   1      47.194  28.435  27.179  1.00  0.00     0.074 A 
ATOM     49  C   UNL A   1      41.935  30.986  29.636  1.00  0.00     0.029 A 
ATOM     50  N   UNL A   1      43.414  29.638  28.665  1.00  0.00    -0.354 N 
ATOM     51  N   UNL A   1      46.065  28.883  27.672  1.00  0.00    -0.248 NA
ATOM     52  C   UNL A   1      48.274  29.431  27.153  1.00  0.00     0.031 C 
ATOM     53  C   UNL A   1      43.136  31.687  29.478  1.00  0.00     0.029 A 
ATOM     54  C   UNL A   1      44.065  30.840  28.896  1.00  0.00     0.049 A 
ATOM     55  H   UNL A   1      43.824  28.842  28.258  1.00  0.00     0.167 HD
ATOM     56  C   UNL A   1      46.301  30.203  28.032  1.00  0.00     0.074 A 
ATOM     57  C   UNL A   1      47.688  30.478  27.719  1.00  0.00     0.031 C 
ATOM     58  C   UNL A   1      45.445  31.106  28.571  1.00  0.00     0.037 A 
BRANCH  45  59
ATOM     59  C   UNL A   1      39.701  28.965  29.359  1.00  0.00     0.064 A 
ATOM     60  C   UNL A   1      38.759  29.454  28.440  1.00  0.00     0.173 A 
ATOM     61  C   UNL A   1      39.269  28.730  30.673  1.00  0.00     0.173 A 
ATOM     62  F   UNL A   1      39.120  29.704  27.172  1.00  0.00    -0.203 F 
ATOM     63  C   UNL A   1      37.452  29.733  28.831  1.00  0.00     0.198 A 
ATOM     64  C   UNL A   1      37.952  28.978  31.052  1.00  0.00     0.198 A 
ATOM     65  F   UNL A   1      40.124  28.256  31.593  1.00  0.00    -0.203 F 
ATOM     66  F   UNL A   1      36.588  30.255  27.949  1.00  0.00    -0.200 F 
ATOM     67  C   UNL A   1      37.048  29.489  30.133  1.00  0.00     0.200 A 
ATOM     68  F   UNL A   1      37.560  28.727  32.308  1.00  0.00    -0.200 F 
ATOM     69  F   UNL A   1      35.789  29.756  30.509  1.00  0.00    -0.200 F 
ENDBRANCH  45  59
BRANCH  46  70
ATOM     70  C   UNL A   1      48.874  26.748  26.125  1.00  0.00     0.064 A 
ATOM     71  C   UNL A   1      49.838  26.126  26.929  1.00  0.00     0.173 A 
ATOM     72  C   UNL A   1      49.222  27.044  24.798  1.00  0.00     0.173 A 
ATOM     73  F   UNL A   1      49.560  25.843  28.210  1.00  0.00    -0.203 F 
ATOM     74  C   UNL A   1      51.102  25.820  26.430  1.00  0.00     0.198 A 
ATOM     75  C   UNL A   1      50.476  26.710  24.291  1.00  0.00     0.198 A 
ATOM     76  F   UNL A   1      48.334  27.635  23.987  1.00  0.00    -0.203 F 
ATOM     77  F   UNL A   1      52.018  25.257  27.230  1.00  0.00    -0.200 F 
ATOM     78  C   UNL A   1      51.418  26.104  25.109  1.00  0.00     0.200 A 
ATOM     79  F   UNL A   1      50.771  26.972  23.011  1.00  0.00    -0.200 F 
ATOM     80  F   UNL A   1      52.630  25.798  24.626  1.00  0.00    -0.200 F 
ENDBRANCH  46  70
BRANCH  58  81
ATOM     81  C   UNL A   1      45.986  32.474  28.876  1.00  0.00     0.064 A 
ATOM     82  C   UNL A   1      45.907  33.521  27.946  1.00  0.00     0.173 A 
ATOM     83  C   UNL A   1      46.556  32.751  30.129  1.00  0.00     0.173 A 
ATOM     84  F   UNL A   1      45.386  33.307  26.729  1.00  0.00    -0.203 F 
ATOM     85  C   UNL A   1      46.401  34.787  28.250  1.00  0.00     0.198 A 
ATOM     86  C   UNL A   1      47.018  34.026  30.441  1.00  0.00     0.198 A 
ATOM     87  F   UNL A   1      46.651  31.787  31.057  1.00  0.00    -0.203 F 
ATOM     88  F   UNL A   1      46.359  35.760  27.328  1.00  0.00    -0.200 F 
ATOM     89  C   UNL A   1      46.948  35.041  29.499  1.00  0.00     0.200 A 
ATOM     90  F   UNL A   1      47.533  34.272  31.654  1.00  0.00    -0.200 F 
ATOM     91  F   UNL A   1      47.415  36.263  29.793  1.00  0.00    -0.200 F 
ENDBRANCH  58  81
ENDBRANCH  32  33
ENDBRANCH  24  27
ENDBRANCH  22  23
ENDBRANCH   1  22
TORSDOF 13
ENDMDL
MODEL 3
REMARK VINA RESULT:     -12.0      4.056      9.126
REMARK SMILES CC1([C@](C)(Nc2cccc(Cl)c2)C(=O)NCCCNC(=O)c2ccc(-c3c4nc(c(-c5c(F)c(F)c(F)c(F)c5F)c5ccc([nH]5)c(-c5c(F)c(F)c(F)c(F)c5F)c5nc(c(-c6c(F)c(F)c(F)c(F)c6F)c6ccc3[nH]6)C=C5)C=C4)cc2)CC1
REMARK SMILES IDX 17 1 16 2 15 3 13 4 14 5 3 7 4 8 2 9 1 10 85 11 86 12 5 13
REMARK SMILES IDX 6 15 7 16 12 17 8 18 10 19 9 20 11 21 18 22 19 23 20 24
REMARK SMILES IDX 21 26 22 27 23 28 84 29 24 30 83 31 25 32 26 33 27 34 77 35
REMARK SMILES IDX 28 36 82 37 76 38 78 39 29 40 81 41 75 42 74 43 30 45 62 46
REMARK SMILES IDX 42 47 61 48 43 49 46 50 60 51 79 52 44 53 45 54 59 56 80 57
REMARK SMILES IDX 47 58 31 59 32 60 40 61 33 62 34 63 38 64 41 65 35 66 36 67
REMARK SMILES IDX 39 68 37 69 63 70 64 71 72 72 65 73 66 74 70 75 73 76 67 77
REMARK SMILES IDX 68 78 71 79 69 80 48 81 49 82 57 83 50 84 51 85 55 86 58 87
REMARK SMILES IDX 52 88 53 89 56 90 54 91
REMARK H PARENT 15 6 5 14 19 25 78 44 46 55
REMARK Flexibility Score: inf
ROOT
ATOM      1  C   UNL A   1      33.835  28.002  25.762  1.00  0.00     0.042 C 
ENDROOT
BRANCH   1   2
ATOM      2  C   UNL A   1      33.649  26.538  25.391  1.00  0.00     0.117 C 
BRANCH   2   3
ATOM      3  N   UNL A   1      33.860  26.222  23.990  1.00  0.00    -0.354 N 
ATOM      4  C   UNL A   1      33.602  25.071  23.291  1.00  0.00     0.245 C 
ATOM      5  O   UNL A   1      33.766  25.135  22.066  1.00  0.00    -0.272 OA
ATOM      6  H   UNL A   1      34.252  26.951  23.456  1.00  0.00     0.163 HD
BRANCH   4   7
ATOM      7  C   UNL A   1      33.145  23.753  24.001  1.00  0.00     0.119 C 
ATOM      8  C   UNL A   1      33.217  22.582  22.984  1.00  0.00     0.046 C 
BRANCH   7   9
ATOM      9  C   UNL A   1      31.638  23.845  24.517  1.00  0.00    -0.001 C 
ATOM     10  C   UNL A   1      30.662  24.545  23.590  1.00  0.00     0.014 C 
ATOM     11  C   UNL A   1      31.383  24.073  26.009  1.00  0.00     0.010 C 
ATOM     12  C   UNL A   1      31.025  22.758  25.410  1.00  0.00     0.010 C 
ENDBRANCH   7   9
BRANCH   7  13
ATOM     13  N   UNL A   1      34.042  23.352  25.125  1.00  0.00    -0.371 N 
ATOM     14  H   UNL A   1      33.573  23.241  25.983  1.00  0.00     0.161 HD
BRANCH  13  15
ATOM     15  C   UNL A   1      35.402  23.105  25.202  1.00  0.00     0.036 A 
ATOM     16  C   UNL A   1      36.380  24.004  25.634  1.00  0.00     0.026 A 
ATOM     17  C   UNL A   1      35.834  21.787  24.953  1.00  0.00     0.046 A 
ATOM     18  C   UNL A   1      37.696  23.594  25.909  1.00  0.00     0.004 A 
ATOM     19  C   UNL A   1      37.154  21.384  25.179  1.00  0.00     0.043 A 
ATOM     20  C   UNL A   1      38.083  22.278  25.693  1.00  0.00     0.020 A 
ATOM     21  Cl  UNL A   1      37.624  19.763  24.845  1.00  0.00    -0.084 Cl
ENDBRANCH  13  15
ENDBRANCH   7  13
ENDBRANCH   4   7
ENDBRANCH   2   3
ENDBRANCH   1   2
BRANCH   1  22
ATOM     22  C   UNL A   1      33.659  28.327  27.235  1.00  0.00     0.118 C 
BRANCH  22  23
ATOM     23  N   UNL A   1      33.575  29.757  27.490  1.00  0.00    -0.352 N 
ATOM     24  C   UNL A   1      34.496  30.601  28.062  1.00  0.00     0.251 C 
ATOM     25  H   UNL A   1      32.733  30.183  27.211  1.00  0.00     0.163 HD
ATOM     26  O   UNL A   1      34.174  31.748  28.354  1.00  0.00    -0.269 OA
BRANCH  24  27
ATOM     27  C   UNL A   1      35.866  30.126  28.358  1.00  0.00     0.039 A 
ATOM     28  C   UNL A   1      36.828  30.189  27.347  1.00  0.00     0.014 A 
ATOM     29  C   UNL A   1      36.204  29.604  29.610  1.00  0.00     0.014 A 
ATOM     30  C   UNL A   1      38.139  29.787  27.608  1.00  0.00     0.010 A 
ATOM     31  C   UNL A   1      37.530  29.278  29.894  1.00  0.00     0.010 A 
ATOM     32  C   UNL A   1      38.510  29.358  28.893  1.00  0.00    -0.014 A 
BRANCH  32  33
ATOM     33  C   UNL A   1      39.918  28.993  29.196  1.00  0.00     0.031 A 
ATOM     34  C   UNL A   1      40.806  29.940  29.953  1.00  0.00     0.074 A 
ATOM     35  C   UNL A   1      40.415  27.825  28.746  1.00  0.00     0.049 A 
ATOM     36  N   UNL A   1      42.064  29.804  30.293  1.00  0.00    -0.248 NA
ATOM     37  C   UNL A   1      40.211  31.221  30.362  1.00  0.00     0.031 C 
ATOM     38  C   UNL A   1      39.673  26.845  27.952  1.00  0.00     0.029 A 
ATOM     39  N   UNL A   1      41.661  27.267  28.884  1.00  0.00    -0.354 N 
ATOM     40  C   UNL A   1      42.411  30.983  30.941  1.00  0.00     0.074 A 
ATOM     41  C   UNL A   1      41.249  31.843  30.900  1.00  0.00     0.031 C 
ATOM     42  C   UNL A   1      40.471  25.797  27.691  1.00  0.00     0.029 A 
ATOM     43  C   UNL A   1      41.790  26.047  28.267  1.00  0.00     0.049 A 
ATOM     44  H   UNL A   1      42.394  27.700  29.380  1.00  0.00     0.167 HD
ATOM     45  C   UNL A   1      43.584  31.308  31.535  1.00  0.00     0.037 A 
ATOM     46  C   UNL A   1      42.852  25.225  28.168  1.00  0.00     0.037 A 
ATOM     47  C   UNL A   1      44.732  30.441  31.591  1.00  0.00     0.049 A 
ATOM     48  C   UNL A   1      44.146  25.608  28.832  1.00  0.00     0.074 A 
ATOM     49  C   UNL A   1      45.937  30.645  32.239  1.00  0.00     0.029 A 
ATOM     50  N   UNL A   1      44.823  29.207  30.961  1.00  0.00    -0.354 N 
ATOM     51  N   UNL A   1      44.434  26.684  29.523  1.00  0.00    -0.248 NA
ATOM     52  C   UNL A   1      45.259  24.656  28.712  1.00  0.00     0.031 C 
ATOM     53  C   UNL A   1      46.779  29.566  31.950  1.00  0.00     0.029 A 
ATOM     54  C   UNL A   1      46.078  28.658  31.174  1.00  0.00     0.049 A 
ATOM     55  H   UNL A   1      44.102  28.785  30.441  1.00  0.00     0.167 HD
ATOM     56  C   UNL A   1      45.751  26.534  29.935  1.00  0.00     0.074 A 
ATOM     57  C   UNL A   1      46.200  25.252  29.434  1.00  0.00     0.031 C 
ATOM     58  C   UNL A   1      46.518  27.384  30.661  1.00  0.00     0.037 A 
BRANCH  45  59
ATOM     59  C   UNL A   1      43.690  32.669  32.165  1.00  0.00     0.064 A 
ATOM     60  C   UNL A   1      44.148  33.785  31.447  1.00  0.00     0.173 A 
ATOM     61  C   UNL A   1      43.304  32.865  33.500  1.00  0.00     0.173 A 
ATOM     62  F   UNL A   1      44.537  33.653  30.169  1.00  0.00    -0.203 F 
ATOM     63  C   UNL A   1      44.252  35.035  32.053  1.00  0.00     0.198 A 
ATOM     64  C   UNL A   1      43.378  34.123  34.092  1.00  0.00     0.198 A 
ATOM     65  F   UNL A   1      42.852  31.835  34.232  1.00  0.00    -0.203 F 
ATOM     66  F   UNL A   1      44.748  36.072  31.363  1.00  0.00    -0.200 F 
ATOM     67  C   UNL A   1      43.862  35.204  33.371  1.00  0.00     0.200 A 
ATOM     68  F   UNL A   1      42.985  34.288  35.362  1.00  0.00    -0.200 F 
ATOM     69  F   UNL A   1      43.960  36.408  33.952  1.00  0.00    -0.200 F 
ENDBRANCH  45  59
BRANCH  46  70
ATOM     70  C   UNL A   1      42.722  23.949  27.416  1.00  0.00     0.064 A 
ATOM     71  C   UNL A   1      43.078  23.867  26.063  1.00  0.00     0.173 A 
ATOM     72  C   UNL A   1      42.260  22.781  28.042  1.00  0.00     0.173 A 
ATOM     73  F   UNL A   1      43.505  24.961  25.416  1.00  0.00    -0.203 F 
ATOM     74  C   UNL A   1      42.966  22.669  25.362  1.00  0.00     0.198 A 
ATOM     75  C   UNL A   1      42.177  21.576  27.348  1.00  0.00     0.198 A 
ATOM     76  F   UNL A   1      41.912  22.806  29.336  1.00  0.00    -0.203 F 
ATOM     77  F   UNL A   1      43.278  22.626  24.059  1.00  0.00    -0.200 F 
ATOM     78  C   UNL A   1      42.524  21.523  26.006  1.00  0.00     0.200 A 
ATOM     79  F   UNL A   1      41.766  20.468  27.978  1.00  0.00    -0.200 F 
ATOM     80  F   UNL A   1      42.429  20.367  25.333  1.00  0.00    -0.200 F 
ENDBRANCH  46  70
BRANCH  58  81
ATOM     81  C   UNL A   1      47.922  26.948  30.976  1.00  0.00     0.064 A 
ATOM     82  C   UNL A   1      48.213  26.152  32.093  1.00  0.00     0.173 A 
ATOM     83  C   UNL A   1      48.983  27.299  30.125  1.00  0.00     0.173 A 
ATOM     84  F   UNL A   1      47.239  25.801  32.945  1.00  0.00    -0.203 F 
ATOM     85  C   UNL A   1      49.517  25.744  32.361  1.00  0.00     0.198 A 
ATOM     86  C   UNL A   1      50.280  26.861  30.379  1.00  0.00     0.198 A 
ATOM     87  F   UNL A   1      48.758  28.053  29.040  1.00  0.00    -0.203 F 
ATOM     88  F   UNL A   1      49.779  25.025  33.462  1.00  0.00    -0.200 F 
ATOM     89  C   UNL A   1      50.548  26.092  31.500  1.00  0.00     0.200 A 
ATOM     90  F   UNL A   1      51.271  27.187  29.537  1.00  0.00    -0.200 F 
ATOM     91  F   UNL A   1      51.801  25.692  31.756  1.00  0.00    -0.200 F 
ENDBRANCH  58  81
ENDBRANCH  32  33
ENDBRANCH  24  27
ENDBRANCH  22  23
ENDBRANCH   1  22
TORSDOF 13
ENDMDL
