MODEL 1
REMARK VINA RESULT:     -11.4      0.000      0.000
REMARK SMILES CC(C)OCCS(=O)(=O)N[C@@H]1COC[C@@H]1C(=O)NCCCNC(=O)c1ccc(-c2c3nc(c(-c4c(F)c(F)c(F)c(F)c4F)c4ccc([nH]4)c(-c4c(F)c(F)c(F)c(F)c4F)c4nc(c(-c5c(F)c(F)c(F)c(F)c5F)c5ccc2[nH]5)C=C4)C=C3)cc1
REMARK SMILES IDX 16 1 17 2 18 3 15 5 11 6 12 7 13 8 14 9 10 10 7 12 8 13 9 14
REMARK SMILES IDX 6 15 5 16 4 17 2 18 1 19 3 20 19 21 20 22 21 23 22 24 23 25
REMARK SMILES IDX 24 27 25 28 26 29 87 30 27 31 86 32 28 33 29 34 30 35 80 36
REMARK SMILES IDX 31 37 85 38 79 39 81 40 32 41 84 42 78 43 77 44 33 46 65 47
REMARK SMILES IDX 45 48 64 49 46 50 49 51 63 52 82 53 47 54 48 55 62 57 83 58
REMARK SMILES IDX 50 59 34 60 35 61 43 62 36 63 37 64 41 65 44 66 38 67 39 68
REMARK SMILES IDX 42 69 40 70 66 71 67 72 75 73 68 74 69 75 73 76 76 77 70 78
REMARK SMILES IDX 71 79 74 80 72 81 51 82 52 83 60 84 53 85 54 86 58 87 61 88
REMARK SMILES IDX 55 89 56 90 59 91 57 92
REMARK H PARENT 18 4 10 11 22 26 81 45 49 56
REMARK Flexibility Score: inf
ROOT
ATOM      1  C   UNL A   1      32.260  29.360  24.305  1.00  0.00     0.227 C 
ATOM      2  O   UNL A   1      33.051  29.265  23.368  1.00  0.00    -0.275 OA
ATOM      3  N   UNL A   1      32.593  30.116  25.393  1.00  0.00    -0.356 N 
ATOM      4  H   UNL A   1      33.489  30.524  25.368  1.00  0.00     0.163 HD
ENDROOT
BRANCH   1   5
ATOM      5  C   UNL A   1      30.911  28.690  24.315  1.00  0.00     0.124 C 
ATOM      6  C   UNL A   1      30.891  27.229  23.933  1.00  0.00     0.110 C 
ATOM      7  C   UNL A   1      30.868  27.303  22.411  1.00  0.00     0.181 C 
ATOM      8  O   UNL A   1      30.098  28.469  22.075  1.00  0.00    -0.379 OA
ATOM      9  C   UNL A   1      30.038  29.313  23.233  1.00  0.00     0.175 C 
BRANCH   6  10
ATOM     10  N   UNL A   1      31.948  26.327  24.445  1.00  0.00    -0.209 NA
ATOM     11  H   UNL A   1      31.756  25.413  24.035  1.00  0.00     0.141 HD
BRANCH  10  12
ATOM     12  S   UNL A   1      32.220  26.047  26.079  1.00  0.00     0.214 S 
ATOM     13  O   UNL A   1      30.952  26.019  26.761  1.00  0.00    -0.212 OA
ATOM     14  O   UNL A   1      33.215  27.045  26.431  1.00  0.00    -0.212 OA
BRANCH  12  15
ATOM     15  C   UNL A   1      33.050  24.449  26.181  1.00  0.00     0.182 C 
BRANCH  15  16
ATOM     16  C   UNL A   1      34.454  24.423  25.593  1.00  0.00     0.178 C 
BRANCH  16  17
ATOM     17  O   UNL A   1      34.787  23.249  24.845  1.00  0.00    -0.378 OA
BRANCH  17  18
ATOM     18  C   UNL A   1      36.157  22.898  24.645  1.00  0.00     0.112 C 
ATOM     19  C   UNL A   1      36.596  22.849  23.187  1.00  0.00     0.038 C 
ATOM     20  C   UNL A   1      37.042  23.748  25.549  1.00  0.00     0.038 C 
ENDBRANCH  17  18
ENDBRANCH  16  17
ENDBRANCH  15  16
ENDBRANCH  12  15
ENDBRANCH  10  12
ENDBRANCH   6  10
ENDBRANCH   1   5
BRANCH   3  21
ATOM     21  C   UNL A   1      31.807  30.402  26.586  1.00  0.00     0.117 C 
BRANCH  21  22
ATOM     22  C   UNL A   1      31.552  31.889  26.778  1.00  0.00     0.042 C 
BRANCH  22  23
ATOM     23  C   UNL A   1      32.772  32.667  27.254  1.00  0.00     0.118 C 
BRANCH  23  24
ATOM     24  N   UNL A   1      32.463  34.053  27.587  1.00  0.00    -0.352 N 
ATOM     25  C   UNL A   1      32.975  34.876  28.556  1.00  0.00     0.251 C 
ATOM     26  H   UNL A   1      31.770  34.467  27.022  1.00  0.00     0.163 HD
ATOM     27  O   UNL A   1      32.436  35.950  28.796  1.00  0.00    -0.269 OA
BRANCH  25  28
ATOM     28  C   UNL A   1      34.156  34.451  29.327  1.00  0.00     0.039 A 
ATOM     29  C   UNL A   1      33.965  33.858  30.577  1.00  0.00     0.014 A 
ATOM     30  C   UNL A   1      35.444  34.620  28.812  1.00  0.00     0.014 A 
ATOM     31  C   UNL A   1      35.063  33.354  31.271  1.00  0.00     0.010 A 
ATOM     32  C   UNL A   1      36.524  34.037  29.460  1.00  0.00     0.010 A 
ATOM     33  C   UNL A   1      36.342  33.391  30.692  1.00  0.00    -0.014 A 
BRANCH  33  34
ATOM     34  C   UNL A   1      37.496  32.726  31.341  1.00  0.00     0.031 A 
ATOM     35  C   UNL A   1      38.156  31.547  30.686  1.00  0.00     0.074 A 
ATOM     36  C   UNL A   1      37.889  33.138  32.563  1.00  0.00     0.049 A 
ATOM     37  N   UNL A   1      39.121  30.785  31.135  1.00  0.00    -0.248 NA
ATOM     38  C   UNL A   1      37.644  31.149  29.364  1.00  0.00     0.031 C 
ATOM     39  C   UNL A   1      37.278  34.229  33.324  1.00  0.00     0.029 A 
ATOM     40  N   UNL A   1      38.883  32.675  33.388  1.00  0.00    -0.354 N 
ATOM     41  C   UNL A   1      39.318  29.814  30.163  1.00  0.00     0.074 A 
ATOM     42  C   UNL A   1      38.343  30.049  29.122  1.00  0.00     0.031 C 
ATOM     43  C   UNL A   1      37.919  34.363  34.495  1.00  0.00     0.029 A 
ATOM     44  C   UNL A   1      38.956  33.340  34.588  1.00  0.00     0.049 A 
ATOM     45  H   UNL A   1      39.485  31.936  33.145  1.00  0.00     0.167 HD
ATOM     46  C   UNL A   1      40.245  28.829  30.138  1.00  0.00     0.037 A 
ATOM     47  C   UNL A   1      39.758  33.137  35.650  1.00  0.00     0.037 A 
ATOM     48  C   UNL A   1      41.233  28.624  31.164  1.00  0.00     0.049 A 
ATOM     49  C   UNL A   1      40.781  32.036  35.589  1.00  0.00     0.074 A 
ATOM     50  C   UNL A   1      42.277  27.716  31.185  1.00  0.00     0.029 A 
ATOM     51  N   UNL A   1      41.293  29.332  32.355  1.00  0.00    -0.354 N 
ATOM     52  N   UNL A   1      41.025  31.186  34.621  1.00  0.00    -0.248 NA
ATOM     53  C   UNL A   1      41.644  31.867  36.767  1.00  0.00     0.031 C 
ATOM     54  C   UNL A   1      42.933  27.834  32.414  1.00  0.00     0.029 A 
ATOM     55  C   UNL A   1      42.333  28.854  33.136  1.00  0.00     0.049 A 
ATOM     56  H   UNL A   1      40.686  30.065  32.608  1.00  0.00     0.167 HD
ATOM     57  C   UNL A   1      42.075  30.394  35.064  1.00  0.00     0.074 A 
ATOM     58  C   UNL A   1      42.442  30.883  36.377  1.00  0.00     0.031 C 
ATOM     59  C   UNL A   1      42.678  29.351  34.443  1.00  0.00     0.037 A 
BRANCH  46  60
ATOM     60  C   UNL A   1      40.245  27.894  28.964  1.00  0.00     0.064 A 
ATOM     61  C   UNL A   1      40.972  28.175  27.798  1.00  0.00     0.173 A 
ATOM     62  C   UNL A   1      39.559  26.672  29.031  1.00  0.00     0.173 A 
ATOM     63  F   UNL A   1      41.637  29.334  27.678  1.00  0.00    -0.203 F 
ATOM     64  C   UNL A   1      40.999  27.275  26.736  1.00  0.00     0.198 A 
ATOM     65  C   UNL A   1      39.611  25.761  27.979  1.00  0.00     0.198 A 
ATOM     66  F   UNL A   1      38.851  26.353  30.124  1.00  0.00    -0.203 F 
ATOM     67  F   UNL A   1      41.670  27.581  25.617  1.00  0.00    -0.200 F 
ATOM     68  C   UNL A   1      40.326  26.066  26.831  1.00  0.00     0.200 A 
ATOM     69  F   UNL A   1      38.973  24.587  28.078  1.00  0.00    -0.200 F 
ATOM     70  F   UNL A   1      40.367  25.193  25.814  1.00  0.00    -0.200 F 
ENDBRANCH  46  60
BRANCH  47  71
ATOM     71  C   UNL A   1      39.624  33.990  36.861  1.00  0.00     0.064 A 
ATOM     72  C   UNL A   1      38.844  33.580  37.951  1.00  0.00     0.173 A 
ATOM     73  C   UNL A   1      40.261  35.237  36.947  1.00  0.00     0.173 A 
ATOM     74  F   UNL A   1      38.200  32.405  37.909  1.00  0.00    -0.203 F 
ATOM     75  C   UNL A   1      38.684  34.397  39.068  1.00  0.00     0.198 A 
ATOM     76  C   UNL A   1      40.126  36.039  38.078  1.00  0.00     0.198 A 
ATOM     77  F   UNL A   1      41.026  35.673  35.935  1.00  0.00    -0.203 F 
ATOM     78  F   UNL A   1      37.888  34.005  40.072  1.00  0.00    -0.200 F 
ATOM     79  C   UNL A   1      39.328  35.624  39.134  1.00  0.00     0.200 A 
ATOM     80  F   UNL A   1      40.766  37.214  38.144  1.00  0.00    -0.200 F 
ATOM     81  F   UNL A   1      39.174  36.408  40.209  1.00  0.00    -0.200 F 
ENDBRANCH  47  71
BRANCH  59  82
ATOM     82  C   UNL A   1      43.802  28.676  35.173  1.00  0.00     0.064 A 
ATOM     83  C   UNL A   1      45.134  29.082  35.004  1.00  0.00     0.173 A 
ATOM     84  C   UNL A   1      43.541  27.640  36.083  1.00  0.00     0.173 A 
ATOM     85  F   UNL A   1      45.436  30.058  34.134  1.00  0.00    -0.203 F 
ATOM     86  C   UNL A   1      46.165  28.459  35.700  1.00  0.00     0.198 A 
ATOM     87  C   UNL A   1      44.572  27.041  36.801  1.00  0.00     0.198 A 
ATOM     88  F   UNL A   1      42.284  27.218  36.286  1.00  0.00    -0.203 F 
ATOM     89  F   UNL A   1      47.436  28.830  35.486  1.00  0.00    -0.200 F 
ATOM     90  C   UNL A   1      45.883  27.446  36.604  1.00  0.00     0.200 A 
ATOM     91  F   UNL A   1      44.295  26.072  37.685  1.00  0.00    -0.200 F 
ATOM     92  F   UNL A   1      46.877  26.853  37.281  1.00  0.00    -0.200 F 
ENDBRANCH  59  82
ENDBRANCH  33  34
ENDBRANCH  25  28
ENDBRANCH  23  24
ENDBRANCH  22  23
ENDBRANCH  21  22
ENDBRANCH   3  21
TORSDOF 16
ENDMDL
MODEL 2
REMARK VINA RESULT:     -11.2      5.814     11.450
REMARK SMILES CC(C)OCCS(=O)(=O)N[C@@H]1COC[C@@H]1C(=O)NCCCNC(=O)c1ccc(-c2c3nc(c(-c4c(F)c(F)c(F)c(F)c4F)c4ccc([nH]4)c(-c4c(F)c(F)c(F)c(F)c4F)c4nc(c(-c5c(F)c(F)c(F)c(F)c5F)c5ccc2[nH]5)C=C4)C=C3)cc1
REMARK SMILES IDX 16 1 17 2 18 3 15 5 11 6 12 7 13 8 14 9 10 10 7 12 8 13 9 14
REMARK SMILES IDX 6 15 5 16 4 17 2 18 1 19 3 20 19 21 20 22 21 23 22 24 23 25
REMARK SMILES IDX 24 27 25 28 26 29 87 30 27 31 86 32 28 33 29 34 30 35 80 36
REMARK SMILES IDX 31 37 85 38 79 39 81 40 32 41 84 42 78 43 77 44 33 46 65 47
REMARK SMILES IDX 45 48 64 49 46 50 49 51 63 52 82 53 47 54 48 55 62 57 83 58
REMARK SMILES IDX 50 59 34 60 35 61 43 62 36 63 37 64 41 65 44 66 38 67 39 68
REMARK SMILES IDX 42 69 40 70 66 71 67 72 75 73 68 74 69 75 73 76 76 77 70 78
REMARK SMILES IDX 71 79 74 80 72 81 51 82 52 83 60 84 53 85 54 86 58 87 61 88
REMARK SMILES IDX 55 89 56 90 59 91 57 92
REMARK H PARENT 18 4 10 11 22 26 81 45 49 56
REMARK Flexibility Score: inf
ROOT
ATOM      1  C   UNL A   1      34.754  21.099  25.949  1.00  0.00     0.227 C 
ATOM      2  O   UNL A   1      34.165  21.219  27.021  1.00  0.00    -0.275 OA
ATOM      3  N   UNL A   1      36.120  21.104  25.927  1.00  0.00    -0.356 N 
ATOM      4  H   UNL A   1      36.558  21.240  26.798  1.00  0.00     0.163 HD
ENDROOT
BRANCH   1   5
ATOM      5  C   UNL A   1      34.042  20.927  24.633  1.00  0.00     0.124 C 
ATOM      6  C   UNL A   1      32.989  21.958  24.306  1.00  0.00     0.110 C 
ATOM      7  C   UNL A   1      31.778  21.419  25.057  1.00  0.00     0.181 C 
ATOM      8  O   UNL A   1      31.872  19.987  25.001  1.00  0.00    -0.379 OA
ATOM      9  C   UNL A   1      33.226  19.641  24.673  1.00  0.00     0.175 C 
BRANCH   6  10
ATOM     10  N   UNL A   1      33.252  23.386  24.596  1.00  0.00    -0.209 NA
ATOM     11  H   UNL A   1      32.364  23.867  24.455  1.00  0.00     0.141 HD
BRANCH  10  12
ATOM     12  S   UNL A   1      34.403  24.304  23.785  1.00  0.00     0.214 S 
ATOM     13  O   UNL A   1      34.318  24.012  22.377  1.00  0.00    -0.212 OA
ATOM     14  O   UNL A   1      35.629  24.029  24.513  1.00  0.00    -0.212 OA
BRANCH  12  15
ATOM     15  C   UNL A   1      33.993  26.028  24.117  1.00  0.00     0.182 C 
BRANCH  15  16
ATOM     16  C   UNL A   1      33.381  26.283  25.489  1.00  0.00     0.178 C 
BRANCH  16  17
ATOM     17  O   UNL A   1      32.328  27.252  25.523  1.00  0.00    -0.378 OA
BRANCH  17  18
ATOM     18  C   UNL A   1      32.380  28.326  26.464  1.00  0.00     0.112 C 
ATOM     19  C   UNL A   1      31.402  28.202  27.626  1.00  0.00     0.038 C 
ATOM     20  C   UNL A   1      33.827  28.579  26.873  1.00  0.00     0.038 C 
ENDBRANCH  17  18
ENDBRANCH  16  17
ENDBRANCH  15  16
ENDBRANCH  12  15
ENDBRANCH  10  12
ENDBRANCH   6  10
ENDBRANCH   1   5
BRANCH   3  21
ATOM     21  C   UNL A   1      37.020  20.938  24.793  1.00  0.00     0.117 C 
BRANCH  21  22
ATOM     22  C   UNL A   1      38.024  19.815  25.000  1.00  0.00     0.042 C 
BRANCH  22  23
ATOM     23  C   UNL A   1      39.277  20.240  25.753  1.00  0.00     0.118 C 
BRANCH  23  24
ATOM     24  N   UNL A   1      40.251  19.161  25.884  1.00  0.00    -0.352 N 
ATOM     25  C   UNL A   1      41.606  19.199  26.082  1.00  0.00     0.251 C 
ATOM     26  H   UNL A   1      39.872  18.255  25.819  1.00  0.00     0.163 HD
ATOM     27  O   UNL A   1      42.272  18.176  25.966  1.00  0.00    -0.269 OA
BRANCH  25  28
ATOM     28  C   UNL A   1      42.264  20.478  26.404  1.00  0.00     0.039 A 
ATOM     29  C   UNL A   1      42.883  21.192  25.376  1.00  0.00     0.014 A 
ATOM     30  C   UNL A   1      42.254  20.977  27.709  1.00  0.00     0.014 A 
ATOM     31  C   UNL A   1      43.414  22.452  25.642  1.00  0.00     0.010 A 
ATOM     32  C   UNL A   1      42.700  22.268  27.952  1.00  0.00     0.010 A 
ATOM     33  C   UNL A   1      43.278  23.021  26.919  1.00  0.00    -0.014 A 
BRANCH  33  34
ATOM     34  C   UNL A   1      43.698  24.417  27.185  1.00  0.00     0.031 A 
ATOM     35  C   UNL A   1      42.695  25.432  27.654  1.00  0.00     0.074 A 
ATOM     36  C   UNL A   1      44.967  24.783  26.918  1.00  0.00     0.049 A 
ATOM     37  N   UNL A   1      42.853  26.715  27.861  1.00  0.00    -0.248 NA
ATOM     38  C   UNL A   1      41.325  24.950  27.894  1.00  0.00     0.031 C 
ATOM     39  C   UNL A   1      46.010  23.898  26.395  1.00  0.00     0.029 A 
ATOM     40  N   UNL A   1      45.592  25.999  27.031  1.00  0.00    -0.354 N 
ATOM     41  C   UNL A   1      41.605  27.193  28.235  1.00  0.00     0.074 A 
ATOM     42  C   UNL A   1      40.688  26.076  28.183  1.00  0.00     0.031 C 
ATOM     43  C   UNL A   1      47.147  24.595  26.248  1.00  0.00     0.029 A 
ATOM     44  C   UNL A   1      46.905  25.984  26.624  1.00  0.00     0.049 A 
ATOM     45  H   UNL A   1      45.144  26.807  27.370  1.00  0.00     0.167 HD
ATOM     46  C   UNL A   1      41.265  28.448  28.609  1.00  0.00     0.037 A 
ATOM     47  C   UNL A   1      47.805  26.981  26.546  1.00  0.00     0.037 A 
ATOM     48  C   UNL A   1      42.193  29.545  28.690  1.00  0.00     0.049 A 
ATOM     49  C   UNL A   1      47.397  28.365  26.972  1.00  0.00     0.074 A 
ATOM     50  C   UNL A   1      41.968  30.830  29.151  1.00  0.00     0.029 A 
ATOM     51  N   UNL A   1      43.520  29.487  28.293  1.00  0.00    -0.354 N 
ATOM     52  N   UNL A   1      46.239  28.784  27.422  1.00  0.00    -0.248 NA
ATOM     53  C   UNL A   1      48.422  29.414  26.886  1.00  0.00     0.031 C 
ATOM     54  C   UNL A   1      43.144  31.567  28.978  1.00  0.00     0.029 A 
ATOM     55  C   UNL A   1      44.117  30.726  28.461  1.00  0.00     0.049 A 
ATOM     56  H   UNL A   1      43.971  28.685  27.943  1.00  0.00     0.167 HD
ATOM     57  C   UNL A   1      46.399  30.137  27.685  1.00  0.00     0.074 A 
ATOM     58  C   UNL A   1      47.775  30.463  27.373  1.00  0.00     0.031 C 
ATOM     59  C   UNL A   1      45.487  31.032  28.138  1.00  0.00     0.037 A 
BRANCH  46  60
ATOM     60  C   UNL A   1      39.831  28.710  28.966  1.00  0.00     0.064 A 
ATOM     61  C   UNL A   1      39.352  28.535  30.272  1.00  0.00     0.173 A 
ATOM     62  C   UNL A   1      38.940  29.204  28.001  1.00  0.00     0.173 A 
ATOM     63  F   UNL A   1      40.159  28.054  31.230  1.00  0.00    -0.203 F 
ATOM     64  C   UNL A   1      38.030  28.827  30.596  1.00  0.00     0.198 A 
ATOM     65  C   UNL A   1      37.626  29.524  28.334  1.00  0.00     0.198 A 
ATOM     66  F   UNL A   1      39.348  29.394  26.738  1.00  0.00    -0.203 F 
ATOM     67  F   UNL A   1      37.584  28.617  31.842  1.00  0.00    -0.200 F 
ATOM     68  C   UNL A   1      37.171  29.330  29.630  1.00  0.00     0.200 A 
ATOM     69  F   UNL A   1      36.803  30.023  27.403  1.00  0.00    -0.200 F 
ATOM     70  F   UNL A   1      35.903  29.628  29.947  1.00  0.00    -0.200 F 
ENDBRANCH  46  60
BRANCH  47  71
ATOM     71  C   UNL A   1      49.178  26.711  26.041  1.00  0.00     0.064 A 
ATOM     72  C   UNL A   1      50.175  26.214  26.891  1.00  0.00     0.173 A 
ATOM     73  C   UNL A   1      49.523  26.957  24.704  1.00  0.00     0.173 A 
ATOM     74  F   UNL A   1      49.900  25.980  28.182  1.00  0.00    -0.203 F 
ATOM     75  C   UNL A   1      51.473  26.002  26.430  1.00  0.00     0.198 A 
ATOM     76  C   UNL A   1      50.812  26.713  24.236  1.00  0.00     0.198 A 
ATOM     77  F   UNL A   1      48.604  27.425  23.847  1.00  0.00    -0.203 F 
ATOM     78  F   UNL A   1      52.421  25.579  27.277  1.00  0.00    -0.200 F 
ATOM     79  C   UNL A   1      51.790  26.246  25.102  1.00  0.00     0.200 A 
ATOM     80  F   UNL A   1      51.109  26.933  22.948  1.00  0.00    -0.200 F 
ATOM     81  F   UNL A   1      53.038  26.040  24.659  1.00  0.00    -0.200 F 
ENDBRANCH  47  71
BRANCH  59  82
ATOM     82  C   UNL A   1      45.952  32.446  28.331  1.00  0.00     0.064 A 
ATOM     83  C   UNL A   1      46.531  32.868  29.537  1.00  0.00     0.173 A 
ATOM     84  C   UNL A   1      45.856  33.377  27.287  1.00  0.00     0.173 A 
ATOM     85  F   UNL A   1      46.631  32.019  30.571  1.00  0.00    -0.203 F 
ATOM     86  C   UNL A   1      46.974  34.177  29.697  1.00  0.00     0.198 A 
ATOM     87  C   UNL A   1      46.329  34.677  27.440  1.00  0.00     0.198 A 
ATOM     88  F   UNL A   1      45.315  33.022  26.111  1.00  0.00    -0.203 F 
ATOM     89  F   UNL A   1      47.478  34.573  30.875  1.00  0.00    -0.200 F 
ATOM     90  C   UNL A   1      46.881  35.078  28.647  1.00  0.00     0.200 A 
ATOM     91  F   UNL A   1      46.252  35.541  26.418  1.00  0.00    -0.200 F 
ATOM     92  F   UNL A   1      47.316  36.336  28.800  1.00  0.00    -0.200 F 
ENDBRANCH  59  82
ENDBRANCH  33  34
ENDBRANCH  25  28
ENDBRANCH  23  24
ENDBRANCH  22  23
ENDBRANCH  21  22
ENDBRANCH   3  21
TORSDOF 16
ENDMDL
MODEL 3
REMARK VINA RESULT:     -11.1      4.349     10.367
REMARK SMILES CC(C)OCCS(=O)(=O)N[C@@H]1COC[C@@H]1C(=O)NCCCNC(=O)c1ccc(-c2c3nc(c(-c4c(F)c(F)c(F)c(F)c4F)c4ccc([nH]4)c(-c4c(F)c(F)c(F)c(F)c4F)c4nc(c(-c5c(F)c(F)c(F)c(F)c5F)c5ccc2[nH]5)C=C4)C=C3)cc1
REMARK SMILES IDX 16 1 17 2 18 3 15 5 11 6 12 7 13 8 14 9 10 10 7 12 8 13 9 14
REMARK SMILES IDX 6 15 5 16 4 17 2 18 1 19 3 20 19 21 20 22 21 23 22 24 23 25
REMARK SMILES IDX 24 27 25 28 26 29 87 30 27 31 86 32 28 33 29 34 30 35 80 36
REMARK SMILES IDX 31 37 85 38 79 39 81 40 32 41 84 42 78 43 77 44 33 46 65 47
REMARK SMILES IDX 45 48 64 49 46 50 49 51 63 52 82 53 47 54 48 55 62 57 83 58
REMARK SMILES IDX 50 59 34 60 35 61 43 62 36 63 37 64 41 65 44 66 38 67 39 68
REMARK SMILES IDX 42 69 40 70 66 71 67 72 75 73 68 74 69 75 73 76 76 77 70 78
REMARK SMILES IDX 71 79 74 80 72 81 51 82 52 83 60 84 53 85 54 86 58 87 61 88
REMARK SMILES IDX 55 89 56 90 59 91 57 92
REMARK H PARENT 18 4 10 11 22 26 81 45 49 56
REMARK Flexibility Score: inf
ROOT
ATOM      1  C   UNL A   1      32.797  35.726  31.218  1.00  0.00     0.227 C 
ATOM      2  O   UNL A   1      31.716  35.885  31.781  1.00  0.00    -0.275 OA
ATOM      3  N   UNL A   1      32.906  34.801  30.218  1.00  0.00    -0.356 N 
ATOM      4  H   UNL A   1      32.091  34.283  30.030  1.00  0.00     0.163 HD
ENDROOT
BRANCH   1   5
ATOM      5  C   UNL A   1      34.030  36.520  31.563  1.00  0.00     0.124 C 
ATOM      6  C   UNL A   1      34.895  35.961  32.667  1.00  0.00     0.110 C 
ATOM      7  C   UNL A   1      34.186  36.479  33.913  1.00  0.00     0.181 C 
ATOM      8  O   UNL A   1      33.656  37.769  33.570  1.00  0.00    -0.379 OA
ATOM      9  C   UNL A   1      33.610  37.867  32.139  1.00  0.00     0.175 C 
BRANCH   6  10
ATOM     10  N   UNL A   1      35.156  34.505  32.722  1.00  0.00    -0.209 NA
ATOM     11  H   UNL A   1      34.245  34.063  32.846  1.00  0.00     0.141 HD
BRANCH  10  12
ATOM     12  S   UNL A   1      36.170  33.784  33.852  1.00  0.00     0.214 S 
ATOM     13  O   UNL A   1      35.391  33.422  35.008  1.00  0.00    -0.212 OA
ATOM     14  O   UNL A   1      37.263  34.733  33.978  1.00  0.00    -0.212 OA
BRANCH  12  15
ATOM     15  C   UNL A   1      36.858  32.324  33.048  1.00  0.00     0.182 C 
BRANCH  15  16
ATOM     16  C   UNL A   1      37.301  32.542  31.607  1.00  0.00     0.178 C 
BRANCH  16  17
ATOM     17  O   UNL A   1      38.037  33.745  31.364  1.00  0.00    -0.378 OA
BRANCH  17  18
ATOM     18  C   UNL A   1      38.198  34.222  30.027  1.00  0.00     0.112 C 
ATOM     19  C   UNL A   1      39.516  34.937  29.760  1.00  0.00     0.038 C 
ATOM     20  C   UNL A   1      37.865  33.109  29.041  1.00  0.00     0.038 C 
ENDBRANCH  17  18
ENDBRANCH  16  17
ENDBRANCH  15  16
ENDBRANCH  12  15
ENDBRANCH  10  12
ENDBRANCH   6  10
ENDBRANCH   1   5
BRANCH   3  21
ATOM     21  C   UNL A   1      34.062  34.475  29.393  1.00  0.00     0.117 C 
BRANCH  21  22
ATOM     22  C   UNL A   1      34.390  32.989  29.406  1.00  0.00     0.042 C 
BRANCH  22  23
ATOM     23  C   UNL A   1      34.583  32.389  28.020  1.00  0.00     0.118 C 
BRANCH  23  24
ATOM     24  N   UNL A   1      34.023  31.046  27.903  1.00  0.00    -0.352 N 
ATOM     25  C   UNL A   1      34.631  29.819  27.930  1.00  0.00     0.251 C 
ATOM     26  H   UNL A   1      33.046  31.017  27.784  1.00  0.00     0.163 HD
ATOM     27  O   UNL A   1      34.001  28.815  27.615  1.00  0.00    -0.269 OA
BRANCH  25  28
ATOM     28  C   UNL A   1      36.051  29.714  28.308  1.00  0.00     0.039 A 
ATOM     29  C   UNL A   1      36.374  29.354  29.617  1.00  0.00     0.014 A 
ATOM     30  C   UNL A   1      37.058  29.951  27.369  1.00  0.00     0.014 A 
ATOM     31  C   UNL A   1      37.707  29.145  29.962  1.00  0.00     0.010 A 
ATOM     32  C   UNL A   1      38.376  29.655  27.687  1.00  0.00     0.010 A 
ATOM     33  C   UNL A   1      38.712  29.241  28.985  1.00  0.00    -0.014 A 
BRANCH  33  34
ATOM     34  C   UNL A   1      40.115  28.875  29.291  1.00  0.00     0.031 A 
ATOM     35  C   UNL A   1      41.009  29.843  30.014  1.00  0.00     0.074 A 
ATOM     36  C   UNL A   1      40.602  27.703  28.837  1.00  0.00     0.049 A 
ATOM     37  N   UNL A   1      42.282  29.737  30.298  1.00  0.00    -0.248 NA
ATOM     38  C   UNL A   1      40.400  31.111  30.449  1.00  0.00     0.031 C 
ATOM     39  C   UNL A   1      39.844  26.716  28.066  1.00  0.00     0.029 A 
ATOM     40  N   UNL A   1      41.854  27.152  28.942  1.00  0.00    -0.354 N 
ATOM     41  C   UNL A   1      42.629  30.926  30.925  1.00  0.00     0.074 A 
ATOM     42  C   UNL A   1      41.448  31.760  30.939  1.00  0.00     0.031 C 
ATOM     43  C   UNL A   1      40.640  25.673  27.782  1.00  0.00     0.029 A 
ATOM     44  C   UNL A   1      41.974  25.937  28.311  1.00  0.00     0.049 A 
ATOM     45  H   UNL A   1      42.595  27.585  29.422  1.00  0.00     0.167 HD
ATOM     46  C   UNL A   1      43.822  31.276  31.458  1.00  0.00     0.037 A 
ATOM     47  C   UNL A   1      43.044  25.135  28.162  1.00  0.00     0.037 A 
ATOM     48  C   UNL A   1      44.982  30.425  31.468  1.00  0.00     0.049 A 
ATOM     49  C   UNL A   1      44.356  25.551  28.769  1.00  0.00     0.074 A 
ATOM     50  C   UNL A   1      46.208  30.648  32.069  1.00  0.00     0.029 A 
ATOM     51  N   UNL A   1      45.061  29.191  30.840  1.00  0.00    -0.354 N 
ATOM     52  N   UNL A   1      44.646  26.634  29.449  1.00  0.00    -0.248 NA
ATOM     53  C   UNL A   1      45.490  24.632  28.594  1.00  0.00     0.031 C 
ATOM     54  C   UNL A   1      47.049  29.576  31.755  1.00  0.00     0.029 A 
ATOM     55  C   UNL A   1      46.330  28.658  31.006  1.00  0.00     0.049 A 
ATOM     56  H   UNL A   1      44.326  28.757  30.350  1.00  0.00     0.167 HD
ATOM     57  C   UNL A   1      45.986  26.521  29.794  1.00  0.00     0.074 A 
ATOM     58  C   UNL A   1      46.445  25.250  29.274  1.00  0.00     0.031 C 
ATOM     59  C   UNL A   1      46.769  27.393  30.475  1.00  0.00     0.037 A 
BRANCH  46  60
ATOM     60  C   UNL A   1      43.940  32.636  32.082  1.00  0.00     0.064 A 
ATOM     61  C   UNL A   1      44.328  33.758  31.336  1.00  0.00     0.173 A 
ATOM     62  C   UNL A   1      43.597  32.829  33.429  1.00  0.00     0.173 A 
ATOM     63  F   UNL A   1      44.676  33.626  30.048  1.00  0.00    -0.203 F 
ATOM     64  C   UNL A   1      44.386  35.021  31.920  1.00  0.00     0.198 A 
ATOM     65  C   UNL A   1      43.629  34.097  34.003  1.00  0.00     0.198 A 
ATOM     66  F   UNL A   1      43.216  31.790  34.186  1.00  0.00    -0.203 F 
ATOM     67  F   UNL A   1      44.796  36.073  31.198  1.00  0.00    -0.200 F 
ATOM     68  C   UNL A   1      44.028  35.191  33.249  1.00  0.00     0.200 A 
ATOM     69  F   UNL A   1      43.268  34.262  35.283  1.00  0.00    -0.200 F 
ATOM     70  F   UNL A   1      44.068  36.410  33.805  1.00  0.00    -0.200 F 
ENDBRANCH  46  60
BRANCH  47  71
ATOM     71  C   UNL A   1      42.924  23.862  27.403  1.00  0.00     0.064 A 
ATOM     72  C   UNL A   1      42.492  22.685  28.030  1.00  0.00     0.173 A 
ATOM     73  C   UNL A   1      43.251  23.792  26.041  1.00  0.00     0.173 A 
ATOM     74  F   UNL A   1      42.185  22.695  29.335  1.00  0.00    -0.203 F 
ATOM     75  C   UNL A   1      42.420  21.482  27.330  1.00  0.00     0.198 A 
ATOM     76  C   UNL A   1      43.148  22.596  25.334  1.00  0.00     0.198 A 
ATOM     77  F   UNL A   1      43.663  24.891  25.391  1.00  0.00    -0.203 F 
ATOM     78  F   UNL A   1      42.058  20.360  27.968  1.00  0.00    -0.200 F 
ATOM     79  C   UNL A   1      42.743  21.439  25.982  1.00  0.00     0.200 A 
ATOM     80  F   UNL A   1      43.443  22.564  24.028  1.00  0.00    -0.200 F 
ATOM     81  F   UNL A   1      42.672  20.282  25.310  1.00  0.00    -0.200 F 
ENDBRANCH  47  71
BRANCH  59  82
ATOM     82  C   UNL A   1      48.198  26.997  30.703  1.00  0.00     0.064 A 
ATOM     83  C   UNL A   1      48.566  26.168  31.772  1.00  0.00     0.173 A 
ATOM     84  C   UNL A   1      49.204  27.417  29.820  1.00  0.00     0.173 A 
ATOM     85  F   UNL A   1      47.643  25.753  32.654  1.00  0.00    -0.203 F 
ATOM     86  C   UNL A   1      49.893  25.794  31.963  1.00  0.00     0.198 A 
ATOM     87  C   UNL A   1      50.525  27.015  29.995  1.00  0.00     0.198 A 
ATOM     88  F   UNL A   1      48.903  28.206  28.777  1.00  0.00    -0.203 F 
ATOM     89  F   UNL A   1      50.230  25.042  33.021  1.00  0.00    -0.200 F 
ATOM     90  C   UNL A   1      50.869  26.210  31.070  1.00  0.00     0.200 A 
ATOM     91  F   UNL A   1      51.464  27.406  29.122  1.00  0.00    -0.200 F 
ATOM     92  F   UNL A   1      52.146  25.842  31.250  1.00  0.00    -0.200 F 
ENDBRANCH  59  82
ENDBRANCH  33  34
ENDBRANCH  25  28
ENDBRANCH  23  24
ENDBRANCH  22  23
ENDBRANCH  21  22
ENDBRANCH   3  21
TORSDOF 16
ENDMDL
