MODEL 1
REMARK VINA RESULT:     -13.1      0.000      0.000
REMARK SMILES Cc1oc2ccc(NS(=O)(=O)c3ccc(C(C)C)cc3)cc2c1C(=O)NCCCNC(=O)c1ccc(-c2c3nc(c(-c4c(F)c(F)c(F)c(F)c4F)c4ccc([nH]4)c(-c4c(F)c(F)c(F)c(F)c4F)c4nc(c(-c5c(F)c(F)c(F)c(F)c5F)c5ccc2[nH]5)C=C4)C=C3)cc1
REMARK SMILES IDX 27 1 26 2 24 3 25 4 23 6 1 7 2 8 3 9 4 10 22 11 5 12 21 13
REMARK SMILES IDX 6 14 7 15 8 16 9 18 10 19 11 20 12 21 13 22 20 23 14 24
REMARK SMILES IDX 19 25 15 26 16 27 17 28 18 29 28 30 29 31 30 32 31 33 32 35
REMARK SMILES IDX 33 36 34 37 95 38 35 39 94 40 36 41 37 42 38 43 88 44 39 45
REMARK SMILES IDX 93 46 87 47 89 48 40 49 92 50 86 51 85 52 41 54 73 55 53 56
REMARK SMILES IDX 72 57 54 58 57 59 71 60 90 61 55 62 56 63 70 65 91 66 58 67
REMARK SMILES IDX 42 68 43 69 51 70 44 71 45 72 49 73 52 74 46 75 47 76 50 77
REMARK SMILES IDX 48 78 74 79 75 80 83 81 76 82 77 83 81 84 84 85 78 86 79 87
REMARK SMILES IDX 82 88 80 89 59 90 60 91 68 92 61 93 62 94 66 95 69 96 63 97
REMARK SMILES IDX 64 98 67 99 65 100
REMARK H PARENT 26 5 8 17 30 34 89 53 57 64
REMARK Flexibility Score: inf
ROOT
ATOM      1  C   UNL A   1      34.812  22.980  23.486  1.00  0.00     0.118 C 
ENDROOT
BRANCH   1   2
ATOM      2  N   UNL A   1      33.916  21.844  23.558  1.00  0.00    -0.352 N 
ATOM      3  C   UNL A   1      32.804  21.603  24.330  1.00  0.00     0.255 C 
ATOM      4  O   UNL A   1      32.207  20.548  24.115  1.00  0.00    -0.269 OA
ATOM      5  H   UNL A   1      34.145  21.111  22.942  1.00  0.00     0.163 HD
BRANCH   3   6
ATOM      6  C   UNL A   1      32.401  22.493  25.411  1.00  0.00     0.088 A 
ATOM      7  C   UNL A   1      33.595  21.650  27.627  1.00  0.00     0.088 C 
ATOM      8  C   UNL A   1      32.701  22.456  26.766  1.00  0.00     0.114 A 
ATOM      9  O   UNL A   1      32.015  23.430  27.434  1.00  0.00    -0.461 OA
ATOM     10  C   UNL A   1      31.368  24.182  26.508  1.00  0.00     0.135 A 
ATOM     11  C   UNL A   1      31.648  23.709  25.237  1.00  0.00     0.035 A 
ATOM     12  C   UNL A   1      30.564  25.289  26.773  1.00  0.00     0.050 A 
ATOM     13  C   UNL A   1      31.166  24.453  24.139  1.00  0.00     0.039 A 
ATOM     14  C   UNL A   1      30.030  25.963  25.662  1.00  0.00     0.030 A 
ATOM     15  C   UNL A   1      30.333  25.561  24.357  1.00  0.00     0.050 A 
BRANCH  15  16
ATOM     16  N   UNL A   1      29.888  26.351  23.241  1.00  0.00    -0.280 N 
ATOM     17  H   UNL A   1      28.977  26.220  22.891  1.00  0.00     0.180 HD
BRANCH  16  18
ATOM     18  S   UNL A   1      30.908  27.509  22.514  1.00  0.00     0.261 S 
ATOM     19  O   UNL A   1      31.857  26.793  21.699  1.00  0.00    -0.201 OA
ATOM     20  O   UNL A   1      30.010  28.480  21.905  1.00  0.00    -0.201 OA
BRANCH  18  21
ATOM     21  C   UNL A   1      31.800  28.328  23.806  1.00  0.00     0.087 A 
ATOM     22  C   UNL A   1      31.202  29.343  24.554  1.00  0.00     0.022 A 
ATOM     23  C   UNL A   1      33.120  27.948  24.063  1.00  0.00     0.022 A 
ATOM     24  C   UNL A   1      31.885  29.886  25.647  1.00  0.00     0.005 A 
ATOM     25  C   UNL A   1      33.775  28.458  25.183  1.00  0.00     0.005 A 
ATOM     26  C   UNL A   1      33.148  29.398  26.018  1.00  0.00    -0.045 A 
BRANCH  26  27
ATOM     27  C   UNL A   1      33.844  29.815  27.303  1.00  0.00     0.013 C 
ATOM     28  C   UNL A   1      35.307  29.376  27.313  1.00  0.00     0.012 C 
ATOM     29  C   UNL A   1      33.729  31.311  27.619  1.00  0.00     0.012 C 
ENDBRANCH  26  27
ENDBRANCH  18  21
ENDBRANCH  16  18
ENDBRANCH  15  16
ENDBRANCH   3   6
ENDBRANCH   1   2
BRANCH   1  30
ATOM     30  C   UNL A   1      36.249  22.713  23.918  1.00  0.00     0.042 C 
BRANCH  30  31
ATOM     31  C   UNL A   1      36.467  22.298  25.366  1.00  0.00     0.118 C 
BRANCH  31  32
ATOM     32  N   UNL A   1      37.522  21.318  25.562  1.00  0.00    -0.352 N 
ATOM     33  C   UNL A   1      38.815  21.405  26.023  1.00  0.00     0.251 C 
ATOM     34  H   UNL A   1      37.258  20.403  25.312  1.00  0.00     0.163 HD
ATOM     35  O   UNL A   1      39.506  20.388  26.002  1.00  0.00    -0.269 OA
BRANCH  33  36
ATOM     36  C   UNL A   1      39.423  22.674  26.496  1.00  0.00     0.039 A 
ATOM     37  C   UNL A   1      40.451  22.597  27.446  1.00  0.00     0.014 A 
ATOM     38  C   UNL A   1      38.984  23.930  26.084  1.00  0.00     0.014 A 
ATOM     39  C   UNL A   1      41.086  23.757  27.904  1.00  0.00     0.010 A 
ATOM     40  C   UNL A   1      39.680  25.080  26.462  1.00  0.00     0.010 A 
ATOM     41  C   UNL A   1      40.743  25.010  27.374  1.00  0.00    -0.014 A 
BRANCH  41  42
ATOM     42  C   UNL A   1      41.477  26.248  27.755  1.00  0.00     0.031 A 
ATOM     43  C   UNL A   1      40.788  27.342  28.527  1.00  0.00     0.074 A 
ATOM     44  C   UNL A   1      42.747  26.428  27.336  1.00  0.00     0.049 A 
ATOM     45  N   UNL A   1      41.225  28.535  28.848  1.00  0.00    -0.248 NA
ATOM     46  C   UNL A   1      39.411  27.073  28.968  1.00  0.00     0.031 C 
ATOM     47  C   UNL A   1      43.519  25.472  26.541  1.00  0.00     0.029 A 
ATOM     48  N   UNL A   1      43.607  27.485  27.507  1.00  0.00    -0.354 N 
ATOM     49  C   UNL A   1      40.172  29.165  29.498  1.00  0.00     0.074 A 
ATOM     50  C   UNL A   1      39.058  28.241  29.485  1.00  0.00     0.031 C 
ATOM     51  C   UNL A   1      44.743  25.973  26.315  1.00  0.00     0.029 A 
ATOM     52  C   UNL A   1      44.831  27.303  26.909  1.00  0.00     0.049 A 
ATOM     53  H   UNL A   1      43.370  28.296  28.012  1.00  0.00     0.167 HD
ATOM     54  C   UNL A   1      40.140  30.391  30.072  1.00  0.00     0.037 A 
ATOM     55  C   UNL A   1      45.900  28.119  26.836  1.00  0.00     0.037 A 
ATOM     56  C   UNL A   1      41.262  31.293  30.127  1.00  0.00     0.049 A 
ATOM     57  C   UNL A   1      45.845  29.470  27.495  1.00  0.00     0.074 A 
ATOM     58  C   UNL A   1      41.349  32.524  30.752  1.00  0.00     0.029 A 
ATOM     59  N   UNL A   1      42.494  31.058  29.533  1.00  0.00    -0.354 N 
ATOM     60  N   UNL A   1      44.862  30.027  28.159  1.00  0.00    -0.248 NA
ATOM     61  C   UNL A   1      47.052  30.304  27.398  1.00  0.00     0.031 C 
ATOM     62  C   UNL A   1      42.620  33.054  30.502  1.00  0.00     0.029 A 
ATOM     63  C   UNL A   1      43.340  32.131  29.763  1.00  0.00     0.049 A 
ATOM     64  H   UNL A   1      42.731  30.249  29.025  1.00  0.00     0.167 HD
ATOM     65  C   UNL A   1      45.339  31.260  28.583  1.00  0.00     0.074 A 
ATOM     66  C   UNL A   1      46.704  31.366  28.112  1.00  0.00     0.031 C 
ATOM     67  C   UNL A   1      44.701  32.219  29.296  1.00  0.00     0.037 A 
BRANCH  54  68
ATOM     68  C   UNL A   1      38.849  30.834  30.700  1.00  0.00     0.064 A 
ATOM     69  C   UNL A   1      38.616  30.705  32.077  1.00  0.00     0.173 A 
ATOM     70  C   UNL A   1      37.847  31.430  29.919  1.00  0.00     0.173 A 
ATOM     71  F   UNL A   1      39.537  30.133  32.867  1.00  0.00    -0.203 F 
ATOM     72  C   UNL A   1      37.417  31.128  32.645  1.00  0.00     0.198 A 
ATOM     73  C   UNL A   1      36.661  31.881  30.496  1.00  0.00     0.198 A 
ATOM     74  F   UNL A   1      38.020  31.586  28.598  1.00  0.00    -0.203 F 
ATOM     75  F   UNL A   1      37.198  30.948  33.955  1.00  0.00    -0.200 F 
ATOM     76  C   UNL A   1      36.444  31.721  31.855  1.00  0.00     0.200 A 
ATOM     77  F   UNL A   1      35.728  32.468  29.733  1.00  0.00    -0.200 F 
ATOM     78  F   UNL A   1      35.294  32.135  32.405  1.00  0.00    -0.200 F 
ENDBRANCH  54  68
BRANCH  55  79
ATOM     79  C   UNL A   1      47.129  27.668  26.132  1.00  0.00     0.064 A 
ATOM     80  C   UNL A   1      47.227  27.752  24.736  1.00  0.00     0.173 A 
ATOM     81  C   UNL A   1      48.225  27.144  26.833  1.00  0.00     0.173 A 
ATOM     82  F   UNL A   1      46.196  28.225  24.021  1.00  0.00    -0.203 F 
ATOM     83  C   UNL A   1      48.368  27.314  24.066  1.00  0.00     0.198 A 
ATOM     84  C   UNL A   1      49.376  26.732  26.164  1.00  0.00     0.198 A 
ATOM     85  F   UNL A   1      48.183  27.048  28.170  1.00  0.00    -0.203 F 
ATOM     86  F   UNL A   1      48.418  27.367  22.728  1.00  0.00    -0.200 F 
ATOM     87  C   UNL A   1      49.444  26.811  24.781  1.00  0.00     0.200 A 
ATOM     88  F   UNL A   1      50.420  26.260  26.860  1.00  0.00    -0.200 F 
ATOM     89  F   UNL A   1      50.543  26.394  24.137  1.00  0.00    -0.200 F 
ENDBRANCH  55  79
BRANCH  67  90
ATOM     90  C   UNL A   1      45.481  33.452  29.647  1.00  0.00     0.064 A 
ATOM     91  C   UNL A   1      46.268  33.520  30.807  1.00  0.00     0.173 A 
ATOM     92  C   UNL A   1      45.474  34.564  28.792  1.00  0.00     0.173 A 
ATOM     93  F   UNL A   1      46.295  32.488  31.665  1.00  0.00    -0.203 F 
ATOM     94  C   UNL A   1      47.000  34.665  31.108  1.00  0.00     0.198 A 
ATOM     95  C   UNL A   1      46.230  35.696  29.082  1.00  0.00     0.198 A 
ATOM     96  F   UNL A   1      44.743  34.548  27.668  1.00  0.00    -0.203 F 
ATOM     97  F   UNL A   1      47.709  34.725  32.244  1.00  0.00    -0.200 F 
ATOM     98  C   UNL A   1      46.987  35.749  30.243  1.00  0.00     0.200 A 
ATOM     99  F   UNL A   1      46.227  36.738  28.238  1.00  0.00    -0.200 F 
ATOM    100  F   UNL A   1      47.698  36.847  30.531  1.00  0.00    -0.200 F 
ENDBRANCH  67  90
ENDBRANCH  41  42
ENDBRANCH  33  36
ENDBRANCH  31  32
ENDBRANCH  30  31
ENDBRANCH   1  30
TORSDOF 14
ENDMDL
MODEL 2
REMARK VINA RESULT:     -13.0      4.657     10.276
REMARK SMILES Cc1oc2ccc(NS(=O)(=O)c3ccc(C(C)C)cc3)cc2c1C(=O)NCCCNC(=O)c1ccc(-c2c3nc(c(-c4c(F)c(F)c(F)c(F)c4F)c4ccc([nH]4)c(-c4c(F)c(F)c(F)c(F)c4F)c4nc(c(-c5c(F)c(F)c(F)c(F)c5F)c5ccc2[nH]5)C=C4)C=C3)cc1
REMARK SMILES IDX 27 1 26 2 24 3 25 4 23 6 1 7 2 8 3 9 4 10 22 11 5 12 21 13
REMARK SMILES IDX 6 14 7 15 8 16 9 18 10 19 11 20 12 21 13 22 20 23 14 24
REMARK SMILES IDX 19 25 15 26 16 27 17 28 18 29 28 30 29 31 30 32 31 33 32 35
REMARK SMILES IDX 33 36 34 37 95 38 35 39 94 40 36 41 37 42 38 43 88 44 39 45
REMARK SMILES IDX 93 46 87 47 89 48 40 49 92 50 86 51 85 52 41 54 73 55 53 56
REMARK SMILES IDX 72 57 54 58 57 59 71 60 90 61 55 62 56 63 70 65 91 66 58 67
REMARK SMILES IDX 42 68 43 69 51 70 44 71 45 72 49 73 52 74 46 75 47 76 50 77
REMARK SMILES IDX 48 78 74 79 75 80 83 81 76 82 77 83 81 84 84 85 78 86 79 87
REMARK SMILES IDX 82 88 80 89 59 90 60 91 68 92 61 93 62 94 66 95 69 96 63 97
REMARK SMILES IDX 64 98 67 99 65 100
REMARK H PARENT 26 5 8 17 30 34 89 53 57 64
REMARK Flexibility Score: inf
ROOT
ATOM      1  C   UNL A   1      31.596  30.496  26.443  1.00  0.00     0.118 C 
ENDROOT
BRANCH   1   2
ATOM      2  N   UNL A   1      32.508  30.197  25.358  1.00  0.00    -0.352 N 
ATOM      3  C   UNL A   1      32.494  29.214  24.395  1.00  0.00     0.255 C 
ATOM      4  O   UNL A   1      33.394  29.257  23.556  1.00  0.00    -0.269 OA
ATOM      5  H   UNL A   1      33.277  30.808  25.298  1.00  0.00     0.163 HD
BRANCH   3   6
ATOM      6  C   UNL A   1      31.531  28.121  24.415  1.00  0.00     0.088 A 
ATOM      7  C   UNL A   1      29.381  28.925  23.081  1.00  0.00     0.088 C 
ATOM      8  C   UNL A   1      30.239  28.050  23.911  1.00  0.00     0.114 A 
ATOM      9  O   UNL A   1      29.657  26.863  24.253  1.00  0.00    -0.461 OA
ATOM     10  C   UNL A   1      30.602  26.107  24.867  1.00  0.00     0.135 A 
ATOM     11  C   UNL A   1      31.803  26.795  24.908  1.00  0.00     0.035 A 
ATOM     12  C   UNL A   1      30.420  24.817  25.360  1.00  0.00     0.050 A 
ATOM     13  C   UNL A   1      32.936  26.107  25.393  1.00  0.00     0.039 A 
ATOM     14  C   UNL A   1      31.547  24.186  25.912  1.00  0.00     0.030 A 
ATOM     15  C   UNL A   1      32.797  24.815  25.922  1.00  0.00     0.050 A 
BRANCH  15  16
ATOM     16  N   UNL A   1      33.959  24.096  26.364  1.00  0.00    -0.280 N 
ATOM     17  H   UNL A   1      34.162  24.052  27.327  1.00  0.00     0.180 HD
BRANCH  16  18
ATOM     18  S   UNL A   1      34.993  23.315  25.254  1.00  0.00     0.261 S 
ATOM     19  O   UNL A   1      35.027  24.123  24.060  1.00  0.00    -0.201 OA
ATOM     20  O   UNL A   1      36.220  23.054  25.992  1.00  0.00    -0.201 OA
BRANCH  18  21
ATOM     21  C   UNL A   1      34.263  21.755  24.842  1.00  0.00     0.087 A 
ATOM     22  C   UNL A   1      33.045  21.694  24.166  1.00  0.00     0.022 A 
ATOM     23  C   UNL A   1      34.923  20.581  25.213  1.00  0.00     0.022 A 
ATOM     24  C   UNL A   1      32.553  20.454  23.745  1.00  0.00     0.005 A 
ATOM     25  C   UNL A   1      34.454  19.353  24.748  1.00  0.00     0.005 A 
ATOM     26  C   UNL A   1      33.288  19.278  23.967  1.00  0.00    -0.045 A 
BRANCH  26  27
ATOM     27  C   UNL A   1      32.896  17.940  23.363  1.00  0.00     0.013 C 
ATOM     28  C   UNL A   1      32.242  18.117  21.993  1.00  0.00     0.012 C 
ATOM     29  C   UNL A   1      34.046  16.929  23.283  1.00  0.00     0.012 C 
ENDBRANCH  26  27
ENDBRANCH  18  21
ENDBRANCH  16  18
ENDBRANCH  15  16
ENDBRANCH   3   6
ENDBRANCH   1   2
BRANCH   1  30
ATOM     30  C   UNL A   1      31.391  31.978  26.739  1.00  0.00     0.042 C 
BRANCH  30  31
ATOM     31  C   UNL A   1      32.642  32.813  26.973  1.00  0.00     0.118 C 
BRANCH  31  32
ATOM     32  N   UNL A   1      32.394  34.121  27.556  1.00  0.00    -0.352 N 
ATOM     33  C   UNL A   1      33.007  34.838  28.557  1.00  0.00     0.251 C 
ATOM     34  H   UNL A   1      31.629  34.591  27.153  1.00  0.00     0.163 HD
ATOM     35  O   UNL A   1      32.510  35.913  28.887  1.00  0.00    -0.269 OA
BRANCH  33  36
ATOM     36  C   UNL A   1      34.207  34.350  29.284  1.00  0.00     0.039 A 
ATOM     37  C   UNL A   1      34.007  33.594  30.448  1.00  0.00     0.014 A 
ATOM     38  C   UNL A   1      35.509  34.654  28.897  1.00  0.00     0.014 A 
ATOM     39  C   UNL A   1      35.098  33.078  31.158  1.00  0.00     0.010 A 
ATOM     40  C   UNL A   1      36.595  34.059  29.544  1.00  0.00     0.010 A 
ATOM     41  C   UNL A   1      36.405  33.260  30.680  1.00  0.00    -0.014 A 
BRANCH  41  42
ATOM     42  C   UNL A   1      37.576  32.627  31.348  1.00  0.00     0.031 A 
ATOM     43  C   UNL A   1      38.304  31.481  30.695  1.00  0.00     0.074 A 
ATOM     44  C   UNL A   1      37.938  33.028  32.583  1.00  0.00     0.049 A 
ATOM     45  N   UNL A   1      39.267  30.731  31.170  1.00  0.00    -0.248 NA
ATOM     46  C   UNL A   1      37.869  31.107  29.341  1.00  0.00     0.031 C 
ATOM     47  C   UNL A   1      37.291  34.093  33.351  1.00  0.00     0.029 A 
ATOM     48  N   UNL A   1      38.932  32.577  33.418  1.00  0.00    -0.354 N 
ATOM     49  C   UNL A   1      39.530  29.783  30.190  1.00  0.00     0.074 A 
ATOM     50  C   UNL A   1      38.594  30.022  29.113  1.00  0.00     0.031 C 
ATOM     51  C   UNL A   1      37.917  34.229  34.531  1.00  0.00     0.029 A 
ATOM     52  C   UNL A   1      38.981  33.235  34.624  1.00  0.00     0.049 A 
ATOM     53  H   UNL A   1      39.551  31.851  33.175  1.00  0.00     0.167 HD
ATOM     54  C   UNL A   1      40.478  28.815  30.178  1.00  0.00     0.037 A 
ATOM     55  C   UNL A   1      39.784  33.052  35.690  1.00  0.00     0.037 A 
ATOM     56  C   UNL A   1      41.440  28.605  31.228  1.00  0.00     0.049 A 
ATOM     57  C   UNL A   1      40.838  31.980  35.645  1.00  0.00     0.074 A 
ATOM     58  C   UNL A   1      42.487  27.701  31.272  1.00  0.00     0.029 A 
ATOM     59  N   UNL A   1      41.474  29.314  32.421  1.00  0.00    -0.354 N 
ATOM     60  N   UNL A   1      41.115  31.131  34.685  1.00  0.00    -0.248 NA
ATOM     61  C   UNL A   1      41.696  31.845  36.831  1.00  0.00     0.031 C 
ATOM     62  C   UNL A   1      43.128  27.831  32.509  1.00  0.00     0.029 A 
ATOM     63  C   UNL A   1      42.513  28.852  33.215  1.00  0.00     0.049 A 
ATOM     64  H   UNL A   1      40.853  30.037  32.667  1.00  0.00     0.167 HD
ATOM     65  C   UNL A   1      42.193  30.382  35.138  1.00  0.00     0.074 A 
ATOM     66  C   UNL A   1      42.530  30.886  36.453  1.00  0.00     0.031 C 
ATOM     67  C   UNL A   1      42.843  29.368  34.518  1.00  0.00     0.037 A 
BRANCH  54  68
ATOM     68  C   UNL A   1      40.530  27.905  28.983  1.00  0.00     0.064 A 
ATOM     69  C   UNL A   1      39.756  26.737  28.911  1.00  0.00     0.173 A 
ATOM     70  C   UNL A   1      41.335  28.227  27.879  1.00  0.00     0.173 A 
ATOM     71  F   UNL A   1      38.977  26.378  29.942  1.00  0.00    -0.203 F 
ATOM     72  C   UNL A   1      39.809  25.910  27.792  1.00  0.00     0.198 A 
ATOM     73  C   UNL A   1      41.361  27.413  26.749  1.00  0.00     0.198 A 
ATOM     74  F   UNL A   1      42.089  29.337  27.892  1.00  0.00    -0.203 F 
ATOM     75  F   UNL A   1      39.100  24.773  27.768  1.00  0.00    -0.200 F 
ATOM     76  C   UNL A   1      40.606  26.251  26.710  1.00  0.00     0.200 A 
ATOM     77  F   UNL A   1      42.121  27.753  25.698  1.00  0.00    -0.200 F 
ATOM     78  F   UNL A   1      40.650  25.458  25.631  1.00  0.00    -0.200 F 
ENDBRANCH  54  68
BRANCH  55  79
ATOM     79  C   UNL A   1      39.639  33.924  36.884  1.00  0.00     0.064 A 
ATOM     80  C   UNL A   1      38.864  33.519  37.979  1.00  0.00     0.173 A 
ATOM     81  C   UNL A   1      40.267  35.177  36.957  1.00  0.00     0.173 A 
ATOM     82  F   UNL A   1      38.226  32.339  37.946  1.00  0.00    -0.203 F 
ATOM     83  C   UNL A   1      38.708  34.338  39.095  1.00  0.00     0.198 A 
ATOM     84  C   UNL A   1      40.132  35.984  38.084  1.00  0.00     0.198 A 
ATOM     85  F   UNL A   1      41.024  35.609  35.938  1.00  0.00    -0.203 F 
ATOM     86  F   UNL A   1      37.927  33.944  40.109  1.00  0.00    -0.200 F 
ATOM     87  C   UNL A   1      39.348  35.568  39.149  1.00  0.00     0.200 A 
ATOM     88  F   UNL A   1      40.765  37.165  38.140  1.00  0.00    -0.200 F 
ATOM     89  F   UNL A   1      39.202  36.354  40.224  1.00  0.00    -0.200 F 
ENDBRANCH  55  79
BRANCH  67  90
ATOM     90  C   UNL A   1      44.011  28.757  35.236  1.00  0.00     0.064 A 
ATOM     91  C   UNL A   1      43.852  27.671  36.110  1.00  0.00     0.173 A 
ATOM     92  C   UNL A   1      45.310  29.240  35.017  1.00  0.00     0.173 A 
ATOM     93  F   UNL A   1      42.628  27.184  36.365  1.00  0.00    -0.203 F 
ATOM     94  C   UNL A   1      44.950  27.106  36.754  1.00  0.00     0.198 A 
ATOM     95  C   UNL A   1      46.408  28.653  35.641  1.00  0.00     0.198 A 
ATOM     96  F   UNL A   1      45.516  30.273  34.187  1.00  0.00    -0.203 F 
ATOM     97  F   UNL A   1      44.770  26.098  37.620  1.00  0.00    -0.200 F 
ATOM     98  C   UNL A   1      46.227  27.591  36.514  1.00  0.00     0.200 A 
ATOM     99  F   UNL A   1      47.642  29.116  35.397  1.00  0.00    -0.200 F 
ATOM    100  F   UNL A   1      47.282  27.042  37.129  1.00  0.00    -0.200 F 
ENDBRANCH  67  90
ENDBRANCH  41  42
ENDBRANCH  33  36
ENDBRANCH  31  32
ENDBRANCH  30  31
ENDBRANCH   1  30
TORSDOF 14
ENDMDL
MODEL 3
REMARK VINA RESULT:     -13.0      4.128      7.504
REMARK SMILES Cc1oc2ccc(NS(=O)(=O)c3ccc(C(C)C)cc3)cc2c1C(=O)NCCCNC(=O)c1ccc(-c2c3nc(c(-c4c(F)c(F)c(F)c(F)c4F)c4ccc([nH]4)c(-c4c(F)c(F)c(F)c(F)c4F)c4nc(c(-c5c(F)c(F)c(F)c(F)c5F)c5ccc2[nH]5)C=C4)C=C3)cc1
REMARK SMILES IDX 27 1 26 2 24 3 25 4 23 6 1 7 2 8 3 9 4 10 22 11 5 12 21 13
REMARK SMILES IDX 6 14 7 15 8 16 9 18 10 19 11 20 12 21 13 22 20 23 14 24
REMARK SMILES IDX 19 25 15 26 16 27 17 28 18 29 28 30 29 31 30 32 31 33 32 35
REMARK SMILES IDX 33 36 34 37 95 38 35 39 94 40 36 41 37 42 38 43 88 44 39 45
REMARK SMILES IDX 93 46 87 47 89 48 40 49 92 50 86 51 85 52 41 54 73 55 53 56
REMARK SMILES IDX 72 57 54 58 57 59 71 60 90 61 55 62 56 63 70 65 91 66 58 67
REMARK SMILES IDX 42 68 43 69 51 70 44 71 45 72 49 73 52 74 46 75 47 76 50 77
REMARK SMILES IDX 48 78 74 79 75 80 83 81 76 82 77 83 81 84 84 85 78 86 79 87
REMARK SMILES IDX 82 88 80 89 59 90 60 91 68 92 61 93 62 94 66 95 69 96 63 97
REMARK SMILES IDX 64 98 67 99 65 100
REMARK H PARENT 26 5 8 17 30 34 89 53 57 64
REMARK Flexibility Score: inf
ROOT
ATOM      1  C   UNL A   1      31.009  29.878  24.502  1.00  0.00     0.118 C 
ENDROOT
BRANCH   1   2
ATOM      2  N   UNL A   1      31.030  29.173  23.237  1.00  0.00    -0.352 N 
ATOM      3  C   UNL A   1      30.690  27.882  22.903  1.00  0.00     0.255 C 
ATOM      4  O   UNL A   1      30.759  27.590  21.709  1.00  0.00    -0.269 OA
ATOM      5  H   UNL A   1      31.343  29.716  22.478  1.00  0.00     0.163 HD
BRANCH   3   6
ATOM      6  C   UNL A   1      30.360  26.881  23.908  1.00  0.00     0.088 A 
ATOM      7  C   UNL A   1      27.713  26.714  24.033  1.00  0.00     0.088 C 
ATOM      8  C   UNL A   1      29.127  26.459  24.388  1.00  0.00     0.114 A 
ATOM      9  O   UNL A   1      29.292  25.572  25.414  1.00  0.00    -0.461 OA
ATOM     10  C   UNL A   1      30.619  25.315  25.523  1.00  0.00     0.135 A 
ATOM     11  C   UNL A   1      31.317  26.020  24.556  1.00  0.00     0.035 A 
ATOM     12  C   UNL A   1      31.209  24.450  26.441  1.00  0.00     0.050 A 
ATOM     13  C   UNL A   1      32.700  25.771  24.433  1.00  0.00     0.039 A 
ATOM     14  C   UNL A   1      32.602  24.283  26.348  1.00  0.00     0.030 A 
ATOM     15  C   UNL A   1      33.343  24.925  25.350  1.00  0.00     0.050 A 
BRANCH  15  16
ATOM     16  N   UNL A   1      34.740  24.629  25.191  1.00  0.00    -0.280 N 
ATOM     17  H   UNL A   1      35.394  25.045  25.798  1.00  0.00     0.180 HD
BRANCH  16  18
ATOM     18  S   UNL A   1      35.287  23.569  23.971  1.00  0.00     0.261 S 
ATOM     19  O   UNL A   1      34.894  24.135  22.704  1.00  0.00    -0.201 OA
ATOM     20  O   UNL A   1      36.695  23.343  24.263  1.00  0.00    -0.201 OA
BRANCH  18  21
ATOM     21  C   UNL A   1      34.435  22.029  24.173  1.00  0.00     0.087 A 
ATOM     22  C   UNL A   1      33.154  21.849  23.651  1.00  0.00     0.022 A 
ATOM     23  C   UNL A   1      35.063  20.996  24.872  1.00  0.00     0.022 A 
ATOM     24  C   UNL A   1      32.556  20.586  23.717  1.00  0.00     0.005 A 
ATOM     25  C   UNL A   1      34.483  19.728  24.891  1.00  0.00     0.005 A 
ATOM     26  C   UNL A   1      33.244  19.495  24.272  1.00  0.00    -0.045 A 
BRANCH  26  27
ATOM     27  C   UNL A   1      32.721  18.070  24.192  1.00  0.00     0.013 C 
ATOM     28  C   UNL A   1      33.555  17.223  23.233  1.00  0.00     0.012 C 
ATOM     29  C   UNL A   1      32.594  17.374  25.553  1.00  0.00     0.012 C 
ENDBRANCH  26  27
ENDBRANCH  18  21
ENDBRANCH  16  18
ENDBRANCH  15  16
ENDBRANCH   3   6
ENDBRANCH   1   2
BRANCH   1  30
ATOM     30  C   UNL A   1      32.265  29.736  25.355  1.00  0.00     0.042 C 
BRANCH  30  31
ATOM     31  C   UNL A   1      32.187  30.249  26.785  1.00  0.00     0.118 C 
BRANCH  31  32
ATOM     32  N   UNL A   1      32.417  31.677  26.928  1.00  0.00    -0.352 N 
ATOM     33  C   UNL A   1      33.431  32.417  27.489  1.00  0.00     0.251 C 
ATOM     34  H   UNL A   1      31.698  32.229  26.545  1.00  0.00     0.163 HD
ATOM     35  O   UNL A   1      33.305  33.639  27.525  1.00  0.00    -0.269 OA
BRANCH  33  36
ATOM     36  C   UNL A   1      34.642  31.804  28.093  1.00  0.00     0.039 A 
ATOM     37  C   UNL A   1      35.727  32.643  28.386  1.00  0.00     0.014 A 
ATOM     38  C   UNL A   1      34.769  30.437  28.328  1.00  0.00     0.014 A 
ATOM     39  C   UNL A   1      36.882  32.130  28.986  1.00  0.00     0.010 A 
ATOM     40  C   UNL A   1      35.877  29.940  29.018  1.00  0.00     0.010 A 
ATOM     41  C   UNL A   1      36.947  30.779  29.360  1.00  0.00    -0.014 A 
BRANCH  41  42
ATOM     42  C   UNL A   1      38.114  30.228  30.104  1.00  0.00     0.031 A 
ATOM     43  C   UNL A   1      38.388  30.652  31.523  1.00  0.00     0.074 A 
ATOM     44  C   UNL A   1      38.980  29.407  29.476  1.00  0.00     0.049 A 
ATOM     45  N   UNL A   1      39.413  30.373  32.290  1.00  0.00    -0.248 NA
ATOM     46  C   UNL A   1      37.395  31.535  32.153  1.00  0.00     0.031 C 
ATOM     47  C   UNL A   1      38.862  28.954  28.089  1.00  0.00     0.029 A 
ATOM     48  N   UNL A   1      40.140  28.817  29.918  1.00  0.00    -0.354 N 
ATOM     49  C   UNL A   1      39.202  31.066  33.475  1.00  0.00     0.074 A 
ATOM     50  C   UNL A   1      37.976  31.818  33.309  1.00  0.00     0.031 C 
ATOM     51  C   UNL A   1      39.891  28.141  27.802  1.00  0.00     0.029 A 
ATOM     52  C   UNL A   1      40.765  28.048  28.967  1.00  0.00     0.049 A 
ATOM     53  H   UNL A   1      40.489  28.934  30.831  1.00  0.00     0.167 HD
ATOM     54  C   UNL A   1      39.949  31.062  34.605  1.00  0.00     0.037 A 
ATOM     55  C   UNL A   1      41.919  27.354  29.021  1.00  0.00     0.037 A 
ATOM     56  C   UNL A   1      41.143  30.279  34.788  1.00  0.00     0.049 A 
ATOM     57  C   UNL A   1      42.721  27.354  30.293  1.00  0.00     0.074 A 
ATOM     58  C   UNL A   1      41.925  30.150  35.923  1.00  0.00     0.029 A 
ATOM     59  N   UNL A   1      41.728  29.489  33.808  1.00  0.00    -0.354 N 
ATOM     60  N   UNL A   1      42.477  27.966  31.425  1.00  0.00    -0.248 NA
ATOM     61  C   UNL A   1      43.959  26.560  30.294  1.00  0.00     0.031 C 
ATOM     62  C   UNL A   1      43.006  29.316  35.618  1.00  0.00     0.029 A 
ATOM     63  C   UNL A   1      42.871  28.886  34.309  1.00  0.00     0.049 A 
ATOM     64  H   UNL A   1      41.381  29.375  32.894  1.00  0.00     0.167 HD
ATOM     65  C   UNL A   1      43.511  27.611  32.281  1.00  0.00     0.074 A 
ATOM     66  C   UNL A   1      44.379  26.718  31.542  1.00  0.00     0.031 C 
ATOM     67  C   UNL A   1      43.721  27.992  33.565  1.00  0.00     0.037 A 
BRANCH  54  68
ATOM     68  C   UNL A   1      39.492  31.928  35.745  1.00  0.00     0.064 A 
ATOM     69  C   UNL A   1      39.983  33.231  35.923  1.00  0.00     0.173 A 
ATOM     70  C   UNL A   1      38.523  31.464  36.647  1.00  0.00     0.173 A 
ATOM     71  F   UNL A   1      40.918  33.720  35.095  1.00  0.00    -0.203 F 
ATOM     72  C   UNL A   1      39.543  34.024  36.980  1.00  0.00     0.198 A 
ATOM     73  C   UNL A   1      38.063  32.272  37.684  1.00  0.00     0.198 A 
ATOM     74  F   UNL A   1      38.014  30.229  36.518  1.00  0.00    -0.203 F 
ATOM     75  F   UNL A   1      40.064  35.246  37.160  1.00  0.00    -0.200 F 
ATOM     76  C   UNL A   1      38.579  33.547  37.855  1.00  0.00     0.200 A 
ATOM     77  F   UNL A   1      37.120  31.814  38.520  1.00  0.00    -0.200 F 
ATOM     78  F   UNL A   1      38.152  34.314  38.867  1.00  0.00    -0.200 F 
ENDBRANCH  54  68
BRANCH  55  79
ATOM     79  C   UNL A   1      42.371  26.577  27.838  1.00  0.00     0.064 A 
ATOM     80  C   UNL A   1      43.274  27.131  26.919  1.00  0.00     0.173 A 
ATOM     81  C   UNL A   1      41.913  25.273  27.598  1.00  0.00     0.173 A 
ATOM     82  F   UNL A   1      43.723  28.383  27.094  1.00  0.00    -0.203 F 
ATOM     83  C   UNL A   1      43.690  26.416  25.797  1.00  0.00     0.198 A 
ATOM     84  C   UNL A   1      42.350  24.550  26.490  1.00  0.00     0.198 A 
ATOM     85  F   UNL A   1      41.052  24.697  28.449  1.00  0.00    -0.203 F 
ATOM     86  F   UNL A   1      44.520  26.985  24.913  1.00  0.00    -0.200 F 
ATOM     87  C   UNL A   1      43.232  25.124  25.587  1.00  0.00     0.200 A 
ATOM     88  F   UNL A   1      41.918  23.295  26.299  1.00  0.00    -0.200 F 
ATOM     89  F   UNL A   1      43.635  24.435  24.511  1.00  0.00    -0.200 F 
ENDBRANCH  55  79
BRANCH  67  90
ATOM     90  C   UNL A   1      44.916  27.417  34.267  1.00  0.00     0.064 A 
ATOM     91  C   UNL A   1      46.167  28.051  34.233  1.00  0.00     0.173 A 
ATOM     92  C   UNL A   1      44.798  26.237  35.018  1.00  0.00     0.173 A 
ATOM     93  F   UNL A   1      46.335  29.173  33.516  1.00  0.00    -0.203 F 
ATOM     94  C   UNL A   1      47.260  27.512  34.906  1.00  0.00     0.198 A 
ATOM     95  C   UNL A   1      45.886  25.717  35.713  1.00  0.00     0.198 A 
ATOM     96  F   UNL A   1      43.622  25.595  35.087  1.00  0.00    -0.203 F 
ATOM     97  F   UNL A   1      48.457  28.111  34.822  1.00  0.00    -0.200 F 
ATOM     98  C   UNL A   1      47.118  26.351  35.651  1.00  0.00     0.200 A 
ATOM     99  F   UNL A   1      45.744  24.602  36.442  1.00  0.00    -0.200 F 
ATOM    100  F   UNL A   1      48.170  25.838  36.303  1.00  0.00    -0.200 F 
ENDBRANCH  67  90
ENDBRANCH  41  42
ENDBRANCH  33  36
ENDBRANCH  31  32
ENDBRANCH  30  31
ENDBRANCH   1  30
TORSDOF 14
ENDMDL
