MODEL 1
REMARK VINA RESULT:     -12.7      0.000      0.000
REMARK SMILES O=C(NCCCNC(=O)c1cc(Br)ccc1OCc1ccccc1F)c1ccc(-c2c3nc(c(-c4c(F)c(F)c(F)c(F)c4F)c4ccc([nH]4)c(-c4c(F)c(F)c(F)c(F)c4F)c4nc(c(-c5c(F)c(F)c(F)c(F)c5F)c5ccc2[nH]5)C=C4)C=C3)cc1
REMARK SMILES IDX 5 1 4 2 3 3 1 4 2 5 26 7 27 8 88 9 28 10 87 11 29 12 30 13
REMARK SMILES IDX 31 14 81 15 32 16 86 17 80 18 82 19 33 20 85 21 79 22 78 23
REMARK SMILES IDX 34 25 66 26 46 27 65 28 47 29 50 30 64 31 83 32 48 33 49 34
REMARK SMILES IDX 63 36 84 37 51 38 35 39 36 40 44 41 37 42 38 43 42 44 45 45
REMARK SMILES IDX 39 46 40 47 43 48 41 49 67 50 68 51 76 52 69 53 70 54 74 55
REMARK SMILES IDX 77 56 71 57 72 58 75 59 73 60 52 61 53 62 61 63 54 64 55 65
REMARK SMILES IDX 59 66 62 67 56 68 57 69 60 70 58 71 6 72 7 73 8 74 9 76
REMARK SMILES IDX 10 77 11 78 16 79 12 80 15 81 13 82 14 83 17 84 18 85 19 86
REMARK SMILES IDX 20 87 24 88 21 89 23 90 25 91 22 92
REMARK H PARENT 3 6 82 24 50 35 7 75
REMARK Flexibility Score: inf
ROOT
ATOM      1  C   UNL A   1      31.498  31.664  26.747  1.00  0.00     0.042 C 
ENDROOT
BRANCH   1   2
ATOM      2  C   UNL A   1      32.750  32.514  26.893  1.00  0.00     0.118 C 
BRANCH   2   3
ATOM      3  N   UNL A   1      32.476  33.852  27.401  1.00  0.00    -0.352 N 
ATOM      4  O   UNL A   1      32.554  35.586  28.839  1.00  0.00    -0.269 OA
ATOM      5  C   UNL A   1      33.038  34.526  28.456  1.00  0.00     0.251 C 
ATOM      6  H   UNL A   1      31.781  34.348  26.913  1.00  0.00     0.163 HD
BRANCH   5   7
ATOM      7  C   UNL A   1      34.217  33.964  29.143  1.00  0.00     0.039 A 
ATOM      8  C   UNL A   1      34.063  32.981  30.123  1.00  0.00     0.014 A 
ATOM      9  C   UNL A   1      35.493  34.404  28.781  1.00  0.00     0.014 A 
ATOM     10  C   UNL A   1      35.166  32.541  30.839  1.00  0.00     0.010 A 
ATOM     11  C   UNL A   1      36.613  33.885  29.433  1.00  0.00     0.010 A 
ATOM     12  C   UNL A   1      36.455  32.960  30.475  1.00  0.00    -0.014 A 
BRANCH  12  13
ATOM     13  C   UNL A   1      37.624  32.307  31.108  1.00  0.00     0.031 A 
ATOM     14  C   UNL A   1      38.378  31.212  30.418  1.00  0.00     0.074 A 
ATOM     15  C   UNL A   1      37.994  32.734  32.331  1.00  0.00     0.049 A 
ATOM     16  N   UNL A   1      39.402  30.523  30.856  1.00  0.00    -0.248 NA
ATOM     17  C   UNL A   1      37.933  30.830  29.068  1.00  0.00     0.031 C 
ATOM     18  C   UNL A   1      37.313  33.787  33.092  1.00  0.00     0.029 A 
ATOM     19  N   UNL A   1      39.027  32.354  33.147  1.00  0.00    -0.354 N 
ATOM     20  C   UNL A   1      39.712  29.620  29.849  1.00  0.00     0.074 A 
ATOM     21  C   UNL A   1      38.763  29.834  28.779  1.00  0.00     0.031 C 
ATOM     22  C   UNL A   1      37.965  33.991  34.244  1.00  0.00     0.029 A 
ATOM     23  C   UNL A   1      39.061  33.035  34.339  1.00  0.00     0.049 A 
ATOM     24  H   UNL A   1      39.680  31.658  32.904  1.00  0.00     0.167 HD
ATOM     25  C   UNL A   1      40.707  28.703  29.833  1.00  0.00     0.037 A 
ATOM     26  C   UNL A   1      39.861  32.886  35.409  1.00  0.00     0.037 A 
ATOM     27  C   UNL A   1      41.662  28.525  30.895  1.00  0.00     0.049 A 
ATOM     28  C   UNL A   1      40.930  31.835  35.370  1.00  0.00     0.074 A 
ATOM     29  C   UNL A   1      42.754  27.675  30.936  1.00  0.00     0.029 A 
ATOM     30  N   UNL A   1      41.639  29.205  32.104  1.00  0.00    -0.354 N 
ATOM     31  N   UNL A   1      41.240  31.017  34.394  1.00  0.00    -0.248 NA
ATOM     32  C   UNL A   1      41.747  31.671  36.578  1.00  0.00     0.031 C 
ATOM     33  C   UNL A   1      43.360  27.802  32.188  1.00  0.00     0.029 A 
ATOM     34  C   UNL A   1      42.673  28.762  32.912  1.00  0.00     0.049 A 
ATOM     35  H   UNL A   1      40.984  29.898  32.351  1.00  0.00     0.167 HD
ATOM     36  C   UNL A   1      42.284  30.238  34.869  1.00  0.00     0.074 A 
ATOM     37  C   UNL A   1      42.574  30.700  36.211  1.00  0.00     0.031 C 
ATOM     38  C   UNL A   1      42.935  29.226  34.250  1.00  0.00     0.037 A 
BRANCH  25  39
ATOM     39  C   UNL A   1      40.836  27.804  28.641  1.00  0.00     0.064 A 
ATOM     40  C   UNL A   1      41.599  28.208  27.534  1.00  0.00     0.173 A 
ATOM     41  C   UNL A   1      40.093  26.621  28.532  1.00  0.00     0.173 A 
ATOM     42  F   UNL A   1      42.320  29.339  27.587  1.00  0.00    -0.203 F 
ATOM     43  C   UNL A   1      41.590  27.474  26.351  1.00  0.00     0.198 A 
ATOM     44  C   UNL A   1      40.101  25.878  27.353  1.00  0.00     0.198 A 
ATOM     45  F   UNL A   1      39.353  26.192  29.565  1.00  0.00    -0.203 F 
ATOM     46  F   UNL A   1      42.290  27.902  25.292  1.00  0.00    -0.200 F 
ATOM     47  C   UNL A   1      40.838  26.312  26.261  1.00  0.00     0.200 A 
ATOM     48  F   UNL A   1      39.383  24.751  27.269  1.00  0.00    -0.200 F 
ATOM     49  F   UNL A   1      40.818  25.614  25.117  1.00  0.00    -0.200 F 
ENDBRANCH  25  39
BRANCH  26  50
ATOM     50  C   UNL A   1      39.641  33.730  36.611  1.00  0.00     0.064 A 
ATOM     51  C   UNL A   1      38.822  33.291  37.662  1.00  0.00     0.173 A 
ATOM     52  C   UNL A   1      40.204  35.008  36.710  1.00  0.00     0.173 A 
ATOM     53  F   UNL A   1      38.254  32.078  37.610  1.00  0.00    -0.203 F 
ATOM     54  C   UNL A   1      38.555  34.109  38.757  1.00  0.00     0.198 A 
ATOM     55  C   UNL A   1      39.959  35.815  37.820  1.00  0.00     0.198 A 
ATOM     56  F   UNL A   1      41.006  35.464  35.737  1.00  0.00    -0.203 F 
ATOM     57  F   UNL A   1      37.734  33.683  39.726  1.00  0.00    -0.200 F 
ATOM     58  C   UNL A   1      39.128  35.369  38.837  1.00  0.00     0.200 A 
ATOM     59  F   UNL A   1      40.532  37.023  37.905  1.00  0.00    -0.200 F 
ATOM     60  F   UNL A   1      38.879  36.153  39.894  1.00  0.00    -0.200 F 
ENDBRANCH  26  50
BRANCH  38  61
ATOM     61  C   UNL A   1      44.016  28.532  35.018  1.00  0.00     0.064 A 
ATOM     62  C   UNL A   1      45.338  28.999  34.972  1.00  0.00     0.173 A 
ATOM     63  C   UNL A   1      43.754  27.353  35.728  1.00  0.00     0.173 A 
ATOM     64  F   UNL A   1      45.636  30.121  34.299  1.00  0.00    -0.203 F 
ATOM     65  C   UNL A   1      46.364  28.295  35.594  1.00  0.00     0.198 A 
ATOM     66  C   UNL A   1      44.779  26.664  36.369  1.00  0.00     0.198 A 
ATOM     67  F   UNL A   1      42.501  26.880  35.811  1.00  0.00    -0.203 F 
ATOM     68  F   UNL A   1      47.626  28.737  35.507  1.00  0.00    -0.200 F 
ATOM     69  C   UNL A   1      46.085  27.129  36.291  1.00  0.00     0.200 A 
ATOM     70  F   UNL A   1      44.505  25.550  37.060  1.00  0.00    -0.200 F 
ATOM     71  F   UNL A   1      47.073  26.452  36.891  1.00  0.00    -0.200 F 
ENDBRANCH  38  61
ENDBRANCH  12  13
ENDBRANCH   5   7
ENDBRANCH   2   3
ENDBRANCH   1   2
BRANCH   1  72
ATOM     72  C   UNL A   1      31.740  30.172  26.893  1.00  0.00     0.118 C 
BRANCH  72  73
ATOM     73  N   UNL A   1      32.914  29.725  26.166  1.00  0.00    -0.352 N 
ATOM     74  C   UNL A   1      33.065  28.660  25.326  1.00  0.00     0.255 C 
ATOM     75  H   UNL A   1      33.722  30.272  26.298  1.00  0.00     0.163 HD
ATOM     76  O   UNL A   1      34.087  28.591  24.647  1.00  0.00    -0.269 OA
BRANCH  74  77
ATOM     77  C   UNL A   1      31.960  27.705  25.160  1.00  0.00     0.082 A 
ATOM     78  C   UNL A   1      32.123  26.522  25.910  1.00  0.00     0.033 A 
ATOM     79  C   UNL A   1      30.856  27.859  24.313  1.00  0.00     0.132 A 
ATOM     80  C   UNL A   1      31.244  25.459  25.748  1.00  0.00     0.019 A 
ATOM     81  C   UNL A   1      29.990  26.759  24.164  1.00  0.00     0.048 A 
ATOM     82  Br  UNL A   1      31.526  23.857  26.705  1.00  0.00    -0.051 Br
ATOM     83  C   UNL A   1      30.182  25.565  24.864  1.00  0.00     0.019 A 
BRANCH  79  84
ATOM     84  O   UNL A   1      30.425  28.916  23.567  1.00  0.00    -0.488 OA
BRANCH  84  85
ATOM     85  C   UNL A   1      29.096  29.043  23.066  1.00  0.00     0.268 C 
BRANCH  85  86
ATOM     86  C   UNL A   1      28.646  30.375  22.516  1.00  0.00     0.025 A 
ATOM     87  C   UNL A   1      28.125  30.404  21.208  1.00  0.00     0.010 A 
ATOM     88  C   UNL A   1      28.781  31.586  23.195  1.00  0.00     0.129 A 
ATOM     89  C   UNL A   1      27.866  31.618  20.568  1.00  0.00     0.001 A 
ATOM     90  C   UNL A   1      28.532  32.801  22.559  1.00  0.00     0.039 A 
ATOM     91  F   UNL A   1      29.188  31.620  24.472  1.00  0.00    -0.207 F 
ATOM     92  C   UNL A   1      28.096  32.819  21.235  1.00  0.00     0.003 A 
ENDBRANCH  85  86
ENDBRANCH  84  85
ENDBRANCH  79  84
ENDBRANCH  74  77
ENDBRANCH  72  73
ENDBRANCH   1  72
TORSDOF 13
ENDMDL
MODEL 2
REMARK VINA RESULT:     -12.5      0.430      1.211
REMARK SMILES O=C(NCCCNC(=O)c1cc(Br)ccc1OCc1ccccc1F)c1ccc(-c2c3nc(c(-c4c(F)c(F)c(F)c(F)c4F)c4ccc([nH]4)c(-c4c(F)c(F)c(F)c(F)c4F)c4nc(c(-c5c(F)c(F)c(F)c(F)c5F)c5ccc2[nH]5)C=C4)C=C3)cc1
REMARK SMILES IDX 5 1 4 2 3 3 1 4 2 5 26 7 27 8 88 9 28 10 87 11 29 12 30 13
REMARK SMILES IDX 31 14 81 15 32 16 86 17 80 18 82 19 33 20 85 21 79 22 78 23
REMARK SMILES IDX 34 25 66 26 46 27 65 28 47 29 50 30 64 31 83 32 48 33 49 34
REMARK SMILES IDX 63 36 84 37 51 38 35 39 36 40 44 41 37 42 38 43 42 44 45 45
REMARK SMILES IDX 39 46 40 47 43 48 41 49 67 50 68 51 76 52 69 53 70 54 74 55
REMARK SMILES IDX 77 56 71 57 72 58 75 59 73 60 52 61 53 62 61 63 54 64 55 65
REMARK SMILES IDX 59 66 62 67 56 68 57 69 60 70 58 71 6 72 7 73 8 74 9 76
REMARK SMILES IDX 10 77 11 78 16 79 12 80 15 81 13 82 14 83 17 84 18 85 19 86
REMARK SMILES IDX 20 87 24 88 21 89 23 90 25 91 22 92
REMARK H PARENT 3 6 82 24 50 35 7 75
REMARK Flexibility Score: inf
ROOT
ATOM      1  C   UNL A   1      31.405  31.661  26.492  1.00  0.00     0.042 C 
ENDROOT
BRANCH   1   2
ATOM      2  C   UNL A   1      32.679  32.393  26.878  1.00  0.00     0.118 C 
BRANCH   2   3
ATOM      3  N   UNL A   1      32.438  33.751  27.348  1.00  0.00    -0.352 N 
ATOM      4  O   UNL A   1      32.565  35.526  28.731  1.00  0.00    -0.269 OA
ATOM      5  C   UNL A   1      33.023  34.445  28.377  1.00  0.00     0.251 C 
ATOM      6  H   UNL A   1      31.749  34.247  26.850  1.00  0.00     0.163 HD
BRANCH   5   7
ATOM      7  C   UNL A   1      34.196  33.879  29.071  1.00  0.00     0.039 A 
ATOM      8  C   UNL A   1      34.028  32.968  30.116  1.00  0.00     0.014 A 
ATOM      9  C   UNL A   1      35.478  34.241  28.651  1.00  0.00     0.014 A 
ATOM     10  C   UNL A   1      35.130  32.530  30.834  1.00  0.00     0.010 A 
ATOM     11  C   UNL A   1      36.594  33.719  29.310  1.00  0.00     0.010 A 
ATOM     12  C   UNL A   1      36.425  32.870  30.413  1.00  0.00    -0.014 A 
BRANCH  12  13
ATOM     13  C   UNL A   1      37.583  32.210  31.060  1.00  0.00     0.031 A 
ATOM     14  C   UNL A   1      38.344  31.116  30.376  1.00  0.00     0.074 A 
ATOM     15  C   UNL A   1      37.937  32.631  32.290  1.00  0.00     0.049 A 
ATOM     16  N   UNL A   1      39.360  30.423  30.826  1.00  0.00    -0.248 NA
ATOM     17  C   UNL A   1      37.917  30.742  29.018  1.00  0.00     0.031 C 
ATOM     18  C   UNL A   1      37.248  33.682  33.046  1.00  0.00     0.029 A 
ATOM     19  N   UNL A   1      38.956  32.243  33.119  1.00  0.00    -0.354 N 
ATOM     20  C   UNL A   1      39.681  29.523  29.819  1.00  0.00     0.074 A 
ATOM     21  C   UNL A   1      38.749  29.745  28.736  1.00  0.00     0.031 C 
ATOM     22  C   UNL A   1      37.884  33.879  34.209  1.00  0.00     0.029 A 
ATOM     23  C   UNL A   1      38.975  32.919  34.314  1.00  0.00     0.049 A 
ATOM     24  H   UNL A   1      39.611  31.547  32.882  1.00  0.00     0.167 HD
ATOM     25  C   UNL A   1      40.674  28.603  29.813  1.00  0.00     0.037 A 
ATOM     26  C   UNL A   1      39.760  32.762  35.396  1.00  0.00     0.037 A 
ATOM     27  C   UNL A   1      41.613  28.418  30.888  1.00  0.00     0.049 A 
ATOM     28  C   UNL A   1      40.825  31.708  35.367  1.00  0.00     0.074 A 
ATOM     29  C   UNL A   1      42.702  27.564  30.940  1.00  0.00     0.029 A 
ATOM     30  N   UNL A   1      41.574  29.092  32.100  1.00  0.00    -0.354 N 
ATOM     31  N   UNL A   1      41.147  30.894  34.392  1.00  0.00    -0.248 NA
ATOM     32  C   UNL A   1      41.624  31.536  36.586  1.00  0.00     0.031 C 
ATOM     33  C   UNL A   1      43.290  27.683  32.201  1.00  0.00     0.029 A 
ATOM     34  C   UNL A   1      42.596  28.642  32.920  1.00  0.00     0.049 A 
ATOM     35  H   UNL A   1      40.918  29.785  32.341  1.00  0.00     0.167 HD
ATOM     36  C   UNL A   1      42.182  30.110  34.878  1.00  0.00     0.074 A 
ATOM     37  C   UNL A   1      42.454  30.565  36.226  1.00  0.00     0.031 C 
ATOM     38  C   UNL A   1      42.839  29.098  34.264  1.00  0.00     0.037 A 
BRANCH  25  39
ATOM     39  C   UNL A   1      40.818  27.709  28.618  1.00  0.00     0.064 A 
ATOM     40  C   UNL A   1      41.610  28.110  27.531  1.00  0.00     0.173 A 
ATOM     41  C   UNL A   1      40.061  26.537  28.486  1.00  0.00     0.173 A 
ATOM     42  F   UNL A   1      42.345  29.230  27.607  1.00  0.00    -0.203 F 
ATOM     43  C   UNL A   1      41.618  27.382  26.344  1.00  0.00     0.198 A 
ATOM     44  C   UNL A   1      40.086  25.801  27.303  1.00  0.00     0.198 A 
ATOM     45  F   UNL A   1      39.293  26.112  29.499  1.00  0.00    -0.203 F 
ATOM     46  F   UNL A   1      42.347  27.807  25.303  1.00  0.00    -0.200 F 
ATOM     47  C   UNL A   1      40.853  26.231  26.230  1.00  0.00     0.200 A 
ATOM     48  F   UNL A   1      39.355  24.684  27.196  1.00  0.00    -0.200 F 
ATOM     49  F   UNL A   1      40.848  25.540  25.082  1.00  0.00    -0.200 F 
ENDBRANCH  25  39
BRANCH  26  50
ATOM     50  C   UNL A   1      39.524  33.602  36.598  1.00  0.00     0.064 A 
ATOM     51  C   UNL A   1      40.149  34.850  36.741  1.00  0.00     0.173 A 
ATOM     52  C   UNL A   1      38.710  33.154  37.645  1.00  0.00     0.173 A 
ATOM     53  F   UNL A   1      40.945  35.319  35.769  1.00  0.00    -0.203 F 
ATOM     54  C   UNL A   1      39.989  35.607  37.898  1.00  0.00     0.198 A 
ATOM     55  C   UNL A   1      38.526  33.928  38.791  1.00  0.00     0.198 A 
ATOM     56  F   UNL A   1      38.079  31.975  37.546  1.00  0.00    -0.203 F 
ATOM     57  F   UNL A   1      40.633  36.775  38.027  1.00  0.00    -0.200 F 
ATOM     58  C   UNL A   1      39.173  35.148  38.920  1.00  0.00     0.200 A 
ATOM     59  F   UNL A   1      37.719  33.490  39.767  1.00  0.00    -0.200 F 
ATOM     60  F   UNL A   1      39.009  35.880  40.030  1.00  0.00    -0.200 F 
ENDBRANCH  26  50
BRANCH  38  61
ATOM     61  C   UNL A   1      43.907  28.398  35.044  1.00  0.00     0.064 A 
ATOM     62  C   UNL A   1      45.235  28.848  35.002  1.00  0.00     0.173 A 
ATOM     63  C   UNL A   1      43.626  27.229  35.763  1.00  0.00     0.173 A 
ATOM     64  F   UNL A   1      45.551  29.960  34.321  1.00  0.00    -0.203 F 
ATOM     65  C   UNL A   1      46.248  28.136  35.635  1.00  0.00     0.198 A 
ATOM     66  C   UNL A   1      44.638  26.532  36.416  1.00  0.00     0.198 A 
ATOM     67  F   UNL A   1      42.367  26.772  35.843  1.00  0.00    -0.203 F 
ATOM     68  F   UNL A   1      47.517  28.561  35.552  1.00  0.00    -0.200 F 
ATOM     69  C   UNL A   1      45.950  26.980  36.341  1.00  0.00     0.200 A 
ATOM     70  F   UNL A   1      44.347  25.428  37.115  1.00  0.00    -0.200 F 
ATOM     71  F   UNL A   1      46.927  26.296  36.953  1.00  0.00    -0.200 F 
ENDBRANCH  38  61
ENDBRANCH  12  13
ENDBRANCH   5   7
ENDBRANCH   2   3
ENDBRANCH   1   2
BRANCH   1  72
ATOM     72  C   UNL A   1      31.620  30.216  26.076  1.00  0.00     0.118 C 
BRANCH  72  73
ATOM     73  N   UNL A   1      32.641  30.078  25.053  1.00  0.00    -0.352 N 
ATOM     74  C   UNL A   1      32.842  29.069  24.155  1.00  0.00     0.255 C 
ATOM     75  H   UNL A   1      33.282  30.823  24.997  1.00  0.00     0.163 HD
ATOM     76  O   UNL A   1      33.634  29.257  23.234  1.00  0.00    -0.269 OA
BRANCH  74  77
ATOM     77  C   UNL A   1      32.024  27.852  24.236  1.00  0.00     0.082 A 
ATOM     78  C   UNL A   1      32.562  26.870  25.091  1.00  0.00     0.033 A 
ATOM     79  C   UNL A   1      30.850  27.598  23.517  1.00  0.00     0.132 A 
ATOM     80  C   UNL A   1      31.989  25.606  25.161  1.00  0.00     0.019 A 
ATOM     81  C   UNL A   1      30.300  26.304  23.602  1.00  0.00     0.048 A 
ATOM     82  Br  UNL A   1      32.773  24.282  26.255  1.00  0.00    -0.051 Br
ATOM     83  C   UNL A   1      30.865  25.311  24.406  1.00  0.00     0.019 A 
BRANCH  79  84
ATOM     84  O   UNL A   1      30.088  28.392  22.713  1.00  0.00    -0.488 OA
BRANCH  84  85
ATOM     85  C   UNL A   1      28.866  28.999  23.125  1.00  0.00     0.268 C 
BRANCH  85  86
ATOM     86  C   UNL A   1      28.479  30.337  22.541  1.00  0.00     0.025 A 
ATOM     87  C   UNL A   1      28.055  30.372  21.200  1.00  0.00     0.010 A 
ATOM     88  C   UNL A   1      28.585  31.548  23.227  1.00  0.00     0.129 A 
ATOM     89  C   UNL A   1      27.864  31.588  20.540  1.00  0.00     0.001 A 
ATOM     90  C   UNL A   1      28.403  32.765  22.572  1.00  0.00     0.039 A 
ATOM     91  F   UNL A   1      28.899  31.578  24.530  1.00  0.00    -0.207 F 
ATOM     92  C   UNL A   1      28.064  32.786  21.220  1.00  0.00     0.003 A 
ENDBRANCH  85  86
ENDBRANCH  84  85
ENDBRANCH  79  84
ENDBRANCH  74  77
ENDBRANCH  72  73
ENDBRANCH   1  72
TORSDOF 13
ENDMDL
MODEL 3
REMARK VINA RESULT:     -12.4      6.270     11.635
REMARK SMILES O=C(NCCCNC(=O)c1cc(Br)ccc1OCc1ccccc1F)c1ccc(-c2c3nc(c(-c4c(F)c(F)c(F)c(F)c4F)c4ccc([nH]4)c(-c4c(F)c(F)c(F)c(F)c4F)c4nc(c(-c5c(F)c(F)c(F)c(F)c5F)c5ccc2[nH]5)C=C4)C=C3)cc1
REMARK SMILES IDX 5 1 4 2 3 3 1 4 2 5 26 7 27 8 88 9 28 10 87 11 29 12 30 13
REMARK SMILES IDX 31 14 81 15 32 16 86 17 80 18 82 19 33 20 85 21 79 22 78 23
REMARK SMILES IDX 34 25 66 26 46 27 65 28 47 29 50 30 64 31 83 32 48 33 49 34
REMARK SMILES IDX 63 36 84 37 51 38 35 39 36 40 44 41 37 42 38 43 42 44 45 45
REMARK SMILES IDX 39 46 40 47 43 48 41 49 67 50 68 51 76 52 69 53 70 54 74 55
REMARK SMILES IDX 77 56 71 57 72 58 75 59 73 60 52 61 53 62 61 63 54 64 55 65
REMARK SMILES IDX 59 66 62 67 56 68 57 69 60 70 58 71 6 72 7 73 8 74 9 76
REMARK SMILES IDX 10 77 11 78 16 79 12 80 15 81 13 82 14 83 17 84 18 85 19 86
REMARK SMILES IDX 20 87 24 88 21 89 23 90 25 91 22 92
REMARK H PARENT 3 6 82 24 50 35 7 75
REMARK Flexibility Score: inf
ROOT
ATOM      1  C   UNL A   1      37.692  19.943  24.999  1.00  0.00     0.042 C 
ENDROOT
BRANCH   1   2
ATOM      2  C   UNL A   1      38.900  20.437  25.778  1.00  0.00     0.118 C 
BRANCH   2   3
ATOM      3  N   UNL A   1      39.955  19.439  25.890  1.00  0.00    -0.352 N 
ATOM      4  O   UNL A   1      42.061  18.641  25.988  1.00  0.00    -0.269 OA
ATOM      5  C   UNL A   1      41.302  19.599  26.095  1.00  0.00     0.251 C 
ATOM      6  H   UNL A   1      39.655  18.505  25.804  1.00  0.00     0.163 HD
BRANCH   5   7
ATOM      7  C   UNL A   1      41.841  20.932  26.426  1.00  0.00     0.039 A 
ATOM      8  C   UNL A   1      42.036  21.886  25.424  1.00  0.00     0.014 A 
ATOM      9  C   UNL A   1      42.126  21.242  27.758  1.00  0.00     0.014 A 
ATOM     10  C   UNL A   1      42.646  23.093  25.729  1.00  0.00     0.010 A 
ATOM     11  C   UNL A   1      42.646  22.498  28.079  1.00  0.00     0.010 A 
ATOM     12  C   UNL A   1      42.922  23.426  27.065  1.00  0.00    -0.014 A 
BRANCH  12  13
ATOM     13  C   UNL A   1      43.365  24.803  27.381  1.00  0.00     0.031 A 
ATOM     14  C   UNL A   1      42.423  25.815  27.958  1.00  0.00     0.074 A 
ATOM     15  C   UNL A   1      44.652  25.118  27.137  1.00  0.00     0.049 A 
ATOM     16  N   UNL A   1      42.656  27.069  28.260  1.00  0.00    -0.248 NA
ATOM     17  C   UNL A   1      41.045  25.379  28.231  1.00  0.00     0.031 C 
ATOM     18  C   UNL A   1      45.644  24.204  26.562  1.00  0.00     0.029 A 
ATOM     19  N   UNL A   1      45.353  26.277  27.343  1.00  0.00    -0.354 N 
ATOM     20  C   UNL A   1      41.456  27.573  28.739  1.00  0.00     0.074 A 
ATOM     21  C   UNL A   1      40.489  26.499  28.679  1.00  0.00     0.031 C 
ATOM     22  C   UNL A   1      46.829  24.824  26.494  1.00  0.00     0.029 A 
ATOM     23  C   UNL A   1      46.666  26.199  26.948  1.00  0.00     0.049 A 
ATOM     24  H   UNL A   1      44.955  27.088  27.735  1.00  0.00     0.167 HD
ATOM     25  C   UNL A   1      41.201  28.824  29.189  1.00  0.00     0.037 A 
ATOM     26  C   UNL A   1      47.627  27.139  26.916  1.00  0.00     0.037 A 
ATOM     27  C   UNL A   1      42.185  29.872  29.271  1.00  0.00     0.049 A 
ATOM     28  C   UNL A   1      47.299  28.523  27.389  1.00  0.00     0.074 A 
ATOM     29  C   UNL A   1      42.040  31.148  29.787  1.00  0.00     0.029 A 
ATOM     30  N   UNL A   1      43.493  29.767  28.822  1.00  0.00    -0.354 N 
ATOM     31  N   UNL A   1      46.172  28.976  27.881  1.00  0.00    -0.248 NA
ATOM     32  C   UNL A   1      48.362  29.530  27.290  1.00  0.00     0.031 C 
ATOM     33  C   UNL A   1      43.243  31.832  29.603  1.00  0.00     0.029 A 
ATOM     34  C   UNL A   1      44.152  30.970  29.012  1.00  0.00     0.049 A 
ATOM     35  H   UNL A   1      43.893  28.959  28.426  1.00  0.00     0.167 HD
ATOM     36  C   UNL A   1      46.385  30.319  28.147  1.00  0.00     0.074 A 
ATOM     37  C   UNL A   1      47.760  30.603  27.788  1.00  0.00     0.031 C 
ATOM     38  C   UNL A   1      45.516  31.235  28.634  1.00  0.00     0.037 A 
BRANCH  25  39
ATOM     39  C   UNL A   1      39.809  29.158  29.635  1.00  0.00     0.064 A 
ATOM     40  C   UNL A   1      39.439  28.983  30.977  1.00  0.00     0.173 A 
ATOM     41  C   UNL A   1      38.810  29.504  28.716  1.00  0.00     0.173 A 
ATOM     42  F   UNL A   1      40.359  28.641  31.893  1.00  0.00    -0.203 F 
ATOM     43  C   UNL A   1      38.112  29.116  31.378  1.00  0.00     0.198 A 
ATOM     44  C   UNL A   1      37.486  29.656  29.123  1.00  0.00     0.198 A 
ATOM     45  F   UNL A   1      39.116  29.687  27.423  1.00  0.00    -0.203 F 
ATOM     46  F   UNL A   1      37.774  28.901  32.656  1.00  0.00    -0.200 F 
ATOM     47  C   UNL A   1      37.137  29.449  30.450  1.00  0.00     0.200 A 
ATOM     48  F   UNL A   1      36.546  29.987  28.228  1.00  0.00    -0.200 F 
ATOM     49  F   UNL A   1      35.858  29.562  30.832  1.00  0.00    -0.200 F 
ENDBRANCH  25  39
BRANCH  26  50
ATOM     50  C   UNL A   1      48.968  26.796  26.378  1.00  0.00     0.064 A 
ATOM     51  C   UNL A   1      49.288  27.030  25.032  1.00  0.00     0.173 A 
ATOM     52  C   UNL A   1      49.936  26.186  27.184  1.00  0.00     0.173 A 
ATOM     53  F   UNL A   1      48.391  27.605  24.218  1.00  0.00    -0.203 F 
ATOM     54  C   UNL A   1      50.517  26.643  24.506  1.00  0.00     0.198 A 
ATOM     55  C   UNL A   1      51.179  25.825  26.663  1.00  0.00     0.198 A 
ATOM     56  F   UNL A   1      49.682  25.956  28.480  1.00  0.00    -0.203 F 
ATOM     57  F   UNL A   1      50.780  26.837  23.206  1.00  0.00    -0.200 F 
ATOM     58  C   UNL A   1      51.464  26.046  25.323  1.00  0.00     0.200 A 
ATOM     59  F   UNL A   1      52.100  25.268  27.461  1.00  0.00    -0.200 F 
ATOM     60  F   UNL A   1      52.652  25.682  24.821  1.00  0.00    -0.200 F 
ENDBRANCH  26  50
BRANCH  38  61
ATOM     61  C   UNL A   1      46.014  32.637  28.796  1.00  0.00     0.064 A 
ATOM     62  C   UNL A   1      46.589  33.057  30.005  1.00  0.00     0.173 A 
ATOM     63  C   UNL A   1      45.839  33.586  27.780  1.00  0.00     0.173 A 
ATOM     64  F   UNL A   1      46.771  32.184  31.007  1.00  0.00    -0.203 F 
ATOM     65  C   UNL A   1      46.951  34.386  30.197  1.00  0.00     0.198 A 
ATOM     66  C   UNL A   1      46.224  34.910  27.967  1.00  0.00     0.198 A 
ATOM     67  F   UNL A   1      45.308  33.224  26.602  1.00  0.00    -0.203 F 
ATOM     68  F   UNL A   1      47.464  34.776  31.372  1.00  0.00    -0.200 F 
ATOM     69  C   UNL A   1      46.769  35.311  29.180  1.00  0.00     0.200 A 
ATOM     70  F   UNL A   1      46.068  35.798  26.977  1.00  0.00    -0.200 F 
ATOM     71  F   UNL A   1      47.120  36.591  29.365  1.00  0.00    -0.200 F 
ENDBRANCH  38  61
ENDBRANCH  12  13
ENDBRANCH   5   7
ENDBRANCH   2   3
ENDBRANCH   1   2
BRANCH   1  72
ATOM     72  C   UNL A   1      36.543  20.934  24.941  1.00  0.00     0.118 C 
BRANCH  72  73
ATOM     73  N   UNL A   1      35.855  21.063  26.212  1.00  0.00    -0.352 N 
ATOM     74  C   UNL A   1      34.729  21.770  26.525  1.00  0.00     0.255 C 
ATOM     75  H   UNL A   1      36.260  20.568  26.960  1.00  0.00     0.163 HD
ATOM     76  O   UNL A   1      34.195  21.565  27.613  1.00  0.00    -0.269 OA
BRANCH  74  77
ATOM     77  C   UNL A   1      34.119  22.647  25.517  1.00  0.00     0.082 A 
ATOM     78  C   UNL A   1      34.261  24.019  25.807  1.00  0.00     0.033 A 
ATOM     79  C   UNL A   1      33.400  22.233  24.389  1.00  0.00     0.132 A 
ATOM     80  C   UNL A   1      33.613  24.973  25.033  1.00  0.00     0.019 A 
ATOM     81  C   UNL A   1      32.747  23.224  23.633  1.00  0.00     0.048 A 
ATOM     82  Br  UNL A   1      33.755  26.800  25.486  1.00  0.00    -0.051 Br
ATOM     83  C   UNL A   1      32.840  24.581  23.952  1.00  0.00     0.019 A 
BRANCH  79  84
ATOM     84  O   UNL A   1      33.196  21.000  23.845  1.00  0.00    -0.488 OA
BRANCH  84  85
ATOM     85  C   UNL A   1      32.247  20.061  24.344  1.00  0.00     0.268 C 
BRANCH  85  86
ATOM     86  C   UNL A   1      32.616  18.597  24.384  1.00  0.00     0.025 A 
ATOM     87  C   UNL A   1      32.693  17.972  25.643  1.00  0.00     0.010 A 
ATOM     88  C   UNL A   1      32.955  17.846  23.257  1.00  0.00     0.129 A 
ATOM     89  C   UNL A   1      33.210  16.681  25.771  1.00  0.00     0.001 A 
ATOM     90  C   UNL A   1      33.478  16.560  23.379  1.00  0.00     0.039 A 
ATOM     91  F   UNL A   1      32.820  18.353  22.024  1.00  0.00    -0.207 F 
ATOM     92  C   UNL A   1      33.627  15.984  24.640  1.00  0.00     0.003 A 
ENDBRANCH  85  86
ENDBRANCH  84  85
ENDBRANCH  79  84
ENDBRANCH  74  77
ENDBRANCH  72  73
ENDBRANCH   1  72
TORSDOF 13
ENDMDL
