MODEL 1
REMARK VINA RESULT:      -9.9      0.000      0.000
REMARK SMILES CCOc1cc(OCC)cc(-c2ccc([C@@H](C)C(=O)NCCCNC(=O)c3ccc(-c4c5nc(c(-c6c(F)c(F)c(F)c(F)c6F)c6ccc([nH]6)c(-c6c(F)c(F)c(F)c(F)c6F)c6nc(c(-c7c(F)c(F)c(F)c(F)c7F)c7ccc4[nH]7)C=C6)C=C5)cc3)cc2F)c1
REMARK SMILES IDX 21 1 20 2 18 3 19 4 16 6 17 7 15 8 12 9 13 10 91 11 14 12
REMARK SMILES IDX 90 13 92 14 11 15 4 16 5 17 93 18 6 19 10 20 3 21 2 22 1 23
REMARK SMILES IDX 7 24 8 25 9 26 22 27 23 28 24 29 25 30 26 32 27 33 28 34
REMARK SMILES IDX 89 35 29 36 88 37 30 38 31 39 32 40 82 41 33 42 87 43 81 44
REMARK SMILES IDX 83 45 34 46 86 47 80 48 79 49 35 51 67 52 47 53 66 54 48 55
REMARK SMILES IDX 51 56 65 57 84 58 49 59 50 60 64 62 85 63 52 64 36 65 37 66
REMARK SMILES IDX 45 67 38 68 39 69 43 70 46 71 40 72 41 73 44 74 42 75 68 76
REMARK SMILES IDX 69 77 77 78 70 79 71 80 75 81 78 82 72 83 73 84 76 85 74 86
REMARK SMILES IDX 53 87 54 88 62 89 55 90 56 91 60 92 63 93 57 94 58 95 61 96
REMARK SMILES IDX 59 97
REMARK H PARENT 20 5 24 31 83 50 51 61
REMARK Flexibility Score: inf
ROOT
ATOM      1  C   UNL A   1      42.459  19.573  26.830  1.00  0.00     0.117 C 
ENDROOT
BRANCH   1   2
ATOM      2  N   UNL A   1      43.646  19.897  26.063  1.00  0.00    -0.356 N 
ATOM      3  C   UNL A   1      44.122  21.066  25.556  1.00  0.00     0.227 C 
ATOM      4  O   UNL A   1      45.153  20.979  24.876  1.00  0.00    -0.274 OA
ATOM      5  H   UNL A   1      44.218  19.119  25.871  1.00  0.00     0.163 HD
BRANCH   3   6
ATOM      6  C   UNL A   1      43.466  22.438  25.769  1.00  0.00     0.105 C 
ATOM      7  C   UNL A   1      43.656  23.431  24.623  1.00  0.00     0.023 C 
BRANCH   6   8
ATOM      8  C   UNL A   1      43.701  23.005  27.157  1.00  0.00    -0.033 A 
ATOM      9  C   UNL A   1      44.167  24.218  29.705  1.00  0.00     0.018 A 
ATOM     10  C   UNL A   1      42.900  23.735  29.331  1.00  0.00     0.012 A 
ATOM     11  C   UNL A   1      45.197  24.059  28.768  1.00  0.00     0.131 A 
ATOM     12  C   UNL A   1      42.684  23.102  28.105  1.00  0.00     0.005 A 
ATOM     13  C   UNL A   1      44.970  23.486  27.512  1.00  0.00     0.044 A 
ATOM     14  F   UNL A   1      46.447  24.451  29.051  1.00  0.00    -0.206 F 
BRANCH   9  15
ATOM     15  C   UNL A   1      44.352  24.855  31.026  1.00  0.00    -0.008 A 
ATOM     16  C   UNL A   1      44.614  26.817  32.444  1.00  0.00     0.123 A 
ATOM     17  C   UNL A   1      44.574  26.019  33.587  1.00  0.00     0.092 A 
ATOM     18  C   UNL A   1      44.517  26.238  31.178  1.00  0.00     0.055 A 
ATOM     19  C   UNL A   1      44.437  24.637  33.470  1.00  0.00     0.123 A 
ATOM     20  C   UNL A   1      44.344  24.074  32.197  1.00  0.00     0.055 A 
BRANCH  16  21
ATOM     21  O   UNL A   1      44.893  28.148  32.596  1.00  0.00    -0.494 OA
BRANCH  21  22
ATOM     22  C   UNL A   1      43.970  29.025  31.939  1.00  0.00     0.226 C 
ATOM     23  C   UNL A   1      43.774  30.335  32.689  1.00  0.00     0.049 C 
ENDBRANCH  21  22
ENDBRANCH  16  21
BRANCH  19  24
ATOM     24  O   UNL A   1      44.383  23.934  34.644  1.00  0.00    -0.494 OA
BRANCH  24  25
ATOM     25  C   UNL A   1      43.138  23.328  35.008  1.00  0.00     0.226 C 
ATOM     26  C   UNL A   1      42.169  24.343  35.597  1.00  0.00     0.049 C 
ENDBRANCH  24  25
ENDBRANCH  19  24
ENDBRANCH   9  15
ENDBRANCH   6   8
ENDBRANCH   3   6
ENDBRANCH   1   2
BRANCH   1  27
ATOM     27  C   UNL A   1      41.176  20.017  26.129  1.00  0.00     0.042 C 
BRANCH  27  28
ATOM     28  C   UNL A   1      40.414  21.111  26.867  1.00  0.00     0.118 C 
BRANCH  28  29
ATOM     29  N   UNL A   1      39.173  21.467  26.194  1.00  0.00    -0.352 N 
ATOM     30  C   UNL A   1      38.496  22.660  26.133  1.00  0.00     0.251 C 
ATOM     31  H   UNL A   1      38.749  20.730  25.699  1.00  0.00     0.163 HD
ATOM     32  O   UNL A   1      37.353  22.677  25.685  1.00  0.00    -0.269 OA
BRANCH  30  33
ATOM     33  C   UNL A   1      39.113  23.922  26.605  1.00  0.00     0.039 A 
ATOM     34  C   UNL A   1      39.869  24.679  25.702  1.00  0.00     0.014 A 
ATOM     35  C   UNL A   1      39.010  24.335  27.934  1.00  0.00     0.014 A 
ATOM     36  C   UNL A   1      40.470  25.872  26.117  1.00  0.00     0.010 A 
ATOM     37  C   UNL A   1      39.541  25.563  28.327  1.00  0.00     0.010 A 
ATOM     38  C   UNL A   1      40.284  26.339  27.427  1.00  0.00    -0.014 A 
BRANCH  38  39
ATOM     39  C   UNL A   1      40.872  27.626  27.883  1.00  0.00     0.031 A 
ATOM     40  C   UNL A   1      42.363  27.832  27.837  1.00  0.00     0.074 A 
ATOM     41  C   UNL A   1      40.074  28.576  28.408  1.00  0.00     0.049 A 
ATOM     42  N   UNL A   1      43.075  28.835  28.284  1.00  0.00    -0.248 NA
ATOM     43  C   UNL A   1      43.161  26.751  27.235  1.00  0.00     0.031 C 
ATOM     44  C   UNL A   1      38.621  28.482  28.544  1.00  0.00     0.029 A 
ATOM     45  N   UNL A   1      40.377  29.806  28.941  1.00  0.00    -0.354 N 
ATOM     46  C   UNL A   1      44.401  28.494  28.045  1.00  0.00     0.074 A 
ATOM     47  C   UNL A   1      44.398  27.176  27.451  1.00  0.00     0.031 C 
ATOM     48  C   UNL A   1      38.156  29.610  29.102  1.00  0.00     0.029 A 
ATOM     49  C   UNL A   1      39.280  30.491  29.405  1.00  0.00     0.049 A 
ATOM     50  H   UNL A   1      41.293  30.162  28.985  1.00  0.00     0.167 HD
ATOM     51  C   UNL A   1      45.517  29.224  28.285  1.00  0.00     0.037 A 
ATOM     52  C   UNL A   1      39.194  31.687  30.015  1.00  0.00     0.037 A 
ATOM     53  C   UNL A   1      45.510  30.554  28.833  1.00  0.00     0.049 A 
ATOM     54  C   UNL A   1      40.452  32.475  30.267  1.00  0.00     0.074 A 
ATOM     55  C   UNL A   1      46.581  31.409  29.031  1.00  0.00     0.029 A 
ATOM     56  N   UNL A   1      44.376  31.222  29.269  1.00  0.00    -0.354 N 
ATOM     57  N   UNL A   1      41.691  32.174  29.967  1.00  0.00    -0.248 NA
ATOM     58  C   UNL A   1      40.297  33.772  30.942  1.00  0.00     0.031 C 
ATOM     59  C   UNL A   1      46.101  32.576  29.634  1.00  0.00     0.029 A 
ATOM     60  C   UNL A   1      44.726  32.470  29.764  1.00  0.00     0.049 A 
ATOM     61  H   UNL A   1      43.461  30.864  29.235  1.00  0.00     0.167 HD
ATOM     62  C   UNL A   1      42.457  33.255  30.381  1.00  0.00     0.074 A 
ATOM     63  C   UNL A   1      41.542  34.224  30.946  1.00  0.00     0.031 C 
ATOM     64  C   UNL A   1      43.799  33.430  30.303  1.00  0.00     0.037 A 
BRANCH  51  65
ATOM     65  C   UNL A   1      46.845  28.603  27.958  1.00  0.00     0.064 A 
ATOM     66  C   UNL A   1      47.597  27.916  28.922  1.00  0.00     0.173 A 
ATOM     67  C   UNL A   1      47.343  28.648  26.647  1.00  0.00     0.173 A 
ATOM     68  F   UNL A   1      47.171  27.851  30.192  1.00  0.00    -0.203 F 
ATOM     69  C   UNL A   1      48.811  27.317  28.591  1.00  0.00     0.198 A 
ATOM     70  C   UNL A   1      48.542  28.023  26.313  1.00  0.00     0.198 A 
ATOM     71  F   UNL A   1      46.660  29.288  25.685  1.00  0.00    -0.203 F 
ATOM     72  F   UNL A   1      49.532  26.702  29.537  1.00  0.00    -0.200 F 
ATOM     73  C   UNL A   1      49.277  27.364  27.286  1.00  0.00     0.200 A 
ATOM     74  F   UNL A   1      48.984  28.058  25.049  1.00  0.00    -0.200 F 
ATOM     75  F   UNL A   1      50.439  26.777  26.967  1.00  0.00    -0.200 F 
ENDBRANCH  51  65
BRANCH  52  76
ATOM     76  C   UNL A   1      37.868  32.231  30.416  1.00  0.00     0.064 A 
ATOM     77  C   UNL A   1      37.160  33.091  29.565  1.00  0.00     0.173 A 
ATOM     78  C   UNL A   1      37.295  31.925  31.659  1.00  0.00     0.173 A 
ATOM     79  F   UNL A   1      37.678  33.431  28.375  1.00  0.00    -0.203 F 
ATOM     80  C   UNL A   1      35.942  33.645  29.952  1.00  0.00     0.198 A 
ATOM     81  C   UNL A   1      36.062  32.455  32.032  1.00  0.00     0.198 A 
ATOM     82  F   UNL A   1      37.930  31.105  32.509  1.00  0.00    -0.203 F 
ATOM     83  F   UNL A   1      35.313  34.507  29.140  1.00  0.00    -0.200 F 
ATOM     84  C   UNL A   1      35.391  33.323  31.183  1.00  0.00     0.200 A 
ATOM     85  F   UNL A   1      35.528  32.135  33.218  1.00  0.00    -0.200 F 
ATOM     86  F   UNL A   1      34.221  33.859  31.554  1.00  0.00    -0.200 F 
ENDBRANCH  52  76
BRANCH  64  87
ATOM     87  C   UNL A   1      44.355  34.735  30.792  1.00  0.00     0.064 A 
ATOM     88  C   UNL A   1      44.446  35.858  29.956  1.00  0.00     0.173 A 
ATOM     89  C   UNL A   1      44.757  34.876  32.129  1.00  0.00     0.173 A 
ATOM     90  F   UNL A   1      44.088  35.770  28.666  1.00  0.00    -0.203 F 
ATOM     91  C   UNL A   1      44.941  37.068  30.436  1.00  0.00     0.198 A 
ATOM     92  C   UNL A   1      45.223  36.095  32.613  1.00  0.00     0.198 A 
ATOM     93  F   UNL A   1      44.683  33.834  32.970  1.00  0.00    -0.203 F 
ATOM     94  F   UNL A   1      45.061  38.115  29.609  1.00  0.00    -0.200 F 
ATOM     95  C   UNL A   1      45.320  37.187  31.765  1.00  0.00     0.200 A 
ATOM     96  F   UNL A   1      45.575  36.212  33.900  1.00  0.00    -0.200 F 
ATOM     97  F   UNL A   1      45.787  38.355  32.227  1.00  0.00    -0.200 F 
ENDBRANCH  64  87
ENDBRANCH  38  39
ENDBRANCH  30  33
ENDBRANCH  28  29
ENDBRANCH  27  28
ENDBRANCH   1  27
TORSDOF 16
ENDMDL
MODEL 2
REMARK VINA RESULT:      -9.9      4.706     11.004
REMARK SMILES CCOc1cc(OCC)cc(-c2ccc([C@@H](C)C(=O)NCCCNC(=O)c3ccc(-c4c5nc(c(-c6c(F)c(F)c(F)c(F)c6F)c6ccc([nH]6)c(-c6c(F)c(F)c(F)c(F)c6F)c6nc(c(-c7c(F)c(F)c(F)c(F)c7F)c7ccc4[nH]7)C=C6)C=C5)cc3)cc2F)c1
REMARK SMILES IDX 21 1 20 2 18 3 19 4 16 6 17 7 15 8 12 9 13 10 91 11 14 12
REMARK SMILES IDX 90 13 92 14 11 15 4 16 5 17 93 18 6 19 10 20 3 21 2 22 1 23
REMARK SMILES IDX 7 24 8 25 9 26 22 27 23 28 24 29 25 30 26 32 27 33 28 34
REMARK SMILES IDX 89 35 29 36 88 37 30 38 31 39 32 40 82 41 33 42 87 43 81 44
REMARK SMILES IDX 83 45 34 46 86 47 80 48 79 49 35 51 67 52 47 53 66 54 48 55
REMARK SMILES IDX 51 56 65 57 84 58 49 59 50 60 64 62 85 63 52 64 36 65 37 66
REMARK SMILES IDX 45 67 38 68 39 69 43 70 46 71 40 72 41 73 44 74 42 75 68 76
REMARK SMILES IDX 69 77 77 78 70 79 71 80 75 81 78 82 72 83 73 84 76 85 74 86
REMARK SMILES IDX 53 87 54 88 62 89 55 90 56 91 60 92 63 93 57 94 58 95 61 96
REMARK SMILES IDX 59 97
REMARK H PARENT 20 5 24 31 83 50 51 61
REMARK Flexibility Score: inf
ROOT
ATOM      1  C   UNL A   1      31.586  28.226  25.857  1.00  0.00     0.117 C 
ENDROOT
BRANCH   1   2
ATOM      2  N   UNL A   1      31.846  28.723  24.520  1.00  0.00    -0.356 N 
ATOM      3  C   UNL A   1      31.435  28.313  23.291  1.00  0.00     0.227 C 
ATOM      4  O   UNL A   1      31.908  28.932  22.329  1.00  0.00    -0.274 OA
ATOM      5  H   UNL A   1      32.436  29.512  24.499  1.00  0.00     0.163 HD
BRANCH   3   6
ATOM      6  C   UNL A   1      30.456  27.155  23.042  1.00  0.00     0.105 C 
ATOM      7  C   UNL A   1      29.047  27.370  23.594  1.00  0.00     0.023 C 
BRANCH   6   8
ATOM      8  C   UNL A   1      31.057  25.791  23.327  1.00  0.00    -0.033 A 
ATOM      9  C   UNL A   1      32.327  23.296  23.906  1.00  0.00     0.018 A 
ATOM     10  C   UNL A   1      31.274  23.795  24.693  1.00  0.00     0.012 A 
ATOM     11  C   UNL A   1      32.712  24.078  22.810  1.00  0.00     0.131 A 
ATOM     12  C   UNL A   1      30.625  24.992  24.383  1.00  0.00     0.005 A 
ATOM     13  C   UNL A   1      32.110  25.310  22.534  1.00  0.00     0.044 A 
ATOM     14  F   UNL A   1      33.679  23.664  21.978  1.00  0.00    -0.206 F 
BRANCH   9  15
ATOM     15  C   UNL A   1      32.965  22.009  24.259  1.00  0.00    -0.008 A 
ATOM     16  C   UNL A   1      32.923  19.586  24.493  1.00  0.00     0.123 A 
ATOM     17  C   UNL A   1      34.279  19.575  24.821  1.00  0.00     0.092 A 
ATOM     18  C   UNL A   1      32.272  20.792  24.228  1.00  0.00     0.055 A 
ATOM     19  C   UNL A   1      34.991  20.771  24.886  1.00  0.00     0.123 A 
ATOM     20  C   UNL A   1      34.325  21.968  24.621  1.00  0.00     0.055 A 
BRANCH  16  21
ATOM     21  O   UNL A   1      32.229  18.409  24.580  1.00  0.00    -0.494 OA
BRANCH  21  22
ATOM     22  C   UNL A   1      32.572  17.602  25.713  1.00  0.00     0.226 C 
ATOM     23  C   UNL A   1      32.934  16.175  25.326  1.00  0.00     0.049 C 
ENDBRANCH  21  22
ENDBRANCH  16  21
BRANCH  19  24
ATOM     24  O   UNL A   1      36.321  20.667  25.192  1.00  0.00    -0.494 OA
BRANCH  24  25
ATOM     25  C   UNL A   1      37.106  21.864  25.201  1.00  0.00     0.226 C 
ATOM     26  C   UNL A   1      38.530  21.601  25.673  1.00  0.00     0.049 C 
ENDBRANCH  24  25
ENDBRANCH  19  24
ENDBRANCH   9  15
ENDBRANCH   6   8
ENDBRANCH   3   6
ENDBRANCH   1   2
BRANCH   1  27
ATOM     27  C   UNL A   1      32.731  27.367  26.389  1.00  0.00     0.042 C 
BRANCH  27  28
ATOM     28  C   UNL A   1      34.036  28.128  26.590  1.00  0.00     0.118 C 
BRANCH  28  29
ATOM     29  N   UNL A   1      33.813  29.481  27.082  1.00  0.00    -0.352 N 
ATOM     30  C   UNL A   1      34.585  30.280  27.890  1.00  0.00     0.251 C 
ATOM     31  H   UNL A   1      32.970  29.891  26.785  1.00  0.00     0.163 HD
ATOM     32  O   UNL A   1      34.099  31.306  28.354  1.00  0.00    -0.269 OA
BRANCH  30  33
ATOM     33  C   UNL A   1      35.984  29.921  28.218  1.00  0.00     0.039 A 
ATOM     34  C   UNL A   1      36.263  29.388  29.483  1.00  0.00     0.014 A 
ATOM     35  C   UNL A   1      37.031  30.160  27.326  1.00  0.00     0.014 A 
ATOM     36  C   UNL A   1      37.573  29.045  29.827  1.00  0.00     0.010 A 
ATOM     37  C   UNL A   1      38.324  29.744  27.638  1.00  0.00     0.010 A 
ATOM     38  C   UNL A   1      38.611  29.192  28.894  1.00  0.00    -0.014 A 
BRANCH  38  39
ATOM     39  C   UNL A   1      40.006  28.792  29.216  1.00  0.00     0.031 A 
ATOM     40  C   UNL A   1      40.900  29.727  29.987  1.00  0.00     0.074 A 
ATOM     41  C   UNL A   1      40.492  27.626  28.749  1.00  0.00     0.049 A 
ATOM     42  N   UNL A   1      42.171  29.610  30.276  1.00  0.00    -0.248 NA
ATOM     43  C   UNL A   1      40.288  30.975  30.474  1.00  0.00     0.031 C 
ATOM     44  C   UNL A   1      39.740  26.652  27.957  1.00  0.00     0.029 A 
ATOM     45  N   UNL A   1      41.742  27.067  28.860  1.00  0.00    -0.354 N 
ATOM     46  C   UNL A   1      42.516  30.777  30.947  1.00  0.00     0.074 A 
ATOM     47  C   UNL A   1      41.332  31.606  30.990  1.00  0.00     0.031 C 
ATOM     48  C   UNL A   1      40.535  25.608  27.671  1.00  0.00     0.029 A 
ATOM     49  C   UNL A   1      41.864  25.857  28.220  1.00  0.00     0.049 A 
ATOM     50  H   UNL A   1      42.480  27.493  29.352  1.00  0.00     0.167 HD
ATOM     51  C   UNL A   1      43.709  31.115  31.493  1.00  0.00     0.037 A 
ATOM     52  C   UNL A   1      42.931  25.048  28.083  1.00  0.00     0.037 A 
ATOM     53  C   UNL A   1      44.870  30.265  31.489  1.00  0.00     0.049 A 
ATOM     54  C   UNL A   1      44.243  25.451  28.702  1.00  0.00     0.074 A 
ATOM     55  C   UNL A   1      46.097  30.481  32.092  1.00  0.00     0.029 A 
ATOM     56  N   UNL A   1      44.947  29.037  30.850  1.00  0.00    -0.354 N 
ATOM     57  N   UNL A   1      44.535  26.520  29.400  1.00  0.00    -0.248 NA
ATOM     58  C   UNL A   1      45.374  24.531  28.515  1.00  0.00     0.031 C 
ATOM     59  C   UNL A   1      46.934  29.406  31.776  1.00  0.00     0.029 A 
ATOM     60  C   UNL A   1      46.212  28.496  31.020  1.00  0.00     0.049 A 
ATOM     61  H   UNL A   1      44.214  28.613  30.349  1.00  0.00     0.167 HD
ATOM     62  C   UNL A   1      45.868  26.386  29.765  1.00  0.00     0.074 A 
ATOM     63  C   UNL A   1      46.325  25.125  29.219  1.00  0.00     0.031 C 
ATOM     64  C   UNL A   1      46.644  27.230  30.487  1.00  0.00     0.037 A 
BRANCH  51  65
ATOM     65  C   UNL A   1      43.825  32.463  32.144  1.00  0.00     0.064 A 
ATOM     66  C   UNL A   1      44.215  33.601  31.423  1.00  0.00     0.173 A 
ATOM     67  C   UNL A   1      43.486  32.628  33.497  1.00  0.00     0.173 A 
ATOM     68  F   UNL A   1      44.559  33.497  30.131  1.00  0.00    -0.203 F 
ATOM     69  C   UNL A   1      44.283  34.850  32.037  1.00  0.00     0.198 A 
ATOM     70  C   UNL A   1      43.527  33.883  34.099  1.00  0.00     0.198 A 
ATOM     71  F   UNL A   1      43.100  31.573  34.230  1.00  0.00    -0.203 F 
ATOM     72  F   UNL A   1      44.699  35.915  31.339  1.00  0.00    -0.200 F 
ATOM     73  C   UNL A   1      43.932  34.991  33.370  1.00  0.00     0.200 A 
ATOM     74  F   UNL A   1      43.173  34.019  35.384  1.00  0.00    -0.200 F 
ATOM     75  F   UNL A   1      43.986  36.195  33.956  1.00  0.00    -0.200 F 
ENDBRANCH  51  65
BRANCH  52  76
ATOM     76  C   UNL A   1      42.806  23.762  27.346  1.00  0.00     0.064 A 
ATOM     77  C   UNL A   1      42.299  22.620  27.980  1.00  0.00     0.173 A 
ATOM     78  C   UNL A   1      43.212  23.640  26.009  1.00  0.00     0.173 A 
ATOM     79  F   UNL A   1      41.919  22.680  29.265  1.00  0.00    -0.203 F 
ATOM     80  C   UNL A   1      42.225  21.398  27.313  1.00  0.00     0.198 A 
ATOM     81  C   UNL A   1      43.110  22.426  25.334  1.00  0.00     0.198 A 
ATOM     82  F   UNL A   1      43.703  24.704  25.355  1.00  0.00    -0.203 F 
ATOM     83  F   UNL A   1      41.786  20.310  27.961  1.00  0.00    -0.200 F 
ATOM     84  C   UNL A   1      42.626  21.303  25.990  1.00  0.00     0.200 A 
ATOM     85  F   UNL A   1      43.489  22.339  24.052  1.00  0.00    -0.200 F 
ATOM     86  F   UNL A   1      42.557  20.128  25.351  1.00  0.00    -0.200 F 
ENDBRANCH  52  76
BRANCH  64  87
ATOM     87  C   UNL A   1      48.052  26.800  30.773  1.00  0.00     0.064 A 
ATOM     88  C   UNL A   1      48.371  26.018  31.894  1.00  0.00     0.173 A 
ATOM     89  C   UNL A   1      49.088  27.133  29.887  1.00  0.00     0.173 A 
ATOM     90  F   UNL A   1      47.419  25.686  32.778  1.00  0.00    -0.203 F 
ATOM     91  C   UNL A   1      49.681  25.606  32.128  1.00  0.00     0.198 A 
ATOM     92  C   UNL A   1      50.390  26.694  30.107  1.00  0.00     0.198 A 
ATOM     93  F   UNL A   1      48.833  27.871  28.796  1.00  0.00    -0.203 F 
ATOM     94  F   UNL A   1      49.972  24.900  33.228  1.00  0.00    -0.200 F 
ATOM     95  C   UNL A   1      50.686  25.937  31.231  1.00  0.00     0.200 A 
ATOM     96  F   UNL A   1      51.356  27.001  29.233  1.00  0.00    -0.200 F 
ATOM     97  F   UNL A   1      51.944  25.530  31.453  1.00  0.00    -0.200 F 
ENDBRANCH  64  87
ENDBRANCH  38  39
ENDBRANCH  30  33
ENDBRANCH  28  29
ENDBRANCH  27  28
ENDBRANCH   1  27
TORSDOF 16
ENDMDL
MODEL 3
REMARK VINA RESULT:      -9.8      4.350      7.693
REMARK SMILES CCOc1cc(OCC)cc(-c2ccc([C@@H](C)C(=O)NCCCNC(=O)c3ccc(-c4c5nc(c(-c6c(F)c(F)c(F)c(F)c6F)c6ccc([nH]6)c(-c6c(F)c(F)c(F)c(F)c6F)c6nc(c(-c7c(F)c(F)c(F)c(F)c7F)c7ccc4[nH]7)C=C6)C=C5)cc3)cc2F)c1
REMARK SMILES IDX 21 1 20 2 18 3 19 4 16 6 17 7 15 8 12 9 13 10 91 11 14 12
REMARK SMILES IDX 90 13 92 14 11 15 4 16 5 17 93 18 6 19 10 20 3 21 2 22 1 23
REMARK SMILES IDX 7 24 8 25 9 26 22 27 23 28 24 29 25 30 26 32 27 33 28 34
REMARK SMILES IDX 89 35 29 36 88 37 30 38 31 39 32 40 82 41 33 42 87 43 81 44
REMARK SMILES IDX 83 45 34 46 86 47 80 48 79 49 35 51 67 52 47 53 66 54 48 55
REMARK SMILES IDX 51 56 65 57 84 58 49 59 50 60 64 62 85 63 52 64 36 65 37 66
REMARK SMILES IDX 45 67 38 68 39 69 43 70 46 71 40 72 41 73 44 74 42 75 68 76
REMARK SMILES IDX 69 77 77 78 70 79 71 80 75 81 78 82 72 83 73 84 76 85 74 86
REMARK SMILES IDX 53 87 54 88 62 89 55 90 56 91 60 92 63 93 57 94 58 95 61 96
REMARK SMILES IDX 59 97
REMARK H PARENT 20 5 24 31 83 50 51 61
REMARK Flexibility Score: inf
ROOT
ATOM      1  C   UNL A   1      35.156  21.346  25.080  1.00  0.00     0.117 C 
ENDROOT
BRANCH   1   2
ATOM      2  N   UNL A   1      34.305  20.330  25.668  1.00  0.00    -0.356 N 
ATOM      3  C   UNL A   1      33.046  19.906  25.380  1.00  0.00     0.227 C 
ATOM      4  O   UNL A   1      32.578  19.047  26.139  1.00  0.00    -0.274 OA
ATOM      5  H   UNL A   1      34.721  19.855  26.425  1.00  0.00     0.163 HD
BRANCH   3   6
ATOM      6  C   UNL A   1      32.200  20.425  24.208  1.00  0.00     0.105 C 
ATOM      7  C   UNL A   1      32.500  19.779  22.856  1.00  0.00     0.023 C 
BRANCH   6   8
ATOM      8  C   UNL A   1      32.076  21.938  24.184  1.00  0.00    -0.033 A 
ATOM      9  C   UNL A   1      31.737  24.773  24.018  1.00  0.00     0.018 A 
ATOM     10  C   UNL A   1      31.274  24.031  25.119  1.00  0.00     0.012 A 
ATOM     11  C   UNL A   1      32.390  24.051  23.010  1.00  0.00     0.131 A 
ATOM     12  C   UNL A   1      31.480  22.654  25.220  1.00  0.00     0.005 A 
ATOM     13  C   UNL A   1      32.540  22.662  23.075  1.00  0.00     0.044 A 
ATOM     14  F   UNL A   1      32.903  24.677  21.940  1.00  0.00    -0.206 F 
BRANCH   9  15
ATOM     15  C   UNL A   1      31.520  26.234  23.969  1.00  0.00    -0.008 A 
ATOM     16  C   UNL A   1      32.006  28.502  24.711  1.00  0.00     0.123 A 
ATOM     17  C   UNL A   1      31.155  29.023  23.736  1.00  0.00     0.092 A 
ATOM     18  C   UNL A   1      32.175  27.122  24.832  1.00  0.00     0.055 A 
ATOM     19  C   UNL A   1      30.467  28.166  22.879  1.00  0.00     0.123 A 
ATOM     20  C   UNL A   1      30.645  26.789  23.015  1.00  0.00     0.055 A 
BRANCH  16  21
ATOM     21  O   UNL A   1      32.549  29.367  25.622  1.00  0.00    -0.494 OA
BRANCH  21  22
ATOM     22  C   UNL A   1      33.818  28.956  26.145  1.00  0.00     0.226 C 
ATOM     23  C   UNL A   1      34.360  29.922  27.189  1.00  0.00     0.049 C 
ENDBRANCH  21  22
ENDBRANCH  16  21
BRANCH  19  24
ATOM     24  O   UNL A   1      29.671  28.763  21.938  1.00  0.00    -0.494 OA
BRANCH  24  25
ATOM     25  C   UNL A   1      28.573  29.561  22.394  1.00  0.00     0.226 C 
ATOM     26  C   UNL A   1      27.485  28.709  23.033  1.00  0.00     0.049 C 
ENDBRANCH  24  25
ENDBRANCH  19  24
ENDBRANCH   9  15
ENDBRANCH   6   8
ENDBRANCH   3   6
ENDBRANCH   1   2
BRANCH   1  27
ATOM     27  C   UNL A   1      35.249  22.599  25.949  1.00  0.00     0.042 C 
BRANCH  27  28
ATOM     28  C   UNL A   1      36.577  23.337  25.832  1.00  0.00     0.118 C 
BRANCH  28  29
ATOM     29  N   UNL A   1      37.718  22.447  26.001  1.00  0.00    -0.352 N 
ATOM     30  C   UNL A   1      39.020  22.713  26.346  1.00  0.00     0.251 C 
ATOM     31  H   UNL A   1      37.522  21.496  25.842  1.00  0.00     0.163 HD
ATOM     32  O   UNL A   1      39.865  21.833  26.217  1.00  0.00    -0.269 OA
BRANCH  30  33
ATOM     33  C   UNL A   1      39.425  24.043  26.859  1.00  0.00     0.039 A 
ATOM     34  C   UNL A   1      39.163  24.355  28.199  1.00  0.00     0.014 A 
ATOM     35  C   UNL A   1      39.999  25.006  26.028  1.00  0.00     0.014 A 
ATOM     36  C   UNL A   1      39.528  25.602  28.713  1.00  0.00     0.010 A 
ATOM     37  C   UNL A   1      40.435  26.218  26.559  1.00  0.00     0.010 A 
ATOM     38  C   UNL A   1      40.195  26.534  27.904  1.00  0.00    -0.014 A 
BRANCH  38  39
ATOM     39  C   UNL A   1      40.635  27.850  28.436  1.00  0.00     0.031 A 
ATOM     40  C   UNL A   1      42.083  28.078  28.779  1.00  0.00     0.074 A 
ATOM     41  C   UNL A   1      39.724  28.811  28.681  1.00  0.00     0.049 A 
ATOM     42  N   UNL A   1      42.648  29.112  29.349  1.00  0.00    -0.248 NA
ATOM     43  C   UNL A   1      43.017  26.983  28.466  1.00  0.00     0.031 C 
ATOM     44  C   UNL A   1      38.287  28.700  28.428  1.00  0.00     0.029 A 
ATOM     45  N   UNL A   1      39.869  30.069  29.213  1.00  0.00    -0.354 N 
ATOM     46  C   UNL A   1      43.990  28.781  29.490  1.00  0.00     0.074 A 
ATOM     47  C   UNL A   1      44.150  27.437  28.983  1.00  0.00     0.031 C 
ATOM     48  C   UNL A   1      37.686  29.846  28.785  1.00  0.00     0.029 A 
ATOM     49  C   UNL A   1      38.686  30.757  29.333  1.00  0.00     0.049 A 
ATOM     50  H   UNL A   1      40.739  30.442  29.483  1.00  0.00     0.167 HD
ATOM     51  C   UNL A   1      44.999  29.539  29.983  1.00  0.00     0.037 A 
ATOM     52  C   UNL A   1      38.437  31.980  29.838  1.00  0.00     0.037 A 
ATOM     53  C   UNL A   1      44.842  30.894  30.442  1.00  0.00     0.049 A 
ATOM     54  C   UNL A   1      39.579  32.799  30.377  1.00  0.00     0.074 A 
ATOM     55  C   UNL A   1      45.819  31.775  30.876  1.00  0.00     0.029 A 
ATOM     56  N   UNL A   1      43.631  31.564  30.527  1.00  0.00    -0.354 N 
ATOM     57  N   UNL A   1      40.854  32.504  30.434  1.00  0.00    -0.248 NA
ATOM     58  C   UNL A   1      39.245  34.123  30.921  1.00  0.00     0.031 C 
ATOM     59  C   UNL A   1      45.192  32.960  31.271  1.00  0.00     0.029 A 
ATOM     60  C   UNL A   1      43.832  32.838  31.034  1.00  0.00     0.049 A 
ATOM     61  H   UNL A   1      42.759  31.190  30.267  1.00  0.00     0.167 HD
ATOM     62  C   UNL A   1      41.479  33.616  30.984  1.00  0.00     0.074 A 
ATOM     63  C   UNL A   1      40.443  34.596  31.235  1.00  0.00     0.031 C 
ATOM     64  C   UNL A   1      42.792  33.808  31.258  1.00  0.00     0.037 A 
BRANCH  51  65
ATOM     65  C   UNL A   1      46.368  28.926  30.054  1.00  0.00     0.064 A 
ATOM     66  C   UNL A   1      47.270  29.007  28.982  1.00  0.00     0.173 A 
ATOM     67  C   UNL A   1      46.803  28.299  31.232  1.00  0.00     0.173 A 
ATOM     68  F   UNL A   1      46.902  29.588  27.831  1.00  0.00    -0.203 F 
ATOM     69  C   UNL A   1      48.549  28.462  29.080  1.00  0.00     0.198 A 
ATOM     70  C   UNL A   1      48.092  27.781  31.335  1.00  0.00     0.198 A 
ATOM     71  F   UNL A   1      45.981  28.200  32.288  1.00  0.00    -0.203 F 
ATOM     72  F   UNL A   1      49.378  28.515  28.030  1.00  0.00    -0.200 F 
ATOM     73  C   UNL A   1      48.960  27.858  30.258  1.00  0.00     0.200 A 
ATOM     74  F   UNL A   1      48.492  27.210  32.479  1.00  0.00    -0.200 F 
ATOM     75  F   UNL A   1      50.195  27.345  30.354  1.00  0.00    -0.200 F 
ENDBRANCH  51  65
BRANCH  52  76
ATOM     76  C   UNL A   1      37.051  32.520  29.843  1.00  0.00     0.064 A 
ATOM     77  C   UNL A   1      36.568  33.262  28.756  1.00  0.00     0.173 A 
ATOM     78  C   UNL A   1      36.192  32.330  30.936  1.00  0.00     0.173 A 
ATOM     79  F   UNL A   1      37.359  33.491  27.697  1.00  0.00    -0.203 F 
ATOM     80  C   UNL A   1      35.289  33.815  28.773  1.00  0.00     0.198 A 
ATOM     81  C   UNL A   1      34.903  32.858  30.939  1.00  0.00     0.198 A 
ATOM     82  F   UNL A   1      36.605  31.625  32.000  1.00  0.00    -0.203 F 
ATOM     83  F   UNL A   1      34.873  34.566  27.743  1.00  0.00    -0.200 F 
ATOM     84  C   UNL A   1      34.456  33.609  29.861  1.00  0.00     0.200 A 
ATOM     85  F   UNL A   1      34.097  32.648  31.988  1.00  0.00    -0.200 F 
ATOM     86  F   UNL A   1      33.228  34.143  29.877  1.00  0.00    -0.200 F 
ENDBRANCH  52  76
BRANCH  64  87
ATOM     87  C   UNL A   1      43.194  35.143  31.812  1.00  0.00     0.064 A 
ATOM     88  C   UNL A   1      43.656  36.177  30.984  1.00  0.00     0.173 A 
ATOM     89  C   UNL A   1      43.067  35.406  33.185  1.00  0.00     0.173 A 
ATOM     90  F   UNL A   1      43.809  35.970  29.668  1.00  0.00    -0.203 F 
ATOM     91  C   UNL A   1      43.999  37.418  31.515  1.00  0.00     0.198 A 
ATOM     92  C   UNL A   1      43.381  36.657  33.707  1.00  0.00     0.198 A 
ATOM     93  F   UNL A   1      42.621  34.454  34.017  1.00  0.00    -0.203 F 
ATOM     94  F   UNL A   1      44.482  38.376  30.713  1.00  0.00    -0.200 F 
ATOM     95  C   UNL A   1      43.854  37.660  32.873  1.00  0.00     0.200 A 
ATOM     96  F   UNL A   1      43.226  36.893  35.017  1.00  0.00    -0.200 F 
ATOM     97  F   UNL A   1      44.175  38.858  33.380  1.00  0.00    -0.200 F 
ENDBRANCH  64  87
ENDBRANCH  38  39
ENDBRANCH  30  33
ENDBRANCH  28  29
ENDBRANCH  27  28
ENDBRANCH   1  27
TORSDOF 16
ENDMDL
