MODEL 1
REMARK VINA RESULT:     -14.7      0.000      0.000
REMARK SMILES O=C1C[C@@H](c2cccc(O)c2)c2c(c(C(=O)NCCCNC(=O)c3ccc(-c4c5nc(c(-c6c(F)c(F)c(F)c(F)c6F)c6ccc([nH]6)c(-c6c(F)c(F)c(F)c(F)c6F)c6nc(c(-c7c(F)c(F)c(F)c(F)c7F)c7ccc4[nH]7)C=C6)C=C5)cc3)cn2-c2cccc(C(F)(F)F)c2)N1
REMARK SMILES IDX 19 1 18 2 17 3 15 4 16 5 14 7 1 8 2 9 3 10 99 11 4 12 13 13
REMARK SMILES IDX 12 15 88 16 87 17 5 18 6 19 11 20 7 21 9 22 8 23 10 24 89 26
REMARK SMILES IDX 90 27 98 28 91 29 93 30 92 31 94 32 95 33 96 34 97 35 20 36
REMARK SMILES IDX 21 37 22 38 23 40 24 41 25 42 86 43 26 44 85 45 27 46 28 47
REMARK SMILES IDX 29 48 79 49 30 50 84 51 78 52 80 53 31 54 83 55 77 56 76 57
REMARK SMILES IDX 32 59 64 60 44 61 63 62 45 63 48 64 62 65 81 66 46 67 47 68
REMARK SMILES IDX 61 70 82 71 49 72 33 73 34 74 42 75 35 76 36 77 40 78 43 79
REMARK SMILES IDX 37 80 38 81 41 82 39 83 65 84 66 85 74 86 67 87 68 88 72 89
REMARK SMILES IDX 75 90 69 91 70 92 73 93 71 94 50 95 51 96 59 97 52 98 53 99
REMARK SMILES IDX 57 100 60 101 54 102 55 103 58 104 56 105
REMARK H PARENT 17 6 99 14 10 25 21 39 80 58 48 69
REMARK Flexibility Score: inf
ROOT
ATOM      1  C   UNL A   1      37.306  21.938  24.585  1.00  0.00     0.042 C 
ENDROOT
BRANCH   1   2
ATOM      2  C   UNL A   1      36.011  22.543  24.018  1.00  0.00     0.118 C 
BRANCH   2   3
ATOM      3  N   UNL A   1      34.820  22.051  24.693  1.00  0.00    -0.352 N 
ATOM      4  C   UNL A   1      33.677  22.695  25.095  1.00  0.00     0.254 C 
ATOM      5  O   UNL A   1      32.769  22.000  25.563  1.00  0.00    -0.269 OA
ATOM      6  H   UNL A   1      34.837  21.088  24.896  1.00  0.00     0.163 HD
BRANCH   4   7
ATOM      7  C   UNL A   1      33.521  24.138  24.969  1.00  0.00     0.081 A 
ATOM      8  O   UNL A   1      32.903  24.803  20.264  1.00  0.00    -0.275 OA
ATOM      9  C   UNL A   1      33.132  25.239  21.391  1.00  0.00     0.225 C 
ATOM     10  C   UNL A   1      33.471  26.707  21.632  1.00  0.00     0.115 C 
ATOM     11  N   UNL A   1      33.218  24.398  22.473  1.00  0.00    -0.324 N 
ATOM     12  C   UNL A   1      33.001  27.259  22.992  1.00  0.00     0.078 C 
ATOM     13  C   UNL A   1      33.321  24.863  23.764  1.00  0.00     0.076 A 
ATOM     14  H   UNL A   1      33.205  23.426  22.320  1.00  0.00     0.170 HD
ATOM     15  C   UNL A   1      33.189  26.206  24.041  1.00  0.00     0.055 A 
ATOM     16  N   UNL A   1      33.313  26.362  25.402  1.00  0.00    -0.317 N 
ATOM     17  C   UNL A   1      33.495  25.109  25.951  1.00  0.00     0.107 A 
BRANCH  12  18
ATOM     18  C   UNL A   1      31.574  27.771  22.923  1.00  0.00    -0.035 A 
ATOM     19  C   UNL A   1      30.494  27.049  23.459  1.00  0.00     0.005 A 
ATOM     20  C   UNL A   1      31.328  29.041  22.377  1.00  0.00     0.050 A 
ATOM     21  C   UNL A   1      29.214  27.603  23.491  1.00  0.00     0.004 A 
ATOM     22  C   UNL A   1      30.056  29.596  22.445  1.00  0.00     0.115 A 
ATOM     23  C   UNL A   1      28.994  28.888  22.997  1.00  0.00     0.046 A 
BRANCH  22  24
ATOM     24  O   UNL A   1      29.903  30.876  22.001  1.00  0.00    -0.508 OA
ATOM     25  H   UNL A   1      30.626  31.470  22.029  1.00  0.00     0.293 HD
ENDBRANCH  22  24
ENDBRANCH  12  18
BRANCH  16  26
ATOM     26  C   UNL A   1      33.179  27.506  26.220  1.00  0.00     0.046 A 
ATOM     27  C   UNL A   1      31.904  28.048  26.423  1.00  0.00     0.026 A 
ATOM     28  C   UNL A   1      34.315  28.205  26.630  1.00  0.00     0.039 A 
ATOM     29  C   UNL A   1      31.767  29.262  27.094  1.00  0.00     0.003 A 
ATOM     30  C   UNL A   1      34.186  29.433  27.294  1.00  0.00     0.058 A 
ATOM     31  C   UNL A   1      32.901  29.947  27.533  1.00  0.00     0.013 A 
BRANCH  30  32
ATOM     32  C   UNL A   1      35.404  30.219  27.717  1.00  0.00     0.416 C 
ATOM     33  F   UNL A   1      36.560  29.665  27.251  1.00  0.00    -0.166 F 
ATOM     34  F   UNL A   1      35.392  31.496  27.251  1.00  0.00    -0.166 F 
ATOM     35  F   UNL A   1      35.565  30.309  29.067  1.00  0.00    -0.166 F 
ENDBRANCH  30  32
ENDBRANCH  16  26
ENDBRANCH   4   7
ENDBRANCH   2   3
ENDBRANCH   1   2
BRANCH   1  36
ATOM     36  C   UNL A   1      37.828  22.751  25.754  1.00  0.00     0.118 C 
BRANCH  36  37
ATOM     37  N   UNL A   1      39.024  22.149  26.383  1.00  0.00    -0.352 N 
ATOM     38  C   UNL A   1      40.154  22.760  26.903  1.00  0.00     0.251 C 
ATOM     39  H   UNL A   1      39.016  21.166  26.443  1.00  0.00     0.163 HD
ATOM     40  O   UNL A   1      41.191  22.117  27.106  1.00  0.00    -0.269 OA
BRANCH  38  41
ATOM     41  C   UNL A   1      40.099  24.188  27.235  1.00  0.00     0.039 A 
ATOM     42  C   UNL A   1      38.971  25.008  27.133  1.00  0.00     0.014 A 
ATOM     43  C   UNL A   1      41.251  24.682  27.797  1.00  0.00     0.014 A 
ATOM     44  C   UNL A   1      39.071  26.310  27.628  1.00  0.00     0.010 A 
ATOM     45  C   UNL A   1      41.059  25.615  28.750  1.00  0.00     0.010 A 
ATOM     46  C   UNL A   1      40.182  26.613  28.417  1.00  0.00    -0.014 A 
BRANCH  46  47
ATOM     47  C   UNL A   1      40.506  27.896  29.003  1.00  0.00     0.031 A 
ATOM     48  C   UNL A   1      41.654  28.574  28.375  1.00  0.00     0.074 A 
ATOM     49  C   UNL A   1      39.642  28.539  29.827  1.00  0.00     0.049 A 
ATOM     50  N   UNL A   1      42.824  28.758  28.879  1.00  0.00    -0.248 NA
ATOM     51  C   UNL A   1      41.540  28.948  26.957  1.00  0.00     0.031 C 
ATOM     52  C   UNL A   1      38.289  28.156  30.266  1.00  0.00     0.029 A 
ATOM     53  N   UNL A   1      39.786  29.768  30.390  1.00  0.00    -0.354 N 
ATOM     54  C   UNL A   1      43.541  29.458  27.917  1.00  0.00     0.074 A 
ATOM     55  C   UNL A   1      42.784  29.354  26.696  1.00  0.00     0.031 C 
ATOM     56  C   UNL A   1      37.670  29.216  30.835  1.00  0.00     0.029 A 
ATOM     57  C   UNL A   1      38.629  30.294  30.956  1.00  0.00     0.049 A 
ATOM     58  H   UNL A   1      40.645  30.250  30.398  1.00  0.00     0.167 HD
ATOM     59  C   UNL A   1      44.563  30.283  28.271  1.00  0.00     0.037 A 
ATOM     60  C   UNL A   1      38.494  31.556  31.436  1.00  0.00     0.037 A 
ATOM     61  C   UNL A   1      44.966  30.055  29.638  1.00  0.00     0.049 A 
ATOM     62  C   UNL A   1      39.873  32.053  31.714  1.00  0.00     0.074 A 
ATOM     63  C   UNL A   1      45.446  28.958  30.328  1.00  0.00     0.029 A 
ATOM     64  N   UNL A   1      44.488  30.912  30.604  1.00  0.00    -0.354 N 
ATOM     65  N   UNL A   1      40.651  31.527  32.627  1.00  0.00    -0.248 NA
ATOM     66  C   UNL A   1      40.564  32.743  30.631  1.00  0.00     0.031 C 
ATOM     67  C   UNL A   1      44.756  28.983  31.579  1.00  0.00     0.029 A 
ATOM     68  C   UNL A   1      43.970  30.136  31.613  1.00  0.00     0.049 A 
ATOM     69  H   UNL A   1      44.512  31.895  30.577  1.00  0.00     0.167 HD
ATOM     70  C   UNL A   1      41.906  31.461  32.038  1.00  0.00     0.074 A 
ATOM     71  C   UNL A   1      41.799  32.268  30.822  1.00  0.00     0.031 C 
ATOM     72  C   UNL A   1      42.825  30.517  32.409  1.00  0.00     0.037 A 
BRANCH  59  73
ATOM     73  C   UNL A   1      44.943  31.530  27.520  1.00  0.00     0.064 A 
ATOM     74  C   UNL A   1      46.227  31.618  26.950  1.00  0.00     0.173 A 
ATOM     75  C   UNL A   1      44.217  32.740  27.583  1.00  0.00     0.173 A 
ATOM     76  F   UNL A   1      47.007  30.530  26.856  1.00  0.00    -0.203 F 
ATOM     77  C   UNL A   1      46.769  32.839  26.545  1.00  0.00     0.198 A 
ATOM     78  C   UNL A   1      44.740  33.946  27.126  1.00  0.00     0.198 A 
ATOM     79  F   UNL A   1      43.028  32.828  28.190  1.00  0.00    -0.203 F 
ATOM     80  F   UNL A   1      48.040  32.895  26.126  1.00  0.00    -0.200 F 
ATOM     81  C   UNL A   1      46.028  34.003  26.639  1.00  0.00     0.200 A 
ATOM     82  F   UNL A   1      44.011  35.065  27.242  1.00  0.00    -0.200 F 
ATOM     83  F   UNL A   1      46.568  35.184  26.311  1.00  0.00    -0.200 F 
ENDBRANCH  59  73
BRANCH  60  84
ATOM     84  C   UNL A   1      37.318  32.445  31.257  1.00  0.00     0.064 A 
ATOM     85  C   UNL A   1      37.015  33.027  30.017  1.00  0.00     0.173 A 
ATOM     86  C   UNL A   1      36.316  32.533  32.247  1.00  0.00     0.173 A 
ATOM     87  F   UNL A   1      37.889  32.944  29.004  1.00  0.00    -0.203 F 
ATOM     88  C   UNL A   1      35.783  33.652  29.779  1.00  0.00     0.198 A 
ATOM     89  C   UNL A   1      35.091  33.158  32.011  1.00  0.00     0.198 A 
ATOM     90  F   UNL A   1      36.471  31.934  33.436  1.00  0.00    -0.203 F 
ATOM     91  F   UNL A   1      35.508  34.153  28.566  1.00  0.00    -0.200 F 
ATOM     92  C   UNL A   1      34.819  33.710  30.774  1.00  0.00     0.200 A 
ATOM     93  F   UNL A   1      34.153  33.167  32.970  1.00  0.00    -0.200 F 
ATOM     94  F   UNL A   1      33.620  34.255  30.528  1.00  0.00    -0.200 F 
ENDBRANCH  60  84
BRANCH  72  95
ATOM     95  C   UNL A   1      42.511  29.649  33.601  1.00  0.00     0.064 A 
ATOM     96  C   UNL A   1      41.898  28.385  33.513  1.00  0.00     0.173 A 
ATOM     97  C   UNL A   1      42.998  30.029  34.857  1.00  0.00     0.173 A 
ATOM     98  F   UNL A   1      41.502  27.895  32.337  1.00  0.00    -0.203 F 
ATOM     99  C   UNL A   1      41.745  27.564  34.631  1.00  0.00     0.198 A 
ATOM    100  C   UNL A   1      42.874  29.195  35.968  1.00  0.00     0.198 A 
ATOM    101  F   UNL A   1      43.650  31.194  34.998  1.00  0.00    -0.203 F 
ATOM    102  F   UNL A   1      41.155  26.365  34.509  1.00  0.00    -0.200 F 
ATOM    103  C   UNL A   1      42.239  27.968  35.857  1.00  0.00     0.200 A 
ATOM    104  F   UNL A   1      43.401  29.569  37.142  1.00  0.00    -0.200 F 
ATOM    105  F   UNL A   1      42.131  27.165  36.925  1.00  0.00    -0.200 F 
ENDBRANCH  72  95
ENDBRANCH  46  47
ENDBRANCH  38  41
ENDBRANCH  36  37
ENDBRANCH   1  36
TORSDOF 14
ENDMDL
MODEL 2
REMARK VINA RESULT:     -14.3      3.150      8.667
REMARK SMILES O=C1C[C@@H](c2cccc(O)c2)c2c(c(C(=O)NCCCNC(=O)c3ccc(-c4c5nc(c(-c6c(F)c(F)c(F)c(F)c6F)c6ccc([nH]6)c(-c6c(F)c(F)c(F)c(F)c6F)c6nc(c(-c7c(F)c(F)c(F)c(F)c7F)c7ccc4[nH]7)C=C6)C=C5)cc3)cn2-c2cccc(C(F)(F)F)c2)N1
REMARK SMILES IDX 19 1 18 2 17 3 15 4 16 5 14 7 1 8 2 9 3 10 99 11 4 12 13 13
REMARK SMILES IDX 12 15 88 16 87 17 5 18 6 19 11 20 7 21 9 22 8 23 10 24 89 26
REMARK SMILES IDX 90 27 98 28 91 29 93 30 92 31 94 32 95 33 96 34 97 35 20 36
REMARK SMILES IDX 21 37 22 38 23 40 24 41 25 42 86 43 26 44 85 45 27 46 28 47
REMARK SMILES IDX 29 48 79 49 30 50 84 51 78 52 80 53 31 54 83 55 77 56 76 57
REMARK SMILES IDX 32 59 64 60 44 61 63 62 45 63 48 64 62 65 81 66 46 67 47 68
REMARK SMILES IDX 61 70 82 71 49 72 33 73 34 74 42 75 35 76 36 77 40 78 43 79
REMARK SMILES IDX 37 80 38 81 41 82 39 83 65 84 66 85 74 86 67 87 68 88 72 89
REMARK SMILES IDX 75 90 69 91 70 92 73 93 71 94 50 95 51 96 59 97 52 98 53 99
REMARK SMILES IDX 57 100 60 101 54 102 55 103 58 104 56 105
REMARK H PARENT 17 6 99 14 10 25 21 39 80 58 48 69
REMARK Flexibility Score: inf
ROOT
ATOM      1  C   UNL A   1      32.930  30.427  26.476  1.00  0.00     0.042 C 
ENDROOT
BRANCH   1   2
ATOM      2  C   UNL A   1      33.216  29.090  25.774  1.00  0.00     0.118 C 
BRANCH   2   3
ATOM      3  N   UNL A   1      32.095  28.629  24.968  1.00  0.00    -0.352 N 
ATOM      4  C   UNL A   1      31.693  27.365  24.616  1.00  0.00     0.254 C 
ATOM      5  O   UNL A   1      30.629  27.259  23.998  1.00  0.00    -0.269 OA
ATOM      6  H   UNL A   1      31.525  29.350  24.616  1.00  0.00     0.163 HD
BRANCH   4   7
ATOM      7  C   UNL A   1      32.474  26.184  24.964  1.00  0.00     0.081 A 
ATOM      8  O   UNL A   1      29.350  23.414  27.314  1.00  0.00    -0.275 OA
ATOM      9  C   UNL A   1      30.500  23.692  26.978  1.00  0.00     0.225 C 
ATOM     10  C   UNL A   1      31.702  22.920  27.511  1.00  0.00     0.115 C 
ATOM     11  N   UNL A   1      30.764  24.795  26.204  1.00  0.00    -0.324 N 
ATOM     12  C   UNL A   1      32.889  22.824  26.531  1.00  0.00     0.078 C 
ATOM     13  C   UNL A   1      32.013  25.051  25.686  1.00  0.00     0.076 A 
ATOM     14  H   UNL A   1      30.034  25.426  26.013  1.00  0.00     0.170 HD
ATOM     15  C   UNL A   1      33.025  24.123  25.797  1.00  0.00     0.055 A 
ATOM     16  N   UNL A   1      34.134  24.642  25.170  1.00  0.00    -0.317 N 
ATOM     17  C   UNL A   1      33.785  25.875  24.658  1.00  0.00     0.107 A 
BRANCH  12  18
ATOM     18  C   UNL A   1      32.747  21.635  25.599  1.00  0.00    -0.035 A 
ATOM     19  C   UNL A   1      32.201  21.756  24.310  1.00  0.00     0.005 A 
ATOM     20  C   UNL A   1      33.246  20.385  26.002  1.00  0.00     0.050 A 
ATOM     21  C   UNL A   1      32.200  20.671  23.433  1.00  0.00     0.004 A 
ATOM     22  C   UNL A   1      33.270  19.322  25.108  1.00  0.00     0.115 A 
ATOM     23  C   UNL A   1      32.750  19.453  23.825  1.00  0.00     0.046 A 
BRANCH  22  24
ATOM     24  O   UNL A   1      33.870  18.169  25.519  1.00  0.00    -0.508 OA
ATOM     25  H   UNL A   1      33.462  17.636  26.172  1.00  0.00     0.293 HD
ENDBRANCH  22  24
ENDBRANCH  12  18
BRANCH  16  26
ATOM     26  C   UNL A   1      35.406  24.081  24.920  1.00  0.00     0.046 A 
ATOM     27  C   UNL A   1      35.539  23.131  23.900  1.00  0.00     0.026 A 
ATOM     28  C   UNL A   1      36.453  24.305  25.815  1.00  0.00     0.039 A 
ATOM     29  C   UNL A   1      36.744  22.451  23.740  1.00  0.00     0.003 A 
ATOM     30  C   UNL A   1      37.665  23.615  25.669  1.00  0.00     0.058 A 
ATOM     31  C   UNL A   1      37.804  22.697  24.615  1.00  0.00     0.013 A 
BRANCH  30  32
ATOM     32  C   UNL A   1      38.798  23.820  26.645  1.00  0.00     0.416 C 
ATOM     33  F   UNL A   1      39.446  22.654  26.933  1.00  0.00    -0.166 F 
ATOM     34  F   UNL A   1      39.752  24.666  26.172  1.00  0.00    -0.166 F 
ATOM     35  F   UNL A   1      38.409  24.324  27.850  1.00  0.00    -0.166 F 
ENDBRANCH  30  32
ENDBRANCH  16  26
ENDBRANCH   4   7
ENDBRANCH   2   3
ENDBRANCH   1   2
BRANCH   1  36
ATOM     36  C   UNL A   1      33.759  30.576  27.737  1.00  0.00     0.118 C 
BRANCH  36  37
ATOM     37  N   UNL A   1      34.384  31.911  27.859  1.00  0.00    -0.352 N 
ATOM     38  C   UNL A   1      35.623  32.266  28.370  1.00  0.00     0.251 C 
ATOM     39  H   UNL A   1      33.838  32.661  27.527  1.00  0.00     0.163 HD
ATOM     40  O   UNL A   1      35.871  33.435  28.688  1.00  0.00    -0.269 OA
BRANCH  38  41
ATOM     41  C   UNL A   1      36.655  31.234  28.508  1.00  0.00     0.039 A 
ATOM     42  C   UNL A   1      36.709  30.031  27.796  1.00  0.00     0.014 A 
ATOM     43  C   UNL A   1      37.694  31.580  29.336  1.00  0.00     0.014 A 
ATOM     44  C   UNL A   1      37.844  29.233  27.958  1.00  0.00     0.010 A 
ATOM     45  C   UNL A   1      38.903  31.130  28.945  1.00  0.00     0.010 A 
ATOM     46  C   UNL A   1      38.944  29.806  28.598  1.00  0.00    -0.014 A 
BRANCH  46  47
ATOM     47  C   UNL A   1      40.204  29.160  28.902  1.00  0.00     0.031 A 
ATOM     48  C   UNL A   1      40.430  28.926  30.339  1.00  0.00     0.074 A 
ATOM     49  C   UNL A   1      40.941  28.553  27.940  1.00  0.00     0.049 A 
ATOM     50  N   UNL A   1      41.275  29.524  31.105  1.00  0.00    -0.248 NA
ATOM     51  C   UNL A   1      39.496  28.037  31.047  1.00  0.00     0.031 C 
ATOM     52  C   UNL A   1      40.668  28.384  26.502  1.00  0.00     0.029 A 
ATOM     53  N   UNL A   1      42.099  27.857  28.092  1.00  0.00    -0.354 N 
ATOM     54  C   UNL A   1      41.124  28.941  32.356  1.00  0.00     0.074 A 
ATOM     55  C   UNL A   1      39.888  28.203  32.311  1.00  0.00     0.031 C 
ATOM     56  C   UNL A   1      41.508  27.464  25.976  1.00  0.00     0.029 A 
ATOM     57  C   UNL A   1      42.482  27.106  26.986  1.00  0.00     0.049 A 
ATOM     58  H   UNL A   1      42.627  27.883  28.923  1.00  0.00     0.167 HD
ATOM     59  C   UNL A   1      42.160  28.903  33.238  1.00  0.00     0.037 A 
ATOM     60  C   UNL A   1      43.510  26.220  26.957  1.00  0.00     0.037 A 
ATOM     61  C   UNL A   1      43.221  29.792  32.833  1.00  0.00     0.049 A 
ATOM     62  C   UNL A   1      44.412  26.582  28.088  1.00  0.00     0.074 A 
ATOM     63  C   UNL A   1      43.299  31.154  32.607  1.00  0.00     0.029 A 
ATOM     64  N   UNL A   1      44.302  29.251  32.174  1.00  0.00    -0.354 N 
ATOM     65  N   UNL A   1      45.069  27.714  28.144  1.00  0.00    -0.248 NA
ATOM     66  C   UNL A   1      44.155  25.949  29.376  1.00  0.00     0.031 C 
ATOM     67  C   UNL A   1      44.083  31.282  31.419  1.00  0.00     0.029 A 
ATOM     68  C   UNL A   1      44.507  30.006  31.044  1.00  0.00     0.049 A 
ATOM     69  H   UNL A   1      44.829  28.470  32.459  1.00  0.00     0.167 HD
ATOM     70  C   UNL A   1      44.949  28.137  29.461  1.00  0.00     0.074 A 
ATOM     71  C   UNL A   1      44.412  26.983  30.183  1.00  0.00     0.031 C 
ATOM     72  C   UNL A   1      44.995  29.463  29.796  1.00  0.00     0.037 A 
BRANCH  59  73
ATOM     73  C   UNL A   1      42.373  27.805  34.246  1.00  0.00     0.064 A 
ATOM     74  C   UNL A   1      42.956  26.596  33.823  1.00  0.00     0.173 A 
ATOM     75  C   UNL A   1      41.775  27.783  35.525  1.00  0.00     0.173 A 
ATOM     76  F   UNL A   1      43.538  26.505  32.617  1.00  0.00    -0.203 F 
ATOM     77  C   UNL A   1      42.876  25.434  34.592  1.00  0.00     0.198 A 
ATOM     78  C   UNL A   1      41.747  26.636  36.312  1.00  0.00     0.198 A 
ATOM     79  F   UNL A   1      41.095  28.827  36.013  1.00  0.00    -0.203 F 
ATOM     80  F   UNL A   1      43.333  24.276  34.097  1.00  0.00    -0.200 F 
ATOM     81  C   UNL A   1      42.267  25.453  35.833  1.00  0.00     0.200 A 
ATOM     82  F   UNL A   1      41.136  26.672  37.505  1.00  0.00    -0.200 F 
ATOM     83  F   UNL A   1      42.133  24.327  36.545  1.00  0.00    -0.200 F 
ENDBRANCH  59  73
BRANCH  60  84
ATOM     84  C   UNL A   1      43.507  24.889  26.298  1.00  0.00     0.064 A 
ATOM     85  C   UNL A   1      44.404  24.576  25.265  1.00  0.00     0.173 A 
ATOM     86  C   UNL A   1      42.792  23.806  26.850  1.00  0.00     0.173 A 
ATOM     87  F   UNL A   1      45.163  25.537  24.719  1.00  0.00    -0.203 F 
ATOM     88  C   UNL A   1      44.579  23.258  24.818  1.00  0.00     0.198 A 
ATOM     89  C   UNL A   1      42.964  22.495  26.403  1.00  0.00     0.198 A 
ATOM     90  F   UNL A   1      41.976  23.985  27.900  1.00  0.00    -0.203 F 
ATOM     91  F   UNL A   1      45.481  22.989  23.863  1.00  0.00    -0.200 F 
ATOM     92  C   UNL A   1      43.865  22.219  25.393  1.00  0.00     0.200 A 
ATOM     93  F   UNL A   1      42.298  21.496  27.000  1.00  0.00    -0.200 F 
ATOM     94  F   UNL A   1      44.075  20.953  25.006  1.00  0.00    -0.200 F 
ENDBRANCH  60  84
BRANCH  72  95
ATOM     95  C   UNL A   1      45.354  30.457  28.721  1.00  0.00     0.064 A 
ATOM     96  C   UNL A   1      44.409  31.111  27.908  1.00  0.00     0.173 A 
ATOM     97  C   UNL A   1      46.680  30.892  28.621  1.00  0.00     0.173 A 
ATOM     98  F   UNL A   1      43.106  30.837  28.014  1.00  0.00    -0.203 F 
ATOM     99  C   UNL A   1      44.779  32.117  27.015  1.00  0.00     0.198 A 
ATOM    100  C   UNL A   1      47.046  31.920  27.753  1.00  0.00     0.198 A 
ATOM    101  F   UNL A   1      47.621  30.355  29.414  1.00  0.00    -0.203 F 
ATOM    102  F   UNL A   1      43.850  32.717  26.255  1.00  0.00    -0.200 F 
ATOM    103  C   UNL A   1      46.097  32.525  26.943  1.00  0.00     0.200 A 
ATOM    104  F   UNL A   1      48.316  32.347  27.725  1.00  0.00    -0.200 F 
ATOM    105  F   UNL A   1      46.451  33.519  26.116  1.00  0.00    -0.200 F 
ENDBRANCH  72  95
ENDBRANCH  46  47
ENDBRANCH  38  41
ENDBRANCH  36  37
ENDBRANCH   1  36
TORSDOF 14
ENDMDL
MODEL 3
REMARK VINA RESULT:     -13.7      2.793      7.283
REMARK SMILES O=C1C[C@@H](c2cccc(O)c2)c2c(c(C(=O)NCCCNC(=O)c3ccc(-c4c5nc(c(-c6c(F)c(F)c(F)c(F)c6F)c6ccc([nH]6)c(-c6c(F)c(F)c(F)c(F)c6F)c6nc(c(-c7c(F)c(F)c(F)c(F)c7F)c7ccc4[nH]7)C=C6)C=C5)cc3)cn2-c2cccc(C(F)(F)F)c2)N1
REMARK SMILES IDX 19 1 18 2 17 3 15 4 16 5 14 7 1 8 2 9 3 10 99 11 4 12 13 13
REMARK SMILES IDX 12 15 88 16 87 17 5 18 6 19 11 20 7 21 9 22 8 23 10 24 89 26
REMARK SMILES IDX 90 27 98 28 91 29 93 30 92 31 94 32 95 33 96 34 97 35 20 36
REMARK SMILES IDX 21 37 22 38 23 40 24 41 25 42 86 43 26 44 85 45 27 46 28 47
REMARK SMILES IDX 29 48 79 49 30 50 84 51 78 52 80 53 31 54 83 55 77 56 76 57
REMARK SMILES IDX 32 59 64 60 44 61 63 62 45 63 48 64 62 65 81 66 46 67 47 68
REMARK SMILES IDX 61 70 82 71 49 72 33 73 34 74 42 75 35 76 36 77 40 78 43 79
REMARK SMILES IDX 37 80 38 81 41 82 39 83 65 84 66 85 74 86 67 87 68 88 72 89
REMARK SMILES IDX 75 90 69 91 70 92 73 93 71 94 50 95 51 96 59 97 52 98 53 99
REMARK SMILES IDX 57 100 60 101 54 102 55 103 58 104 56 105
REMARK H PARENT 17 6 99 14 10 25 21 39 80 58 48 69
REMARK Flexibility Score: inf
ROOT
ATOM      1  C   UNL A   1      36.014  22.242  24.051  1.00  0.00     0.042 C 
ENDROOT
BRANCH   1   2
ATOM      2  C   UNL A   1      34.925  21.644  24.957  1.00  0.00     0.118 C 
BRANCH   2   3
ATOM      3  N   UNL A   1      33.711  21.312  24.227  1.00  0.00    -0.352 N 
ATOM      4  C   UNL A   1      32.722  22.109  23.705  1.00  0.00     0.254 C 
ATOM      5  O   UNL A   1      31.843  21.558  23.035  1.00  0.00    -0.269 OA
ATOM      6  H   UNL A   1      33.575  20.349  24.081  1.00  0.00     0.163 HD
BRANCH   4   7
ATOM      7  C   UNL A   1      32.706  23.551  23.913  1.00  0.00     0.081 A 
ATOM      8  O   UNL A   1      32.480  25.334  19.472  1.00  0.00    -0.275 OA
ATOM      9  C   UNL A   1      32.667  25.475  20.679  1.00  0.00     0.225 C 
ATOM     10  C   UNL A   1      33.119  26.806  21.272  1.00  0.00     0.115 C 
ATOM     11  N   UNL A   1      32.602  24.405  21.536  1.00  0.00    -0.324 N 
ATOM     12  C   UNL A   1      32.607  27.078  22.701  1.00  0.00     0.078 C 
ATOM     13  C   UNL A   1      32.656  24.550  22.904  1.00  0.00     0.076 A 
ATOM     14  H   UNL A   1      32.513  23.500  21.159  1.00  0.00     0.170 HD
ATOM     15  C   UNL A   1      32.626  25.799  23.481  1.00  0.00     0.055 A 
ATOM     16  N   UNL A   1      32.668  25.627  24.845  1.00  0.00    -0.317 N 
ATOM     17  C   UNL A   1      32.698  24.269  25.093  1.00  0.00     0.107 A 
BRANCH  12  18
ATOM     18  C   UNL A   1      31.240  27.737  22.687  1.00  0.00    -0.035 A 
ATOM     19  C   UNL A   1      30.093  27.090  23.176  1.00  0.00     0.005 A 
ATOM     20  C   UNL A   1      31.124  29.065  22.242  1.00  0.00     0.050 A 
ATOM     21  C   UNL A   1      28.877  27.768  23.265  1.00  0.00     0.004 A 
ATOM     22  C   UNL A   1      29.916  29.740  22.367  1.00  0.00     0.115 A 
ATOM     23  C   UNL A   1      28.789  29.103  22.874  1.00  0.00     0.046 A 
BRANCH  22  24
ATOM     24  O   UNL A   1      29.894  31.059  22.025  1.00  0.00    -0.508 OA
ATOM     25  H   UNL A   1      29.385  31.664  22.526  1.00  0.00     0.293 HD
ENDBRANCH  22  24
ENDBRANCH  12  18
BRANCH  16  26
ATOM     26  C   UNL A   1      32.581  26.561  25.901  1.00  0.00     0.046 A 
ATOM     27  C   UNL A   1      31.346  26.758  26.531  1.00  0.00     0.026 A 
ATOM     28  C   UNL A   1      33.647  27.423  26.157  1.00  0.00     0.039 A 
ATOM     29  C   UNL A   1      31.200  27.783  27.464  1.00  0.00     0.003 A 
ATOM     30  C   UNL A   1      33.506  28.465  27.086  1.00  0.00     0.058 A 
ATOM     31  C   UNL A   1      32.276  28.626  27.745  1.00  0.00     0.013 A 
BRANCH  30  32
ATOM     32  C   UNL A   1      34.638  29.427  27.353  1.00  0.00     0.416 C 
ATOM     33  F   UNL A   1      35.652  29.290  26.450  1.00  0.00    -0.166 F 
ATOM     34  F   UNL A   1      34.249  30.728  27.279  1.00  0.00    -0.166 F 
ATOM     35  F   UNL A   1      35.220  29.274  28.575  1.00  0.00    -0.166 F 
ENDBRANCH  30  32
ENDBRANCH  16  26
ENDBRANCH   4   7
ENDBRANCH   2   3
ENDBRANCH   1   2
BRANCH   1  36
ATOM     36  C   UNL A   1      37.387  22.119  24.685  1.00  0.00     0.118 C 
BRANCH  36  37
ATOM     37  N   UNL A   1      37.809  20.714  24.872  1.00  0.00    -0.352 N 
ATOM     38  C   UNL A   1      38.939  20.204  25.493  1.00  0.00     0.251 C 
ATOM     39  H   UNL A   1      37.195  20.039  24.500  1.00  0.00     0.163 HD
ATOM     40  O   UNL A   1      39.303  19.039  25.296  1.00  0.00    -0.269 OA
BRANCH  38  41
ATOM     41  C   UNL A   1      39.690  21.062  26.414  1.00  0.00     0.039 A 
ATOM     42  C   UNL A   1      40.748  20.654  27.233  1.00  0.00     0.014 A 
ATOM     43  C   UNL A   1      39.362  22.394  26.341  1.00  0.00     0.014 A 
ATOM     44  C   UNL A   1      41.437  21.642  27.941  1.00  0.00     0.010 A 
ATOM     45  C   UNL A   1      40.397  23.241  26.508  1.00  0.00     0.010 A 
ATOM     46  C   UNL A   1      41.202  22.969  27.583  1.00  0.00    -0.014 A 
BRANCH  46  47
ATOM     47  C   UNL A   1      41.774  24.148  28.198  1.00  0.00     0.031 A 
ATOM     48  C   UNL A   1      40.866  25.307  28.243  1.00  0.00     0.074 A 
ATOM     49  C   UNL A   1      42.910  24.084  28.936  1.00  0.00     0.049 A 
ATOM     50  N   UNL A   1      40.951  26.395  27.560  1.00  0.00    -0.248 NA
ATOM     51  C   UNL A   1      39.623  25.177  29.020  1.00  0.00     0.031 C 
ATOM     52  C   UNL A   1      43.745  22.923  29.289  1.00  0.00     0.029 A 
ATOM     53  N   UNL A   1      43.518  25.089  29.618  1.00  0.00    -0.354 N 
ATOM     54  C   UNL A   1      39.882  27.181  27.970  1.00  0.00     0.074 A 
ATOM     55  C   UNL A   1      38.994  26.308  28.693  1.00  0.00     0.031 C 
ATOM     56  C   UNL A   1      44.604  23.255  30.280  1.00  0.00     0.029 A 
ATOM     57  C   UNL A   1      44.501  24.680  30.514  1.00  0.00     0.049 A 
ATOM     58  H   UNL A   1      43.281  26.036  29.490  1.00  0.00     0.167 HD
ATOM     59  C   UNL A   1      39.949  28.539  27.905  1.00  0.00     0.037 A 
ATOM     60  C   UNL A   1      45.132  25.483  31.407  1.00  0.00     0.037 A 
ATOM     61  C   UNL A   1      41.059  28.967  27.089  1.00  0.00     0.049 A 
ATOM     62  C   UNL A   1      44.968  26.880  30.910  1.00  0.00     0.074 A 
ATOM     63  C   UNL A   1      41.418  28.760  25.770  1.00  0.00     0.029 A 
ATOM     64  N   UNL A   1      42.217  29.353  27.725  1.00  0.00    -0.354 N 
ATOM     65  N   UNL A   1      45.494  27.305  29.789  1.00  0.00    -0.248 NA
ATOM     66  C   UNL A   1      43.795  27.617  31.365  1.00  0.00     0.031 C 
ATOM     67  C   UNL A   1      42.826  28.515  25.809  1.00  0.00     0.029 A 
ATOM     68  C   UNL A   1      43.253  28.675  27.128  1.00  0.00     0.049 A 
ATOM     69  H   UNL A   1      42.290  29.995  28.468  1.00  0.00     0.167 HD
ATOM     70  C   UNL A   1      44.504  28.076  29.195  1.00  0.00     0.074 A 
ATOM     71  C   UNL A   1      43.496  28.268  30.237  1.00  0.00     0.031 C 
ATOM     72  C   UNL A   1      44.432  28.230  27.836  1.00  0.00     0.037 A 
BRANCH  59  73
ATOM     73  C   UNL A   1      39.252  29.467  28.862  1.00  0.00     0.064 A 
ATOM     74  C   UNL A   1      38.315  30.389  28.358  1.00  0.00     0.173 A 
ATOM     75  C   UNL A   1      39.670  29.686  30.193  1.00  0.00     0.173 A 
ATOM     76  F   UNL A   1      37.862  30.280  27.099  1.00  0.00    -0.203 F 
ATOM     77  C   UNL A   1      37.889  31.488  29.106  1.00  0.00     0.198 A 
ATOM     78  C   UNL A   1      39.200  30.752  30.955  1.00  0.00     0.198 A 
ATOM     79  F   UNL A   1      40.631  28.953  30.769  1.00  0.00    -0.203 F 
ATOM     80  F   UNL A   1      37.095  32.407  28.543  1.00  0.00    -0.200 F 
ATOM     81  C   UNL A   1      38.337  31.672  30.401  1.00  0.00     0.200 A 
ATOM     82  F   UNL A   1      39.661  30.921  32.203  1.00  0.00    -0.200 F 
ATOM     83  F   UNL A   1      37.981  32.758  31.098  1.00  0.00    -0.200 F 
ENDBRANCH  59  73
BRANCH  60  84
ATOM     84  C   UNL A   1      45.467  25.142  32.814  1.00  0.00     0.064 A 
ATOM     85  C   UNL A   1      44.512  24.606  33.691  1.00  0.00     0.173 A 
ATOM     86  C   UNL A   1      46.808  25.096  33.251  1.00  0.00     0.173 A 
ATOM     87  F   UNL A   1      43.220  24.561  33.333  1.00  0.00    -0.203 F 
ATOM     88  C   UNL A   1      44.877  24.050  34.925  1.00  0.00     0.198 A 
ATOM     89  C   UNL A   1      47.171  24.546  34.481  1.00  0.00     0.198 A 
ATOM     90  F   UNL A   1      47.805  25.502  32.452  1.00  0.00    -0.203 F 
ATOM     91  F   UNL A   1      43.943  23.501  35.716  1.00  0.00    -0.200 F 
ATOM     92  C   UNL A   1      46.206  24.014  35.315  1.00  0.00     0.200 A 
ATOM     93  F   UNL A   1      48.465  24.480  34.824  1.00  0.00    -0.200 F 
ATOM     94  F   UNL A   1      46.562  23.431  36.469  1.00  0.00    -0.200 F 
ENDBRANCH  60  84
BRANCH  72  95
ATOM     95  C   UNL A   1      45.558  27.681  26.998  1.00  0.00     0.064 A 
ATOM     96  C   UNL A   1      46.797  28.327  26.826  1.00  0.00     0.173 A 
ATOM     97  C   UNL A   1      45.449  26.381  26.492  1.00  0.00     0.173 A 
ATOM     98  F   UNL A   1      47.028  29.524  27.370  1.00  0.00    -0.203 F 
ATOM     99  C   UNL A   1      47.854  27.720  26.148  1.00  0.00     0.198 A 
ATOM    100  C   UNL A   1      46.516  25.761  25.842  1.00  0.00     0.198 A 
ATOM    101  F   UNL A   1      44.317  25.684  26.677  1.00  0.00    -0.203 F 
ATOM    102  F   UNL A   1      49.021  28.367  26.003  1.00  0.00    -0.200 F 
ATOM    103  C   UNL A   1      47.714  26.434  25.662  1.00  0.00     0.200 A 
ATOM    104  F   UNL A   1      46.392  24.495  25.419  1.00  0.00    -0.200 F 
ATOM    105  F   UNL A   1      48.740  25.831  25.045  1.00  0.00    -0.200 F 
ENDBRANCH  72  95
ENDBRANCH  46  47
ENDBRANCH  38  41
ENDBRANCH  36  37
ENDBRANCH   1  36
TORSDOF 14
ENDMDL
