MODEL 1
REMARK VINA RESULT:     -12.4      0.000      0.000
REMARK SMILES Cc1ccc(OCCC[N@H+]2CCCC[C@@H]2C(=O)NCCCNC(=O)c2ccc(-c3c4nc(c(-c5c(F)c(F)c(F)c(F)c5F)c5ccc([nH]5)c(-c5c(F)c(F)c(F)c(F)c5F)c5nc(c(-c6c(F)c(F)c(F)c(F)c6F)c6ccc3[nH]6)C=C5)C=C4)cc2)cc1C
REMARK SMILES IDX 16 1 17 2 18 3 15 5 10 6 11 7 12 9 14 10 13 11 9 12 8 13
REMARK SMILES IDX 7 14 6 15 5 16 1 17 2 18 3 19 89 20 4 21 88 22 90 23 19 24
REMARK SMILES IDX 20 25 21 26 22 27 23 28 24 30 25 31 26 32 87 33 27 34 86 35
REMARK SMILES IDX 28 36 29 37 30 38 80 39 31 40 85 41 79 42 81 43 32 44 84 45
REMARK SMILES IDX 78 46 77 47 33 49 65 50 45 51 64 52 46 53 49 54 63 55 82 56
REMARK SMILES IDX 47 57 48 58 62 60 83 61 50 62 34 63 35 64 43 65 36 66 37 67
REMARK SMILES IDX 41 68 44 69 38 70 39 71 42 72 40 73 66 74 67 75 75 76 68 77
REMARK SMILES IDX 69 78 73 79 76 80 70 81 71 82 74 83 72 84 51 85 52 86 60 87
REMARK SMILES IDX 53 88 54 89 58 90 61 91 55 92 56 93 59 94 57 95
REMARK H PARENT 18 4 10 8 22 29 81 48 49 59
REMARK Flexibility Score: inf
ROOT
ATOM      1  C   UNL A   1      31.709  24.227  26.733  1.00  0.00     0.278 C 
ATOM      2  O   UNL A   1      30.777  23.592  27.237  1.00  0.00    -0.268 OA
ATOM      3  N   UNL A   1      31.650  25.590  26.781  1.00  0.00    -0.351 N 
ATOM      4  H   UNL A   1      30.909  25.955  27.317  1.00  0.00     0.163 HD
ENDROOT
BRANCH   1   5
ATOM      5  C   UNL A   1      32.847  23.481  26.008  1.00  0.00     0.274 C 
ATOM      6  N   UNL A   1      32.332  22.384  25.121  1.00  0.00    -0.325 N 
ATOM      7  C   UNL A   1      33.458  21.575  24.601  1.00  0.00     0.262 C 
ATOM      8  H   UNL A   1      31.710  21.792  25.673  1.00  0.00     0.348 HD
ATOM      9  C   UNL A   1      34.423  21.083  25.681  1.00  0.00     0.062 C 
ATOM     10  C   UNL A   1      33.860  23.047  27.079  1.00  0.00     0.076 C 
ATOM     11  C   UNL A   1      34.997  22.249  26.471  1.00  0.00     0.012 C 
BRANCH   6  12
ATOM     12  C   UNL A   1      31.589  22.965  23.968  1.00  0.00     0.266 C 
BRANCH  12  13
ATOM     13  C   UNL A   1      32.422  23.828  22.999  1.00  0.00     0.103 C 
BRANCH  13  14
ATOM     14  C   UNL A   1      31.855  25.225  22.715  1.00  0.00     0.235 C 
BRANCH  14  15
ATOM     15  O   UNL A   1      30.766  25.596  23.586  1.00  0.00    -0.493 OA
BRANCH  15  16
ATOM     16  C   UNL A   1      30.277  26.839  23.287  1.00  0.00     0.119 A 
ATOM     17  C   UNL A   1      28.986  30.889  22.619  1.00  0.00     0.044 C 
ATOM     18  C   UNL A   1      29.367  29.445  22.799  1.00  0.00    -0.048 A 
ATOM     19  C   UNL A   1      30.688  29.077  22.515  1.00  0.00     0.007 A 
ATOM     20  C   UNL A   1      28.452  28.451  23.204  1.00  0.00    -0.045 A 
ATOM     21  C   UNL A   1      31.125  27.772  22.712  1.00  0.00     0.047 A 
ATOM     22  C   UNL A   1      28.930  27.150  23.475  1.00  0.00     0.050 A 
ATOM     23  C   UNL A   1      26.969  28.703  23.237  1.00  0.00     0.045 C 
ENDBRANCH  15  16
ENDBRANCH  14  15
ENDBRANCH  13  14
ENDBRANCH  12  13
ENDBRANCH   6  12
ENDBRANCH   1   5
BRANCH   3  24
ATOM     24  C   UNL A   1      32.510  26.589  26.165  1.00  0.00     0.118 C 
BRANCH  24  25
ATOM     25  C   UNL A   1      32.024  28.004  26.440  1.00  0.00     0.042 C 
BRANCH  25  26
ATOM     26  C   UNL A   1      32.960  29.073  25.883  1.00  0.00     0.118 C 
BRANCH  26  27
ATOM     27  N   UNL A   1      32.553  30.429  26.239  1.00  0.00    -0.352 N 
ATOM     28  C   UNL A   1      33.160  31.336  27.078  1.00  0.00     0.251 C 
ATOM     29  H   UNL A   1      31.722  30.742  25.814  1.00  0.00     0.163 HD
ATOM     30  O   UNL A   1      32.598  32.377  27.384  1.00  0.00    -0.269 OA
BRANCH  28  31
ATOM     31  C   UNL A   1      34.495  31.028  27.630  1.00  0.00     0.039 A 
ATOM     32  C   UNL A   1      35.441  32.050  27.738  1.00  0.00     0.014 A 
ATOM     33  C   UNL A   1      34.794  29.737  28.070  1.00  0.00     0.014 A 
ATOM     34  C   UNL A   1      36.659  31.798  28.377  1.00  0.00     0.010 A 
ATOM     35  C   UNL A   1      35.971  29.507  28.773  1.00  0.00     0.010 A 
ATOM     36  C   UNL A   1      36.910  30.537  28.942  1.00  0.00    -0.014 A 
BRANCH  36  37
ATOM     37  C   UNL A   1      38.140  30.258  29.723  1.00  0.00     0.031 A 
ATOM     38  C   UNL A   1      39.170  29.312  29.176  1.00  0.00     0.074 A 
ATOM     39  C   UNL A   1      38.274  30.761  30.965  1.00  0.00     0.049 A 
ATOM     40  N   UNL A   1      40.219  28.796  29.764  1.00  0.00    -0.248 NA
ATOM     41  C   UNL A   1      38.972  28.856  27.790  1.00  0.00     0.031 C 
ATOM     42  C   UNL A   1      37.322  31.656  31.625  1.00  0.00     0.029 A 
ATOM     43  N   UNL A   1      39.255  30.568  31.906  1.00  0.00    -0.354 N 
ATOM     44  C   UNL A   1      40.783  27.932  28.835  1.00  0.00     0.074 A 
ATOM     45  C   UNL A   1      39.943  27.966  27.658  1.00  0.00     0.031 C 
ATOM     46  C   UNL A   1      37.769  31.942  32.859  1.00  0.00     0.029 A 
ATOM     47  C   UNL A   1      39.014  31.218  33.093  1.00  0.00     0.049 A 
ATOM     48  H   UNL A   1      40.054  30.016  31.746  1.00  0.00     0.167 HD
ATOM     49  C   UNL A   1      41.910  27.191  28.952  1.00  0.00     0.037 A 
ATOM     50  C   UNL A   1      39.713  31.215  34.244  1.00  0.00     0.037 A 
ATOM     51  C   UNL A   1      42.767  27.197  30.106  1.00  0.00     0.049 A 
ATOM     52  C   UNL A   1      40.972  30.400  34.339  1.00  0.00     0.074 A 
ATOM     53  C   UNL A   1      43.968  26.535  30.293  1.00  0.00     0.029 A 
ATOM     54  N   UNL A   1      42.515  27.907  31.270  1.00  0.00    -0.354 N 
ATOM     55  N   UNL A   1      41.525  29.624  33.438  1.00  0.00    -0.248 NA
ATOM     56  C   UNL A   1      41.707  30.458  35.612  1.00  0.00     0.031 C 
ATOM     57  C   UNL A   1      44.429  26.822  31.582  1.00  0.00     0.029 A 
ATOM     58  C   UNL A   1      43.533  27.691  32.184  1.00  0.00     0.049 A 
ATOM     59  H   UNL A   1      41.729  28.481  31.424  1.00  0.00     0.167 HD
ATOM     60  C   UNL A   1      42.681  29.126  34.020  1.00  0.00     0.074 A 
ATOM     61  C   UNL A   1      42.756  29.689  35.352  1.00  0.00     0.031 C 
ATOM     62  C   UNL A   1      43.598  28.277  33.498  1.00  0.00     0.037 A 
BRANCH  49  63
ATOM     63  C   UNL A   1      42.282  26.314  27.794  1.00  0.00     0.064 A 
ATOM     64  C   UNL A   1      43.231  26.717  26.843  1.00  0.00     0.173 A 
ATOM     65  C   UNL A   1      41.707  25.042  27.652  1.00  0.00     0.173 A 
ATOM     66  F   UNL A   1      43.800  27.929  26.929  1.00  0.00    -0.203 F 
ATOM     67  C   UNL A   1      43.570  25.890  25.776  1.00  0.00     0.198 A 
ATOM     68  C   UNL A   1      42.068  24.207  26.598  1.00  0.00     0.198 A 
ATOM     69  F   UNL A   1      40.797  24.609  28.537  1.00  0.00    -0.203 F 
ATOM     70  F   UNL A   1      44.445  26.314  24.854  1.00  0.00    -0.200 F 
ATOM     71  C   UNL A   1      42.994  24.634  25.658  1.00  0.00     0.200 A 
ATOM     72  F   UNL A   1      41.518  22.990  26.492  1.00  0.00    -0.200 F 
ATOM     73  F   UNL A   1      43.325  23.837  24.633  1.00  0.00    -0.200 F 
ENDBRANCH  49  63
BRANCH  50  74
ATOM     74  C   UNL A   1      39.244  32.028  35.395  1.00  0.00     0.064 A 
ATOM     75  C   UNL A   1      39.585  33.383  35.498  1.00  0.00     0.173 A 
ATOM     76  C   UNL A   1      38.448  31.474  36.407  1.00  0.00     0.173 A 
ATOM     77  F   UNL A   1      40.363  33.951  34.563  1.00  0.00    -0.203 F 
ATOM     78  C   UNL A   1      39.160  34.152  36.579  1.00  0.00     0.198 A 
ATOM     79  C   UNL A   1      38.005  32.250  37.477  1.00  0.00     0.198 A 
ATOM     80  F   UNL A   1      38.092  30.182  36.351  1.00  0.00    -0.203 F 
ATOM     81  F   UNL A   1      39.532  35.436  36.673  1.00  0.00    -0.200 F 
ATOM     82  C   UNL A   1      38.366  33.586  37.566  1.00  0.00     0.200 A 
ATOM     83  F   UNL A   1      37.227  31.703  38.422  1.00  0.00    -0.200 F 
ATOM     84  F   UNL A   1      37.954  34.326  38.603  1.00  0.00    -0.200 F 
ENDBRANCH  50  74
BRANCH  62  85
ATOM     85  C   UNL A   1      44.786  27.936  34.347  1.00  0.00     0.064 A 
ATOM     86  C   UNL A   1      44.791  26.807  35.178  1.00  0.00     0.173 A 
ATOM     87  C   UNL A   1      45.950  28.715  34.280  1.00  0.00     0.173 A 
ATOM     88  F   UNL A   1      43.695  26.043  35.286  1.00  0.00    -0.203 F 
ATOM     89  C   UNL A   1      45.921  26.476  35.921  1.00  0.00     0.198 A 
ATOM     90  C   UNL A   1      47.084  28.369  35.006  1.00  0.00     0.198 A 
ATOM     91  F   UNL A   1      45.991  29.802  33.494  1.00  0.00    -0.203 F 
ATOM     92  F   UNL A   1      45.898  25.410  36.733  1.00  0.00    -0.200 F 
ATOM     93  C   UNL A   1      47.069  27.252  35.828  1.00  0.00     0.200 A 
ATOM     94  F   UNL A   1      48.195  29.112  34.908  1.00  0.00    -0.200 F 
ATOM     95  F   UNL A   1      48.159  26.925  36.536  1.00  0.00    -0.200 F 
ENDBRANCH  62  85
ENDBRANCH  36  37
ENDBRANCH  28  31
ENDBRANCH  26  27
ENDBRANCH  25  26
ENDBRANCH  24  25
ENDBRANCH   3  24
TORSDOF 15
ENDMDL
MODEL 2
REMARK VINA RESULT:     -12.2      4.831      9.898
REMARK SMILES Cc1ccc(OCCC[N@H+]2CCCC[C@@H]2C(=O)NCCCNC(=O)c2ccc(-c3c4nc(c(-c5c(F)c(F)c(F)c(F)c5F)c5ccc([nH]5)c(-c5c(F)c(F)c(F)c(F)c5F)c5nc(c(-c6c(F)c(F)c(F)c(F)c6F)c6ccc3[nH]6)C=C5)C=C4)cc2)cc1C
REMARK SMILES IDX 16 1 17 2 18 3 15 5 10 6 11 7 12 9 14 10 13 11 9 12 8 13
REMARK SMILES IDX 7 14 6 15 5 16 1 17 2 18 3 19 89 20 4 21 88 22 90 23 19 24
REMARK SMILES IDX 20 25 21 26 22 27 23 28 24 30 25 31 26 32 87 33 27 34 86 35
REMARK SMILES IDX 28 36 29 37 30 38 80 39 31 40 85 41 79 42 81 43 32 44 84 45
REMARK SMILES IDX 78 46 77 47 33 49 65 50 45 51 64 52 46 53 49 54 63 55 82 56
REMARK SMILES IDX 47 57 48 58 62 60 83 61 50 62 34 63 35 64 43 65 36 66 37 67
REMARK SMILES IDX 41 68 44 69 38 70 39 71 42 72 40 73 66 74 67 75 75 76 68 77
REMARK SMILES IDX 69 78 73 79 76 80 70 81 71 82 74 83 72 84 51 85 52 86 60 87
REMARK SMILES IDX 53 88 54 89 58 90 61 91 55 92 56 93 59 94 57 95
REMARK H PARENT 18 4 10 8 22 29 81 48 49 59
REMARK Flexibility Score: inf
ROOT
ATOM      1  C   UNL A   1      34.490  20.699  25.710  1.00  0.00     0.278 C 
ATOM      2  O   UNL A   1      33.679  20.855  26.628  1.00  0.00    -0.268 OA
ATOM      3  N   UNL A   1      35.737  21.233  25.865  1.00  0.00    -0.351 N 
ATOM      4  H   UNL A   1      35.919  21.611  26.756  1.00  0.00     0.163 HD
ENDROOT
BRANCH   1   5
ATOM      5  C   UNL A   1      34.057  19.994  24.410  1.00  0.00     0.274 C 
ATOM      6  N   UNL A   1      32.744  20.510  23.893  1.00  0.00    -0.325 N 
ATOM      7  C   UNL A   1      32.276  19.677  22.762  1.00  0.00     0.262 C 
ATOM      8  H   UNL A   1      32.064  20.473  24.653  1.00  0.00     0.348 HD
ATOM      9  C   UNL A   1      32.265  18.176  23.057  1.00  0.00     0.062 C 
ATOM     10  C   UNL A   1      34.115  18.480  24.673  1.00  0.00     0.076 C 
ATOM     11  C   UNL A   1      33.648  17.692  23.465  1.00  0.00     0.012 C 
BRANCH   6  12
ATOM     12  C   UNL A   1      32.900  21.914  23.419  1.00  0.00     0.266 C 
BRANCH  12  13
ATOM     13  C   UNL A   1      31.601  22.742  23.331  1.00  0.00     0.103 C 
BRANCH  13  14
ATOM     14  C   UNL A   1      31.111  23.332  24.660  1.00  0.00     0.235 C 
BRANCH  14  15
ATOM     15  O   UNL A   1      32.164  23.545  25.623  1.00  0.00    -0.493 OA
BRANCH  15  16
ATOM     16  C   UNL A   1      32.533  24.862  25.689  1.00  0.00     0.119 A 
ATOM     17  C   UNL A   1      34.035  28.879  26.038  1.00  0.00     0.044 C 
ATOM     18  C   UNL A   1      33.425  27.511  25.898  1.00  0.00    -0.048 A 
ATOM     19  C   UNL A   1      34.029  26.614  25.007  1.00  0.00     0.007 A 
ATOM     20  C   UNL A   1      32.266  27.108  26.593  1.00  0.00    -0.045 A 
ATOM     21  C   UNL A   1      33.554  25.314  24.870  1.00  0.00     0.047 A 
ATOM     22  C   UNL A   1      31.846  25.764  26.502  1.00  0.00     0.050 A 
ATOM     23  C   UNL A   1      31.398  28.095  27.327  1.00  0.00     0.045 C 
ENDBRANCH  15  16
ENDBRANCH  14  15
ENDBRANCH  13  14
ENDBRANCH  12  13
ENDBRANCH   6  12
ENDBRANCH   1   5
BRANCH   3  24
ATOM     24  C   UNL A   1      36.840  21.331  24.921  1.00  0.00     0.118 C 
BRANCH  24  25
ATOM     25  C   UNL A   1      37.778  20.138  25.019  1.00  0.00     0.042 C 
BRANCH  25  26
ATOM     26  C   UNL A   1      39.078  20.463  25.749  1.00  0.00     0.118 C 
BRANCH  26  27
ATOM     27  N   UNL A   1      39.974  19.315  25.856  1.00  0.00    -0.352 N 
ATOM     28  C   UNL A   1      41.336  19.279  26.056  1.00  0.00     0.251 C 
ATOM     29  H   UNL A   1      39.540  18.435  25.775  1.00  0.00     0.163 HD
ATOM     30  O   UNL A   1      41.954  18.229  25.965  1.00  0.00    -0.269 OA
BRANCH  28  31
ATOM     31  C   UNL A   1      42.054  20.535  26.357  1.00  0.00     0.039 A 
ATOM     32  C   UNL A   1      42.501  21.335  25.303  1.00  0.00     0.014 A 
ATOM     33  C   UNL A   1      42.255  20.931  27.681  1.00  0.00     0.014 A 
ATOM     34  C   UNL A   1      43.065  22.584  25.576  1.00  0.00     0.010 A 
ATOM     35  C   UNL A   1      42.745  22.204  27.949  1.00  0.00     0.010 A 
ATOM     36  C   UNL A   1      43.146  23.046  26.900  1.00  0.00    -0.014 A 
BRANCH  36  37
ATOM     37  C   UNL A   1      43.636  24.407  27.229  1.00  0.00     0.031 A 
ATOM     38  C   UNL A   1      42.675  25.439  27.747  1.00  0.00     0.074 A 
ATOM     39  C   UNL A   1      44.910  24.745  26.954  1.00  0.00     0.049 A 
ATOM     40  N   UNL A   1      42.853  26.723  27.926  1.00  0.00    -0.248 NA
ATOM     41  C   UNL A   1      41.319  24.967  28.074  1.00  0.00     0.031 C 
ATOM     42  C   UNL A   1      45.927  23.846  26.408  1.00  0.00     0.029 A 
ATOM     43  N   UNL A   1      45.560  25.950  27.071  1.00  0.00    -0.354 N 
ATOM     44  C   UNL A   1      41.626  27.215  28.351  1.00  0.00     0.074 A 
ATOM     45  C   UNL A   1      40.704  26.101  28.371  1.00  0.00     0.031 C 
ATOM     46  C   UNL A   1      47.074  24.526  26.246  1.00  0.00     0.029 A 
ATOM     47  C   UNL A   1      46.862  25.916  26.635  1.00  0.00     0.049 A 
ATOM     48  H   UNL A   1      45.133  26.759  27.432  1.00  0.00     0.167 HD
ATOM     49  C   UNL A   1      41.306  28.482  28.707  1.00  0.00     0.037 A 
ATOM     50  C   UNL A   1      47.776  26.902  26.545  1.00  0.00     0.037 A 
ATOM     51  C   UNL A   1      42.238  29.576  28.731  1.00  0.00     0.049 A 
ATOM     52  C   UNL A   1      47.400  28.295  26.967  1.00  0.00     0.074 A 
ATOM     53  C   UNL A   1      42.028  30.880  29.145  1.00  0.00     0.029 A 
ATOM     54  N   UNL A   1      43.563  29.492  28.329  1.00  0.00    -0.354 N 
ATOM     55  N   UNL A   1      46.252  28.741  27.415  1.00  0.00    -0.248 NA
ATOM     56  C   UNL A   1      48.447  29.323  26.873  1.00  0.00     0.031 C 
ATOM     57  C   UNL A   1      43.219  31.592  28.965  1.00  0.00     0.029 A 
ATOM     58  C   UNL A   1      44.179  30.723  28.475  1.00  0.00     0.049 A 
ATOM     59  H   UNL A   1      44.000  28.676  27.991  1.00  0.00     0.167 HD
ATOM     60  C   UNL A   1      46.443  30.089  27.681  1.00  0.00     0.074 A 
ATOM     61  C   UNL A   1      47.820  30.390  27.350  1.00  0.00     0.031 C 
ATOM     62  C   UNL A   1      45.557  30.996  28.157  1.00  0.00     0.037 A 
BRANCH  49  63
ATOM     63  C   UNL A   1      39.886  28.749  29.106  1.00  0.00     0.064 A 
ATOM     64  C   UNL A   1      38.927  29.165  28.171  1.00  0.00     0.173 A 
ATOM     65  C   UNL A   1      39.471  28.556  30.432  1.00  0.00     0.173 A 
ATOM     66  F   UNL A   1      39.277  29.376  26.893  1.00  0.00    -0.203 F 
ATOM     67  C   UNL A   1      37.610  29.405  28.555  1.00  0.00     0.198 A 
ATOM     68  C   UNL A   1      38.148  28.771  30.807  1.00  0.00     0.198 A 
ATOM     69  F   UNL A   1      40.349  28.154  31.364  1.00  0.00    -0.203 F 
ATOM     70  F   UNL A   1      36.722  29.847  27.653  1.00  0.00    -0.200 F 
ATOM     71  C   UNL A   1      37.220  29.201  29.870  1.00  0.00     0.200 A 
ATOM     72  F   UNL A   1      37.771  28.564  32.076  1.00  0.00    -0.200 F 
ATOM     73  F   UNL A   1      35.952  29.428  30.236  1.00  0.00    -0.200 F 
ENDBRANCH  49  63
BRANCH  50  74
ATOM     74  C   UNL A   1      49.142  26.600  26.050  1.00  0.00     0.064 A 
ATOM     75  C   UNL A   1      49.496  26.867  24.720  1.00  0.00     0.173 A 
ATOM     76  C   UNL A   1      50.120  26.047  26.888  1.00  0.00     0.173 A 
ATOM     77  F   UNL A   1      48.586  27.377  23.876  1.00  0.00    -0.203 F 
ATOM     78  C   UNL A   1      50.772  26.578  24.242  1.00  0.00     0.198 A 
ATOM     79  C   UNL A   1      51.403  25.779  26.415  1.00  0.00     0.198 A 
ATOM     80  F   UNL A   1      49.832  25.778  28.170  1.00  0.00    -0.203 F 
ATOM     81  F   UNL A   1      51.072  26.808  22.956  1.00  0.00    -0.200 F 
ATOM     82  C   UNL A   1      51.727  26.039  25.091  1.00  0.00     0.200 A 
ATOM     83  F   UNL A   1      52.328  25.270  27.242  1.00  0.00    -0.200 F 
ATOM     84  F   UNL A   1      52.955  25.765  24.633  1.00  0.00    -0.200 F 
ENDBRANCH  50  74
BRANCH  62  85
ATOM     85  C   UNL A   1      46.055  32.391  28.390  1.00  0.00     0.064 A 
ATOM     86  C   UNL A   1      45.961  33.377  27.399  1.00  0.00     0.173 A 
ATOM     87  C   UNL A   1      46.575  32.756  29.641  1.00  0.00     0.173 A 
ATOM     88  F   UNL A   1      45.485  33.070  26.183  1.00  0.00    -0.203 F 
ATOM     89  C   UNL A   1      46.381  34.681  27.649  1.00  0.00     0.198 A 
ATOM     90  C   UNL A   1      46.973  34.064  29.895  1.00  0.00     0.198 A 
ATOM     91  F   UNL A   1      46.679  31.846  30.621  1.00  0.00    -0.203 F 
ATOM     92  F   UNL A   1      46.311  35.603  26.680  1.00  0.00    -0.200 F 
ATOM     93  C   UNL A   1      46.878  35.025  28.899  1.00  0.00     0.200 A 
ATOM     94  F   UNL A   1      47.443  34.398  31.104  1.00  0.00    -0.200 F 
ATOM     95  F   UNL A   1      47.271  36.283  29.141  1.00  0.00    -0.200 F 
ENDBRANCH  62  85
ENDBRANCH  36  37
ENDBRANCH  28  31
ENDBRANCH  26  27
ENDBRANCH  25  26
ENDBRANCH  24  25
ENDBRANCH   3  24
TORSDOF 15
ENDMDL
MODEL 3
REMARK VINA RESULT:     -12.1      1.967      4.131
REMARK SMILES Cc1ccc(OCCC[N@H+]2CCCC[C@@H]2C(=O)NCCCNC(=O)c2ccc(-c3c4nc(c(-c5c(F)c(F)c(F)c(F)c5F)c5ccc([nH]5)c(-c5c(F)c(F)c(F)c(F)c5F)c5nc(c(-c6c(F)c(F)c(F)c(F)c6F)c6ccc3[nH]6)C=C5)C=C4)cc2)cc1C
REMARK SMILES IDX 16 1 17 2 18 3 15 5 10 6 11 7 12 9 14 10 13 11 9 12 8 13
REMARK SMILES IDX 7 14 6 15 5 16 1 17 2 18 3 19 89 20 4 21 88 22 90 23 19 24
REMARK SMILES IDX 20 25 21 26 22 27 23 28 24 30 25 31 26 32 87 33 27 34 86 35
REMARK SMILES IDX 28 36 29 37 30 38 80 39 31 40 85 41 79 42 81 43 32 44 84 45
REMARK SMILES IDX 78 46 77 47 33 49 65 50 45 51 64 52 46 53 49 54 63 55 82 56
REMARK SMILES IDX 47 57 48 58 62 60 83 61 50 62 34 63 35 64 43 65 36 66 37 67
REMARK SMILES IDX 41 68 44 69 38 70 39 71 42 72 40 73 66 74 67 75 75 76 68 77
REMARK SMILES IDX 69 78 73 79 76 80 70 81 71 82 74 83 72 84 51 85 52 86 60 87
REMARK SMILES IDX 53 88 54 89 58 90 61 91 55 92 56 93 59 94 57 95
REMARK H PARENT 18 4 10 8 22 29 81 48 49 59
REMARK Flexibility Score: inf
ROOT
ATOM      1  C   UNL A   1      31.772  29.395  23.796  1.00  0.00     0.278 C 
ATOM      2  O   UNL A   1      32.396  29.120  22.766  1.00  0.00    -0.268 OA
ATOM      3  N   UNL A   1      32.492  29.719  24.909  1.00  0.00    -0.351 N 
ATOM      4  H   UNL A   1      33.462  29.812  24.763  1.00  0.00     0.163 HD
ENDROOT
BRANCH   1   5
ATOM      5  C   UNL A   1      30.235  29.285  23.818  1.00  0.00     0.274 C 
ATOM      6  N   UNL A   1      29.727  28.229  22.878  1.00  0.00    -0.325 N 
ATOM      7  C   UNL A   1      28.250  28.292  22.788  1.00  0.00     0.262 C 
ATOM      8  H   UNL A   1      30.135  28.397  21.957  1.00  0.00     0.348 HD
ATOM      9  C   UNL A   1      27.703  29.689  22.486  1.00  0.00     0.062 C 
ATOM     10  C   UNL A   1      29.675  30.698  23.590  1.00  0.00     0.076 C 
ATOM     11  C   UNL A   1      28.160  30.690  23.536  1.00  0.00     0.012 C 
BRANCH   6  12
ATOM     12  C   UNL A   1      30.117  26.878  23.369  1.00  0.00     0.266 C 
BRANCH  12  13
ATOM     13  C   UNL A   1      29.238  26.291  24.492  1.00  0.00     0.103 C 
BRANCH  13  14
ATOM     14  C   UNL A   1      29.989  25.885  25.766  1.00  0.00     0.235 C 
BRANCH  14  15
ATOM     15  O   UNL A   1      31.224  26.606  25.965  1.00  0.00    -0.493 OA
BRANCH  15  16
ATOM     16  C   UNL A   1      32.307  25.769  25.958  1.00  0.00     0.119 A 
ATOM     17  C   UNL A   1      35.674  23.122  25.547  1.00  0.00     0.044 C 
ATOM     18  C   UNL A   1      34.502  24.034  25.783  1.00  0.00    -0.048 A 
ATOM     19  C   UNL A   1      34.552  25.320  25.228  1.00  0.00     0.007 A 
ATOM     20  C   UNL A   1      33.383  23.667  26.558  1.00  0.00    -0.045 A 
ATOM     21  C   UNL A   1      33.481  26.196  25.358  1.00  0.00     0.047 A 
ATOM     22  C   UNL A   1      32.272  24.537  26.612  1.00  0.00     0.050 A 
ATOM     23  C   UNL A   1      33.385  22.436  27.424  1.00  0.00     0.045 C 
ENDBRANCH  15  16
ENDBRANCH  14  15
ENDBRANCH  13  14
ENDBRANCH  12  13
ENDBRANCH   6  12
ENDBRANCH   1   5
BRANCH   3  24
ATOM     24  C   UNL A   1      32.053  29.950  26.277  1.00  0.00     0.118 C 
BRANCH  24  25
ATOM     25  C   UNL A   1      31.684  31.407  26.516  1.00  0.00     0.042 C 
BRANCH  25  26
ATOM     26  C   UNL A   1      32.767  32.179  27.263  1.00  0.00     0.118 C 
BRANCH  26  27
ATOM     27  N   UNL A   1      32.425  33.583  27.472  1.00  0.00    -0.352 N 
ATOM     28  C   UNL A   1      32.963  34.496  28.351  1.00  0.00     0.251 C 
ATOM     29  H   UNL A   1      31.704  33.929  26.898  1.00  0.00     0.163 HD
ATOM     30  O   UNL A   1      32.450  35.595  28.503  1.00  0.00    -0.269 OA
BRANCH  28  31
ATOM     31  C   UNL A   1      34.159  34.126  29.136  1.00  0.00     0.039 A 
ATOM     32  C   UNL A   1      34.000  33.413  30.327  1.00  0.00     0.014 A 
ATOM     33  C   UNL A   1      35.435  34.457  28.673  1.00  0.00     0.014 A 
ATOM     34  C   UNL A   1      35.128  32.947  31.007  1.00  0.00     0.010 A 
ATOM     35  C   UNL A   1      36.552  33.928  29.308  1.00  0.00     0.010 A 
ATOM     36  C   UNL A   1      36.410  33.161  30.475  1.00  0.00    -0.014 A 
BRANCH  36  37
ATOM     37  C   UNL A   1      37.627  32.591  31.104  1.00  0.00     0.031 A 
ATOM     38  C   UNL A   1      38.364  31.474  30.422  1.00  0.00     0.074 A 
ATOM     39  C   UNL A   1      37.998  32.997  32.333  1.00  0.00     0.049 A 
ATOM     40  N   UNL A   1      39.333  30.721  30.876  1.00  0.00    -0.248 NA
ATOM     41  C   UNL A   1      37.925  31.136  29.058  1.00  0.00     0.031 C 
ATOM     42  C   UNL A   1      37.338  34.042  33.117  1.00  0.00     0.029 A 
ATOM     43  N   UNL A   1      39.009  32.556  33.152  1.00  0.00    -0.354 N 
ATOM     44  C   UNL A   1      39.595  29.801  29.870  1.00  0.00     0.074 A 
ATOM     45  C   UNL A   1      38.661  30.066  28.797  1.00  0.00     0.031 C 
ATOM     46  C   UNL A   1      37.965  34.169  34.298  1.00  0.00     0.029 A 
ATOM     47  C   UNL A   1      39.043  33.188  34.372  1.00  0.00     0.049 A 
ATOM     48  H   UNL A   1      39.648  31.856  32.890  1.00  0.00     0.167 HD
ATOM     49  C   UNL A   1      40.541  28.833  29.840  1.00  0.00     0.037 A 
ATOM     50  C   UNL A   1      39.843  32.984  35.436  1.00  0.00     0.037 A 
ATOM     51  C   UNL A   1      41.497  28.603  30.889  1.00  0.00     0.049 A 
ATOM     52  C   UNL A   1      40.899  31.916  35.368  1.00  0.00     0.074 A 
ATOM     53  C   UNL A   1      42.540  27.694  30.922  1.00  0.00     0.029 A 
ATOM     54  N   UNL A   1      41.530  29.296  32.090  1.00  0.00    -0.354 N 
ATOM     55  N   UNL A   1      41.172  31.083  34.394  1.00  0.00    -0.248 NA
ATOM     56  C   UNL A   1      41.761  31.758  36.550  1.00  0.00     0.031 C 
ATOM     57  C   UNL A   1      43.186  27.817  32.157  1.00  0.00     0.029 A 
ATOM     58  C   UNL A   1      42.569  28.827  32.876  1.00  0.00     0.049 A 
ATOM     59  H   UNL A   1      40.908  30.016  32.345  1.00  0.00     0.167 HD
ATOM     60  C   UNL A   1      42.248  30.324  34.829  1.00  0.00     0.074 A 
ATOM     61  C   UNL A   1      42.585  30.797  36.155  1.00  0.00     0.031 C 
ATOM     62  C   UNL A   1      42.899  29.325  34.187  1.00  0.00     0.037 A 
BRANCH  49  63
ATOM     63  C   UNL A   1      40.589  27.951  28.629  1.00  0.00     0.064 A 
ATOM     64  C   UNL A   1      41.368  28.282  27.510  1.00  0.00     0.173 A 
ATOM     65  C   UNL A   1      39.873  26.745  28.598  1.00  0.00     0.173 A 
ATOM     66  F   UNL A   1      42.060  29.431  27.486  1.00  0.00    -0.203 F 
ATOM     67  C   UNL A   1      41.406  27.451  26.394  1.00  0.00     0.198 A 
ATOM     68  C   UNL A   1      39.934  25.903  27.491  1.00  0.00     0.198 A 
ATOM     69  F   UNL A   1      39.116  26.381  29.645  1.00  0.00    -0.203 F 
ATOM     70  F   UNL A   1      42.120  27.810  25.319  1.00  0.00    -0.200 F 
ATOM     71  C   UNL A   1      40.696  26.260  26.388  1.00  0.00     0.200 A 
ATOM     72  F   UNL A   1      39.256  24.748  27.491  1.00  0.00    -0.200 F 
ATOM     73  F   UNL A   1      40.738  25.459  25.315  1.00  0.00    -0.200 F 
ENDBRANCH  49  63
BRANCH  50  74
ATOM     74  C   UNL A   1      39.687  33.823  36.650  1.00  0.00     0.064 A 
ATOM     75  C   UNL A   1      40.330  35.065  36.748  1.00  0.00     0.173 A 
ATOM     76  C   UNL A   1      38.895  33.410  37.730  1.00  0.00     0.173 A 
ATOM     77  F   UNL A   1      41.115  35.492  35.748  1.00  0.00    -0.203 F 
ATOM     78  C   UNL A   1      40.199  35.855  37.888  1.00  0.00     0.198 A 
ATOM     79  C   UNL A   1      38.746  34.212  38.860  1.00  0.00     0.198 A 
ATOM     80  F   UNL A   1      38.256  32.232  37.683  1.00  0.00    -0.203 F 
ATOM     81  F   UNL A   1      40.855  37.021  37.970  1.00  0.00    -0.200 F 
ATOM     82  C   UNL A   1      39.403  35.431  38.941  1.00  0.00     0.200 A 
ATOM     83  F   UNL A   1      37.966  33.804  39.872  1.00  0.00    -0.200 F 
ATOM     84  F   UNL A   1      39.274  36.193  40.035  1.00  0.00    -0.200 F 
ENDBRANCH  50  74
BRANCH  62  85
ATOM     85  C   UNL A   1      44.069  28.701  34.887  1.00  0.00     0.064 A 
ATOM     86  C   UNL A   1      43.918  27.564  35.693  1.00  0.00     0.173 A 
ATOM     87  C   UNL A   1      45.361  29.213  34.698  1.00  0.00     0.173 A 
ATOM     88  F   UNL A   1      42.699  27.050  35.914  1.00  0.00    -0.203 F 
ATOM     89  C   UNL A   1      45.022  26.967  36.295  1.00  0.00     0.198 A 
ATOM     90  C   UNL A   1      46.464  28.600  35.283  1.00  0.00     0.198 A 
ATOM     91  F   UNL A   1      45.553  30.297  33.931  1.00  0.00    -0.203 F 
ATOM     92  F   UNL A   1      44.855  25.898  37.086  1.00  0.00    -0.200 F 
ATOM     93  C   UNL A   1      46.294  27.480  36.082  1.00  0.00     0.200 A 
ATOM     94  F   UNL A   1      47.693  29.089  35.069  1.00  0.00    -0.200 F 
ATOM     95  F   UNL A   1      47.356  26.896  36.654  1.00  0.00    -0.200 F 
ENDBRANCH  62  85
ENDBRANCH  36  37
ENDBRANCH  28  31
ENDBRANCH  26  27
ENDBRANCH  25  26
ENDBRANCH  24  25
ENDBRANCH   3  24
TORSDOF 15
ENDMDL
