MODEL 1
REMARK VINA RESULT:     -10.5      0.000      0.000
REMARK SMILES C[N@@H+](C[C@H]1CCC[N@@H+]1CC(=O)NCCCNC(=O)c1ccc(-c2c3nc(c(-c4c(F)c(F)c(F)c(F)c4F)c4ccc([nH]4)c(-c4c(F)c(F)c(F)c(F)c4F)c4nc(c(-c5c(F)c(F)c(F)c(F)c5F)c5ccc2[nH]5)C=C4)C=C3)cc1)C1CC1
REMARK SMILES IDX 13 1 12 2 10 3 11 4 9 6 8 7 4 8 5 9 6 10 7 11 3 13 2 14 1 15
REMARK SMILES IDX 82 17 83 18 84 19 14 20 15 21 16 22 17 23 18 25 19 26 20 27
REMARK SMILES IDX 81 28 21 29 80 30 22 31 23 32 24 33 74 34 25 35 79 36 73 37
REMARK SMILES IDX 75 38 26 39 78 40 72 41 71 42 27 44 59 45 39 46 58 47 40 48
REMARK SMILES IDX 43 49 57 50 76 51 41 52 42 53 56 55 77 56 44 57 28 58 29 59
REMARK SMILES IDX 37 60 30 61 31 62 35 63 38 64 32 65 33 66 36 67 34 68 60 69
REMARK SMILES IDX 61 70 69 71 62 72 63 73 67 74 70 75 64 76 65 77 68 78 66 79
REMARK SMILES IDX 45 80 46 81 54 82 47 83 48 84 52 85 55 86 49 87 50 88 53 89
REMARK SMILES IDX 51 90
REMARK H PARENT 12 5 8 12 2 16 16 24 75 43 43 54
REMARK Flexibility Score: inf
ROOT
ATOM      1  C   UNL A   1      41.876  19.500  27.529  1.00  0.00     0.118 C 
ENDROOT
BRANCH   1   2
ATOM      2  N   UNL A   1      42.871  18.647  26.896  1.00  0.00    -0.351 N 
ATOM      3  C   UNL A   1      43.772  18.854  25.892  1.00  0.00     0.275 C 
ATOM      4  O   UNL A   1      44.550  17.923  25.655  1.00  0.00    -0.269 OA
ATOM      5  H   UNL A   1      42.900  17.736  27.268  1.00  0.00     0.163 HD
BRANCH   3   6
ATOM      6  C   UNL A   1      43.806  20.156  25.073  1.00  0.00     0.363 C 
BRANCH   6   7
ATOM      7  N   UNL A   1      44.652  21.234  25.652  1.00  0.00    -0.320 N 
ATOM      8  C   UNL A   1      44.105  22.576  25.395  1.00  0.00     0.240 C 
ATOM      9  C   UNL A   1      44.925  23.149  24.253  1.00  0.00     0.077 C 
ATOM     10  C   UNL A   1      46.290  22.519  24.421  1.00  0.00     0.068 C 
ATOM     11  C   UNL A   1      46.039  21.212  25.165  1.00  0.00     0.263 C 
ATOM     12  H   UNL A   1      44.647  21.041  26.653  1.00  0.00     0.348 HD
BRANCH   8  13
ATOM     13  C   UNL A   1      43.874  23.461  26.651  1.00  0.00     0.327 C 
BRANCH  13  14
ATOM     14  N   UNL A   1      44.698  23.410  27.854  1.00  0.00    -0.330 N 
ATOM     15  C   UNL A   1      44.022  22.947  29.055  1.00  0.00     0.333 C 
ATOM     16  H   UNL A   1      45.331  22.652  27.602  1.00  0.00     0.348 HD
BRANCH  14  17
ATOM     17  C   UNL A   1      45.629  24.516  28.081  1.00  0.00     0.184 C 
ATOM     18  C   UNL A   1      46.976  24.411  27.411  1.00  0.00     0.071 C 
ATOM     19  C   UNL A   1      46.021  25.488  27.004  1.00  0.00     0.071 C 
ENDBRANCH  14  17
ENDBRANCH  13  14
ENDBRANCH   8  13
ENDBRANCH   6   7
ENDBRANCH   3   6
ENDBRANCH   1   2
BRANCH   1  20
ATOM     20  C   UNL A   1      40.864  20.154  26.574  1.00  0.00     0.042 C 
BRANCH  20  21
ATOM     21  C   UNL A   1      40.648  21.658  26.740  1.00  0.00     0.118 C 
BRANCH  21  22
ATOM     22  N   UNL A   1      39.495  22.113  25.985  1.00  0.00    -0.352 N 
ATOM     23  C   UNL A   1      38.801  23.294  26.087  1.00  0.00     0.251 C 
ATOM     24  H   UNL A   1      39.164  21.486  25.302  1.00  0.00     0.163 HD
ATOM     25  O   UNL A   1      37.693  23.388  25.564  1.00  0.00    -0.269 OA
BRANCH  23  26
ATOM     26  C   UNL A   1      39.363  24.461  26.811  1.00  0.00     0.039 A 
ATOM     27  C   UNL A   1      39.030  24.635  28.159  1.00  0.00     0.014 A 
ATOM     28  C   UNL A   1      40.115  25.439  26.152  1.00  0.00     0.014 A 
ATOM     29  C   UNL A   1      39.458  25.776  28.849  1.00  0.00     0.010 A 
ATOM     30  C   UNL A   1      40.574  26.559  26.851  1.00  0.00     0.010 A 
ATOM     31  C   UNL A   1      40.235  26.747  28.201  1.00  0.00    -0.014 A 
BRANCH  31  32
ATOM     32  C   UNL A   1      40.654  27.990  28.902  1.00  0.00     0.031 A 
ATOM     33  C   UNL A   1      42.068  28.138  29.394  1.00  0.00     0.074 A 
ATOM     34  C   UNL A   1      39.763  28.973  29.132  1.00  0.00     0.049 A 
ATOM     35  N   UNL A   1      42.604  29.101  30.104  1.00  0.00    -0.248 NA
ATOM     36  C   UNL A   1      42.999  27.052  29.053  1.00  0.00     0.031 C 
ATOM     37  C   UNL A   1      38.363  28.960  28.710  1.00  0.00     0.029 A 
ATOM     38  N   UNL A   1      39.903  30.172  29.789  1.00  0.00    -0.354 N 
ATOM     39  C   UNL A   1      43.927  28.728  30.308  1.00  0.00     0.074 A 
ATOM     40  C   UNL A   1      44.104  27.439  29.674  1.00  0.00     0.031 C 
ATOM     41  C   UNL A   1      37.774  30.096  29.115  1.00  0.00     0.029 A 
ATOM     42  C   UNL A   1      38.743  30.902  29.853  1.00  0.00     0.049 A 
ATOM     43  H   UNL A   1      40.755  30.476  30.177  1.00  0.00     0.167 HD
ATOM     44  C   UNL A   1      44.906  29.404  30.956  1.00  0.00     0.037 A 
ATOM     45  C   UNL A   1      38.487  32.082  30.452  1.00  0.00     0.037 A 
ATOM     46  C   UNL A   1      44.743  30.697  31.567  1.00  0.00     0.049 A 
ATOM     47  C   UNL A   1      39.586  32.802  31.185  1.00  0.00     0.074 A 
ATOM     48  C   UNL A   1      45.691  31.473  32.212  1.00  0.00     0.029 A 
ATOM     49  N   UNL A   1      43.553  31.406  31.606  1.00  0.00    -0.354 N 
ATOM     50  N   UNL A   1      40.838  32.452  31.348  1.00  0.00    -0.248 NA
ATOM     51  C   UNL A   1      39.234  34.083  31.816  1.00  0.00     0.031 C 
ATOM     52  C   UNL A   1      45.066  32.639  32.669  1.00  0.00     0.029 A 
ATOM     53  C   UNL A   1      43.738  32.604  32.277  1.00  0.00     0.049 A 
ATOM     54  H   UNL A   1      42.701  31.102  31.216  1.00  0.00     0.167 HD
ATOM     55  C   UNL A   1      41.429  33.476  32.074  1.00  0.00     0.074 A 
ATOM     56  C   UNL A   1      40.400  34.467  32.316  1.00  0.00     0.031 C 
ATOM     57  C   UNL A   1      42.711  33.587  32.500  1.00  0.00     0.037 A 
BRANCH  44  58
ATOM     58  C   UNL A   1      46.254  28.751  31.043  1.00  0.00     0.064 A 
ATOM     59  C   UNL A   1      46.599  27.924  32.123  1.00  0.00     0.173 A 
ATOM     60  C   UNL A   1      47.194  28.921  30.017  1.00  0.00     0.173 A 
ATOM     61  F   UNL A   1      45.737  27.738  33.133  1.00  0.00    -0.203 F 
ATOM     62  C   UNL A   1      47.848  27.310  32.181  1.00  0.00     0.198 A 
ATOM     63  C   UNL A   1      48.432  28.285  30.068  1.00  0.00     0.198 A 
ATOM     64  F   UNL A   1      46.909  29.697  28.960  1.00  0.00    -0.203 F 
ATOM     65  F   UNL A   1      48.172  26.556  33.241  1.00  0.00    -0.200 F 
ATOM     66  C   UNL A   1      48.760  27.487  31.152  1.00  0.00     0.200 A 
ATOM     67  F   UNL A   1      49.310  28.449  29.067  1.00  0.00    -0.200 F 
ATOM     68  F   UNL A   1      49.960  26.891  31.209  1.00  0.00    -0.200 F 
ENDBRANCH  44  58
BRANCH  45  69
ATOM     69  C   UNL A   1      37.125  32.667  30.372  1.00  0.00     0.064 A 
ATOM     70  C   UNL A   1      36.770  33.515  29.315  1.00  0.00     0.173 A 
ATOM     71  C   UNL A   1      36.156  32.393  31.349  1.00  0.00     0.173 A 
ATOM     72  F   UNL A   1      37.673  33.825  28.373  1.00  0.00    -0.203 F 
ATOM     73  C   UNL A   1      35.498  34.079  29.243  1.00  0.00     0.198 A 
ATOM     74  C   UNL A   1      34.878  32.939  31.263  1.00  0.00     0.198 A 
ATOM     75  F   UNL A   1      36.450  31.587  32.378  1.00  0.00    -0.203 F 
ATOM     76  F   UNL A   1      35.194  34.915  28.241  1.00  0.00    -0.200 F 
ATOM     77  C   UNL A   1      34.551  33.785  30.213  1.00  0.00     0.200 A 
ATOM     78  F   UNL A   1      33.963  32.647  32.197  1.00  0.00    -0.200 F 
ATOM     79  F   UNL A   1      33.326  34.325  30.140  1.00  0.00    -0.200 F 
ENDBRANCH  45  69
BRANCH  57  80
ATOM     80  C   UNL A   1      43.087  34.838  33.236  1.00  0.00     0.064 A 
ATOM     81  C   UNL A   1      43.431  36.015  32.556  1.00  0.00     0.173 A 
ATOM     82  C   UNL A   1      43.058  34.871  34.639  1.00  0.00     0.173 A 
ATOM     83  F   UNL A   1      43.488  36.027  31.215  1.00  0.00    -0.203 F 
ATOM     84  C   UNL A   1      43.752  37.176  33.256  1.00  0.00     0.198 A 
ATOM     85  C   UNL A   1      43.357  36.039  35.333  1.00  0.00     0.198 A 
ATOM     86  F   UNL A   1      42.730  33.771  35.334  1.00  0.00    -0.203 F 
ATOM     87  F   UNL A   1      44.112  38.281  32.587  1.00  0.00    -0.200 F 
ATOM     88  C   UNL A   1      43.707  37.189  34.642  1.00  0.00     0.200 A 
ATOM     89  F   UNL A   1      43.307  36.053  36.673  1.00  0.00    -0.200 F 
ATOM     90  F   UNL A   1      44.010  38.309  35.312  1.00  0.00    -0.200 F 
ENDBRANCH  57  80
ENDBRANCH  31  32
ENDBRANCH  23  26
ENDBRANCH  21  22
ENDBRANCH  20  21
ENDBRANCH   1  20
TORSDOF 14
ENDMDL
MODEL 2
REMARK VINA RESULT:     -10.4      0.172      2.013
REMARK SMILES C[N@@H+](C[C@H]1CCC[N@@H+]1CC(=O)NCCCNC(=O)c1ccc(-c2c3nc(c(-c4c(F)c(F)c(F)c(F)c4F)c4ccc([nH]4)c(-c4c(F)c(F)c(F)c(F)c4F)c4nc(c(-c5c(F)c(F)c(F)c(F)c5F)c5ccc2[nH]5)C=C4)C=C3)cc1)C1CC1
REMARK SMILES IDX 13 1 12 2 10 3 11 4 9 6 8 7 4 8 5 9 6 10 7 11 3 13 2 14 1 15
REMARK SMILES IDX 82 17 83 18 84 19 14 20 15 21 16 22 17 23 18 25 19 26 20 27
REMARK SMILES IDX 81 28 21 29 80 30 22 31 23 32 24 33 74 34 25 35 79 36 73 37
REMARK SMILES IDX 75 38 26 39 78 40 72 41 71 42 27 44 59 45 39 46 58 47 40 48
REMARK SMILES IDX 43 49 57 50 76 51 41 52 42 53 56 55 77 56 44 57 28 58 29 59
REMARK SMILES IDX 37 60 30 61 31 62 35 63 38 64 32 65 33 66 36 67 34 68 60 69
REMARK SMILES IDX 61 70 69 71 62 72 63 73 67 74 70 75 64 76 65 77 68 78 66 79
REMARK SMILES IDX 45 80 46 81 54 82 47 83 48 84 52 85 55 86 49 87 50 88 53 89
REMARK SMILES IDX 51 90
REMARK H PARENT 12 5 8 12 2 16 16 24 75 43 43 54
REMARK Flexibility Score: inf
ROOT
ATOM      1  C   UNL A   1      41.870  19.497  27.549  1.00  0.00     0.118 C 
ENDROOT
BRANCH   1   2
ATOM      2  N   UNL A   1      42.861  18.617  26.948  1.00  0.00    -0.351 N 
ATOM      3  C   UNL A   1      43.774  18.787  25.947  1.00  0.00     0.275 C 
ATOM      4  O   UNL A   1      44.544  17.842  25.742  1.00  0.00    -0.269 OA
ATOM      5  H   UNL A   1      42.878  17.716  27.345  1.00  0.00     0.163 HD
BRANCH   3   6
ATOM      6  C   UNL A   1      43.829  20.066  25.093  1.00  0.00     0.363 C 
BRANCH   6   7
ATOM      7  N   UNL A   1      44.677  21.152  25.653  1.00  0.00    -0.320 N 
ATOM      8  C   UNL A   1      44.138  22.491  25.364  1.00  0.00     0.240 C 
ATOM      9  C   UNL A   1      44.966  23.035  24.214  1.00  0.00     0.077 C 
ATOM     10  C   UNL A   1      46.327  22.402  24.403  1.00  0.00     0.068 C 
ATOM     11  C   UNL A   1      46.066  21.113  25.174  1.00  0.00     0.263 C 
ATOM     12  H   UNL A   1      44.666  20.981  26.658  1.00  0.00     0.348 HD
BRANCH   8  13
ATOM     13  C   UNL A   1      43.905  23.404  26.599  1.00  0.00     0.327 C 
BRANCH  13  14
ATOM     14  N   UNL A   1      44.772  23.435  27.772  1.00  0.00    -0.330 N 
ATOM     15  C   UNL A   1      44.165  22.973  29.010  1.00  0.00     0.333 C 
ATOM     16  H   UNL A   1      45.437  22.705  27.520  1.00  0.00     0.348 HD
BRANCH  14  17
ATOM     17  C   UNL A   1      45.647  24.597  27.934  1.00  0.00     0.184 C 
ATOM     18  C   UNL A   1      47.070  24.439  27.459  1.00  0.00     0.071 C 
ATOM     19  C   UNL A   1      46.156  25.404  26.773  1.00  0.00     0.071 C 
ENDBRANCH  14  17
ENDBRANCH  13  14
ENDBRANCH   8  13
ENDBRANCH   6   7
ENDBRANCH   3   6
ENDBRANCH   1   2
BRANCH   1  20
ATOM     20  C   UNL A   1      40.830  20.079  26.577  1.00  0.00     0.042 C 
BRANCH  20  21
ATOM     21  C   UNL A   1      40.715  21.603  26.539  1.00  0.00     0.118 C 
BRANCH  21  22
ATOM     22  N   UNL A   1      39.475  22.024  25.914  1.00  0.00    -0.352 N 
ATOM     23  C   UNL A   1      38.737  23.162  26.130  1.00  0.00     0.251 C 
ATOM     24  H   UNL A   1      39.112  21.406  25.239  1.00  0.00     0.163 HD
ATOM     25  O   UNL A   1      37.581  23.216  25.716  1.00  0.00    -0.269 OA
BRANCH  23  26
ATOM     26  C   UNL A   1      39.306  24.329  26.847  1.00  0.00     0.039 A 
ATOM     27  C   UNL A   1      38.953  24.528  28.187  1.00  0.00     0.014 A 
ATOM     28  C   UNL A   1      40.087  25.284  26.188  1.00  0.00     0.014 A 
ATOM     29  C   UNL A   1      39.389  25.671  28.868  1.00  0.00     0.010 A 
ATOM     30  C   UNL A   1      40.553  26.406  26.880  1.00  0.00     0.010 A 
ATOM     31  C   UNL A   1      40.194  26.619  28.221  1.00  0.00    -0.014 A 
BRANCH  31  32
ATOM     32  C   UNL A   1      40.622  27.864  28.911  1.00  0.00     0.031 A 
ATOM     33  C   UNL A   1      42.034  28.000  29.415  1.00  0.00     0.074 A 
ATOM     34  C   UNL A   1      39.742  28.861  29.122  1.00  0.00     0.049 A 
ATOM     35  N   UNL A   1      42.576  28.963  30.118  1.00  0.00    -0.248 NA
ATOM     36  C   UNL A   1      42.954  26.899  29.094  1.00  0.00     0.031 C 
ATOM     37  C   UNL A   1      38.346  28.861  28.688  1.00  0.00     0.029 A 
ATOM     38  N   UNL A   1      39.892  30.065  29.768  1.00  0.00    -0.354 N 
ATOM     39  C   UNL A   1      43.892  28.576  30.339  1.00  0.00     0.074 A 
ATOM     40  C   UNL A   1      44.058  27.278  29.720  1.00  0.00     0.031 C 
ATOM     41  C   UNL A   1      37.768  30.009  29.075  1.00  0.00     0.029 A 
ATOM     42  C   UNL A   1      38.741  30.811  29.814  1.00  0.00     0.049 A 
ATOM     43  H   UNL A   1      40.744  30.363  30.160  1.00  0.00     0.167 HD
ATOM     44  C   UNL A   1      44.874  29.247  30.988  1.00  0.00     0.037 A 
ATOM     45  C   UNL A   1      38.494  32.000  30.397  1.00  0.00     0.037 A 
ATOM     46  C   UNL A   1      44.722  30.549  31.583  1.00  0.00     0.049 A 
ATOM     47  C   UNL A   1      39.596  32.714  31.132  1.00  0.00     0.074 A 
ATOM     48  C   UNL A   1      45.674  31.320  32.228  1.00  0.00     0.029 A 
ATOM     49  N   UNL A   1      43.541  31.273  31.604  1.00  0.00    -0.354 N 
ATOM     50  N   UNL A   1      40.842  32.350  31.310  1.00  0.00    -0.248 NA
ATOM     51  C   UNL A   1      39.255  34.006  31.746  1.00  0.00     0.031 C 
ATOM     52  C   UNL A   1      45.060  32.499  32.667  1.00  0.00     0.029 A 
ATOM     53  C   UNL A   1      43.735  32.476  32.263  1.00  0.00     0.049 A 
ATOM     54  H   UNL A   1      42.689  30.976  31.209  1.00  0.00     0.167 HD
ATOM     55  C   UNL A   1      41.439  33.375  32.030  1.00  0.00     0.074 A 
ATOM     56  C   UNL A   1      40.421  34.381  32.252  1.00  0.00     0.031 C 
ATOM     57  C   UNL A   1      42.719  33.474  32.466  1.00  0.00     0.037 A 
BRANCH  44  58
ATOM     58  C   UNL A   1      46.213  28.578  31.094  1.00  0.00     0.064 A 
ATOM     59  C   UNL A   1      47.199  28.752  30.112  1.00  0.00     0.173 A 
ATOM     60  C   UNL A   1      46.526  27.787  32.209  1.00  0.00     0.173 A 
ATOM     61  F   UNL A   1      46.943  29.491  29.022  1.00  0.00    -0.203 F 
ATOM     62  C   UNL A   1      48.444  28.139  30.232  1.00  0.00     0.198 A 
ATOM     63  C   UNL A   1      47.780  27.195  32.337  1.00  0.00     0.198 A 
ATOM     64  F   UNL A   1      45.619  27.595  33.179  1.00  0.00    -0.203 F 
ATOM     65  F   UNL A   1      49.357  28.286  29.262  1.00  0.00    -0.200 F 
ATOM     66  C   UNL A   1      48.734  27.366  31.346  1.00  0.00     0.200 A 
ATOM     67  F   UNL A   1      48.064  26.457  33.420  1.00  0.00    -0.200 F 
ATOM     68  F   UNL A   1      49.935  26.781  31.462  1.00  0.00    -0.200 F 
ENDBRANCH  44  58
BRANCH  45  69
ATOM     69  C   UNL A   1      37.140  32.601  30.298  1.00  0.00     0.064 A 
ATOM     70  C   UNL A   1      36.204  32.431  31.326  1.00  0.00     0.173 A 
ATOM     71  C   UNL A   1      36.756  33.352  29.178  1.00  0.00     0.173 A 
ATOM     72  F   UNL A   1      36.520  31.699  32.404  1.00  0.00    -0.203 F 
ATOM     73  C   UNL A   1      34.927  32.980  31.233  1.00  0.00     0.198 A 
ATOM     74  C   UNL A   1      35.487  33.920  29.096  1.00  0.00     0.198 A 
ATOM     75  F   UNL A   1      37.618  33.542  28.169  1.00  0.00    -0.203 F 
ATOM     76  F   UNL A   1      34.038  32.774  32.213  1.00  0.00    -0.200 F 
ATOM     77  C   UNL A   1      34.572  33.730  30.121  1.00  0.00     0.200 A 
ATOM     78  F   UNL A   1      35.150  34.650  28.024  1.00  0.00    -0.200 F 
ATOM     79  F   UNL A   1      33.345  34.261  30.034  1.00  0.00    -0.200 F 
ENDBRANCH  45  69
BRANCH  57  80
ATOM     80  C   UNL A   1      43.104  34.728  33.192  1.00  0.00     0.064 A 
ATOM     81  C   UNL A   1      43.076  34.805  34.592  1.00  0.00     0.173 A 
ATOM     82  C   UNL A   1      43.551  35.852  32.479  1.00  0.00     0.173 A 
ATOM     83  F   UNL A   1      42.642  33.761  35.315  1.00  0.00    -0.203 F 
ATOM     84  C   UNL A   1      43.464  35.968  35.251  1.00  0.00     0.198 A 
ATOM     85  C   UNL A   1      43.959  37.005  33.143  1.00  0.00     0.198 A 
ATOM     86  F   UNL A   1      43.600  35.826  31.138  1.00  0.00    -0.203 F 
ATOM     87  F   UNL A   1      43.395  36.033  36.589  1.00  0.00    -0.200 F 
ATOM     88  C   UNL A   1      43.911  37.064  34.528  1.00  0.00     0.200 A 
ATOM     89  F   UNL A   1      44.398  38.060  32.443  1.00  0.00    -0.200 F 
ATOM     90  F   UNL A   1      44.289  38.180  35.165  1.00  0.00    -0.200 F 
ENDBRANCH  57  80
ENDBRANCH  31  32
ENDBRANCH  23  26
ENDBRANCH  21  22
ENDBRANCH  20  21
ENDBRANCH   1  20
TORSDOF 14
ENDMDL
MODEL 3
REMARK VINA RESULT:     -10.3      5.308     10.266
REMARK SMILES C[N@@H+](C[C@H]1CCC[N@@H+]1CC(=O)NCCCNC(=O)c1ccc(-c2c3nc(c(-c4c(F)c(F)c(F)c(F)c4F)c4ccc([nH]4)c(-c4c(F)c(F)c(F)c(F)c4F)c4nc(c(-c5c(F)c(F)c(F)c(F)c5F)c5ccc2[nH]5)C=C4)C=C3)cc1)C1CC1
REMARK SMILES IDX 13 1 12 2 10 3 11 4 9 6 8 7 4 8 5 9 6 10 7 11 3 13 2 14 1 15
REMARK SMILES IDX 82 17 83 18 84 19 14 20 15 21 16 22 17 23 18 25 19 26 20 27
REMARK SMILES IDX 81 28 21 29 80 30 22 31 23 32 24 33 74 34 25 35 79 36 73 37
REMARK SMILES IDX 75 38 26 39 78 40 72 41 71 42 27 44 59 45 39 46 58 47 40 48
REMARK SMILES IDX 43 49 57 50 76 51 41 52 42 53 56 55 77 56 44 57 28 58 29 59
REMARK SMILES IDX 37 60 30 61 31 62 35 63 38 64 32 65 33 66 36 67 34 68 60 69
REMARK SMILES IDX 61 70 69 71 62 72 63 73 67 74 70 75 64 76 65 77 68 78 66 79
REMARK SMILES IDX 45 80 46 81 54 82 47 83 48 84 52 85 55 86 49 87 50 88 53 89
REMARK SMILES IDX 51 90
REMARK H PARENT 12 5 8 12 2 16 16 24 75 43 43 54
REMARK Flexibility Score: inf
ROOT
ATOM      1  C   UNL A   1      31.542  30.825  26.012  1.00  0.00     0.118 C 
ENDROOT
BRANCH   1   2
ATOM      2  N   UNL A   1      32.812  30.158  26.254  1.00  0.00    -0.351 N 
ATOM      3  C   UNL A   1      33.146  28.865  26.538  1.00  0.00     0.275 C 
ATOM      4  O   UNL A   1      34.354  28.612  26.595  1.00  0.00    -0.269 OA
ATOM      5  H   UNL A   1      33.589  30.762  26.202  1.00  0.00     0.163 HD
BRANCH   3   6
ATOM      6  C   UNL A   1      32.087  27.782  26.804  1.00  0.00     0.363 C 
BRANCH   6   7
ATOM      7  N   UNL A   1      31.942  26.773  25.720  1.00  0.00    -0.320 N 
ATOM      8  C   UNL A   1      30.615  26.817  25.084  1.00  0.00     0.240 C 
ATOM      9  C   UNL A   1      29.832  25.657  25.670  1.00  0.00     0.077 C 
ATOM     10  C   UNL A   1      30.883  24.613  25.975  1.00  0.00     0.068 C 
ATOM     11  C   UNL A   1      32.178  25.393  26.173  1.00  0.00     0.263 C 
ATOM     12  H   UNL A   1      32.661  27.029  25.045  1.00  0.00     0.348 HD
BRANCH   8  13
ATOM     13  C   UNL A   1      30.614  27.001  23.542  1.00  0.00     0.327 C 
BRANCH  13  14
ATOM     14  N   UNL A   1      30.779  28.284  22.868  1.00  0.00    -0.330 N 
ATOM     15  C   UNL A   1      32.133  28.814  22.855  1.00  0.00     0.333 C 
ATOM     16  H   UNL A   1      30.602  28.001  21.905  1.00  0.00     0.348 HD
BRANCH  14  17
ATOM     17  C   UNL A   1      29.744  29.296  23.080  1.00  0.00     0.184 C 
ATOM     18  C   UNL A   1      28.990  29.755  21.856  1.00  0.00     0.071 C 
ATOM     19  C   UNL A   1      28.276  29.005  22.937  1.00  0.00     0.071 C 
ENDBRANCH  14  17
ENDBRANCH  13  14
ENDBRANCH   8  13
ENDBRANCH   6   7
ENDBRANCH   3   6
ENDBRANCH   1   2
BRANCH   1  20
ATOM     20  C   UNL A   1      31.393  32.214  26.657  1.00  0.00     0.042 C 
BRANCH  20  21
ATOM     21  C   UNL A   1      32.661  32.823  27.255  1.00  0.00     0.118 C 
BRANCH  21  22
ATOM     22  N   UNL A   1      32.461  34.216  27.611  1.00  0.00    -0.352 N 
ATOM     23  C   UNL A   1      33.002  34.933  28.650  1.00  0.00     0.251 C 
ATOM     24  H   UNL A   1      31.853  34.718  27.022  1.00  0.00     0.163 HD
ATOM     25  O   UNL A   1      32.507  36.015  28.956  1.00  0.00    -0.269 OA
BRANCH  23  26
ATOM     26  C   UNL A   1      34.174  34.431  29.409  1.00  0.00     0.039 A 
ATOM     27  C   UNL A   1      35.444  34.551  28.834  1.00  0.00     0.014 A 
ATOM     28  C   UNL A   1      34.025  33.746  30.619  1.00  0.00     0.014 A 
ATOM     29  C   UNL A   1      36.562  34.001  29.472  1.00  0.00     0.010 A 
ATOM     30  C   UNL A   1      35.146  33.230  31.275  1.00  0.00     0.010 A 
ATOM     31  C   UNL A   1      36.423  33.337  30.700  1.00  0.00    -0.014 A 
BRANCH  31  32
ATOM     32  C   UNL A   1      37.589  32.700  31.366  1.00  0.00     0.031 A 
ATOM     33  C   UNL A   1      38.316  31.567  30.693  1.00  0.00     0.074 A 
ATOM     34  C   UNL A   1      37.979  33.108  32.589  1.00  0.00     0.049 A 
ATOM     35  N   UNL A   1      39.295  30.823  31.147  1.00  0.00    -0.248 NA
ATOM     36  C   UNL A   1      37.874  31.217  29.336  1.00  0.00     0.031 C 
ATOM     37  C   UNL A   1      37.365  34.193  33.353  1.00  0.00     0.029 A 
ATOM     38  N   UNL A   1      38.981  32.647  33.408  1.00  0.00    -0.354 N 
ATOM     39  C   UNL A   1      39.573  29.908  30.139  1.00  0.00     0.074 A 
ATOM     40  C   UNL A   1      38.640  30.171  29.063  1.00  0.00     0.031 C 
ATOM     41  C   UNL A   1      38.004  34.317  34.527  1.00  0.00     0.029 A 
ATOM     42  C   UNL A   1      39.050  33.300  34.613  1.00  0.00     0.049 A 
ATOM     43  H   UNL A   1      39.591  31.918  33.154  1.00  0.00     0.167 HD
ATOM     44  C   UNL A   1      40.525  28.945  30.108  1.00  0.00     0.037 A 
ATOM     45  C   UNL A   1      39.855  33.094  35.673  1.00  0.00     0.037 A 
ATOM     46  C   UNL A   1      41.471  28.695  31.164  1.00  0.00     0.049 A 
ATOM     47  C   UNL A   1      40.890  32.002  35.624  1.00  0.00     0.074 A 
ATOM     48  C   UNL A   1      42.496  27.764  31.203  1.00  0.00     0.029 A 
ATOM     49  N   UNL A   1      41.510  29.381  32.367  1.00  0.00    -0.354 N 
ATOM     50  N   UNL A   1      41.159  31.162  34.655  1.00  0.00    -0.248 NA
ATOM     51  C   UNL A   1      41.732  31.832  36.817  1.00  0.00     0.031 C 
ATOM     52  C   UNL A   1      43.135  27.867  32.443  1.00  0.00     0.029 A 
ATOM     53  C   UNL A   1      42.531  28.886  33.161  1.00  0.00     0.049 A 
ATOM     54  H   UNL A   1      40.901  30.113  32.620  1.00  0.00     0.167 HD
ATOM     55  C   UNL A   1      42.215  30.384  35.108  1.00  0.00     0.074 A 
ATOM     56  C   UNL A   1      42.544  30.855  36.438  1.00  0.00     0.031 C 
ATOM     57  C   UNL A   1      42.857  29.372  34.476  1.00  0.00     0.037 A 
BRANCH  44  58
ATOM     58  C   UNL A   1      40.590  28.077  28.886  1.00  0.00     0.064 A 
ATOM     59  C   UNL A   1      39.856  26.884  28.795  1.00  0.00     0.173 A 
ATOM     60  C   UNL A   1      41.361  28.462  27.781  1.00  0.00     0.173 A 
ATOM     61  F   UNL A   1      39.112  26.469  29.830  1.00  0.00    -0.203 F 
ATOM     62  C   UNL A   1      39.912  26.098  27.646  1.00  0.00     0.198 A 
ATOM     63  C   UNL A   1      41.395  27.685  26.626  1.00  0.00     0.198 A 
ATOM     64  F   UNL A   1      42.076  29.597  27.817  1.00  0.00    -0.203 F 
ATOM     65  F   UNL A   1      39.235  24.942  27.596  1.00  0.00    -0.200 F 
ATOM     66  C   UNL A   1      40.677  26.501  26.563  1.00  0.00     0.200 A 
ATOM     67  F   UNL A   1      42.127  28.081  25.574  1.00  0.00    -0.200 F 
ATOM     68  F   UNL A   1      40.725  25.744  25.457  1.00  0.00    -0.200 F 
ENDBRANCH  44  58
BRANCH  45  69
ATOM     69  C   UNL A   1      39.724  33.954  36.876  1.00  0.00     0.064 A 
ATOM     70  C   UNL A   1      38.914  33.564  37.951  1.00  0.00     0.173 A 
ATOM     71  C   UNL A   1      40.399  35.180  36.973  1.00  0.00     0.173 A 
ATOM     72  F   UNL A   1      38.230  32.412  37.889  1.00  0.00    -0.203 F 
ATOM     73  C   UNL A   1      38.775  34.373  39.076  1.00  0.00     0.198 A 
ATOM     74  C   UNL A   1      40.276  35.977  38.109  1.00  0.00     0.198 A 
ATOM     75  F   UNL A   1      41.184  35.594  35.970  1.00  0.00    -0.203 F 
ATOM     76  F   UNL A   1      37.967  33.994  40.076  1.00  0.00    -0.200 F 
ATOM     77  C   UNL A   1      39.461  35.576  39.157  1.00  0.00     0.200 A 
ATOM     78  F   UNL A   1      40.947  37.135  38.186  1.00  0.00    -0.200 F 
ATOM     79  F   UNL A   1      39.330  36.353  40.242  1.00  0.00    -0.200 F 
ENDBRANCH  45  69
BRANCH  57  80
ATOM     80  C   UNL A   1      44.005  28.728  35.195  1.00  0.00     0.064 A 
ATOM     81  C   UNL A   1      43.821  27.610  36.021  1.00  0.00     0.173 A 
ATOM     82  C   UNL A   1      45.312  29.209  35.019  1.00  0.00     0.173 A 
ATOM     83  F   UNL A   1      42.588  27.123  36.232  1.00  0.00    -0.203 F 
ATOM     84  C   UNL A   1      44.901  27.008  36.660  1.00  0.00     0.198 A 
ATOM     85  C   UNL A   1      46.392  28.591  35.641  1.00  0.00     0.198 A 
ATOM     86  F   UNL A   1      45.540  30.275  34.236  1.00  0.00    -0.203 F 
ATOM     87  F   UNL A   1      44.699  25.961  37.473  1.00  0.00    -0.200 F 
ATOM     88  C   UNL A   1      46.186  27.494  36.464  1.00  0.00     0.200 A 
ATOM     89  F   UNL A   1      47.633  29.057  35.446  1.00  0.00    -0.200 F 
ATOM     90  F   UNL A   1      47.225  26.909  37.075  1.00  0.00    -0.200 F 
ENDBRANCH  57  80
ENDBRANCH  31  32
ENDBRANCH  23  26
ENDBRANCH  21  22
ENDBRANCH  20  21
ENDBRANCH   1  20
TORSDOF 14
ENDMDL
