MODEL 1
REMARK VINA RESULT:     -14.9      0.000      0.000
REMARK SMILES Cc1ccc(-c2c(C)sc(NC(=O)[C@H]3CC=CC[C@H]3C(=O)NCCCNC(=O)c3ccc(-c4c5nc(c(-c6c(F)c(F)c(F)c(F)c6F)c6ccc([nH]6)c(-c6c(F)c(F)c(F)c(F)c6F)c6nc(c(-c7c(F)c(F)c(F)c(F)c7F)c7ccc4[nH]7)C=C6)C=C5)cc3)c2C(N)=O)cc1
REMARK SMILES IDX 23 1 22 2 20 3 21 4 19 6 14 7 15 8 16 9 18 10 17 11 12 12
REMARK SMILES IDX 11 13 13 15 10 16 6 17 7 18 92 19 8 20 9 21 5 22 1 23 2 24
REMARK SMILES IDX 3 25 97 26 4 27 96 28 93 29 94 30 95 31 24 34 25 35 26 36
REMARK SMILES IDX 27 37 28 39 29 40 30 41 91 42 31 43 90 44 32 45 33 46 34 47
REMARK SMILES IDX 84 48 35 49 89 50 83 51 85 52 36 53 88 54 82 55 81 56 37 58
REMARK SMILES IDX 69 59 49 60 68 61 50 62 53 63 67 64 86 65 51 66 52 67 66 69
REMARK SMILES IDX 87 70 54 71 38 72 39 73 47 74 40 75 41 76 45 77 48 78 42 79
REMARK SMILES IDX 43 80 46 81 44 82 70 83 71 84 79 85 72 86 73 87 77 88 80 89
REMARK SMILES IDX 74 90 75 91 78 92 76 93 55 94 56 95 64 96 57 97 58 98 62 99
REMARK SMILES IDX 65 100 59 101 60 102 63 103 61 104
REMARK H PARENT 22 5 11 14 94 32 94 33 26 38 85 57 53 68
REMARK Flexibility Score: inf
ROOT
ATOM      1  C   UNL A   1      35.906  21.477  25.344  1.00  0.00     0.117 C 
ENDROOT
BRANCH   1   2
ATOM      2  N   UNL A   1      35.045  20.324  25.271  1.00  0.00    -0.356 N 
ATOM      3  C   UNL A   1      33.693  20.279  25.213  1.00  0.00     0.224 C 
ATOM      4  O   UNL A   1      33.166  19.213  25.548  1.00  0.00    -0.275 OA
ATOM      5  H   UNL A   1      35.502  19.452  25.262  1.00  0.00     0.163 HD
BRANCH   3   6
ATOM      6  C   UNL A   1      32.840  21.433  24.706  1.00  0.00     0.095 C 
ATOM      7  C   UNL A   1      32.324  22.521  25.672  1.00  0.00     0.095 C 
ATOM      8  C   UNL A   1      31.053  23.151  25.065  1.00  0.00     0.041 C 
ATOM      9  C   UNL A   1      31.064  23.250  23.553  1.00  0.00    -0.030 C 
ATOM     10  C   UNL A   1      33.187  21.947  23.314  1.00  0.00     0.041 C 
ATOM     11  C   UNL A   1      32.039  22.751  22.773  1.00  0.00    -0.030 C 
BRANCH   7  12
ATOM     12  C   UNL A   1      33.262  23.508  26.427  1.00  0.00     0.229 C 
ATOM     13  N   UNL A   1      33.703  24.753  26.076  1.00  0.00    -0.317 N 
ATOM     14  H   UNL A   1      34.584  24.982  26.451  1.00  0.00     0.170 HD
ATOM     15  O   UNL A   1      33.778  23.090  27.483  1.00  0.00    -0.274 OA
BRANCH  13  16
ATOM     16  C   UNL A   1      33.154  25.749  25.299  1.00  0.00     0.109 A 
ATOM     17  C   UNL A   1      31.928  27.445  24.269  1.00  0.00     0.010 A 
ATOM     18  C   UNL A   1      32.994  27.256  23.402  1.00  0.00     0.012 A 
ATOM     19  C   UNL A   1      32.004  26.537  25.424  1.00  0.00     0.082 A 
ATOM     20  C   UNL A   1      33.518  28.066  22.266  1.00  0.00     0.057 C 
ATOM     21  S   UNL A   1      33.630  25.714  23.671  1.00  0.00    -0.122 S 
BRANCH  17  22
ATOM     22  C   UNL A   1      30.879  28.389  23.896  1.00  0.00    -0.016 A 
ATOM     23  C   UNL A   1      27.895  31.349  22.946  1.00  0.00     0.044 C 
ATOM     24  C   UNL A   1      28.918  30.311  23.293  1.00  0.00    -0.051 A 
ATOM     25  C   UNL A   1      28.859  29.026  22.730  1.00  0.00     0.004 A 
ATOM     26  C   UNL A   1      29.969  30.630  24.153  1.00  0.00     0.004 A 
ATOM     27  C   UNL A   1      29.828  28.063  23.039  1.00  0.00     0.009 A 
ATOM     28  C   UNL A   1      30.947  29.683  24.436  1.00  0.00     0.009 A 
ENDBRANCH  17  22
BRANCH  19  29
ATOM     29  C   UNL A   1      30.992  26.530  26.498  1.00  0.00     0.252 C 
ATOM     30  N   UNL A   1      31.154  27.395  27.543  1.00  0.00    -0.365 N 
ATOM     31  O   UNL A   1      30.015  25.807  26.519  1.00  0.00    -0.269 OA
ATOM     32  H   UNL A   1      31.931  27.999  27.566  1.00  0.00     0.159 HD
ATOM     33  H   UNL A   1      30.494  27.415  28.272  1.00  0.00     0.159 HD
ENDBRANCH  19  29
ENDBRANCH  13  16
ENDBRANCH   7  12
ENDBRANCH   3   6
ENDBRANCH   1   2
BRANCH   1  34
ATOM     34  C   UNL A   1      37.344  21.007  25.317  1.00  0.00     0.042 C 
BRANCH  34  35
ATOM     35  C   UNL A   1      38.350  22.112  25.189  1.00  0.00     0.118 C 
BRANCH  35  36
ATOM     36  N   UNL A   1      39.468  21.984  26.110  1.00  0.00    -0.352 N 
ATOM     37  C   UNL A   1      40.203  22.971  26.742  1.00  0.00     0.251 C 
ATOM     38  H   UNL A   1      39.740  21.060  26.313  1.00  0.00     0.163 HD
ATOM     39  O   UNL A   1      41.213  22.657  27.364  1.00  0.00    -0.269 OA
BRANCH  37  40
ATOM     40  C   UNL A   1      39.648  24.347  26.859  1.00  0.00     0.039 A 
ATOM     41  C   UNL A   1      40.326  25.332  26.129  1.00  0.00     0.014 A 
ATOM     42  C   UNL A   1      38.926  24.704  27.982  1.00  0.00     0.014 A 
ATOM     43  C   UNL A   1      40.566  26.562  26.723  1.00  0.00     0.010 A 
ATOM     44  C   UNL A   1      39.380  25.782  28.687  1.00  0.00     0.010 A 
ATOM     45  C   UNL A   1      40.223  26.698  28.058  1.00  0.00    -0.014 A 
BRANCH  45  46
ATOM     46  C   UNL A   1      40.533  27.830  28.894  1.00  0.00     0.031 A 
ATOM     47  C   UNL A   1      39.529  28.908  28.908  1.00  0.00     0.074 A 
ATOM     48  C   UNL A   1      41.535  27.713  29.793  1.00  0.00     0.049 A 
ATOM     49  N   UNL A   1      39.715  30.051  29.451  1.00  0.00    -0.248 NA
ATOM     50  C   UNL A   1      38.209  28.788  28.284  1.00  0.00     0.031 C 
ATOM     51  C   UNL A   1      41.761  28.507  30.994  1.00  0.00     0.029 A 
ATOM     52  N   UNL A   1      42.688  26.914  29.692  1.00  0.00    -0.354 N 
ATOM     53  C   UNL A   1      38.498  30.694  29.512  1.00  0.00     0.074 A 
ATOM     54  C   UNL A   1      37.602  29.894  28.720  1.00  0.00     0.031 C 
ATOM     55  C   UNL A   1      43.059  28.425  31.333  1.00  0.00     0.029 A 
ATOM     56  C   UNL A   1      43.723  27.696  30.267  1.00  0.00     0.049 A 
ATOM     57  H   UNL A   1      42.762  26.011  29.307  1.00  0.00     0.167 HD
ATOM     58  C   UNL A   1      38.400  31.767  30.341  1.00  0.00     0.037 A 
ATOM     59  C   UNL A   1      44.724  28.202  29.486  1.00  0.00     0.037 A 
ATOM     60  C   UNL A   1      39.710  32.054  30.914  1.00  0.00     0.049 A 
ATOM     61  C   UNL A   1      44.743  29.713  29.477  1.00  0.00     0.074 A 
ATOM     62  C   UNL A   1      40.314  31.680  32.104  1.00  0.00     0.029 A 
ATOM     63  N   UNL A   1      40.726  32.462  30.063  1.00  0.00    -0.354 N 
ATOM     64  N   UNL A   1      43.689  30.455  29.689  1.00  0.00    -0.248 NA
ATOM     65  C   UNL A   1      45.955  30.503  29.297  1.00  0.00     0.031 C 
ATOM     66  C   UNL A   1      41.715  31.847  31.950  1.00  0.00     0.029 A 
ATOM     67  C   UNL A   1      41.953  32.336  30.675  1.00  0.00     0.049 A 
ATOM     68  H   UNL A   1      40.589  32.796  29.146  1.00  0.00     0.167 HD
ATOM     69  C   UNL A   1      44.057  31.778  29.727  1.00  0.00     0.074 A 
ATOM     70  C   UNL A   1      45.485  31.752  29.468  1.00  0.00     0.031 C 
ATOM     71  C   UNL A   1      43.159  32.777  29.995  1.00  0.00     0.037 A 
BRANCH  58  72
ATOM     72  C   UNL A   1      37.131  32.426  30.814  1.00  0.00     0.064 A 
ATOM     73  C   UNL A   1      36.417  33.278  29.940  1.00  0.00     0.173 A 
ATOM     74  C   UNL A   1      36.565  32.286  32.094  1.00  0.00     0.173 A 
ATOM     75  F   UNL A   1      36.811  33.478  28.676  1.00  0.00    -0.203 F 
ATOM     76  C   UNL A   1      35.268  33.967  30.331  1.00  0.00     0.198 A 
ATOM     77  C   UNL A   1      35.433  33.005  32.496  1.00  0.00     0.198 A 
ATOM     78  F   UNL A   1      37.047  31.413  32.985  1.00  0.00    -0.203 F 
ATOM     79  F   UNL A   1      34.638  34.757  29.449  1.00  0.00    -0.200 F 
ATOM     80  C   UNL A   1      34.786  33.845  31.614  1.00  0.00     0.200 A 
ATOM     81  F   UNL A   1      34.970  32.867  33.747  1.00  0.00    -0.200 F 
ATOM     82  F   UNL A   1      33.691  34.517  31.994  1.00  0.00    -0.200 F 
ENDBRANCH  58  72
BRANCH  59  83
ATOM     83  C   UNL A   1      45.052  27.285  28.354  1.00  0.00     0.064 A 
ATOM     84  C   UNL A   1      45.599  26.031  28.704  1.00  0.00     0.173 A 
ATOM     85  C   UNL A   1      44.384  27.374  27.126  1.00  0.00     0.173 A 
ATOM     86  F   UNL A   1      46.276  25.897  29.856  1.00  0.00    -0.203 F 
ATOM     87  C   UNL A   1      45.298  24.882  27.975  1.00  0.00     0.198 A 
ATOM     88  C   UNL A   1      44.127  26.222  26.373  1.00  0.00     0.198 A 
ATOM     89  F   UNL A   1      43.852  28.537  26.726  1.00  0.00    -0.203 F 
ATOM     90  F   UNL A   1      45.670  23.680  28.440  1.00  0.00    -0.200 F 
ATOM     91  C   UNL A   1      44.525  24.975  26.833  1.00  0.00     0.200 A 
ATOM     92  F   UNL A   1      43.393  26.307  25.254  1.00  0.00    -0.200 F 
ATOM     93  F   UNL A   1      44.122  23.861  26.204  1.00  0.00    -0.200 F 
ENDBRANCH  59  83
BRANCH  71  94
ATOM     94  C   UNL A   1      43.311  34.268  29.738  1.00  0.00     0.064 A 
ATOM     95  C   UNL A   1      43.439  35.239  30.740  1.00  0.00     0.173 A 
ATOM     96  C   UNL A   1      43.505  34.757  28.413  1.00  0.00     0.173 A 
ATOM     97  F   UNL A   1      43.396  34.923  32.039  1.00  0.00    -0.203 F 
ATOM     98  C   UNL A   1      43.687  36.586  30.446  1.00  0.00     0.198 A 
ATOM     99  C   UNL A   1      43.837  36.079  28.131  1.00  0.00     0.198 A 
ATOM    100  F   UNL A   1      43.417  33.963  27.336  1.00  0.00    -0.203 F 
ATOM    101  F   UNL A   1      43.746  37.477  31.445  1.00  0.00    -0.200 F 
ATOM    102  C   UNL A   1      43.907  37.002  29.147  1.00  0.00     0.200 A 
ATOM    103  F   UNL A   1      44.111  36.442  26.869  1.00  0.00    -0.200 F 
ATOM    104  F   UNL A   1      44.206  38.279  28.881  1.00  0.00    -0.200 F 
ENDBRANCH  71  94
ENDBRANCH  45  46
ENDBRANCH  37  40
ENDBRANCH  35  36
ENDBRANCH  34  35
ENDBRANCH   1  34
TORSDOF 14
ENDMDL
MODEL 2
REMARK VINA RESULT:     -14.9      3.039      9.436
REMARK SMILES Cc1ccc(-c2c(C)sc(NC(=O)[C@H]3CC=CC[C@H]3C(=O)NCCCNC(=O)c3ccc(-c4c5nc(c(-c6c(F)c(F)c(F)c(F)c6F)c6ccc([nH]6)c(-c6c(F)c(F)c(F)c(F)c6F)c6nc(c(-c7c(F)c(F)c(F)c(F)c7F)c7ccc4[nH]7)C=C6)C=C5)cc3)c2C(N)=O)cc1
REMARK SMILES IDX 23 1 22 2 20 3 21 4 19 6 14 7 15 8 16 9 18 10 17 11 12 12
REMARK SMILES IDX 11 13 13 15 10 16 6 17 7 18 92 19 8 20 9 21 5 22 1 23 2 24
REMARK SMILES IDX 3 25 97 26 4 27 96 28 93 29 94 30 95 31 24 34 25 35 26 36
REMARK SMILES IDX 27 37 28 39 29 40 30 41 91 42 31 43 90 44 32 45 33 46 34 47
REMARK SMILES IDX 84 48 35 49 89 50 83 51 85 52 36 53 88 54 82 55 81 56 37 58
REMARK SMILES IDX 69 59 49 60 68 61 50 62 53 63 67 64 86 65 51 66 52 67 66 69
REMARK SMILES IDX 87 70 54 71 38 72 39 73 47 74 40 75 41 76 45 77 48 78 42 79
REMARK SMILES IDX 43 80 46 81 44 82 70 83 71 84 79 85 72 86 73 87 77 88 80 89
REMARK SMILES IDX 74 90 75 91 78 92 76 93 55 94 56 95 64 96 57 97 58 98 62 99
REMARK SMILES IDX 65 100 59 101 60 102 63 103 61 104
REMARK H PARENT 22 5 11 14 94 32 94 33 26 38 85 57 53 68
REMARK Flexibility Score: inf
ROOT
ATOM      1  C   UNL A   1      31.804  29.394  25.583  1.00  0.00     0.117 C 
ENDROOT
BRANCH   1   2
ATOM      2  N   UNL A   1      31.042  29.717  24.403  1.00  0.00    -0.356 N 
ATOM      3  C   UNL A   1      30.818  28.957  23.305  1.00  0.00     0.224 C 
ATOM      4  O   UNL A   1      30.485  29.561  22.280  1.00  0.00    -0.275 OA
ATOM      5  H   UNL A   1      30.631  30.611  24.395  1.00  0.00     0.163 HD
BRANCH   3   6
ATOM      6  C   UNL A   1      30.898  27.437  23.312  1.00  0.00     0.095 C 
ATOM      7  C   UNL A   1      32.204  26.711  22.928  1.00  0.00     0.095 C 
ATOM      8  C   UNL A   1      31.847  25.296  22.426  1.00  0.00     0.041 C 
ATOM      9  C   UNL A   1      30.661  24.663  23.126  1.00  0.00    -0.030 C 
ATOM     10  C   UNL A   1      30.091  26.740  24.401  1.00  0.00     0.041 C 
ATOM     11  C   UNL A   1      29.903  25.294  24.041  1.00  0.00    -0.030 C 
BRANCH   7  12
ATOM     12  C   UNL A   1      33.514  26.811  23.762  1.00  0.00     0.229 C 
ATOM     13  N   UNL A   1      33.986  26.016  24.769  1.00  0.00    -0.317 N 
ATOM     14  H   UNL A   1      34.557  26.490  25.415  1.00  0.00     0.170 HD
ATOM     15  O   UNL A   1      34.227  27.815  23.562  1.00  0.00    -0.274 OA
BRANCH  13  16
ATOM     16  C   UNL A   1      33.816  24.679  25.054  1.00  0.00     0.109 A 
ATOM     17  C   UNL A   1      33.715  22.352  25.176  1.00  0.00     0.010 A 
ATOM     18  C   UNL A   1      33.089  22.756  26.346  1.00  0.00     0.012 A 
ATOM     19  C   UNL A   1      34.158  23.503  24.375  1.00  0.00     0.082 A 
ATOM     20  C   UNL A   1      32.710  22.020  27.586  1.00  0.00     0.057 C 
ATOM     21  S   UNL A   1      32.557  24.347  26.142  1.00  0.00    -0.122 S 
BRANCH  17  22
ATOM     22  C   UNL A   1      33.758  20.927  24.859  1.00  0.00    -0.016 A 
ATOM     23  C   UNL A   1      33.636  16.736  23.866  1.00  0.00     0.044 C 
ATOM     24  C   UNL A   1      33.675  18.188  24.234  1.00  0.00    -0.051 A 
ATOM     25  C   UNL A   1      34.865  18.786  24.677  1.00  0.00     0.004 A 
ATOM     26  C   UNL A   1      32.528  18.972  24.099  1.00  0.00     0.004 A 
ATOM     27  C   UNL A   1      34.906  20.148  25.001  1.00  0.00     0.009 A 
ATOM     28  C   UNL A   1      32.577  20.329  24.392  1.00  0.00     0.009 A 
ENDBRANCH  17  22
BRANCH  19  29
ATOM     29  C   UNL A   1      34.852  23.353  23.081  1.00  0.00     0.252 C 
ATOM     30  N   UNL A   1      36.212  23.226  23.089  1.00  0.00    -0.365 N 
ATOM     31  O   UNL A   1      34.296  23.330  22.001  1.00  0.00    -0.269 OA
ATOM     32  H   UNL A   1      36.703  23.239  23.943  1.00  0.00     0.159 HD
ATOM     33  H   UNL A   1      36.701  23.121  22.242  1.00  0.00     0.159 HD
ENDBRANCH  19  29
ENDBRANCH  13  16
ENDBRANCH   7  12
ENDBRANCH   3   6
ENDBRANCH   1   2
BRANCH   1  34
ATOM     34  C   UNL A   1      32.341  30.678  26.176  1.00  0.00     0.042 C 
BRANCH  34  35
ATOM     35  C   UNL A   1      33.157  30.486  27.420  1.00  0.00     0.118 C 
BRANCH  35  36
ATOM     36  N   UNL A   1      34.145  31.533  27.629  1.00  0.00    -0.352 N 
ATOM     37  C   UNL A   1      35.413  31.447  28.175  1.00  0.00     0.251 C 
ATOM     38  H   UNL A   1      33.870  32.433  27.340  1.00  0.00     0.163 HD
ATOM     39  O   UNL A   1      36.033  32.480  28.408  1.00  0.00    -0.269 OA
BRANCH  37  40
ATOM     40  C   UNL A   1      36.097  30.128  28.256  1.00  0.00     0.039 A 
ATOM     41  C   UNL A   1      36.262  29.616  29.550  1.00  0.00     0.014 A 
ATOM     42  C   UNL A   1      36.962  29.738  27.251  1.00  0.00     0.014 A 
ATOM     43  C   UNL A   1      37.472  29.029  29.890  1.00  0.00     0.010 A 
ATOM     44  C   UNL A   1      38.238  29.427  27.625  1.00  0.00     0.010 A 
ATOM     45  C   UNL A   1      38.493  29.096  28.956  1.00  0.00    -0.014 A 
BRANCH  45  46
ATOM     46  C   UNL A   1      39.859  28.693  29.174  1.00  0.00     0.031 A 
ATOM     47  C   UNL A   1      40.192  27.317  28.767  1.00  0.00     0.074 A 
ATOM     48  C   UNL A   1      40.775  29.645  29.455  1.00  0.00     0.049 A 
ATOM     49  N   UNL A   1      41.300  26.738  29.042  1.00  0.00    -0.248 NA
ATOM     50  C   UNL A   1      39.278  26.457  28.012  1.00  0.00     0.031 C 
ATOM     51  C   UNL A   1      42.223  29.572  29.300  1.00  0.00     0.029 A 
ATOM     52  N   UNL A   1      40.567  30.865  30.123  1.00  0.00    -0.354 N 
ATOM     53  C   UNL A   1      41.373  25.587  28.289  1.00  0.00     0.074 A 
ATOM     54  C   UNL A   1      40.067  25.423  27.709  1.00  0.00     0.031 C 
ATOM     55  C   UNL A   1      42.795  30.478  30.112  1.00  0.00     0.029 A 
ATOM     56  C   UNL A   1      41.729  31.049  30.915  1.00  0.00     0.049 A 
ATOM     57  H   UNL A   1      39.786  31.462  30.055  1.00  0.00     0.167 HD
ATOM     58  C   UNL A   1      42.593  24.996  28.171  1.00  0.00     0.037 A 
ATOM     59  C   UNL A   1      41.656  30.969  32.279  1.00  0.00     0.037 A 
ATOM     60  C   UNL A   1      43.555  25.708  29.004  1.00  0.00     0.049 A 
ATOM     61  C   UNL A   1      42.483  29.835  32.837  1.00  0.00     0.074 A 
ATOM     62  C   UNL A   1      44.454  26.727  28.733  1.00  0.00     0.029 A 
ATOM     63  N   UNL A   1      43.377  25.688  30.379  1.00  0.00    -0.354 N 
ATOM     64  N   UNL A   1      42.776  28.750  32.169  1.00  0.00    -0.248 NA
ATOM     65  C   UNL A   1      43.099  29.860  34.158  1.00  0.00     0.031 C 
ATOM     66  C   UNL A   1      44.800  27.338  29.966  1.00  0.00     0.029 A 
ATOM     67  C   UNL A   1      44.123  26.679  30.979  1.00  0.00     0.049 A 
ATOM     68  H   UNL A   1      42.798  25.054  30.860  1.00  0.00     0.167 HD
ATOM     69  C   UNL A   1      43.630  27.970  32.910  1.00  0.00     0.074 A 
ATOM     70  C   UNL A   1      43.794  28.707  34.149  1.00  0.00     0.031 C 
ATOM     71  C   UNL A   1      44.149  26.798  32.427  1.00  0.00     0.037 A 
BRANCH  58  72
ATOM     72  C   UNL A   1      42.988  23.940  27.172  1.00  0.00     0.064 A 
ATOM     73  C   UNL A   1      42.632  22.592  27.402  1.00  0.00     0.173 A 
ATOM     74  C   UNL A   1      43.716  24.165  25.990  1.00  0.00     0.173 A 
ATOM     75  F   UNL A   1      41.904  22.228  28.465  1.00  0.00    -0.203 F 
ATOM     76  C   UNL A   1      43.017  21.555  26.551  1.00  0.00     0.198 A 
ATOM     77  C   UNL A   1      44.132  23.121  25.156  1.00  0.00     0.198 A 
ATOM     78  F   UNL A   1      44.008  25.400  25.567  1.00  0.00    -0.203 F 
ATOM     79  F   UNL A   1      42.642  20.297  26.826  1.00  0.00    -0.200 F 
ATOM     80  C   UNL A   1      43.782  21.816  25.436  1.00  0.00     0.200 A 
ATOM     81  F   UNL A   1      44.868  23.394  24.069  1.00  0.00    -0.200 F 
ATOM     82  F   UNL A   1      44.163  20.820  24.626  1.00  0.00    -0.200 F 
ENDBRANCH  58  72
BRANCH  59  83
ATOM     83  C   UNL A   1      40.345  31.471  32.787  1.00  0.00     0.064 A 
ATOM     84  C   UNL A   1      40.067  32.836  32.559  1.00  0.00     0.173 A 
ATOM     85  C   UNL A   1      39.251  30.613  32.955  1.00  0.00     0.173 A 
ATOM     86  F   UNL A   1      41.079  33.709  32.422  1.00  0.00    -0.203 F 
ATOM     87  C   UNL A   1      38.773  33.275  32.289  1.00  0.00     0.198 A 
ATOM     88  C   UNL A   1      37.948  31.071  32.729  1.00  0.00     0.198 A 
ATOM     89  F   UNL A   1      39.443  29.306  33.188  1.00  0.00    -0.203 F 
ATOM     90  F   UNL A   1      38.566  34.538  31.885  1.00  0.00    -0.200 F 
ATOM     91  C   UNL A   1      37.720  32.380  32.332  1.00  0.00     0.200 A 
ATOM     92  F   UNL A   1      36.920  30.213  32.788  1.00  0.00    -0.200 F 
ATOM     93  F   UNL A   1      36.495  32.766  31.943  1.00  0.00    -0.200 F 
ENDBRANCH  59  83
BRANCH  71  94
ATOM     94  C   UNL A   1      44.805  25.670  33.209  1.00  0.00     0.064 A 
ATOM     95  C   UNL A   1      46.171  25.363  33.168  1.00  0.00     0.173 A 
ATOM     96  C   UNL A   1      44.065  24.946  34.189  1.00  0.00     0.173 A 
ATOM     97  F   UNL A   1      47.022  26.033  32.384  1.00  0.00    -0.203 F 
ATOM     98  C   UNL A   1      46.740  24.384  33.993  1.00  0.00     0.198 A 
ATOM     99  C   UNL A   1      44.650  24.036  35.066  1.00  0.00     0.198 A 
ATOM    100  F   UNL A   1      42.746  25.116  34.363  1.00  0.00    -0.203 F 
ATOM    101  F   UNL A   1      48.043  24.097  33.870  1.00  0.00    -0.200 F 
ATOM    102  C   UNL A   1      45.988  23.738  34.954  1.00  0.00     0.200 A 
ATOM    103  F   UNL A   1      43.911  23.473  36.033  1.00  0.00    -0.200 F 
ATOM    104  F   UNL A   1      46.553  22.850  35.781  1.00  0.00    -0.200 F 
ENDBRANCH  71  94
ENDBRANCH  45  46
ENDBRANCH  37  40
ENDBRANCH  35  36
ENDBRANCH  34  35
ENDBRANCH   1  34
TORSDOF 14
ENDMDL
MODEL 3
REMARK VINA RESULT:     -14.7      2.982      9.317
REMARK SMILES Cc1ccc(-c2c(C)sc(NC(=O)[C@H]3CC=CC[C@H]3C(=O)NCCCNC(=O)c3ccc(-c4c5nc(c(-c6c(F)c(F)c(F)c(F)c6F)c6ccc([nH]6)c(-c6c(F)c(F)c(F)c(F)c6F)c6nc(c(-c7c(F)c(F)c(F)c(F)c7F)c7ccc4[nH]7)C=C6)C=C5)cc3)c2C(N)=O)cc1
REMARK SMILES IDX 23 1 22 2 20 3 21 4 19 6 14 7 15 8 16 9 18 10 17 11 12 12
REMARK SMILES IDX 11 13 13 15 10 16 6 17 7 18 92 19 8 20 9 21 5 22 1 23 2 24
REMARK SMILES IDX 3 25 97 26 4 27 96 28 93 29 94 30 95 31 24 34 25 35 26 36
REMARK SMILES IDX 27 37 28 39 29 40 30 41 91 42 31 43 90 44 32 45 33 46 34 47
REMARK SMILES IDX 84 48 35 49 89 50 83 51 85 52 36 53 88 54 82 55 81 56 37 58
REMARK SMILES IDX 69 59 49 60 68 61 50 62 53 63 67 64 86 65 51 66 52 67 66 69
REMARK SMILES IDX 87 70 54 71 38 72 39 73 47 74 40 75 41 76 45 77 48 78 42 79
REMARK SMILES IDX 43 80 46 81 44 82 70 83 71 84 79 85 72 86 73 87 77 88 80 89
REMARK SMILES IDX 74 90 75 91 78 92 76 93 55 94 56 95 64 96 57 97 58 98 62 99
REMARK SMILES IDX 65 100 59 101 60 102 63 103 61 104
REMARK H PARENT 22 5 11 14 94 32 94 33 26 38 85 57 53 68
REMARK Flexibility Score: inf
ROOT
ATOM      1  C   UNL A   1      32.150  29.619  25.176  1.00  0.00     0.117 C 
ENDROOT
BRANCH   1   2
ATOM      2  N   UNL A   1      31.122  29.874  24.198  1.00  0.00    -0.356 N 
ATOM      3  C   UNL A   1      30.610  29.034  23.268  1.00  0.00     0.224 C 
ATOM      4  O   UNL A   1      30.043  29.562  22.306  1.00  0.00    -0.275 OA
ATOM      5  H   UNL A   1      30.743  30.782  24.208  1.00  0.00     0.163 HD
BRANCH   3   6
ATOM      6  C   UNL A   1      30.654  27.518  23.399  1.00  0.00     0.095 C 
ATOM      7  C   UNL A   1      31.861  26.712  22.876  1.00  0.00     0.095 C 
ATOM      8  C   UNL A   1      31.394  25.274  22.568  1.00  0.00     0.041 C 
ATOM      9  C   UNL A   1      30.324  24.749  23.504  1.00  0.00    -0.030 C 
ATOM     10  C   UNL A   1      30.021  26.948  24.662  1.00  0.00     0.041 C 
ATOM     11  C   UNL A   1      29.742  25.484  24.469  1.00  0.00    -0.030 C 
BRANCH   7  12
ATOM     12  C   UNL A   1      33.293  26.833  23.475  1.00  0.00     0.229 C 
ATOM     13  N   UNL A   1      33.920  26.081  24.430  1.00  0.00    -0.317 N 
ATOM     14  H   UNL A   1      34.594  26.578  24.947  1.00  0.00     0.170 HD
ATOM     15  O   UNL A   1      33.970  27.814  23.109  1.00  0.00    -0.274 OA
BRANCH  13  16
ATOM     16  C   UNL A   1      33.790  24.763  24.808  1.00  0.00     0.109 A 
ATOM     17  C   UNL A   1      33.684  22.447  25.061  1.00  0.00     0.010 A 
ATOM     18  C   UNL A   1      33.297  22.919  26.307  1.00  0.00     0.012 A 
ATOM     19  C   UNL A   1      33.982  23.550  24.136  1.00  0.00     0.082 A 
ATOM     20  C   UNL A   1      33.150  22.249  27.631  1.00  0.00     0.057 C 
ATOM     21  S   UNL A   1      32.756  24.509  26.129  1.00  0.00    -0.122 S 
BRANCH  17  22
ATOM     22  C   UNL A   1      33.648  21.009  24.813  1.00  0.00    -0.016 A 
ATOM     23  C   UNL A   1      33.793  16.758  24.121  1.00  0.00     0.044 C 
ATOM     24  C   UNL A   1      33.744  18.240  24.338  1.00  0.00    -0.051 A 
ATOM     25  C   UNL A   1      32.530  18.939  24.254  1.00  0.00     0.004 A 
ATOM     26  C   UNL A   1      34.908  18.935  24.669  1.00  0.00     0.004 A 
ATOM     27  C   UNL A   1      32.482  20.321  24.478  1.00  0.00     0.009 A 
ATOM     28  C   UNL A   1      34.855  20.300  24.920  1.00  0.00     0.009 A 
ENDBRANCH  17  22
BRANCH  19  29
ATOM     29  C   UNL A   1      34.416  23.326  22.743  1.00  0.00     0.252 C 
ATOM     30  N   UNL A   1      33.458  23.104  21.796  1.00  0.00    -0.365 N 
ATOM     31  O   UNL A   1      35.575  23.329  22.374  1.00  0.00    -0.269 OA
ATOM     32  H   UNL A   1      32.507  23.093  22.051  1.00  0.00     0.159 HD
ATOM     33  H   UNL A   1      33.717  22.954  20.858  1.00  0.00     0.159 HD
ENDBRANCH  19  29
ENDBRANCH  13  16
ENDBRANCH   7  12
ENDBRANCH   3   6
ENDBRANCH   1   2
BRANCH   1  34
ATOM     34  C   UNL A   1      31.982  30.598  26.317  1.00  0.00     0.042 C 
BRANCH  34  35
ATOM     35  C   UNL A   1      32.959  30.407  27.439  1.00  0.00     0.118 C 
BRANCH  35  36
ATOM     36  N   UNL A   1      33.931  31.483  27.547  1.00  0.00    -0.352 N 
ATOM     37  C   UNL A   1      35.217  31.458  28.056  1.00  0.00     0.251 C 
ATOM     38  H   UNL A   1      33.629  32.357  27.208  1.00  0.00     0.163 HD
ATOM     39  O   UNL A   1      35.822  32.516  28.201  1.00  0.00    -0.269 OA
BRANCH  37  40
ATOM     40  C   UNL A   1      35.931  30.161  28.202  1.00  0.00     0.039 A 
ATOM     41  C   UNL A   1      36.086  29.705  29.518  1.00  0.00     0.014 A 
ATOM     42  C   UNL A   1      36.822  29.752  27.228  1.00  0.00     0.014 A 
ATOM     43  C   UNL A   1      37.303  29.162  29.901  1.00  0.00     0.010 A 
ATOM     44  C   UNL A   1      38.098  29.488  27.635  1.00  0.00     0.010 A 
ATOM     45  C   UNL A   1      38.338  29.217  28.983  1.00  0.00    -0.014 A 
BRANCH  45  46
ATOM     46  C   UNL A   1      39.709  28.857  29.239  1.00  0.00     0.031 A 
ATOM     47  C   UNL A   1      40.087  27.480  28.875  1.00  0.00     0.074 A 
ATOM     48  C   UNL A   1      40.594  29.840  29.513  1.00  0.00     0.049 A 
ATOM     49  N   UNL A   1      41.203  26.939  29.188  1.00  0.00    -0.248 NA
ATOM     50  C   UNL A   1      39.212  26.576  28.125  1.00  0.00     0.031 C 
ATOM     51  C   UNL A   1      42.046  29.802  29.389  1.00  0.00     0.029 A 
ATOM     52  N   UNL A   1      40.339  31.071  30.144  1.00  0.00    -0.354 N 
ATOM     53  C   UNL A   1      41.323  25.770  28.468  1.00  0.00     0.074 A 
ATOM     54  C   UNL A   1      40.034  25.557  27.865  1.00  0.00     0.031 C 
ATOM     55  C   UNL A   1      42.577  30.744  30.188  1.00  0.00     0.029 A 
ATOM     56  C   UNL A   1      41.479  31.306  30.955  1.00  0.00     0.049 A 
ATOM     57  H   UNL A   1      39.545  31.644  30.044  1.00  0.00     0.167 HD
ATOM     58  C   UNL A   1      42.560  25.210  28.390  1.00  0.00     0.037 A 
ATOM     59  C   UNL A   1      41.380  31.261  32.318  1.00  0.00     0.037 A 
ATOM     60  C   UNL A   1      43.485  25.969  29.223  1.00  0.00     0.049 A 
ATOM     61  C   UNL A   1      42.225  30.164  32.922  1.00  0.00     0.074 A 
ATOM     62  C   UNL A   1      44.363  27.005  28.944  1.00  0.00     0.029 A 
ATOM     63  N   UNL A   1      43.280  25.980  30.594  1.00  0.00    -0.354 N 
ATOM     64  N   UNL A   1      42.560  29.071  32.290  1.00  0.00    -0.248 NA
ATOM     65  C   UNL A   1      42.812  30.240  34.255  1.00  0.00     0.031 C 
ATOM     66  C   UNL A   1      44.666  27.656  30.167  1.00  0.00     0.029 A 
ATOM     67  C   UNL A   1      43.986  27.006  31.183  1.00  0.00     0.049 A 
ATOM     68  H   UNL A   1      42.707  25.343  31.080  1.00  0.00     0.167 HD
ATOM     69  C   UNL A   1      43.419  28.333  33.069  1.00  0.00     0.074 A 
ATOM     70  C   UNL A   1      43.537  29.107  34.291  1.00  0.00     0.031 C 
ATOM     71  C   UNL A   1      43.978  27.163  32.628  1.00  0.00     0.037 A 
BRANCH  58  72
ATOM     72  C   UNL A   1      43.004  24.140  27.428  1.00  0.00     0.064 A 
ATOM     73  C   UNL A   1      43.750  24.496  26.281  1.00  0.00     0.173 A 
ATOM     74  C   UNL A   1      42.733  22.765  27.552  1.00  0.00     0.173 A 
ATOM     75  F   UNL A   1      44.121  25.761  26.048  1.00  0.00    -0.203 F 
ATOM     76  C   UNL A   1      44.143  23.565  25.318  1.00  0.00     0.198 A 
ATOM     77  C   UNL A   1      43.095  21.838  26.568  1.00  0.00     0.198 A 
ATOM     78  F   UNL A   1      42.156  22.258  28.646  1.00  0.00    -0.203 F 
ATOM     79  F   UNL A   1      44.852  23.971  24.255  1.00  0.00    -0.200 F 
ATOM     80  C   UNL A   1      43.800  22.238  25.451  1.00  0.00     0.200 A 
ATOM     81  F   UNL A   1      42.763  20.548  26.718  1.00  0.00    -0.200 F 
ATOM     82  F   UNL A   1      44.165  21.346  24.521  1.00  0.00    -0.200 F 
ENDBRANCH  58  72
BRANCH  59  83
ATOM     83  C   UNL A   1      40.045  31.740  32.786  1.00  0.00     0.064 A 
ATOM     84  C   UNL A   1      39.736  33.090  32.514  1.00  0.00     0.173 A 
ATOM     85  C   UNL A   1      38.972  30.857  32.956  1.00  0.00     0.173 A 
ATOM     86  F   UNL A   1      40.727  33.986  32.373  1.00  0.00    -0.203 F 
ATOM     87  C   UNL A   1      38.436  33.486  32.206  1.00  0.00     0.198 A 
ATOM     88  C   UNL A   1      37.662  31.272  32.692  1.00  0.00     0.198 A 
ATOM     89  F   UNL A   1      39.194  29.563  33.229  1.00  0.00    -0.203 F 
ATOM     90  F   UNL A   1      38.204  34.731  31.764  1.00  0.00    -0.200 F 
ATOM     91  C   UNL A   1      37.407  32.564  32.253  1.00  0.00     0.200 A 
ATOM     92  F   UNL A   1      36.656  30.388  32.754  1.00  0.00    -0.200 F 
ATOM     93  F   UNL A   1      36.181  32.905  31.830  1.00  0.00    -0.200 F 
ENDBRANCH  59  83
BRANCH  71  94
ATOM     94  C   UNL A   1      44.647  26.074  33.453  1.00  0.00     0.064 A 
ATOM     95  C   UNL A   1      43.966  25.176  34.285  1.00  0.00     0.173 A 
ATOM     96  C   UNL A   1      46.034  25.793  33.288  1.00  0.00     0.173 A 
ATOM     97  F   UNL A   1      42.641  25.235  34.454  1.00  0.00    -0.203 F 
ATOM     98  C   UNL A   1      44.620  24.122  34.937  1.00  0.00     0.198 A 
ATOM     99  C   UNL A   1      46.662  24.694  33.868  1.00  0.00     0.198 A 
ATOM    100  F   UNL A   1      46.835  26.552  32.526  1.00  0.00    -0.203 F 
ATOM    101  F   UNL A   1      43.925  23.328  35.763  1.00  0.00    -0.200 F 
ATOM    102  C   UNL A   1      45.959  23.868  34.713  1.00  0.00     0.200 A 
ATOM    103  F   UNL A   1      47.946  24.432  33.581  1.00  0.00    -0.200 F 
ATOM    104  F   UNL A   1      46.560  22.821  35.290  1.00  0.00    -0.200 F 
ENDBRANCH  71  94
ENDBRANCH  45  46
ENDBRANCH  37  40
ENDBRANCH  35  36
ENDBRANCH  34  35
ENDBRANCH   1  34
TORSDOF 14
ENDMDL
