MODEL 1
REMARK VINA RESULT:     -13.9      0.000      0.000
REMARK SMILES Cc1ccc(NC(=O)C[C@@H]2C[NH2+]CCO2)c(C(=O)NCCCNC(=O)c2ccc(-c3c4nc(c(-c5c(F)c(F)c(F)c(F)c5F)c5ccc([nH]5)c(-c5c(F)c(F)c(F)c(F)c5F)c5nc(c(-c6c(F)c(F)c(F)c(F)c6F)c6ccc3[nH]6)C=C5)C=C4)cc2)c1
REMARK SMILES IDX 20 1 19 2 17 3 18 4 16 6 1 7 2 8 3 9 89 10 4 11 5 12 6 13
REMARK SMILES IDX 7 14 8 16 9 17 10 18 11 19 15 20 12 21 14 22 13 23 21 26
REMARK SMILES IDX 22 27 23 28 24 29 25 31 26 32 27 33 88 34 28 35 87 36 29 37
REMARK SMILES IDX 30 38 31 39 81 40 32 41 86 42 80 43 82 44 33 45 85 46 79 47
REMARK SMILES IDX 78 48 34 50 66 51 46 52 65 53 47 54 50 55 64 56 83 57 48 58
REMARK SMILES IDX 49 59 63 61 84 62 51 63 35 64 36 65 44 66 37 67 38 68 42 69
REMARK SMILES IDX 45 70 39 71 40 72 43 73 41 74 67 75 68 76 76 77 69 78 70 79
REMARK SMILES IDX 74 80 77 81 71 82 72 83 75 84 73 85 52 86 53 87 61 88 54 89
REMARK SMILES IDX 55 90 59 91 62 92 56 93 57 94 60 95 58 96
REMARK H PARENT 19 5 6 15 12 24 12 25 23 30 82 49 50 60
REMARK Flexibility Score: inf
ROOT
ATOM      1  C   UNL A   1      32.171  29.397  27.330  1.00  0.00     0.118 C 
ENDROOT
BRANCH   1   2
ATOM      2  N   UNL A   1      32.996  28.309  26.821  1.00  0.00    -0.352 N 
ATOM      3  C   UNL A   1      32.766  27.367  25.841  1.00  0.00     0.253 C 
ATOM      4  O   UNL A   1      33.709  26.634  25.543  1.00  0.00    -0.269 OA
ATOM      5  H   UNL A   1      33.877  28.234  27.255  1.00  0.00     0.163 HD
BRANCH   3   6
ATOM      6  C   UNL A   1      31.469  27.266  25.095  1.00  0.00     0.063 A 
ATOM      7  C   UNL A   1      29.463  29.353  22.608  1.00  0.00     0.044 C 
ATOM      8  C   UNL A   1      29.901  28.194  23.451  1.00  0.00    -0.050 A 
ATOM      9  C   UNL A   1      29.168  27.016  23.501  1.00  0.00     0.005 A 
ATOM     10  C   UNL A   1      31.037  28.302  24.255  1.00  0.00     0.019 A 
ATOM     11  C   UNL A   1      29.517  26.015  24.412  1.00  0.00     0.027 A 
ATOM     12  C   UNL A   1      30.599  26.172  25.289  1.00  0.00     0.054 A 
BRANCH  12  13
ATOM     13  N   UNL A   1      30.790  25.321  26.404  1.00  0.00    -0.325 N 
ATOM     14  C   UNL A   1      31.461  24.134  26.535  1.00  0.00     0.227 C 
ATOM     15  H   UNL A   1      30.364  25.639  27.232  1.00  0.00     0.169 HD
ATOM     16  O   UNL A   1      31.409  23.552  27.624  1.00  0.00    -0.275 OA
BRANCH  14  17
ATOM     17  C   UNL A   1      32.242  23.496  25.405  1.00  0.00     0.138 C 
BRANCH  17  18
ATOM     18  C   UNL A   1      33.166  22.322  25.776  1.00  0.00     0.182 C 
ATOM     19  C   UNL A   1      34.536  22.891  26.235  1.00  0.00     0.293 C 
ATOM     20  O   UNL A   1      33.338  21.415  24.681  1.00  0.00    -0.366 OA
ATOM     21  N   UNL A   1      35.556  21.860  26.498  1.00  0.00    -0.342 N 
ATOM     22  C   UNL A   1      34.294  20.390  24.951  1.00  0.00     0.222 C 
ATOM     23  C   UNL A   1      35.654  20.995  25.310  1.00  0.00     0.289 C 
ATOM     24  H   UNL A   1      35.284  21.304  27.309  1.00  0.00     0.346 HD
ATOM     25  H   UNL A   1      36.457  22.297  26.690  1.00  0.00     0.346 HD
ENDBRANCH  17  18
ENDBRANCH  14  17
ENDBRANCH  12  13
ENDBRANCH   3   6
ENDBRANCH   1   2
BRANCH   1  26
ATOM     26  C   UNL A   1      32.908  30.736  27.252  1.00  0.00     0.042 C 
BRANCH  26  27
ATOM     27  C   UNL A   1      34.412  30.625  27.414  1.00  0.00     0.118 C 
BRANCH  27  28
ATOM     28  N   UNL A   1      34.946  31.424  28.511  1.00  0.00    -0.352 N 
ATOM     29  C   UNL A   1      36.025  31.148  29.338  1.00  0.00     0.251 C 
ATOM     30  H   UNL A   1      34.478  32.271  28.689  1.00  0.00     0.163 HD
ATOM     31  O   UNL A   1      36.352  31.914  30.222  1.00  0.00    -0.269 OA
BRANCH  29  32
ATOM     32  C   UNL A   1      36.856  29.963  29.018  1.00  0.00     0.039 A 
ATOM     33  C   UNL A   1      37.010  28.997  30.018  1.00  0.00     0.014 A 
ATOM     34  C   UNL A   1      37.677  29.968  27.895  1.00  0.00     0.014 A 
ATOM     35  C   UNL A   1      38.155  28.209  30.019  1.00  0.00     0.010 A 
ATOM     36  C   UNL A   1      38.867  29.274  27.957  1.00  0.00     0.010 A 
ATOM     37  C   UNL A   1      39.133  28.451  29.056  1.00  0.00    -0.014 A 
BRANCH  37  38
ATOM     38  C   UNL A   1      40.503  27.965  29.173  1.00  0.00     0.031 A 
ATOM     39  C   UNL A   1      40.844  26.613  28.691  1.00  0.00     0.074 A 
ATOM     40  C   UNL A   1      41.462  28.797  29.636  1.00  0.00     0.049 A 
ATOM     41  N   UNL A   1      41.894  25.955  29.046  1.00  0.00    -0.248 NA
ATOM     42  C   UNL A   1      39.976  25.865  27.792  1.00  0.00     0.031 C 
ATOM     43  C   UNL A   1      42.910  28.620  29.553  1.00  0.00     0.029 A 
ATOM     44  N   UNL A   1      41.296  29.911  30.479  1.00  0.00    -0.354 N 
ATOM     45  C   UNL A   1      41.982  24.836  28.249  1.00  0.00     0.074 A 
ATOM     46  C   UNL A   1      40.734  24.799  27.525  1.00  0.00     0.031 C 
ATOM     47  C   UNL A   1      43.492  29.358  30.511  1.00  0.00     0.029 A 
ATOM     48  C   UNL A   1      42.424  29.901  31.333  1.00  0.00     0.049 A 
ATOM     49  H   UNL A   1      40.555  30.559  30.475  1.00  0.00     0.167 HD
ATOM     50  C   UNL A   1      43.157  24.142  28.210  1.00  0.00     0.037 A 
ATOM     51  C   UNL A   1      42.303  29.708  32.679  1.00  0.00     0.037 A 
ATOM     52  C   UNL A   1      44.112  24.682  29.174  1.00  0.00     0.049 A 
ATOM     53  C   UNL A   1      43.093  28.529  33.197  1.00  0.00     0.074 A 
ATOM     54  C   UNL A   1      45.155  25.586  29.055  1.00  0.00     0.029 A 
ATOM     55  N   UNL A   1      43.858  24.549  30.536  1.00  0.00    -0.354 N 
ATOM     56  N   UNL A   1      43.464  27.524  32.455  1.00  0.00    -0.248 NA
ATOM     57  C   UNL A   1      43.493  28.377  34.593  1.00  0.00     0.031 C 
ATOM     58  C   UNL A   1      45.494  26.040  30.353  1.00  0.00     0.029 A 
ATOM     59  C   UNL A   1      44.674  25.393  31.262  1.00  0.00     0.049 A 
ATOM     60  H   UNL A   1      43.190  23.941  30.925  1.00  0.00     0.167 HD
ATOM     61  C   UNL A   1      44.124  26.607  33.232  1.00  0.00     0.074 A 
ATOM     62  C   UNL A   1      44.127  27.191  34.559  1.00  0.00     0.031 C 
ATOM     63  C   UNL A   1      44.602  25.438  32.713  1.00  0.00     0.037 A 
BRANCH  50  64
ATOM     64  C   UNL A   1      43.542  23.182  27.103  1.00  0.00     0.064 A 
ATOM     65  C   UNL A   1      42.882  21.940  26.963  1.00  0.00     0.173 A 
ATOM     66  C   UNL A   1      44.594  23.387  26.192  1.00  0.00     0.173 A 
ATOM     67  F   UNL A   1      41.785  21.644  27.672  1.00  0.00    -0.203 F 
ATOM     68  C   UNL A   1      43.324  20.946  26.085  1.00  0.00     0.198 A 
ATOM     69  C   UNL A   1      45.075  22.374  25.356  1.00  0.00     0.198 A 
ATOM     70  F   UNL A   1      45.151  24.594  26.031  1.00  0.00    -0.203 F 
ATOM     71  F   UNL A   1      42.661  19.784  26.007  1.00  0.00    -0.200 F 
ATOM     72  C   UNL A   1      44.448  21.147  25.312  1.00  0.00     0.200 A 
ATOM     73  F   UNL A   1      46.151  22.601  24.588  1.00  0.00    -0.200 F 
ATOM     74  F   UNL A   1      44.904  20.178  24.508  1.00  0.00    -0.200 F 
ENDBRANCH  50  64
BRANCH  51  75
ATOM     75  C   UNL A   1      40.992  30.153  33.224  1.00  0.00     0.064 A 
ATOM     76  C   UNL A   1      40.748  31.535  33.345  1.00  0.00     0.173 A 
ATOM     77  C   UNL A   1      39.886  29.294  33.263  1.00  0.00     0.173 A 
ATOM     78  F   UNL A   1      41.773  32.402  33.313  1.00  0.00    -0.203 F 
ATOM     79  C   UNL A   1      39.451  32.042  33.370  1.00  0.00     0.198 A 
ATOM     80  C   UNL A   1      38.588  29.807  33.310  1.00  0.00     0.198 A 
ATOM     81  F   UNL A   1      40.048  27.971  33.139  1.00  0.00    -0.203 F 
ATOM     82  F   UNL A   1      39.252  33.369  33.355  1.00  0.00    -0.200 F 
ATOM     83  C   UNL A   1      38.371  31.178  33.326  1.00  0.00     0.200 A 
ATOM     84  F   UNL A   1      37.540  28.974  33.234  1.00  0.00    -0.200 F 
ATOM     85  F   UNL A   1      37.124  31.665  33.248  1.00  0.00    -0.200 F 
ENDBRANCH  51  75
BRANCH  63  86
ATOM     86  C   UNL A   1      45.125  24.261  33.499  1.00  0.00     0.064 A 
ATOM     87  C   UNL A   1      44.391  23.085  33.731  1.00  0.00     0.173 A 
ATOM     88  C   UNL A   1      46.479  24.225  33.915  1.00  0.00     0.173 A 
ATOM     89  F   UNL A   1      43.136  22.949  33.284  1.00  0.00    -0.203 F 
ATOM     90  C   UNL A   1      44.952  21.980  34.378  1.00  0.00     0.198 A 
ATOM     91  C   UNL A   1      47.050  23.100  34.507  1.00  0.00     0.198 A 
ATOM     92  F   UNL A   1      47.297  25.272  33.733  1.00  0.00    -0.203 F 
ATOM     93  F   UNL A   1      44.198  20.896  34.608  1.00  0.00    -0.200 F 
ATOM     94  C   UNL A   1      46.282  21.982  34.753  1.00  0.00     0.200 A 
ATOM     95  F   UNL A   1      48.355  23.100  34.815  1.00  0.00    -0.200 F 
ATOM     96  F   UNL A   1      46.827  20.901  35.326  1.00  0.00    -0.200 F 
ENDBRANCH  63  86
ENDBRANCH  37  38
ENDBRANCH  29  32
ENDBRANCH  27  28
ENDBRANCH  26  27
ENDBRANCH   1  26
TORSDOF 13
ENDMDL
MODEL 2
REMARK VINA RESULT:     -13.7      3.991     10.316
REMARK SMILES Cc1ccc(NC(=O)C[C@@H]2C[NH2+]CCO2)c(C(=O)NCCCNC(=O)c2ccc(-c3c4nc(c(-c5c(F)c(F)c(F)c(F)c5F)c5ccc([nH]5)c(-c5c(F)c(F)c(F)c(F)c5F)c5nc(c(-c6c(F)c(F)c(F)c(F)c6F)c6ccc3[nH]6)C=C5)C=C4)cc2)c1
REMARK SMILES IDX 20 1 19 2 17 3 18 4 16 6 1 7 2 8 3 9 89 10 4 11 5 12 6 13
REMARK SMILES IDX 7 14 8 16 9 17 10 18 11 19 15 20 12 21 14 22 13 23 21 26
REMARK SMILES IDX 22 27 23 28 24 29 25 31 26 32 27 33 88 34 28 35 87 36 29 37
REMARK SMILES IDX 30 38 31 39 81 40 32 41 86 42 80 43 82 44 33 45 85 46 79 47
REMARK SMILES IDX 78 48 34 50 66 51 46 52 65 53 47 54 50 55 64 56 83 57 48 58
REMARK SMILES IDX 49 59 63 61 84 62 51 63 35 64 36 65 44 66 37 67 38 68 42 69
REMARK SMILES IDX 45 70 39 71 40 72 43 73 41 74 67 75 68 76 76 77 69 78 70 79
REMARK SMILES IDX 74 80 77 81 71 82 72 83 75 84 73 85 52 86 53 87 61 88 54 89
REMARK SMILES IDX 55 90 59 91 62 92 56 93 57 94 60 95 58 96
REMARK H PARENT 19 5 6 15 12 24 12 25 23 30 82 49 50 60
REMARK Flexibility Score: inf
ROOT
ATOM      1  C   UNL A   1      37.055  22.386  23.864  1.00  0.00     0.118 C 
ENDROOT
BRANCH   1   2
ATOM      2  N   UNL A   1      36.178  23.448  24.340  1.00  0.00    -0.352 N 
ATOM      3  C   UNL A   1      34.805  23.527  24.435  1.00  0.00     0.253 C 
ATOM      4  O   UNL A   1      34.344  24.522  24.995  1.00  0.00    -0.269 OA
ATOM      5  H   UNL A   1      36.652  24.253  24.650  1.00  0.00     0.163 HD
BRANCH   3   6
ATOM      6  C   UNL A   1      33.891  22.435  23.966  1.00  0.00     0.063 A 
ATOM      7  C   UNL A   1      32.976  18.873  24.985  1.00  0.00     0.044 C 
ATOM      8  C   UNL A   1      32.934  20.198  24.287  1.00  0.00    -0.050 A 
ATOM      9  C   UNL A   1      32.026  20.451  23.267  1.00  0.00     0.005 A 
ATOM     10  C   UNL A   1      33.857  21.194  24.615  1.00  0.00     0.019 A 
ATOM     11  C   UNL A   1      32.115  21.638  22.533  1.00  0.00     0.027 A 
ATOM     12  C   UNL A   1      33.109  22.589  22.802  1.00  0.00     0.054 A 
BRANCH  12  13
ATOM     13  N   UNL A   1      33.403  23.640  21.900  1.00  0.00    -0.325 N 
ATOM     14  C   UNL A   1      32.885  24.902  21.777  1.00  0.00     0.227 C 
ATOM     15  H   UNL A   1      34.104  23.425  21.244  1.00  0.00     0.169 HD
ATOM     16  O   UNL A   1      33.278  25.605  20.839  1.00  0.00    -0.275 OA
BRANCH  14  17
ATOM     17  C   UNL A   1      31.842  25.464  22.722  1.00  0.00     0.138 C 
BRANCH  17  18
ATOM     18  C   UNL A   1      31.512  26.961  22.580  1.00  0.00     0.182 C 
ATOM     19  C   UNL A   1      32.365  27.759  23.602  1.00  0.00     0.293 C 
ATOM     20  O   UNL A   1      30.117  27.218  22.777  1.00  0.00    -0.366 OA
ATOM     21  N   UNL A   1      32.048  29.198  23.655  1.00  0.00    -0.342 N 
ATOM     22  C   UNL A   1      29.802  28.610  22.785  1.00  0.00     0.222 C 
ATOM     23  C   UNL A   1      30.597  29.342  23.869  1.00  0.00     0.289 C 
ATOM     24  H   UNL A   1      32.314  29.642  22.776  1.00  0.00     0.346 HD
ATOM     25  H   UNL A   1      32.562  29.644  24.415  1.00  0.00     0.346 HD
ENDBRANCH  17  18
ENDBRANCH  14  17
ENDBRANCH  12  13
ENDBRANCH   3   6
ENDBRANCH   1   2
BRANCH   1  26
ATOM     26  C   UNL A   1      37.822  21.740  25.020  1.00  0.00     0.042 C 
BRANCH  26  27
ATOM     27  C   UNL A   1      38.336  22.728  26.051  1.00  0.00     0.118 C 
BRANCH  27  28
ATOM     28  N   UNL A   1      39.786  22.715  26.207  1.00  0.00    -0.352 N 
ATOM     29  C   UNL A   1      40.632  23.769  26.523  1.00  0.00     0.251 C 
ATOM     30  H   UNL A   1      40.223  21.845  26.069  1.00  0.00     0.163 HD
ATOM     31  O   UNL A   1      41.832  23.606  26.614  1.00  0.00    -0.269 OA
BRANCH  29  32
ATOM     32  C   UNL A   1      40.015  25.066  26.889  1.00  0.00     0.039 A 
ATOM     33  C   UNL A   1      40.457  26.204  26.207  1.00  0.00     0.014 A 
ATOM     34  C   UNL A   1      39.261  25.177  28.054  1.00  0.00     0.014 A 
ATOM     35  C   UNL A   1      40.373  27.439  26.838  1.00  0.00     0.010 A 
ATOM     36  C   UNL A   1      39.284  26.378  28.730  1.00  0.00     0.010 A 
ATOM     37  C   UNL A   1      39.905  27.489  28.150  1.00  0.00    -0.014 A 
BRANCH  37  38
ATOM     38  C   UNL A   1      40.115  28.635  29.027  1.00  0.00     0.031 A 
ATOM     39  C   UNL A   1      39.064  29.661  29.158  1.00  0.00     0.074 A 
ATOM     40  C   UNL A   1      41.234  28.691  29.782  1.00  0.00     0.049 A 
ATOM     41  N   UNL A   1      39.259  30.854  29.604  1.00  0.00    -0.248 NA
ATOM     42  C   UNL A   1      37.690  29.425  28.733  1.00  0.00     0.031 C 
ATOM     43  C   UNL A   1      41.497  29.570  30.920  1.00  0.00     0.029 A 
ATOM     44  N   UNL A   1      42.473  28.074  29.527  1.00  0.00    -0.354 N 
ATOM     45  C   UNL A   1      38.029  31.450  29.771  1.00  0.00     0.074 A 
ATOM     46  C   UNL A   1      37.090  30.539  29.161  1.00  0.00     0.031 C 
ATOM     47  C   UNL A   1      42.825  29.681  31.084  1.00  0.00     0.029 A 
ATOM     48  C   UNL A   1      43.446  29.005  29.958  1.00  0.00     0.049 A 
ATOM     49  H   UNL A   1      42.628  27.185  29.133  1.00  0.00     0.167 HD
ATOM     50  C   UNL A   1      37.943  32.590  30.517  1.00  0.00     0.037 A 
ATOM     51  C   UNL A   1      44.317  29.590  29.084  1.00  0.00     0.037 A 
ATOM     52  C   UNL A   1      39.270  33.054  30.915  1.00  0.00     0.049 A 
ATOM     53  C   UNL A   1      44.256  31.100  29.084  1.00  0.00     0.074 A 
ATOM     54  C   UNL A   1      40.015  32.883  32.070  1.00  0.00     0.029 A 
ATOM     55  N   UNL A   1      40.147  33.527  29.944  1.00  0.00    -0.354 N 
ATOM     56  N   UNL A   1      43.218  31.782  29.479  1.00  0.00    -0.248 NA
ATOM     57  C   UNL A   1      45.341  31.951  28.606  1.00  0.00     0.031 C 
ATOM     58  C   UNL A   1      41.362  33.206  31.775  1.00  0.00     0.029 A 
ATOM     59  C   UNL A   1      41.431  33.597  30.449  1.00  0.00     0.049 A 
ATOM     60  H   UNL A   1      39.890  33.775  29.028  1.00  0.00     0.167 HD
ATOM     61  C   UNL A   1      43.466  33.120  29.314  1.00  0.00     0.074 A 
ATOM     62  C   UNL A   1      44.812  33.176  28.777  1.00  0.00     0.031 C 
ATOM     63  C   UNL A   1      42.533  34.067  29.626  1.00  0.00     0.037 A 
BRANCH  50  64
ATOM     64  C   UNL A   1      36.659  33.109  31.133  1.00  0.00     0.064 A 
ATOM     65  C   UNL A   1      35.725  33.829  30.354  1.00  0.00     0.173 A 
ATOM     66  C   UNL A   1      36.319  32.996  32.493  1.00  0.00     0.173 A 
ATOM     67  F   UNL A   1      35.843  33.920  29.023  1.00  0.00    -0.203 F 
ATOM     68  C   UNL A   1      34.626  34.488  30.913  1.00  0.00     0.198 A 
ATOM     69  C   UNL A   1      35.255  33.703  33.064  1.00  0.00     0.198 A 
ATOM     70  F   UNL A   1      36.962  32.148  33.304  1.00  0.00    -0.203 F 
ATOM     71  F   UNL A   1      33.783  35.164  30.122  1.00  0.00    -0.200 F 
ATOM     72  C   UNL A   1      34.415  34.462  32.276  1.00  0.00     0.200 A 
ATOM     73  F   UNL A   1      35.048  33.637  34.387  1.00  0.00    -0.200 F 
ATOM     74  F   UNL A   1      33.393  35.134  32.820  1.00  0.00    -0.200 F 
ENDBRANCH  50  64
BRANCH  51  75
ATOM     75  C   UNL A   1      44.601  28.755  27.885  1.00  0.00     0.064 A 
ATOM     76  C   UNL A   1      45.419  27.618  28.036  1.00  0.00     0.173 A 
ATOM     77  C   UNL A   1      43.808  28.834  26.734  1.00  0.00     0.173 A 
ATOM     78  F   UNL A   1      46.199  27.493  29.122  1.00  0.00    -0.203 F 
ATOM     79  C   UNL A   1      45.347  26.551  27.145  1.00  0.00     0.198 A 
ATOM     80  C   UNL A   1      43.755  27.769  25.831  1.00  0.00     0.198 A 
ATOM     81  F   UNL A   1      42.996  29.881  26.537  1.00  0.00    -0.203 F 
ATOM     82  F   UNL A   1      46.044  25.430  27.387  1.00  0.00    -0.200 F 
ATOM     83  C   UNL A   1      44.495  26.616  26.056  1.00  0.00     0.200 A 
ATOM     84  F   UNL A   1      42.905  27.816  24.795  1.00  0.00    -0.200 F 
ATOM     85  F   UNL A   1      44.348  25.553  25.254  1.00  0.00    -0.200 F 
ENDBRANCH  51  75
BRANCH  63  86
ATOM     86  C   UNL A   1      42.596  35.532  29.271  1.00  0.00     0.064 A 
ATOM     87  C   UNL A   1      43.399  36.467  29.945  1.00  0.00     0.173 A 
ATOM     88  C   UNL A   1      41.950  36.013  28.105  1.00  0.00     0.173 A 
ATOM     89  F   UNL A   1      44.153  36.111  30.994  1.00  0.00    -0.203 F 
ATOM     90  C   UNL A   1      43.504  37.795  29.518  1.00  0.00     0.198 A 
ATOM     91  C   UNL A   1      42.104  37.321  27.651  1.00  0.00     0.198 A 
ATOM     92  F   UNL A   1      41.173  35.218  27.356  1.00  0.00    -0.203 F 
ATOM     93  F   UNL A   1      44.255  38.657  30.218  1.00  0.00    -0.200 F 
ATOM     94  C   UNL A   1      42.869  38.217  28.366  1.00  0.00     0.200 A 
ATOM     95  F   UNL A   1      41.524  37.700  26.502  1.00  0.00    -0.200 F 
ATOM     96  F   UNL A   1      43.015  39.477  27.934  1.00  0.00    -0.200 F 
ENDBRANCH  63  86
ENDBRANCH  37  38
ENDBRANCH  29  32
ENDBRANCH  27  28
ENDBRANCH  26  27
ENDBRANCH   1  26
TORSDOF 13
ENDMDL
MODEL 3
REMARK VINA RESULT:     -13.4      1.525      3.414
REMARK SMILES Cc1ccc(NC(=O)C[C@@H]2C[NH2+]CCO2)c(C(=O)NCCCNC(=O)c2ccc(-c3c4nc(c(-c5c(F)c(F)c(F)c(F)c5F)c5ccc([nH]5)c(-c5c(F)c(F)c(F)c(F)c5F)c5nc(c(-c6c(F)c(F)c(F)c(F)c6F)c6ccc3[nH]6)C=C5)C=C4)cc2)c1
REMARK SMILES IDX 20 1 19 2 17 3 18 4 16 6 1 7 2 8 3 9 89 10 4 11 5 12 6 13
REMARK SMILES IDX 7 14 8 16 9 17 10 18 11 19 15 20 12 21 14 22 13 23 21 26
REMARK SMILES IDX 22 27 23 28 24 29 25 31 26 32 27 33 88 34 28 35 87 36 29 37
REMARK SMILES IDX 30 38 31 39 81 40 32 41 86 42 80 43 82 44 33 45 85 46 79 47
REMARK SMILES IDX 78 48 34 50 66 51 46 52 65 53 47 54 50 55 64 56 83 57 48 58
REMARK SMILES IDX 49 59 63 61 84 62 51 63 35 64 36 65 44 66 37 67 38 68 42 69
REMARK SMILES IDX 45 70 39 71 40 72 43 73 41 74 67 75 68 76 76 77 69 78 70 79
REMARK SMILES IDX 74 80 77 81 71 82 72 83 75 84 73 85 52 86 53 87 61 88 54 89
REMARK SMILES IDX 55 90 59 91 62 92 56 93 57 94 60 95 58 96
REMARK H PARENT 19 5 6 15 12 24 12 25 23 30 82 49 50 60
REMARK Flexibility Score: inf
ROOT
ATOM      1  C   UNL A   1      33.198  29.172  25.596  1.00  0.00     0.118 C 
ENDROOT
BRANCH   1   2
ATOM      2  N   UNL A   1      32.112  28.687  26.438  1.00  0.00    -0.352 N 
ATOM      3  C   UNL A   1      31.581  27.426  26.610  1.00  0.00     0.253 C 
ATOM      4  O   UNL A   1      30.730  27.299  27.491  1.00  0.00    -0.269 OA
ATOM      5  H   UNL A   1      31.680  29.385  26.982  1.00  0.00     0.163 HD
BRANCH   3   6
ATOM      6  C   UNL A   1      32.052  26.231  25.838  1.00  0.00     0.063 A 
ATOM      7  C   UNL A   1      35.347  24.450  25.105  1.00  0.00     0.044 C 
ATOM      8  C   UNL A   1      33.876  24.728  25.177  1.00  0.00    -0.050 A 
ATOM      9  C   UNL A   1      32.948  23.870  24.603  1.00  0.00     0.005 A 
ATOM     10  C   UNL A   1      33.412  25.899  25.780  1.00  0.00     0.019 A 
ATOM     11  C   UNL A   1      31.600  24.235  24.552  1.00  0.00     0.027 A 
ATOM     12  C   UNL A   1      31.155  25.459  25.069  1.00  0.00     0.054 A 
BRANCH  12  13
ATOM     13  N   UNL A   1      29.871  25.977  24.770  1.00  0.00    -0.325 N 
ATOM     14  C   UNL A   1      29.449  26.848  23.802  1.00  0.00     0.227 C 
ATOM     15  H   UNL A   1      29.157  25.654  25.365  1.00  0.00     0.169 HD
ATOM     16  O   UNL A   1      28.262  27.196  23.808  1.00  0.00    -0.275 OA
BRANCH  14  17
ATOM     17  C   UNL A   1      30.368  27.417  22.741  1.00  0.00     0.138 C 
BRANCH  17  18
ATOM     18  C   UNL A   1      30.272  28.931  22.479  1.00  0.00     0.182 C 
ATOM     19  C   UNL A   1      30.074  29.660  23.836  1.00  0.00     0.293 C 
ATOM     20  O   UNL A   1      29.207  29.247  21.576  1.00  0.00    -0.366 OA
ATOM     21  N   UNL A   1      29.839  31.110  23.709  1.00  0.00    -0.342 N 
ATOM     22  C   UNL A   1      29.007  30.652  21.419  1.00  0.00     0.222 C 
ATOM     23  C   UNL A   1      28.723  31.316  22.770  1.00  0.00     0.289 C 
ATOM     24  H   UNL A   1      30.680  31.566  23.354  1.00  0.00     0.346 HD
ATOM     25  H   UNL A   1      29.611  31.510  24.620  1.00  0.00     0.346 HD
ENDBRANCH  17  18
ENDBRANCH  14  17
ENDBRANCH  12  13
ENDBRANCH   3   6
ENDBRANCH   1   2
BRANCH   1  26
ATOM     26  C   UNL A   1      34.140  30.090  26.380  1.00  0.00     0.042 C 
BRANCH  26  27
ATOM     27  C   UNL A   1      34.000  29.979  27.886  1.00  0.00     0.118 C 
BRANCH  27  28
ATOM     28  N   UNL A   1      34.655  31.056  28.619  1.00  0.00    -0.352 N 
ATOM     29  C   UNL A   1      35.930  31.081  29.168  1.00  0.00     0.251 C 
ATOM     30  H   UNL A   1      34.123  31.875  28.740  1.00  0.00     0.163 HD
ATOM     31  O   UNL A   1      36.340  32.058  29.761  1.00  0.00    -0.269 OA
BRANCH  29  32
ATOM     32  C   UNL A   1      36.827  29.936  28.884  1.00  0.00     0.039 A 
ATOM     33  C   UNL A   1      37.003  28.990  29.899  1.00  0.00     0.014 A 
ATOM     34  C   UNL A   1      37.675  29.970  27.782  1.00  0.00     0.014 A 
ATOM     35  C   UNL A   1      38.186  28.261  29.939  1.00  0.00     0.010 A 
ATOM     36  C   UNL A   1      38.896  29.338  27.882  1.00  0.00     0.010 A 
ATOM     37  C   UNL A   1      39.175  28.541  28.998  1.00  0.00    -0.014 A 
BRANCH  37  38
ATOM     38  C   UNL A   1      40.564  28.126  29.156  1.00  0.00     0.031 A 
ATOM     39  C   UNL A   1      40.998  26.811  28.647  1.00  0.00     0.074 A 
ATOM     40  C   UNL A   1      41.457  28.992  29.682  1.00  0.00     0.049 A 
ATOM     41  N   UNL A   1      42.068  26.199  29.024  1.00  0.00    -0.248 NA
ATOM     42  C   UNL A   1      40.208  26.047  27.690  1.00  0.00     0.031 C 
ATOM     43  C   UNL A   1      42.914  28.897  29.653  1.00  0.00     0.029 A 
ATOM     44  N   UNL A   1      41.197  30.068  30.552  1.00  0.00    -0.354 N 
ATOM     45  C   UNL A   1      42.248  25.113  28.198  1.00  0.00     0.074 A 
ATOM     46  C   UNL A   1      41.033  25.032  27.422  1.00  0.00     0.031 C 
ATOM     47  C   UNL A   1      43.417  29.634  30.656  1.00  0.00     0.029 A 
ATOM     48  C   UNL A   1      42.290  30.090  31.450  1.00  0.00     0.049 A 
ATOM     49  H   UNL A   1      40.422  30.674  30.537  1.00  0.00     0.167 HD
ATOM     50  C   UNL A   1      43.460  24.485  28.185  1.00  0.00     0.037 A 
ATOM     51  C   UNL A   1      42.128  29.847  32.783  1.00  0.00     0.037 A 
ATOM     52  C   UNL A   1      44.347  25.044  29.203  1.00  0.00     0.049 A 
ATOM     53  C   UNL A   1      42.961  28.697  33.297  1.00  0.00     0.074 A 
ATOM     54  C   UNL A   1      45.342  26.006  29.154  1.00  0.00     0.029 A 
ATOM     55  N   UNL A   1      44.047  24.853  30.548  1.00  0.00    -0.354 N 
ATOM     56  N   UNL A   1      43.416  27.738  32.541  1.00  0.00    -0.248 NA
ATOM     57  C   UNL A   1      43.314  28.521  34.703  1.00  0.00     0.031 C 
ATOM     58  C   UNL A   1      45.604  26.435  30.478  1.00  0.00     0.029 A 
ATOM     59  C   UNL A   1      44.787  25.715  31.333  1.00  0.00     0.049 A 
ATOM     60  H   UNL A   1      43.399  24.197  30.892  1.00  0.00     0.167 HD
ATOM     61  C   UNL A   1      44.094  26.833  33.315  1.00  0.00     0.074 A 
ATOM     62  C   UNL A   1      44.013  27.373  34.659  1.00  0.00     0.031 C 
ATOM     63  C   UNL A   1      44.656  25.709  32.781  1.00  0.00     0.037 A 
BRANCH  50  64
ATOM     64  C   UNL A   1      43.941  23.584  27.065  1.00  0.00     0.064 A 
ATOM     65  C   UNL A   1      44.883  24.048  26.120  1.00  0.00     0.173 A 
ATOM     66  C   UNL A   1      43.464  22.283  26.821  1.00  0.00     0.173 A 
ATOM     67  F   UNL A   1      45.520  25.215  26.279  1.00  0.00    -0.203 F 
ATOM     68  C   UNL A   1      45.212  23.328  24.967  1.00  0.00     0.198 A 
ATOM     69  C   UNL A   1      43.745  21.588  25.640  1.00  0.00     0.198 A 
ATOM     70  F   UNL A   1      42.764  21.613  27.744  1.00  0.00    -0.203 F 
ATOM     71  F   UNL A   1      46.105  23.828  24.103  1.00  0.00    -0.200 F 
ATOM     72  C   UNL A   1      44.609  22.116  24.705  1.00  0.00     0.200 A 
ATOM     73  F   UNL A   1      43.173  20.395  25.420  1.00  0.00    -0.200 F 
ATOM     74  F   UNL A   1      44.883  21.449  23.577  1.00  0.00    -0.200 F 
ENDBRANCH  50  64
BRANCH  51  75
ATOM     75  C   UNL A   1      40.774  30.203  33.288  1.00  0.00     0.064 A 
ATOM     76  C   UNL A   1      40.456  31.565  33.461  1.00  0.00     0.173 A 
ATOM     77  C   UNL A   1      39.712  29.292  33.239  1.00  0.00     0.173 A 
ATOM     78  F   UNL A   1      41.437  32.480  33.514  1.00  0.00    -0.203 F 
ATOM     79  C   UNL A   1      39.136  32.008  33.449  1.00  0.00     0.198 A 
ATOM     80  C   UNL A   1      38.389  29.739  33.250  1.00  0.00     0.198 A 
ATOM     81  F   UNL A   1      39.944  27.985  33.062  1.00  0.00    -0.203 F 
ATOM     82  F   UNL A   1      38.872  33.322  33.486  1.00  0.00    -0.200 F 
ATOM     83  C   UNL A   1      38.103  31.096  33.318  1.00  0.00     0.200 A 
ATOM     84  F   UNL A   1      37.388  28.861  33.088  1.00  0.00    -0.200 F 
ATOM     85  F   UNL A   1      36.838  31.525  33.205  1.00  0.00    -0.200 F 
ENDBRANCH  51  75
BRANCH  63  86
ATOM     86  C   UNL A   1      45.212  24.537  33.551  1.00  0.00     0.064 A 
ATOM     87  C   UNL A   1      44.497  23.354  33.801  1.00  0.00     0.173 A 
ATOM     88  C   UNL A   1      46.577  24.515  33.930  1.00  0.00     0.173 A 
ATOM     89  F   UNL A   1      43.231  23.204  33.387  1.00  0.00    -0.203 F 
ATOM     90  C   UNL A   1      45.086  22.254  34.431  1.00  0.00     0.198 A 
ATOM     91  C   UNL A   1      47.175  23.395  34.505  1.00  0.00     0.198 A 
ATOM     92  F   UNL A   1      47.379  25.570  33.726  1.00  0.00    -0.203 F 
ATOM     93  F   UNL A   1      44.350  21.161  34.680  1.00  0.00    -0.200 F 
ATOM     94  C   UNL A   1      46.426  22.269  34.770  1.00  0.00     0.200 A 
ATOM     95  F   UNL A   1      48.488  23.408  34.778  1.00  0.00    -0.200 F 
ATOM     96  F   UNL A   1      46.998  21.193  35.327  1.00  0.00    -0.200 F 
ENDBRANCH  63  86
ENDBRANCH  37  38
ENDBRANCH  29  32
ENDBRANCH  27  28
ENDBRANCH  26  27
ENDBRANCH   1  26
TORSDOF 13
ENDMDL
