MODEL 1
REMARK VINA RESULT:     -13.4      0.000      0.000
REMARK SMILES Cc1cc(C)n2nc(SCC(=O)N3CCC(C(=O)NCCCNC(=O)c4ccc(-c5c6nc(c(-c7c(F)c(F)c(F)c(F)c7F)c7ccc([nH]7)c(-c7c(F)c(F)c(F)c(F)c7F)c7nc(c(-c8c(F)c(F)c(F)c(F)c8F)c8ccc5[nH]8)C=C7)C=C6)cc4)CC3)nc2n1
REMARK SMILES IDX 20 1 19 2 17 3 18 4 16 6 11 7 12 8 13 9 14 10 90 11 15 12
REMARK SMILES IDX 89 13 10 14 9 15 8 16 1 17 2 18 3 19 93 20 4 21 92 22 5 23
REMARK SMILES IDX 6 24 91 25 7 26 21 27 22 28 23 29 24 30 25 32 26 33 27 34
REMARK SMILES IDX 88 35 28 36 87 37 29 38 30 39 31 40 81 41 32 42 86 43 80 44
REMARK SMILES IDX 82 45 33 46 85 47 79 48 78 49 34 51 66 52 46 53 65 54 47 55
REMARK SMILES IDX 50 56 64 57 83 58 48 59 49 60 63 62 84 63 51 64 35 65 36 66
REMARK SMILES IDX 44 67 37 68 38 69 42 70 45 71 39 72 40 73 43 74 41 75 67 76
REMARK SMILES IDX 68 77 76 78 69 79 70 80 74 81 77 82 71 83 72 84 75 85 73 86
REMARK SMILES IDX 52 87 53 88 61 89 54 90 55 91 59 92 62 93 56 94 57 95 60 96
REMARK SMILES IDX 58 97
REMARK H PARENT 19 5 23 31 82 50 50 61
REMARK Flexibility Score: inf
ROOT
ATOM      1  C   UNL A   1      32.429  30.430  26.054  1.00  0.00     0.117 C 
ENDROOT
BRANCH   1   2
ATOM      2  N   UNL A   1      32.697  29.732  24.797  1.00  0.00    -0.356 N 
ATOM      3  C   UNL A   1      32.253  28.525  24.339  1.00  0.00     0.223 C 
ATOM      4  O   UNL A   1      32.584  28.179  23.203  1.00  0.00    -0.275 OA
ATOM      5  H   UNL A   1      33.295  30.211  24.180  1.00  0.00     0.163 HD
BRANCH   3   6
ATOM      6  C   UNL A   1      31.388  27.616  25.205  1.00  0.00     0.082 C 
ATOM      7  C   UNL A   1      31.061  23.739  24.695  1.00  0.00     0.233 C 
ATOM      8  O   UNL A   1      30.886  23.739  23.472  1.00  0.00    -0.274 OA
ATOM      9  N   UNL A   1      30.701  24.848  25.457  1.00  0.00    -0.342 N 
ATOM     10  C   UNL A   1      29.673  25.740  24.949  1.00  0.00     0.120 C 
ATOM     11  C   UNL A   1      31.489  25.422  26.538  1.00  0.00     0.120 C 
ATOM     12  C   UNL A   1      30.274  26.994  24.349  1.00  0.00     0.035 C 
ATOM     13  C   UNL A   1      32.251  26.650  26.041  1.00  0.00     0.035 C 
BRANCH   7  14
ATOM     14  C   UNL A   1      31.378  22.437  25.420  1.00  0.00     0.178 C 
BRANCH  14  15
ATOM     15  S   UNL A   1      32.290  21.184  24.525  1.00  0.00    -0.074 SA
BRANCH  15  16
ATOM     16  C   UNL A   1      33.955  21.570  24.808  1.00  0.00     0.211 A 
ATOM     17  C   UNL A   1      38.671  24.386  26.482  1.00  0.00     0.067 C 
ATOM     18  C   UNL A   1      37.699  23.351  25.975  1.00  0.00     0.043 A 
ATOM     19  C   UNL A   1      38.250  21.995  25.652  1.00  0.00     0.047 A 
ATOM     20  N   UNL A   1      36.457  23.704  25.835  1.00  0.00    -0.216 NA
ATOM     21  C   UNL A   1      37.366  21.074  25.224  1.00  0.00     0.045 A 
ATOM     22  C   UNL A   1      35.596  22.742  25.398  1.00  0.00     0.253 A 
ATOM     23  C   UNL A   1      37.756  19.671  24.878  1.00  0.00     0.067 C 
ATOM     24  N   UNL A   1      36.021  21.441  25.100  1.00  0.00    -0.200 N 
ATOM     25  N   UNL A   1      34.302  22.824  25.199  1.00  0.00    -0.183 NA
ATOM     26  N   UNL A   1      34.957  20.699  24.702  1.00  0.00    -0.138 NA
ENDBRANCH  15  16
ENDBRANCH  14  15
ENDBRANCH   7  14
ENDBRANCH   3   6
ENDBRANCH   1   2
BRANCH   1  27
ATOM     27  C   UNL A   1      33.297  29.961  27.222  1.00  0.00     0.042 C 
BRANCH  27  28
ATOM     28  C   UNL A   1      34.448  30.898  27.496  1.00  0.00     0.118 C 
BRANCH  28  29
ATOM     29  N   UNL A   1      34.285  31.716  28.703  1.00  0.00    -0.352 N 
ATOM     30  C   UNL A   1      35.132  31.777  29.808  1.00  0.00     0.251 C 
ATOM     31  H   UNL A   1      33.485  32.290  28.736  1.00  0.00     0.163 HD
ATOM     32  O   UNL A   1      34.785  32.266  30.859  1.00  0.00    -0.269 OA
BRANCH  30  33
ATOM     33  C   UNL A   1      36.487  31.215  29.626  1.00  0.00     0.039 A 
ATOM     34  C   UNL A   1      37.636  31.999  29.501  1.00  0.00     0.014 A 
ATOM     35  C   UNL A   1      36.576  29.838  29.737  1.00  0.00     0.014 A 
ATOM     36  C   UNL A   1      38.879  31.365  29.573  1.00  0.00     0.010 A 
ATOM     37  C   UNL A   1      37.759  29.294  30.130  1.00  0.00     0.010 A 
ATOM     38  C   UNL A   1      38.927  30.002  29.902  1.00  0.00    -0.014 A 
BRANCH  38  39
ATOM     39  C   UNL A   1      40.164  29.240  29.987  1.00  0.00     0.031 A 
ATOM     40  C   UNL A   1      40.716  28.999  31.346  1.00  0.00     0.074 A 
ATOM     41  C   UNL A   1      40.659  28.599  28.902  1.00  0.00     0.049 A 
ATOM     42  N   UNL A   1      41.851  29.400  31.818  1.00  0.00    -0.248 NA
ATOM     43  C   UNL A   1      39.883  28.287  32.327  1.00  0.00     0.031 C 
ATOM     44  C   UNL A   1      40.087  28.456  27.550  1.00  0.00     0.029 A 
ATOM     45  N   UNL A   1      41.765  27.820  28.824  1.00  0.00    -0.354 N 
ATOM     46  C   UNL A   1      41.951  28.876  33.104  1.00  0.00     0.074 A 
ATOM     47  C   UNL A   1      40.663  28.304  33.410  1.00  0.00     0.031 C 
ATOM     48  C   UNL A   1      40.700  27.447  26.896  1.00  0.00     0.029 A 
ATOM     49  C   UNL A   1      41.837  27.028  27.688  1.00  0.00     0.049 A 
ATOM     50  H   UNL A   1      42.463  27.816  29.519  1.00  0.00     0.167 HD
ATOM     51  C   UNL A   1      43.146  28.800  33.754  1.00  0.00     0.037 A 
ATOM     52  C   UNL A   1      42.761  26.076  27.433  1.00  0.00     0.037 A 
ATOM     53  C   UNL A   1      44.152  29.602  33.107  1.00  0.00     0.049 A 
ATOM     54  C   UNL A   1      43.928  26.366  28.306  1.00  0.00     0.074 A 
ATOM     55  C   UNL A   1      44.284  30.955  32.856  1.00  0.00     0.029 A 
ATOM     56  N   UNL A   1      45.032  28.983  32.253  1.00  0.00    -0.354 N 
ATOM     57  N   UNL A   1      44.676  27.429  28.178  1.00  0.00    -0.248 NA
ATOM     58  C   UNL A   1      43.955  25.737  29.619  1.00  0.00     0.031 C 
ATOM     59  C   UNL A   1      44.821  31.029  31.536  1.00  0.00     0.029 A 
ATOM     60  C   UNL A   1      45.047  29.724  31.096  1.00  0.00     0.049 A 
ATOM     61  H   UNL A   1      45.551  28.168  32.435  1.00  0.00     0.167 HD
ATOM     62  C   UNL A   1      44.937  27.840  29.479  1.00  0.00     0.074 A 
ATOM     63  C   UNL A   1      44.528  26.717  30.322  1.00  0.00     0.031 C 
ATOM     64  C   UNL A   1      45.183  29.150  29.776  1.00  0.00     0.037 A 
BRANCH  51  65
ATOM     65  C   UNL A   1      43.497  27.783  34.806  1.00  0.00     0.064 A 
ATOM     66  C   UNL A   1      43.849  28.207  36.102  1.00  0.00     0.173 A 
ATOM     67  C   UNL A   1      43.763  26.431  34.510  1.00  0.00     0.173 A 
ATOM     68  F   UNL A   1      43.660  29.481  36.478  1.00  0.00    -0.203 F 
ATOM     69  C   UNL A   1      44.474  27.352  37.014  1.00  0.00     0.198 A 
ATOM     70  C   UNL A   1      44.339  25.566  35.439  1.00  0.00     0.198 A 
ATOM     71  F   UNL A   1      43.580  25.930  33.282  1.00  0.00    -0.203 F 
ATOM     72  F   UNL A   1      44.890  27.826  38.195  1.00  0.00    -0.200 F 
ATOM     73  C   UNL A   1      44.720  26.033  36.680  1.00  0.00     0.200 A 
ATOM     74  F   UNL A   1      44.588  24.295  35.091  1.00  0.00    -0.200 F 
ATOM     75  F   UNL A   1      45.366  25.224  37.532  1.00  0.00    -0.200 F 
ENDBRANCH  51  65
BRANCH  52  76
ATOM     76  C   UNL A   1      42.529  24.770  26.779  1.00  0.00     0.064 A 
ATOM     77  C   UNL A   1      43.125  24.462  25.549  1.00  0.00     0.173 A 
ATOM     78  C   UNL A   1      41.937  23.698  27.480  1.00  0.00     0.173 A 
ATOM     79  F   UNL A   1      43.743  25.420  24.844  1.00  0.00    -0.203 F 
ATOM     80  C   UNL A   1      43.153  23.152  25.059  1.00  0.00     0.198 A 
ATOM     81  C   UNL A   1      41.961  22.393  26.987  1.00  0.00     0.198 A 
ATOM     82  F   UNL A   1      41.407  23.881  28.698  1.00  0.00    -0.203 F 
ATOM     83  F   UNL A   1      43.786  22.884  23.908  1.00  0.00    -0.200 F 
ATOM     84  C   UNL A   1      42.582  22.117  25.784  1.00  0.00     0.200 A 
ATOM     85  F   UNL A   1      41.439  21.396  27.717  1.00  0.00    -0.200 F 
ATOM     86  F   UNL A   1      42.668  20.854  25.346  1.00  0.00    -0.200 F 
ENDBRANCH  52  76
BRANCH  64  87
ATOM     87  C   UNL A   1      45.361  30.118  28.635  1.00  0.00     0.064 A 
ATOM     88  C   UNL A   1      44.305  30.824  28.033  1.00  0.00     0.173 A 
ATOM     89  C   UNL A   1      46.662  30.473  28.254  1.00  0.00     0.173 A 
ATOM     90  F   UNL A   1      43.039  30.628  28.414  1.00  0.00    -0.203 F 
ATOM     91  C   UNL A   1      44.536  31.805  27.069  1.00  0.00     0.198 A 
ATOM     92  C   UNL A   1      46.893  31.478  27.317  1.00  0.00     0.198 A 
ATOM     93  F   UNL A   1      47.717  29.882  28.837  1.00  0.00    -0.203 F 
ATOM     94  F   UNL A   1      43.504  32.458  26.513  1.00  0.00    -0.200 F 
ATOM     95  C   UNL A   1      45.831  32.136  26.718  1.00  0.00     0.200 A 
ATOM     96  F   UNL A   1      48.151  31.831  27.018  1.00  0.00    -0.200 F 
ATOM     97  F   UNL A   1      46.058  33.110  25.825  1.00  0.00    -0.200 F 
ENDBRANCH  64  87
ENDBRANCH  38  39
ENDBRANCH  30  33
ENDBRANCH  28  29
ENDBRANCH  27  28
ENDBRANCH   1  27
TORSDOF 13
ENDMDL
MODEL 2
REMARK VINA RESULT:     -12.7      3.013      8.819
REMARK SMILES Cc1cc(C)n2nc(SCC(=O)N3CCC(C(=O)NCCCNC(=O)c4ccc(-c5c6nc(c(-c7c(F)c(F)c(F)c(F)c7F)c7ccc([nH]7)c(-c7c(F)c(F)c(F)c(F)c7F)c7nc(c(-c8c(F)c(F)c(F)c(F)c8F)c8ccc5[nH]8)C=C7)C=C6)cc4)CC3)nc2n1
REMARK SMILES IDX 20 1 19 2 17 3 18 4 16 6 11 7 12 8 13 9 14 10 90 11 15 12
REMARK SMILES IDX 89 13 10 14 9 15 8 16 1 17 2 18 3 19 93 20 4 21 92 22 5 23
REMARK SMILES IDX 6 24 91 25 7 26 21 27 22 28 23 29 24 30 25 32 26 33 27 34
REMARK SMILES IDX 88 35 28 36 87 37 29 38 30 39 31 40 81 41 32 42 86 43 80 44
REMARK SMILES IDX 82 45 33 46 85 47 79 48 78 49 34 51 66 52 46 53 65 54 47 55
REMARK SMILES IDX 50 56 64 57 83 58 48 59 49 60 63 62 84 63 51 64 35 65 36 66
REMARK SMILES IDX 44 67 37 68 38 69 42 70 45 71 39 72 40 73 43 74 41 75 67 76
REMARK SMILES IDX 68 77 76 78 69 79 70 80 74 81 77 82 71 83 72 84 75 85 73 86
REMARK SMILES IDX 52 87 53 88 61 89 54 90 55 91 59 92 62 93 56 94 57 95 60 96
REMARK SMILES IDX 58 97
REMARK H PARENT 19 5 23 31 82 50 50 61
REMARK Flexibility Score: inf
ROOT
ATOM      1  C   UNL A   1      39.657  19.757  25.725  1.00  0.00     0.117 C 
ENDROOT
BRANCH   1   2
ATOM      2  N   UNL A   1      39.479  21.162  26.085  1.00  0.00    -0.356 N 
ATOM      3  C   UNL A   1      38.503  22.052  25.738  1.00  0.00     0.223 C 
ATOM      4  O   UNL A   1      38.550  23.183  26.225  1.00  0.00    -0.275 OA
ATOM      5  H   UNL A   1      40.177  21.528  26.674  1.00  0.00     0.163 HD
BRANCH   3   6
ATOM      6  C   UNL A   1      37.394  21.674  24.763  1.00  0.00     0.082 C 
ATOM      7  C   UNL A   1      33.589  22.435  25.345  1.00  0.00     0.233 C 
ATOM      8  O   UNL A   1      33.511  22.046  26.516  1.00  0.00    -0.274 OA
ATOM      9  N   UNL A   1      34.554  21.906  24.491  1.00  0.00    -0.342 N 
ATOM     10  C   UNL A   1      35.085  20.583  24.771  1.00  0.00     0.120 C 
ATOM     11  C   UNL A   1      35.359  22.671  23.551  1.00  0.00     0.120 C 
ATOM     12  C   UNL A   1      36.448  20.660  25.424  1.00  0.00     0.035 C 
ATOM     13  C   UNL A   1      36.750  22.925  24.133  1.00  0.00     0.035 C 
BRANCH   7  14
ATOM     14  C   UNL A   1      32.458  23.255  24.738  1.00  0.00     0.178 C 
BRANCH  14  15
ATOM     15  S   UNL A   1      31.134  23.782  25.821  1.00  0.00    -0.074 SA
BRANCH  15  16
ATOM     16  C   UNL A   1      31.162  25.512  25.736  1.00  0.00     0.211 A 
ATOM     17  C   UNL A   1      32.316  30.996  26.990  1.00  0.00     0.067 C 
ATOM     18  C   UNL A   1      31.861  29.721  26.325  1.00  0.00     0.043 A 
ATOM     19  C   UNL A   1      31.271  29.838  24.951  1.00  0.00     0.047 A 
ATOM     20  N   UNL A   1      31.993  28.612  26.987  1.00  0.00    -0.216 NA
ATOM     21  C   UNL A   1      30.892  28.689  24.361  1.00  0.00     0.045 A 
ATOM     22  C   UNL A   1      31.596  27.472  26.353  1.00  0.00     0.253 A 
ATOM     23  C   UNL A   1      30.302  28.637  22.987  1.00  0.00     0.067 C 
ATOM     24  N   UNL A   1      31.060  27.488  25.060  1.00  0.00    -0.200 N 
ATOM     25  N   UNL A   1      31.645  26.233  26.781  1.00  0.00    -0.183 NA
ATOM     26  N   UNL A   1      30.766  26.218  24.679  1.00  0.00    -0.138 NA
ENDBRANCH  15  16
ENDBRANCH  14  15
ENDBRANCH   7  14
ENDBRANCH   3   6
ENDBRANCH   1   2
BRANCH   1  27
ATOM     27  C   UNL A   1      41.053  19.210  26.025  1.00  0.00     0.042 C 
BRANCH  27  28
ATOM     28  C   UNL A   1      42.094  20.299  26.101  1.00  0.00     0.118 C 
BRANCH  28  29
ATOM     29  N   UNL A   1      43.363  19.967  25.443  1.00  0.00    -0.352 N 
ATOM     30  C   UNL A   1      44.301  20.851  24.913  1.00  0.00     0.251 C 
ATOM     31  H   UNL A   1      43.578  19.008  25.370  1.00  0.00     0.163 HD
ATOM     32  O   UNL A   1      45.174  20.486  24.159  1.00  0.00    -0.269 OA
BRANCH  30  33
ATOM     33  C   UNL A   1      44.176  22.264  25.326  1.00  0.00     0.039 A 
ATOM     34  C   UNL A   1      43.383  23.197  24.655  1.00  0.00     0.014 A 
ATOM     35  C   UNL A   1      44.787  22.585  26.527  1.00  0.00     0.014 A 
ATOM     36  C   UNL A   1      43.154  24.432  25.267  1.00  0.00     0.010 A 
ATOM     37  C   UNL A   1      44.297  23.632  27.244  1.00  0.00     0.010 A 
ATOM     38  C   UNL A   1      43.612  24.634  26.577  1.00  0.00    -0.014 A 
BRANCH  38  39
ATOM     39  C   UNL A   1      43.444  25.885  27.302  1.00  0.00     0.031 A 
ATOM     40  C   UNL A   1      44.376  26.992  26.960  1.00  0.00     0.074 A 
ATOM     41  C   UNL A   1      42.357  26.094  28.082  1.00  0.00     0.049 A 
ATOM     42  N   UNL A   1      45.234  27.567  27.736  1.00  0.00    -0.248 NA
ATOM     43  C   UNL A   1      44.411  27.476  25.571  1.00  0.00     0.031 C 
ATOM     44  C   UNL A   1      41.172  25.244  28.293  1.00  0.00     0.029 A 
ATOM     45  N   UNL A   1      42.033  27.209  28.781  1.00  0.00    -0.354 N 
ATOM     46  C   UNL A   1      45.823  28.585  26.988  1.00  0.00     0.074 A 
ATOM     47  C   UNL A   1      45.369  28.404  25.631  1.00  0.00     0.031 C 
ATOM     48  C   UNL A   1      40.174  25.973  28.834  1.00  0.00     0.029 A 
ATOM     49  C   UNL A   1      40.715  27.263  29.205  1.00  0.00     0.049 A 
ATOM     50  H   UNL A   1      42.683  27.924  28.973  1.00  0.00     0.167 HD
ATOM     51  C   UNL A   1      46.504  29.605  27.581  1.00  0.00     0.037 A 
ATOM     52  C   UNL A   1      40.108  28.313  29.802  1.00  0.00     0.037 A 
ATOM     53  C   UNL A   1      46.805  29.310  28.957  1.00  0.00     0.049 A 
ATOM     54  C   UNL A   1      41.186  29.170  30.361  1.00  0.00     0.074 A 
ATOM     55  C   UNL A   1      47.557  28.336  29.588  1.00  0.00     0.029 A 
ATOM     56  N   UNL A   1      45.985  29.826  29.931  1.00  0.00    -0.354 N 
ATOM     57  N   UNL A   1      41.971  28.795  31.336  1.00  0.00    -0.248 NA
ATOM     58  C   UNL A   1      41.707  30.230  29.511  1.00  0.00     0.031 C 
ATOM     59  C   UNL A   1      46.789  27.967  30.732  1.00  0.00     0.029 A 
ATOM     60  C   UNL A   1      45.658  28.785  30.766  1.00  0.00     0.049 A 
ATOM     61  H   UNL A   1      45.688  30.760  30.014  1.00  0.00     0.167 HD
ATOM     62  C   UNL A   1      43.228  29.264  30.980  1.00  0.00     0.074 A 
ATOM     63  C   UNL A   1      42.989  30.203  29.885  1.00  0.00     0.031 C 
ATOM     64  C   UNL A   1      44.368  28.639  31.401  1.00  0.00     0.037 A 
BRANCH  51  65
ATOM     65  C   UNL A   1      46.655  30.990  27.014  1.00  0.00     0.064 A 
ATOM     66  C   UNL A   1      47.933  31.576  26.924  1.00  0.00     0.173 A 
ATOM     67  C   UNL A   1      45.565  31.861  26.811  1.00  0.00     0.173 A 
ATOM     68  F   UNL A   1      49.037  30.841  27.126  1.00  0.00    -0.203 F 
ATOM     69  C   UNL A   1      48.102  32.946  26.705  1.00  0.00     0.198 A 
ATOM     70  C   UNL A   1      45.738  33.216  26.539  1.00  0.00     0.198 A 
ATOM     71  F   UNL A   1      44.301  31.455  26.978  1.00  0.00    -0.203 F 
ATOM     72  F   UNL A   1      49.330  33.480  26.737  1.00  0.00    -0.200 F 
ATOM     73  C   UNL A   1      47.004  33.765  26.514  1.00  0.00     0.200 A 
ATOM     74  F   UNL A   1      44.661  33.999  26.378  1.00  0.00    -0.200 F 
ATOM     75  F   UNL A   1      47.160  35.087  26.356  1.00  0.00    -0.200 F 
ENDBRANCH  51  65
BRANCH  52  76
ATOM     76  C   UNL A   1      38.721  28.776  29.581  1.00  0.00     0.064 A 
ATOM     77  C   UNL A   1      37.875  29.065  30.661  1.00  0.00     0.173 A 
ATOM     78  C   UNL A   1      38.289  29.204  28.308  1.00  0.00     0.173 A 
ATOM     79  F   UNL A   1      38.237  28.727  31.906  1.00  0.00    -0.203 F 
ATOM     80  C   UNL A   1      36.678  29.768  30.482  1.00  0.00     0.198 A 
ATOM     81  C   UNL A   1      37.092  29.900  28.131  1.00  0.00     0.198 A 
ATOM     82  F   UNL A   1      39.064  29.038  27.227  1.00  0.00    -0.203 F 
ATOM     83  F   UNL A   1      35.924  30.080  31.545  1.00  0.00    -0.200 F 
ATOM     84  C   UNL A   1      36.294  30.194  29.221  1.00  0.00     0.200 A 
ATOM     85  F   UNL A   1      36.753  30.340  26.911  1.00  0.00    -0.200 F 
ATOM     86  F   UNL A   1      35.182  30.923  29.061  1.00  0.00    -0.200 F 
ENDBRANCH  52  76
BRANCH  64  87
ATOM     87  C   UNL A   1      44.240  27.540  32.424  1.00  0.00     0.064 A 
ATOM     88  C   UNL A   1      44.164  26.174  32.101  1.00  0.00     0.173 A 
ATOM     89  C   UNL A   1      44.374  27.867  33.780  1.00  0.00     0.173 A 
ATOM     90  F   UNL A   1      44.143  25.765  30.830  1.00  0.00    -0.203 F 
ATOM     91  C   UNL A   1      44.179  25.188  33.088  1.00  0.00     0.198 A 
ATOM     92  C   UNL A   1      44.425  26.879  34.761  1.00  0.00     0.198 A 
ATOM     93  F   UNL A   1      44.516  29.149  34.150  1.00  0.00    -0.203 F 
ATOM     94  F   UNL A   1      44.102  23.892  32.745  1.00  0.00    -0.200 F 
ATOM     95  C   UNL A   1      44.317  25.541  34.417  1.00  0.00     0.200 A 
ATOM     96  F   UNL A   1      44.612  27.225  36.043  1.00  0.00    -0.200 F 
ATOM     97  F   UNL A   1      44.378  24.594  35.363  1.00  0.00    -0.200 F 
ENDBRANCH  64  87
ENDBRANCH  38  39
ENDBRANCH  30  33
ENDBRANCH  28  29
ENDBRANCH  27  28
ENDBRANCH   1  27
TORSDOF 13
ENDMDL
MODEL 3
REMARK VINA RESULT:     -12.6      1.169      2.115
REMARK SMILES Cc1cc(C)n2nc(SCC(=O)N3CCC(C(=O)NCCCNC(=O)c4ccc(-c5c6nc(c(-c7c(F)c(F)c(F)c(F)c7F)c7ccc([nH]7)c(-c7c(F)c(F)c(F)c(F)c7F)c7nc(c(-c8c(F)c(F)c(F)c(F)c8F)c8ccc5[nH]8)C=C7)C=C6)cc4)CC3)nc2n1
REMARK SMILES IDX 20 1 19 2 17 3 18 4 16 6 11 7 12 8 13 9 14 10 90 11 15 12
REMARK SMILES IDX 89 13 10 14 9 15 8 16 1 17 2 18 3 19 93 20 4 21 92 22 5 23
REMARK SMILES IDX 6 24 91 25 7 26 21 27 22 28 23 29 24 30 25 32 26 33 27 34
REMARK SMILES IDX 88 35 28 36 87 37 29 38 30 39 31 40 81 41 32 42 86 43 80 44
REMARK SMILES IDX 82 45 33 46 85 47 79 48 78 49 34 51 66 52 46 53 65 54 47 55
REMARK SMILES IDX 50 56 64 57 83 58 48 59 49 60 63 62 84 63 51 64 35 65 36 66
REMARK SMILES IDX 44 67 37 68 38 69 42 70 45 71 39 72 40 73 43 74 41 75 67 76
REMARK SMILES IDX 68 77 76 78 69 79 70 80 74 81 77 82 71 83 72 84 75 85 73 86
REMARK SMILES IDX 52 87 53 88 61 89 54 90 55 91 59 92 62 93 56 94 57 95 60 96
REMARK SMILES IDX 58 97
REMARK H PARENT 19 5 23 31 82 50 50 61
REMARK Flexibility Score: inf
ROOT
ATOM      1  C   UNL A   1      33.023  30.307  27.088  1.00  0.00     0.117 C 
ENDROOT
BRANCH   1   2
ATOM      2  N   UNL A   1      33.543  29.997  25.758  1.00  0.00    -0.356 N 
ATOM      3  C   UNL A   1      33.010  29.250  24.746  1.00  0.00     0.223 C 
ATOM      4  O   UNL A   1      33.631  29.185  23.684  1.00  0.00    -0.275 OA
ATOM      5  H   UNL A   1      34.423  30.391  25.557  1.00  0.00     0.163 HD
BRANCH   3   6
ATOM      6  C   UNL A   1      31.695  28.499  24.923  1.00  0.00     0.082 C 
ATOM      7  C   UNL A   1      31.036  24.861  23.607  1.00  0.00     0.233 C 
ATOM      8  O   UNL A   1      31.492  25.004  22.467  1.00  0.00    -0.274 OA
ATOM      9  N   UNL A   1      30.533  25.957  24.304  1.00  0.00    -0.342 N 
ATOM     10  C   UNL A   1      30.052  27.103  23.552  1.00  0.00     0.120 C 
ATOM     11  C   UNL A   1      30.763  26.239  25.713  1.00  0.00     0.120 C 
ATOM     12  C   UNL A   1      31.066  28.227  23.548  1.00  0.00     0.035 C 
ATOM     13  C   UNL A   1      31.860  27.292  25.868  1.00  0.00     0.035 C 
BRANCH   7  14
ATOM     14  C   UNL A   1      30.736  23.466  24.139  1.00  0.00     0.178 C 
BRANCH  14  15
ATOM     15  S   UNL A   1      31.381  23.031  25.750  1.00  0.00    -0.074 SA
BRANCH  15  16
ATOM     16  C   UNL A   1      32.409  21.668  25.455  1.00  0.00     0.211 A 
ATOM     17  C   UNL A   1      34.170  16.422  23.920  1.00  0.00     0.067 C 
ATOM     18  C   UNL A   1      34.105  17.865  24.354  1.00  0.00     0.043 A 
ATOM     19  C   UNL A   1      35.407  18.588  24.526  1.00  0.00     0.047 A 
ATOM     20  N   UNL A   1      32.932  18.381  24.565  1.00  0.00    -0.216 NA
ATOM     21  C   UNL A   1      35.332  19.881  24.890  1.00  0.00     0.045 A 
ATOM     22  C   UNL A   1      32.901  19.694  24.933  1.00  0.00     0.253 A 
ATOM     23  C   UNL A   1      36.540  20.742  25.086  1.00  0.00     0.067 C 
ATOM     24  N   UNL A   1      34.069  20.451  25.090  1.00  0.00    -0.200 N 
ATOM     25  N   UNL A   1      31.862  20.455  25.178  1.00  0.00    -0.183 NA
ATOM     26  N   UNL A   1      33.739  21.718  25.446  1.00  0.00    -0.138 NA
ENDBRANCH  15  16
ENDBRANCH  14  15
ENDBRANCH   7  14
ENDBRANCH   3   6
ENDBRANCH   1   2
BRANCH   1  27
ATOM     27  C   UNL A   1      33.332  31.727  27.561  1.00  0.00     0.042 C 
BRANCH  27  28
ATOM     28  C   UNL A   1      34.645  31.815  28.300  1.00  0.00     0.118 C 
BRANCH  28  29
ATOM     29  N   UNL A   1      34.526  32.280  29.687  1.00  0.00    -0.352 N 
ATOM     30  C   UNL A   1      35.354  31.962  30.762  1.00  0.00     0.251 C 
ATOM     31  H   UNL A   1      33.776  32.888  29.880  1.00  0.00     0.163 HD
ATOM     32  O   UNL A   1      35.027  32.170  31.909  1.00  0.00    -0.269 OA
BRANCH  30  33
ATOM     33  C   UNL A   1      36.661  31.359  30.427  1.00  0.00     0.039 A 
ATOM     34  C   UNL A   1      37.802  32.108  30.131  1.00  0.00     0.014 A 
ATOM     35  C   UNL A   1      36.731  29.984  30.570  1.00  0.00     0.014 A 
ATOM     36  C   UNL A   1      39.029  31.443  30.065  1.00  0.00     0.010 A 
ATOM     37  C   UNL A   1      37.943  29.420  30.827  1.00  0.00     0.010 A 
ATOM     38  C   UNL A   1      39.087  30.090  30.429  1.00  0.00    -0.014 A 
BRANCH  38  39
ATOM     39  C   UNL A   1      40.307  29.298  30.380  1.00  0.00     0.031 A 
ATOM     40  C   UNL A   1      40.968  28.995  31.677  1.00  0.00     0.074 A 
ATOM     41  C   UNL A   1      40.691  28.686  29.234  1.00  0.00     0.049 A 
ATOM     42  N   UNL A   1      42.149  29.353  32.062  1.00  0.00    -0.248 NA
ATOM     43  C   UNL A   1      40.204  28.266  32.701  1.00  0.00     0.031 C 
ATOM     44  C   UNL A   1      40.002  28.605  27.933  1.00  0.00     0.029 A 
ATOM     45  N   UNL A   1      41.767  27.886  29.034  1.00  0.00    -0.354 N 
ATOM     46  C   UNL A   1      42.345  28.779  33.316  1.00  0.00     0.074 A 
ATOM     47  C   UNL A   1      41.074  28.226  33.712  1.00  0.00     0.031 C 
ATOM     48  C   UNL A   1      40.531  27.608  27.194  1.00  0.00     0.029 A 
ATOM     49  C   UNL A   1      41.720  27.135  27.870  1.00  0.00     0.049 A 
ATOM     50  H   UNL A   1      42.521  27.841  29.666  1.00  0.00     0.167 HD
ATOM     51  C   UNL A   1      43.590  28.653  33.857  1.00  0.00     0.037 A 
ATOM     52  C   UNL A   1      42.595  26.172  27.503  1.00  0.00     0.037 A 
ATOM     53  C   UNL A   1      44.556  29.456  33.154  1.00  0.00     0.049 A 
ATOM     54  C   UNL A   1      43.839  26.404  28.281  1.00  0.00     0.074 A 
ATOM     55  C   UNL A   1      44.701  30.814  32.939  1.00  0.00     0.029 A 
ATOM     56  N   UNL A   1      45.344  28.849  32.205  1.00  0.00    -0.354 N 
ATOM     57  N   UNL A   1      44.601  27.454  28.126  1.00  0.00    -0.248 NA
ATOM     58  C   UNL A   1      43.963  25.726  29.563  1.00  0.00     0.031 C 
ATOM     59  C   UNL A   1      45.124  30.924  31.581  1.00  0.00     0.029 A 
ATOM     60  C   UNL A   1      45.279  29.632  31.078  1.00  0.00     0.049 A 
ATOM     61  H   UNL A   1      45.856  28.016  32.313  1.00  0.00     0.167 HD
ATOM     62  C   UNL A   1      44.982  27.811  29.412  1.00  0.00     0.074 A 
ATOM     63  C   UNL A   1      44.619  26.667  30.248  1.00  0.00     0.031 C 
ATOM     64  C   UNL A   1      45.286  29.104  29.732  1.00  0.00     0.037 A 
BRANCH  51  65
ATOM     65  C   UNL A   1      44.003  27.591  34.838  1.00  0.00     0.064 A 
ATOM     66  C   UNL A   1      43.938  26.232  34.471  1.00  0.00     0.173 A 
ATOM     67  C   UNL A   1      44.198  27.845  36.211  1.00  0.00     0.173 A 
ATOM     68  F   UNL A   1      43.730  25.880  33.193  1.00  0.00    -0.203 F 
ATOM     69  C   UNL A   1      44.006  25.207  35.419  1.00  0.00     0.198 A 
ATOM     70  C   UNL A   1      44.319  26.820  37.147  1.00  0.00     0.198 A 
ATOM     71  F   UNL A   1      44.167  29.088  36.707  1.00  0.00    -0.203 F 
ATOM     72  F   UNL A   1      43.830  23.935  35.039  1.00  0.00    -0.200 F 
ATOM     73  C   UNL A   1      44.195  25.502  36.756  1.00  0.00     0.200 A 
ATOM     74  F   UNL A   1      44.482  27.126  38.443  1.00  0.00    -0.200 F 
ATOM     75  F   UNL A   1      44.209  24.526  37.674  1.00  0.00    -0.200 F 
ENDBRANCH  51  65
BRANCH  52  76
ATOM     76  C   UNL A   1      42.274  24.896  26.826  1.00  0.00     0.064 A 
ATOM     77  C   UNL A   1      43.003  24.468  25.709  1.00  0.00     0.173 A 
ATOM     78  C   UNL A   1      41.424  23.945  27.428  1.00  0.00     0.173 A 
ATOM     79  F   UNL A   1      43.862  25.303  25.108  1.00  0.00    -0.203 F 
ATOM     80  C   UNL A   1      42.910  23.154  25.236  1.00  0.00     0.198 A 
ATOM     81  C   UNL A   1      41.329  22.637  26.953  1.00  0.00     0.198 A 
ATOM     82  F   UNL A   1      40.743  24.240  28.545  1.00  0.00    -0.203 F 
ATOM     83  F   UNL A   1      43.668  22.762  24.203  1.00  0.00    -0.200 F 
ATOM     84  C   UNL A   1      42.083  22.238  25.866  1.00  0.00     0.200 A 
ATOM     85  F   UNL A   1      40.554  21.750  27.594  1.00  0.00    -0.200 F 
ATOM     86  F   UNL A   1      42.045  20.963  25.453  1.00  0.00    -0.200 F 
ENDBRANCH  52  76
BRANCH  64  87
ATOM     87  C   UNL A   1      45.391  30.108  28.614  1.00  0.00     0.064 A 
ATOM     88  C   UNL A   1      44.323  30.915  28.183  1.00  0.00     0.173 A 
ATOM     89  C   UNL A   1      46.655  30.387  28.079  1.00  0.00     0.173 A 
ATOM     90  F   UNL A   1      43.105  30.792  28.718  1.00  0.00    -0.203 F 
ATOM     91  C   UNL A   1      44.503  31.921  27.234  1.00  0.00     0.198 A 
ATOM     92  C   UNL A   1      46.841  31.416  27.157  1.00  0.00     0.198 A 
ATOM     93  F   UNL A   1      47.727  29.696  28.496  1.00  0.00    -0.203 F 
ATOM     94  F   UNL A   1      43.462  32.671  26.842  1.00  0.00    -0.200 F 
ATOM     95  C   UNL A   1      45.764  32.175  26.728  1.00  0.00     0.200 A 
ATOM     96  F   UNL A   1      48.073  31.692  26.710  1.00  0.00    -0.200 F 
ATOM     97  F   UNL A   1      45.949  33.171  25.850  1.00  0.00    -0.200 F 
ENDBRANCH  64  87
ENDBRANCH  38  39
ENDBRANCH  30  33
ENDBRANCH  28  29
ENDBRANCH  27  28
ENDBRANCH   1  27
TORSDOF 13
ENDMDL
