MODEL 1
REMARK VINA RESULT:     -12.7      0.000      0.000
REMARK SMILES O=C(COc1ccccc1[C@@H]1[NH2+]CCc2cc(O)c(O)cc21)NCCCNC(=O)c1ccc(-c2c3nc(c(-c4c(F)c(F)c(F)c(F)c4F)c4ccc([nH]4)c(-c4c(F)c(F)c(F)c(F)c4F)c4nc(c(-c5c(F)c(F)c(F)c(F)c5F)c5ccc2[nH]5)C=C4)C=C3)cc1
REMARK SMILES IDX 24 1 23 2 1 3 2 4 3 6 4 7 5 8 6 9 10 10 7 11 9 12 8 13 11 14
REMARK SMILES IDX 12 15 22 16 13 17 15 20 21 21 14 22 16 23 19 24 17 25 20 26
REMARK SMILES IDX 18 28 25 30 26 31 27 32 28 33 29 35 30 36 31 37 92 38 32 39
REMARK SMILES IDX 91 40 33 41 34 42 35 43 85 44 36 45 90 46 84 47 86 48 37 49
REMARK SMILES IDX 89 50 83 51 82 52 38 54 70 55 50 56 69 57 51 58 54 59 68 60
REMARK SMILES IDX 87 61 52 62 53 63 67 65 88 66 55 67 39 68 40 69 48 70 41 71
REMARK SMILES IDX 42 72 46 73 49 74 43 75 44 76 47 77 45 78 71 79 72 80 80 81
REMARK SMILES IDX 73 82 74 83 78 84 81 85 75 86 76 87 79 88 77 89 56 90 57 91
REMARK SMILES IDX 65 92 58 93 59 94 63 95 66 96 60 97 61 98 64 99 62 100
REMARK H PARENT 23 5 12 18 12 19 20 27 18 29 27 34 86 53 54 64
REMARK Flexibility Score: inf
ROOT
ATOM      1  C   UNL A   1      36.823  20.788  24.747  1.00  0.00     0.117 C 
ENDROOT
BRANCH   1   2
ATOM      2  N   UNL A   1      35.784  20.824  25.759  1.00  0.00    -0.353 N 
ATOM      3  O   UNL A   1      35.887  23.073  26.193  1.00  0.00    -0.271 OA
ATOM      4  C   UNL A   1      35.274  22.010  26.254  1.00  0.00     0.257 C 
ATOM      5  H   UNL A   1      35.430  19.974  26.106  1.00  0.00     0.163 HD
BRANCH   4   6
ATOM      6  C   UNL A   1      33.869  21.885  26.869  1.00  0.00     0.329 C 
BRANCH   6   7
ATOM      7  O   UNL A   1      32.755  22.002  26.004  1.00  0.00    -0.483 OA
BRANCH   7   8
ATOM      8  C   UNL A   1      32.671  22.776  24.877  1.00  0.00     0.129 A 
ATOM      9  C   UNL A   1      32.661  21.941  23.741  1.00  0.00     0.047 A 
ATOM     10  C   UNL A   1      32.783  24.177  24.696  1.00  0.00     0.056 A 
ATOM     11  C   UNL A   1      32.888  22.434  22.460  1.00  0.00     0.004 A 
ATOM     12  C   UNL A   1      33.116  24.634  23.396  1.00  0.00     0.014 A 
ATOM     13  C   UNL A   1      33.177  23.777  22.297  1.00  0.00     0.001 A 
BRANCH  10  14
ATOM     14  C   UNL A   1      32.637  25.214  25.798  1.00  0.00     0.249 C 
ATOM     15  N   UNL A   1      31.476  24.960  26.666  1.00  0.00    -0.336 N 
ATOM     16  C   UNL A   1      32.616  26.716  25.494  1.00  0.00     0.021 A 
ATOM     17  C   UNL A   1      30.191  25.261  26.017  1.00  0.00     0.266 C 
ATOM     18  H   UNL A   1      31.562  25.540  27.500  1.00  0.00     0.347 HD
ATOM     19  H   UNL A   1      31.477  23.965  26.889  1.00  0.00     0.347 HD
ATOM     20  C   UNL A   1      31.366  27.284  25.159  1.00  0.00    -0.029 A 
ATOM     21  C   UNL A   1      33.706  27.547  25.803  1.00  0.00     0.060 A 
ATOM     22  C   UNL A   1      30.231  26.327  24.909  1.00  0.00     0.097 C 
ATOM     23  C   UNL A   1      31.189  28.667  25.188  1.00  0.00     0.054 A 
ATOM     24  C   UNL A   1      33.504  28.921  25.862  1.00  0.00     0.157 A 
ATOM     25  C   UNL A   1      32.253  29.468  25.577  1.00  0.00     0.157 A 
BRANCH  24  26
ATOM     26  O   UNL A   1      34.492  29.780  26.264  1.00  0.00    -0.504 OA
ATOM     27  H   UNL A   1      34.267  30.610  26.635  1.00  0.00     0.293 HD
ENDBRANCH  24  26
BRANCH  25  28
ATOM     28  O   UNL A   1      32.046  30.808  25.740  1.00  0.00    -0.504 OA
ATOM     29  H   UNL A   1      31.981  31.172  26.601  1.00  0.00     0.293 HD
ENDBRANCH  25  28
ENDBRANCH  10  14
ENDBRANCH   7   8
ENDBRANCH   6   7
ENDBRANCH   4   6
ENDBRANCH   1   2
BRANCH   1  30
ATOM     30  C   UNL A   1      37.898  19.743  24.937  1.00  0.00     0.042 C 
BRANCH  30  31
ATOM     31  C   UNL A   1      39.026  20.205  25.826  1.00  0.00     0.118 C 
BRANCH  31  32
ATOM     32  N   UNL A   1      40.121  19.248  25.903  1.00  0.00    -0.352 N 
ATOM     33  C   UNL A   1      41.453  19.473  26.130  1.00  0.00     0.251 C 
ATOM     34  H   UNL A   1      39.868  18.306  25.773  1.00  0.00     0.163 HD
ATOM     35  O   UNL A   1      42.262  18.555  26.032  1.00  0.00    -0.269 OA
BRANCH  33  36
ATOM     36  C   UNL A   1      41.910  20.836  26.466  1.00  0.00     0.039 A 
ATOM     37  C   UNL A   1      42.063  21.769  25.439  1.00  0.00     0.014 A 
ATOM     38  C   UNL A   1      42.166  21.200  27.791  1.00  0.00     0.014 A 
ATOM     39  C   UNL A   1      42.435  23.076  25.751  1.00  0.00     0.010 A 
ATOM     40  C   UNL A   1      42.409  22.527  28.110  1.00  0.00     0.010 A 
ATOM     41  C   UNL A   1      42.587  23.470  27.091  1.00  0.00    -0.014 A 
BRANCH  41  42
ATOM     42  C   UNL A   1      43.006  24.848  27.439  1.00  0.00     0.031 A 
ATOM     43  C   UNL A   1      44.419  25.287  27.165  1.00  0.00     0.074 A 
ATOM     44  C   UNL A   1      42.131  25.686  28.025  1.00  0.00     0.049 A 
ATOM     45  N   UNL A   1      44.985  26.445  27.392  1.00  0.00    -0.248 NA
ATOM     46  C   UNL A   1      45.329  24.284  26.586  1.00  0.00     0.031 C 
ATOM     47  C   UNL A   1      40.756  25.350  28.398  1.00  0.00     0.029 A 
ATOM     48  N   UNL A   1      42.268  26.996  28.406  1.00  0.00    -0.354 N 
ATOM     49  C   UNL A   1      46.309  26.300  26.999  1.00  0.00     0.074 A 
ATOM     50  C   UNL A   1      46.485  24.925  26.593  1.00  0.00     0.031 C 
ATOM     51  C   UNL A   1      40.163  26.439  28.915  1.00  0.00     0.029 A 
ATOM     52  C   UNL A   1      41.125  27.536  28.941  1.00  0.00     0.049 A 
ATOM     53  H   UNL A   1      43.108  27.501  28.306  1.00  0.00     0.167 HD
ATOM     54  C   UNL A   1      47.283  27.238  26.942  1.00  0.00     0.037 A 
ATOM     55  C   UNL A   1      40.882  28.780  29.393  1.00  0.00     0.037 A 
ATOM     56  C   UNL A   1      47.092  28.612  27.322  1.00  0.00     0.049 A 
ATOM     57  C   UNL A   1      41.979  29.809  29.311  1.00  0.00     0.074 A 
ATOM     58  C   UNL A   1      47.994  29.659  27.258  1.00  0.00     0.029 A 
ATOM     59  N   UNL A   1      45.912  29.128  27.837  1.00  0.00    -0.354 N 
ATOM     60  N   UNL A   1      43.205  29.683  28.862  1.00  0.00    -0.248 NA
ATOM     61  C   UNL A   1      41.650  31.161  29.782  1.00  0.00     0.031 C 
ATOM     62  C   UNL A   1      47.376  30.798  27.784  1.00  0.00     0.029 A 
ATOM     63  C   UNL A   1      46.067  30.477  28.113  1.00  0.00     0.049 A 
ATOM     64  H   UNL A   1      45.087  28.612  27.986  1.00  0.00     0.167 HD
ATOM     65  C   UNL A   1      43.780  30.943  28.960  1.00  0.00     0.074 A 
ATOM     66  C   UNL A   1      42.763  31.822  29.497  1.00  0.00     0.031 C 
ATOM     67  C   UNL A   1      45.035  31.338  28.632  1.00  0.00     0.037 A 
BRANCH  54  68
ATOM     68  C   UNL A   1      48.634  26.807  26.447  1.00  0.00     0.064 A 
ATOM     69  C   UNL A   1      49.019  26.979  25.107  1.00  0.00     0.173 A 
ATOM     70  C   UNL A   1      49.565  26.231  27.325  1.00  0.00     0.173 A 
ATOM     71  F   UNL A   1      48.163  27.510  24.221  1.00  0.00    -0.203 F 
ATOM     72  C   UNL A   1      50.269  26.559  24.659  1.00  0.00     0.198 A 
ATOM     73  C   UNL A   1      50.826  25.845  26.881  1.00  0.00     0.198 A 
ATOM     74  F   UNL A   1      49.252  26.045  28.615  1.00  0.00    -0.203 F 
ATOM     75  F   UNL A   1      50.588  26.678  23.363  1.00  0.00    -0.200 F 
ATOM     76  C   UNL A   1      51.174  26.000  25.547  1.00  0.00     0.200 A 
ATOM     77  F   UNL A   1      51.707  25.318  27.744  1.00  0.00    -0.200 F 
ATOM     78  F   UNL A   1      52.379  25.602  25.116  1.00  0.00    -0.200 F 
ENDBRANCH  54  68
BRANCH  55  79
ATOM     79  C   UNL A   1      39.539  29.135  29.920  1.00  0.00     0.064 A 
ATOM     80  C   UNL A   1      39.233  28.979  31.280  1.00  0.00     0.173 A 
ATOM     81  C   UNL A   1      38.530  29.625  29.078  1.00  0.00     0.173 A 
ATOM     82  F   UNL A   1      40.158  28.500  32.124  1.00  0.00    -0.203 F 
ATOM     83  C   UNL A   1      37.962  29.271  31.771  1.00  0.00     0.198 A 
ATOM     84  C   UNL A   1      37.269  29.946  29.576  1.00  0.00     0.198 A 
ATOM     85  F   UNL A   1      38.773  29.801  27.771  1.00  0.00    -0.203 F 
ATOM     86  F   UNL A   1      37.681  29.061  33.064  1.00  0.00    -0.200 F 
ATOM     87  C   UNL A   1      36.982  29.759  30.920  1.00  0.00     0.200 A 
ATOM     88  F   UNL A   1      36.330  30.434  28.753  1.00  0.00    -0.200 F 
ATOM     89  F   UNL A   1      35.760  30.040  31.392  1.00  0.00    -0.200 F 
ENDBRANCH  55  79
BRANCH  67  90
ATOM     90  C   UNL A   1      45.360  32.796  28.789  1.00  0.00     0.064 A 
ATOM     91  C   UNL A   1      45.938  33.307  29.960  1.00  0.00     0.173 A 
ATOM     92  C   UNL A   1      45.111  33.689  27.735  1.00  0.00     0.173 A 
ATOM     93  F   UNL A   1      46.185  32.498  31.001  1.00  0.00    -0.203 F 
ATOM     94  C   UNL A   1      46.217  34.666  30.086  1.00  0.00     0.198 A 
ATOM     95  C   UNL A   1      45.426  35.040  27.850  1.00  0.00     0.198 A 
ATOM     96  F   UNL A   1      44.570  33.251  26.588  1.00  0.00    -0.203 F 
ATOM     97  F   UNL A   1      46.710  35.143  31.237  1.00  0.00    -0.200 F 
ATOM     98  C   UNL A   1      45.967  35.529  29.029  1.00  0.00     0.200 A 
ATOM     99  F   UNL A   1      45.202  35.869  26.820  1.00  0.00    -0.200 F 
ATOM    100  F   UNL A   1      46.241  36.835  29.150  1.00  0.00    -0.200 F 
ENDBRANCH  67  90
ENDBRANCH  41  42
ENDBRANCH  33  36
ENDBRANCH  31  32
ENDBRANCH  30  31
ENDBRANCH   1  30
TORSDOF 15
ENDMDL
MODEL 2
REMARK VINA RESULT:     -12.7      4.379     10.183
REMARK SMILES O=C(COc1ccccc1[C@@H]1[NH2+]CCc2cc(O)c(O)cc21)NCCCNC(=O)c1ccc(-c2c3nc(c(-c4c(F)c(F)c(F)c(F)c4F)c4ccc([nH]4)c(-c4c(F)c(F)c(F)c(F)c4F)c4nc(c(-c5c(F)c(F)c(F)c(F)c5F)c5ccc2[nH]5)C=C4)C=C3)cc1
REMARK SMILES IDX 24 1 23 2 1 3 2 4 3 6 4 7 5 8 6 9 10 10 7 11 9 12 8 13 11 14
REMARK SMILES IDX 12 15 22 16 13 17 15 20 21 21 14 22 16 23 19 24 17 25 20 26
REMARK SMILES IDX 18 28 25 30 26 31 27 32 28 33 29 35 30 36 31 37 92 38 32 39
REMARK SMILES IDX 91 40 33 41 34 42 35 43 85 44 36 45 90 46 84 47 86 48 37 49
REMARK SMILES IDX 89 50 83 51 82 52 38 54 70 55 50 56 69 57 51 58 54 59 68 60
REMARK SMILES IDX 87 61 52 62 53 63 67 65 88 66 55 67 39 68 40 69 48 70 41 71
REMARK SMILES IDX 42 72 46 73 49 74 43 75 44 76 47 77 45 78 71 79 72 80 80 81
REMARK SMILES IDX 73 82 74 83 78 84 81 85 75 86 76 87 79 88 77 89 56 90 57 91
REMARK SMILES IDX 65 92 58 93 59 94 63 95 66 96 60 97 61 98 64 99 62 100
REMARK H PARENT 23 5 12 18 12 19 20 27 18 29 27 34 86 53 54 64
REMARK Flexibility Score: inf
ROOT
ATOM      1  C   UNL A   1      31.390  28.382  26.085  1.00  0.00     0.117 C 
ENDROOT
BRANCH   1   2
ATOM      2  N   UNL A   1      31.214  27.073  26.686  1.00  0.00    -0.353 N 
ATOM      3  O   UNL A   1      29.802  26.216  25.095  1.00  0.00    -0.271 OA
ATOM      4  C   UNL A   1      30.583  26.035  26.026  1.00  0.00     0.257 C 
ATOM      5  H   UNL A   1      31.556  26.919  27.595  1.00  0.00     0.163 HD
BRANCH   4   6
ATOM      6  C   UNL A   1      30.958  24.636  26.547  1.00  0.00     0.329 C 
BRANCH   6   7
ATOM      7  O   UNL A   1      32.296  24.204  26.381  1.00  0.00    -0.483 OA
BRANCH   7   8
ATOM      8  C   UNL A   1      32.935  23.958  25.195  1.00  0.00     0.129 A 
ATOM      9  C   UNL A   1      33.618  25.122  24.787  1.00  0.00     0.047 A 
ATOM     10  C   UNL A   1      32.855  22.862  24.301  1.00  0.00     0.056 A 
ATOM     11  C   UNL A   1      34.100  25.280  23.491  1.00  0.00     0.004 A 
ATOM     12  C   UNL A   1      33.261  23.093  22.962  1.00  0.00     0.014 A 
ATOM     13  C   UNL A   1      33.865  24.284  22.560  1.00  0.00     0.001 A 
BRANCH  10  14
ATOM     14  C   UNL A   1      32.309  21.487  24.651  1.00  0.00     0.249 C 
ATOM     15  N   UNL A   1      32.305  21.230  26.099  1.00  0.00    -0.336 N 
ATOM     16  C   UNL A   1      32.853  20.213  23.997  1.00  0.00     0.021 A 
ATOM     17  C   UNL A   1      33.649  20.993  26.648  1.00  0.00     0.266 C 
ATOM     18  H   UNL A   1      31.731  20.408  26.281  1.00  0.00     0.347 HD
ATOM     19  H   UNL A   1      31.936  22.065  26.554  1.00  0.00     0.347 HD
ATOM     20  C   UNL A   1      33.989  19.621  24.595  1.00  0.00    -0.029 A 
ATOM     21  C   UNL A   1      32.115  19.503  23.035  1.00  0.00     0.060 A 
ATOM     22  C   UNL A   1      34.685  20.420  25.666  1.00  0.00     0.097 C 
ATOM     23  C   UNL A   1      34.351  18.312  24.281  1.00  0.00     0.054 A 
ATOM     24  C   UNL A   1      32.468  18.187  22.759  1.00  0.00     0.157 A 
ATOM     25  C   UNL A   1      33.561  17.597  23.392  1.00  0.00     0.157 A 
BRANCH  24  26
ATOM     26  O   UNL A   1      31.726  17.402  21.917  1.00  0.00    -0.504 OA
ATOM     27  H   UNL A   1      31.466  16.543  22.186  1.00  0.00     0.293 HD
ENDBRANCH  24  26
BRANCH  25  28
ATOM     28  O   UNL A   1      33.831  16.274  23.186  1.00  0.00    -0.504 OA
ATOM     29  H   UNL A   1      34.070  15.971  22.332  1.00  0.00     0.293 HD
ENDBRANCH  25  28
ENDBRANCH  10  14
ENDBRANCH   7   8
ENDBRANCH   6   7
ENDBRANCH   4   6
ENDBRANCH   1   2
BRANCH   1  30
ATOM     30  C   UNL A   1      32.538  28.516  25.111  1.00  0.00     0.042 C 
BRANCH  30  31
ATOM     31  C   UNL A   1      33.645  29.408  25.615  1.00  0.00     0.118 C 
BRANCH  31  32
ATOM     32  N   UNL A   1      33.162  30.682  26.130  1.00  0.00    -0.352 N 
ATOM     33  C   UNL A   1      33.647  31.437  27.164  1.00  0.00     0.251 C 
ATOM     34  H   UNL A   1      32.376  31.052  25.669  1.00  0.00     0.163 HD
ATOM     35  O   UNL A   1      33.034  32.429  27.548  1.00  0.00    -0.269 OA
BRANCH  33  36
ATOM     36  C   UNL A   1      34.900  31.031  27.832  1.00  0.00     0.039 A 
ATOM     37  C   UNL A   1      35.941  31.956  27.933  1.00  0.00     0.014 A 
ATOM     38  C   UNL A   1      35.040  29.751  28.376  1.00  0.00     0.014 A 
ATOM     39  C   UNL A   1      37.105  31.604  28.615  1.00  0.00     0.010 A 
ATOM     40  C   UNL A   1      36.142  29.449  29.161  1.00  0.00     0.010 A 
ATOM     41  C   UNL A   1      37.204  30.357  29.255  1.00  0.00    -0.014 A 
BRANCH  41  42
ATOM     42  C   UNL A   1      38.442  29.957  29.962  1.00  0.00     0.031 A 
ATOM     43  C   UNL A   1      38.700  30.464  31.356  1.00  0.00     0.074 A 
ATOM     44  C   UNL A   1      39.342  29.168  29.346  1.00  0.00     0.049 A 
ATOM     45  N   UNL A   1      39.717  30.234  32.147  1.00  0.00    -0.248 NA
ATOM     46  C   UNL A   1      37.697  31.379  31.929  1.00  0.00     0.031 C 
ATOM     47  C   UNL A   1      39.230  28.669  27.974  1.00  0.00     0.029 A 
ATOM     48  N   UNL A   1      40.527  28.645  29.795  1.00  0.00    -0.354 N 
ATOM     49  C   UNL A   1      39.479  30.982  33.293  1.00  0.00     0.074 A 
ATOM     50  C   UNL A   1      38.266  31.734  33.068  1.00  0.00     0.031 C 
ATOM     51  C   UNL A   1      40.282  27.877  27.708  1.00  0.00     0.029 A 
ATOM     52  C   UNL A   1      41.156  27.841  28.877  1.00  0.00     0.049 A 
ATOM     53  H   UNL A   1      40.891  28.828  30.691  1.00  0.00     0.167 HD
ATOM     54  C   UNL A   1      40.186  31.010  34.446  1.00  0.00     0.037 A 
ATOM     55  C   UNL A   1      42.306  27.148  28.974  1.00  0.00     0.037 A 
ATOM     56  C   UNL A   1      41.377  30.237  34.673  1.00  0.00     0.049 A 
ATOM     57  C   UNL A   1      43.069  27.188  30.272  1.00  0.00     0.074 A 
ATOM     58  C   UNL A   1      42.146  30.150  35.820  1.00  0.00     0.029 A 
ATOM     59  N   UNL A   1      41.973  29.415  33.727  1.00  0.00    -0.354 N 
ATOM     60  N   UNL A   1      42.793  27.835  31.379  1.00  0.00    -0.248 NA
ATOM     61  C   UNL A   1      44.296  26.384  30.338  1.00  0.00     0.031 C 
ATOM     62  C   UNL A   1      43.236  29.316  35.552  1.00  0.00     0.029 A 
ATOM     63  C   UNL A   1      43.110  28.829  34.259  1.00  0.00     0.049 A 
ATOM     64  H   UNL A   1      41.637  29.270  32.813  1.00  0.00     0.167 HD
ATOM     65  C   UNL A   1      43.788  27.487  32.283  1.00  0.00     0.074 A 
ATOM     66  C   UNL A   1      44.664  26.560  31.599  1.00  0.00     0.031 C 
ATOM     67  C   UNL A   1      43.959  27.895  33.565  1.00  0.00     0.037 A 
BRANCH  54  68
ATOM     68  C   UNL A   1      39.683  31.900  35.547  1.00  0.00     0.064 A 
ATOM     69  C   UNL A   1      38.700  31.469  36.454  1.00  0.00     0.173 A 
ATOM     70  C   UNL A   1      40.199  33.194  35.711  1.00  0.00     0.173 A 
ATOM     71  F   UNL A   1      38.160  30.246  36.335  1.00  0.00    -0.203 F 
ATOM     72  C   UNL A   1      38.231  32.311  37.459  1.00  0.00     0.198 A 
ATOM     73  C   UNL A   1      39.754  34.020  36.739  1.00  0.00     0.198 A 
ATOM     74  F   UNL A   1      41.141  33.657  34.876  1.00  0.00    -0.203 F 
ATOM     75  F   UNL A   1      37.250  31.897  38.273  1.00  0.00    -0.200 F 
ATOM     76  C   UNL A   1      38.764  33.582  37.606  1.00  0.00     0.200 A 
ATOM     77  F   UNL A   1      40.280  35.244  36.889  1.00  0.00    -0.200 F 
ATOM     78  F   UNL A   1      38.316  34.389  38.578  1.00  0.00    -0.200 F 
ENDBRANCH  54  68
BRANCH  55  79
ATOM     79  C   UNL A   1      42.780  26.325  27.833  1.00  0.00     0.064 A 
ATOM     80  C   UNL A   1      43.676  26.849  26.888  1.00  0.00     0.173 A 
ATOM     81  C   UNL A   1      42.344  25.004  27.652  1.00  0.00     0.173 A 
ATOM     82  F   UNL A   1      44.112  28.112  27.006  1.00  0.00    -0.203 F 
ATOM     83  C   UNL A   1      44.091  26.094  25.793  1.00  0.00     0.198 A 
ATOM     84  C   UNL A   1      42.785  24.241  26.573  1.00  0.00     0.198 A 
ATOM     85  F   UNL A   1      41.495  24.452  28.531  1.00  0.00    -0.203 F 
ATOM     86  F   UNL A   1      44.904  26.639  24.877  1.00  0.00    -0.200 F 
ATOM     87  C   UNL A   1      43.650  24.789  25.638  1.00  0.00     0.200 A 
ATOM     88  F   UNL A   1      42.369  22.974  26.438  1.00  0.00    -0.200 F 
ATOM     89  F   UNL A   1      44.050  24.064  24.586  1.00  0.00    -0.200 F 
ENDBRANCH  55  79
BRANCH  67  90
ATOM     90  C   UNL A   1      45.104  27.295  34.330  1.00  0.00     0.064 A 
ATOM     91  C   UNL A   1      46.373  27.891  34.359  1.00  0.00     0.173 A 
ATOM     92  C   UNL A   1      44.916  26.117  35.070  1.00  0.00     0.173 A 
ATOM     93  F   UNL A   1      46.609  29.012  33.659  1.00  0.00    -0.203 F 
ATOM     94  C   UNL A   1      47.422  27.308  35.065  1.00  0.00     0.198 A 
ATOM     95  C   UNL A   1      45.956  25.557  35.805  1.00  0.00     0.198 A 
ATOM     96  F   UNL A   1      43.718  25.512  35.087  1.00  0.00    -0.203 F 
ATOM     97  F   UNL A   1      48.642  27.860  35.025  1.00  0.00    -0.200 F 
ATOM     98  C   UNL A   1      47.211  26.146  35.792  1.00  0.00     0.200 A 
ATOM     99  F   UNL A   1      45.744  24.445  36.523  1.00  0.00    -0.200 F 
ATOM    100  F   UNL A   1      48.220  25.588  36.475  1.00  0.00    -0.200 F 
ENDBRANCH  67  90
ENDBRANCH  41  42
ENDBRANCH  33  36
ENDBRANCH  31  32
ENDBRANCH  30  31
ENDBRANCH   1  30
TORSDOF 15
ENDMDL
MODEL 3
REMARK VINA RESULT:     -12.7      0.103      1.570
REMARK SMILES O=C(COc1ccccc1[C@@H]1[NH2+]CCc2cc(O)c(O)cc21)NCCCNC(=O)c1ccc(-c2c3nc(c(-c4c(F)c(F)c(F)c(F)c4F)c4ccc([nH]4)c(-c4c(F)c(F)c(F)c(F)c4F)c4nc(c(-c5c(F)c(F)c(F)c(F)c5F)c5ccc2[nH]5)C=C4)C=C3)cc1
REMARK SMILES IDX 24 1 23 2 1 3 2 4 3 6 4 7 5 8 6 9 10 10 7 11 9 12 8 13 11 14
REMARK SMILES IDX 12 15 22 16 13 17 15 20 21 21 14 22 16 23 19 24 17 25 20 26
REMARK SMILES IDX 18 28 25 30 26 31 27 32 28 33 29 35 30 36 31 37 92 38 32 39
REMARK SMILES IDX 91 40 33 41 34 42 35 43 85 44 36 45 90 46 84 47 86 48 37 49
REMARK SMILES IDX 89 50 83 51 82 52 38 54 70 55 50 56 69 57 51 58 54 59 68 60
REMARK SMILES IDX 87 61 52 62 53 63 67 65 88 66 55 67 39 68 40 69 48 70 41 71
REMARK SMILES IDX 42 72 46 73 49 74 43 75 44 76 47 77 45 78 71 79 72 80 80 81
REMARK SMILES IDX 73 82 74 83 78 84 81 85 75 86 76 87 79 88 77 89 56 90 57 91
REMARK SMILES IDX 65 92 58 93 59 94 63 95 66 96 60 97 61 98 64 99 62 100
REMARK H PARENT 23 5 12 18 12 19 20 27 18 29 27 34 86 53 54 64
REMARK Flexibility Score: inf
ROOT
ATOM      1  C   UNL A   1      36.682  20.814  24.801  1.00  0.00     0.117 C 
ENDROOT
BRANCH   1   2
ATOM      2  N   UNL A   1      35.606  20.809  25.774  1.00  0.00    -0.353 N 
ATOM      3  O   UNL A   1      35.814  22.992  26.442  1.00  0.00    -0.271 OA
ATOM      4  C   UNL A   1      35.142  21.966  26.371  1.00  0.00     0.257 C 
ATOM      5  H   UNL A   1      35.192  19.950  26.018  1.00  0.00     0.163 HD
BRANCH   4   6
ATOM      6  C   UNL A   1      33.708  21.862  26.920  1.00  0.00     0.329 C 
BRANCH   6   7
ATOM      7  O   UNL A   1      32.638  21.964  25.999  1.00  0.00    -0.483 OA
BRANCH   7   8
ATOM      8  C   UNL A   1      32.599  22.742  24.872  1.00  0.00     0.129 A 
ATOM      9  C   UNL A   1      32.581  21.909  23.735  1.00  0.00     0.047 A 
ATOM     10  C   UNL A   1      32.759  24.139  24.696  1.00  0.00     0.056 A 
ATOM     11  C   UNL A   1      32.847  22.395  22.459  1.00  0.00     0.004 A 
ATOM     12  C   UNL A   1      33.130  24.586  23.402  1.00  0.00     0.014 A 
ATOM     13  C   UNL A   1      33.182  23.729  22.303  1.00  0.00     0.001 A 
BRANCH  10  14
ATOM     14  C   UNL A   1      32.628  25.179  25.796  1.00  0.00     0.249 C 
ATOM     15  N   UNL A   1      31.486  24.922  26.686  1.00  0.00    -0.336 N 
ATOM     16  C   UNL A   1      32.593  26.679  25.487  1.00  0.00     0.021 A 
ATOM     17  C   UNL A   1      30.187  25.214  26.060  1.00  0.00     0.266 C 
ATOM     18  H   UNL A   1      31.584  25.506  27.517  1.00  0.00     0.347 HD
ATOM     19  H   UNL A   1      31.496  23.928  26.913  1.00  0.00     0.347 HD
ATOM     20  C   UNL A   1      31.334  27.240  25.173  1.00  0.00    -0.029 A 
ATOM     21  C   UNL A   1      33.684  27.518  25.773  1.00  0.00     0.060 A 
ATOM     22  C   UNL A   1      30.200  26.275  24.948  1.00  0.00     0.097 C 
ATOM     23  C   UNL A   1      31.150  28.622  25.201  1.00  0.00     0.054 A 
ATOM     24  C   UNL A   1      33.476  28.891  25.831  1.00  0.00     0.157 A 
ATOM     25  C   UNL A   1      32.217  29.430  25.567  1.00  0.00     0.157 A 
BRANCH  24  26
ATOM     26  O   UNL A   1      34.466  29.756  26.211  1.00  0.00    -0.504 OA
ATOM     27  H   UNL A   1      35.138  29.995  25.603  1.00  0.00     0.293 HD
ENDBRANCH  24  26
BRANCH  25  28
ATOM     28  O   UNL A   1      32.006  30.770  25.729  1.00  0.00    -0.504 OA
ATOM     29  H   UNL A   1      31.355  31.073  26.332  1.00  0.00     0.293 HD
ENDBRANCH  25  28
ENDBRANCH  10  14
ENDBRANCH   7   8
ENDBRANCH   6   7
ENDBRANCH   4   6
ENDBRANCH   1   2
BRANCH   1  30
ATOM     30  C   UNL A   1      37.756  19.769  24.993  1.00  0.00     0.042 C 
BRANCH  30  31
ATOM     31  C   UNL A   1      38.943  20.273  25.776  1.00  0.00     0.118 C 
BRANCH  31  32
ATOM     32  N   UNL A   1      40.028  19.304  25.855  1.00  0.00    -0.352 N 
ATOM     33  C   UNL A   1      41.360  19.515  26.094  1.00  0.00     0.251 C 
ATOM     34  H   UNL A   1      39.766  18.365  25.717  1.00  0.00     0.163 HD
ATOM     35  O   UNL A   1      42.161  18.589  25.996  1.00  0.00    -0.269 OA
BRANCH  33  36
ATOM     36  C   UNL A   1      41.828  20.871  26.442  1.00  0.00     0.039 A 
ATOM     37  C   UNL A   1      42.066  21.787  25.416  1.00  0.00     0.014 A 
ATOM     38  C   UNL A   1      42.011  21.245  27.776  1.00  0.00     0.014 A 
ATOM     39  C   UNL A   1      42.449  23.089  25.736  1.00  0.00     0.010 A 
ATOM     40  C   UNL A   1      42.266  22.570  28.095  1.00  0.00     0.010 A 
ATOM     41  C   UNL A   1      42.528  23.496  27.078  1.00  0.00    -0.014 A 
BRANCH  41  42
ATOM     42  C   UNL A   1      42.957  24.868  27.436  1.00  0.00     0.031 A 
ATOM     43  C   UNL A   1      44.374  25.299  27.164  1.00  0.00     0.074 A 
ATOM     44  C   UNL A   1      42.089  25.709  28.028  1.00  0.00     0.049 A 
ATOM     45  N   UNL A   1      44.949  26.451  27.399  1.00  0.00    -0.248 NA
ATOM     46  C   UNL A   1      45.276  24.292  26.578  1.00  0.00     0.031 C 
ATOM     47  C   UNL A   1      40.712  25.381  28.399  1.00  0.00     0.029 A 
ATOM     48  N   UNL A   1      42.237  27.015  28.419  1.00  0.00    -0.354 N 
ATOM     49  C   UNL A   1      46.272  26.298  27.005  1.00  0.00     0.074 A 
ATOM     50  C   UNL A   1      46.437  24.924  26.589  1.00  0.00     0.031 C 
ATOM     51  C   UNL A   1      40.127  26.470  28.924  1.00  0.00     0.029 A 
ATOM     52  C   UNL A   1      41.097  27.560  28.958  1.00  0.00     0.049 A 
ATOM     53  H   UNL A   1      43.080  27.514  28.321  1.00  0.00     0.167 HD
ATOM     54  C   UNL A   1      47.252  27.229  26.954  1.00  0.00     0.037 A 
ATOM     55  C   UNL A   1      40.865  28.802  29.419  1.00  0.00     0.037 A 
ATOM     56  C   UNL A   1      47.073  28.602  27.344  1.00  0.00     0.049 A 
ATOM     57  C   UNL A   1      41.969  29.824  29.343  1.00  0.00     0.074 A 
ATOM     58  C   UNL A   1      47.982  29.642  27.287  1.00  0.00     0.029 A 
ATOM     59  N   UNL A   1      45.896  29.123  27.863  1.00  0.00    -0.354 N 
ATOM     60  N   UNL A   1      43.194  29.691  28.893  1.00  0.00    -0.248 NA
ATOM     61  C   UNL A   1      41.651  31.174  29.824  1.00  0.00     0.031 C 
ATOM     62  C   UNL A   1      47.373  30.782  27.822  1.00  0.00     0.029 A 
ATOM     63  C   UNL A   1      46.062  30.469  28.149  1.00  0.00     0.049 A 
ATOM     64  H   UNL A   1      45.067  28.613  28.009  1.00  0.00     0.167 HD
ATOM     65  C   UNL A   1      43.779  30.946  29.000  1.00  0.00     0.074 A 
ATOM     66  C   UNL A   1      42.769  31.829  29.543  1.00  0.00     0.031 C 
ATOM     67  C   UNL A   1      45.037  31.334  28.674  1.00  0.00     0.037 A 
BRANCH  54  68
ATOM     68  C   UNL A   1      48.600  26.791  26.456  1.00  0.00     0.064 A 
ATOM     69  C   UNL A   1      49.539  26.181  27.304  1.00  0.00     0.173 A 
ATOM     70  C   UNL A   1      48.954  26.967  25.109  1.00  0.00     0.173 A 
ATOM     71  F   UNL A   1      49.259  26.003  28.604  1.00  0.00    -0.203 F 
ATOM     72  C   UNL A   1      50.791  25.796  26.831  1.00  0.00     0.198 A 
ATOM     73  C   UNL A   1      50.193  26.548  24.632  1.00  0.00     0.198 A 
ATOM     74  F   UNL A   1      48.096  27.542  24.254  1.00  0.00    -0.203 F 
ATOM     75  F   UNL A   1      51.691  25.272  27.674  1.00  0.00    -0.200 F 
ATOM     76  C   UNL A   1      51.114  25.972  25.495  1.00  0.00     0.200 A 
ATOM     77  F   UNL A   1      50.499  26.706  23.336  1.00  0.00    -0.200 F 
ATOM     78  F   UNL A   1      52.317  25.595  25.040  1.00  0.00    -0.200 F 
ENDBRANCH  54  68
BRANCH  55  79
ATOM     79  C   UNL A   1      39.525  29.163  29.949  1.00  0.00     0.064 A 
ATOM     80  C   UNL A   1      39.194  28.933  31.293  1.00  0.00     0.173 A 
ATOM     81  C   UNL A   1      38.542  29.734  29.125  1.00  0.00     0.173 A 
ATOM     82  F   UNL A   1      40.092  28.376  32.118  1.00  0.00    -0.203 F 
ATOM     83  C   UNL A   1      37.924  29.232  31.783  1.00  0.00     0.198 A 
ATOM     84  C   UNL A   1      37.284  30.061  29.626  1.00  0.00     0.198 A 
ATOM     85  F   UNL A   1      38.811  29.983  27.835  1.00  0.00    -0.203 F 
ATOM     86  F   UNL A   1      37.618  28.951  33.057  1.00  0.00    -0.200 F 
ATOM     87  C   UNL A   1      36.972  29.800  30.952  1.00  0.00     0.200 A 
ATOM     88  F   UNL A   1      36.372  30.626  28.822  1.00  0.00    -0.200 F 
ATOM     89  F   UNL A   1      35.752  30.088  31.424  1.00  0.00    -0.200 F 
ENDBRANCH  55  79
BRANCH  67  90
ATOM     90  C   UNL A   1      45.373  32.789  28.842  1.00  0.00     0.064 A 
ATOM     91  C   UNL A   1      45.127  33.730  27.832  1.00  0.00     0.173 A 
ATOM     92  C   UNL A   1      45.924  33.248  30.048  1.00  0.00     0.173 A 
ATOM     93  F   UNL A   1      44.612  33.340  26.656  1.00  0.00    -0.203 F 
ATOM     94  C   UNL A   1      45.460  35.070  28.008  1.00  0.00     0.198 A 
ATOM     95  C   UNL A   1      46.220  34.595  30.234  1.00  0.00     0.198 A 
ATOM     96  F   UNL A   1      46.169  32.392  31.052  1.00  0.00    -0.203 F 
ATOM     97  F   UNL A   1      45.276  35.941  27.006  1.00  0.00    -0.200 F 
ATOM     98  C   UNL A   1      45.999  35.503  29.210  1.00  0.00     0.200 A 
ATOM     99  F   UNL A   1      46.723  35.014  31.405  1.00  0.00    -0.200 F 
ATOM    100  F   UNL A   1      46.314  36.794  29.379  1.00  0.00    -0.200 F 
ENDBRANCH  67  90
ENDBRANCH  41  42
ENDBRANCH  33  36
ENDBRANCH  31  32
ENDBRANCH  30  31
ENDBRANCH   1  30
TORSDOF 15
ENDMDL
