MODEL 1
REMARK VINA RESULT:     -12.1      0.000      0.000
REMARK SMILES Cn1cc(CNC(=O)Cn2ccc(C(=O)NCCCNC(=O)c3ccc(-c4c5nc(c(-c6c(F)c(F)c(F)c(F)c6F)c6ccc([nH]6)c(-c6c(F)c(F)c(F)c(F)c6F)c6nc(c(-c7c(F)c(F)c(F)c(F)c7F)c7ccc4[nH]7)C=C6)C=C5)cc3)n2)cn1
REMARK SMILES IDX 17 1 16 2 14 3 15 4 13 6 10 7 11 8 86 9 12 10 9 11 7 12 6 13
REMARK SMILES IDX 8 15 5 16 4 17 1 18 2 19 3 20 88 21 87 22 18 23 19 24 20 25
REMARK SMILES IDX 21 26 22 28 23 29 24 30 85 31 25 32 84 33 26 34 27 35 28 36
REMARK SMILES IDX 78 37 29 38 83 39 77 40 79 41 30 42 82 43 76 44 75 45 31 47
REMARK SMILES IDX 63 48 43 49 62 50 44 51 47 52 61 53 80 54 45 55 46 56 60 58
REMARK SMILES IDX 81 59 48 60 32 61 33 62 41 63 34 64 35 65 39 66 42 67 36 68
REMARK SMILES IDX 37 69 40 70 38 71 64 72 65 73 73 74 66 75 67 76 71 77 74 78
REMARK SMILES IDX 68 79 69 80 72 81 70 82 49 83 50 84 58 85 51 86 52 87 56 88
REMARK SMILES IDX 59 89 53 90 54 91 57 92 55 93
REMARK H PARENT 16 5 6 14 20 27 79 46 47 57
REMARK Flexibility Score: inf
ROOT
ATOM      1  C   UNL A   1      39.117  21.008  25.684  1.00  0.00     0.118 C 
ENDROOT
BRANCH   1   2
ATOM      2  N   UNL A   1      39.097  22.388  26.128  1.00  0.00    -0.351 N 
ATOM      3  C   UNL A   1      38.118  23.355  26.050  1.00  0.00     0.271 C 
ATOM      4  O   UNL A   1      38.353  24.407  26.649  1.00  0.00    -0.267 OA
ATOM      5  H   UNL A   1      39.930  22.687  26.561  1.00  0.00     0.163 HD
BRANCH   3   6
ATOM      6  C   UNL A   1      36.867  23.132  25.291  1.00  0.00     0.150 A 
ATOM      7  N   UNL A   1      34.753  22.955  24.969  1.00  0.00    -0.263 N 
ATOM      8  C   UNL A   1      35.296  22.830  23.728  1.00  0.00     0.110 A 
ATOM      9  N   UNL A   1      35.678  23.113  25.932  1.00  0.00    -0.167 NA
ATOM     10  C   UNL A   1      36.650  22.948  23.899  1.00  0.00     0.056 A 
BRANCH   7  11
ATOM     11  C   UNL A   1      33.349  22.911  25.340  1.00  0.00     0.243 C 
BRANCH  11  12
ATOM     12  C   UNL A   1      33.034  21.766  26.272  1.00  0.00     0.241 C 
ATOM     13  N   UNL A   1      32.631  20.565  25.763  1.00  0.00    -0.350 N 
ATOM     14  H   UNL A   1      32.426  19.868  26.426  1.00  0.00     0.163 HD
ATOM     15  O   UNL A   1      33.115  21.889  27.495  1.00  0.00    -0.273 OA
BRANCH  13  16
ATOM     16  C   UNL A   1      32.466  20.181  24.376  1.00  0.00     0.155 C 
BRANCH  16  17
ATOM     17  C   UNL A   1      32.682  18.721  24.283  1.00  0.00     0.009 A 
ATOM     18  C   UNL A   1      33.015  15.295  25.356  1.00  0.00     0.173 C 
ATOM     19  N   UNL A   1      32.918  16.579  24.707  1.00  0.00    -0.275 N 
ATOM     20  C   UNL A   1      32.639  17.780  25.292  1.00  0.00     0.113 A 
ATOM     21  N   UNL A   1      33.127  16.666  23.382  1.00  0.00    -0.181 NA
ATOM     22  C   UNL A   1      32.981  17.966  23.125  1.00  0.00     0.140 A 
ENDBRANCH  16  17
ENDBRANCH  13  16
ENDBRANCH  11  12
ENDBRANCH   7  11
ENDBRANCH   3   6
ENDBRANCH   1   2
BRANCH   1  23
ATOM     23  C   UNL A   1      40.333  20.238  26.213  1.00  0.00     0.042 C 
BRANCH  23  24
ATOM     24  C   UNL A   1      41.380  21.162  26.812  1.00  0.00     0.118 C 
BRANCH  24  25
ATOM     25  N   UNL A   1      42.375  21.584  25.823  1.00  0.00    -0.352 N 
ATOM     26  C   UNL A   1      42.751  22.861  25.456  1.00  0.00     0.251 C 
ATOM     27  H   UNL A   1      42.840  20.854  25.355  1.00  0.00     0.163 HD
ATOM     28  O   UNL A   1      43.328  23.059  24.401  1.00  0.00    -0.269 OA
BRANCH  26  29
ATOM     29  C   UNL A   1      42.435  23.987  26.355  1.00  0.00     0.039 A 
ATOM     30  C   UNL A   1      43.017  24.076  27.622  1.00  0.00     0.014 A 
ATOM     31  C   UNL A   1      41.557  24.969  25.907  1.00  0.00     0.014 A 
ATOM     32  C   UNL A   1      42.772  25.207  28.394  1.00  0.00     0.010 A 
ATOM     33  C   UNL A   1      41.450  26.154  26.590  1.00  0.00     0.010 A 
ATOM     34  C   UNL A   1      42.009  26.258  27.856  1.00  0.00    -0.014 A 
BRANCH  34  35
ATOM     35  C   UNL A   1      41.935  27.546  28.538  1.00  0.00     0.031 A 
ATOM     36  C   UNL A   1      43.049  28.457  28.167  1.00  0.00     0.074 A 
ATOM     37  C   UNL A   1      40.861  27.949  29.255  1.00  0.00     0.049 A 
ATOM     38  N   UNL A   1      44.028  28.834  28.919  1.00  0.00    -0.248 NA
ATOM     39  C   UNL A   1      43.206  28.848  26.755  1.00  0.00     0.031 C 
ATOM     40  C   UNL A   1      39.582  27.248  29.421  1.00  0.00     0.029 A 
ATOM     41  N   UNL A   1      40.639  29.125  29.911  1.00  0.00    -0.354 N 
ATOM     42  C   UNL A   1      44.792  29.703  28.143  1.00  0.00     0.074 A 
ATOM     43  C   UNL A   1      44.372  29.499  26.785  1.00  0.00     0.031 C 
ATOM     44  C   UNL A   1      38.654  28.098  29.911  1.00  0.00     0.029 A 
ATOM     45  C   UNL A   1      39.307  29.346  30.257  1.00  0.00     0.049 A 
ATOM     46  H   UNL A   1      41.358  29.763  30.122  1.00  0.00     0.167 HD
ATOM     47  C   UNL A   1      45.459  30.730  28.740  1.00  0.00     0.037 A 
ATOM     48  C   UNL A   1      38.776  30.481  30.778  1.00  0.00     0.037 A 
ATOM     49  C   UNL A   1      45.527  30.508  30.166  1.00  0.00     0.049 A 
ATOM     50  C   UNL A   1      39.894  31.245  31.372  1.00  0.00     0.074 A 
ATOM     51  C   UNL A   1      46.138  29.606  31.009  1.00  0.00     0.029 A 
ATOM     52  N   UNL A   1      44.501  31.082  30.867  1.00  0.00    -0.354 N 
ATOM     53  N   UNL A   1      40.551  30.859  32.429  1.00  0.00    -0.248 NA
ATOM     54  C   UNL A   1      40.549  32.266  30.568  1.00  0.00     0.031 C 
ATOM     55  C   UNL A   1      45.261  29.468  32.130  1.00  0.00     0.029 A 
ATOM     56  C   UNL A   1      44.185  30.341  31.969  1.00  0.00     0.049 A 
ATOM     57  H   UNL A   1      44.051  31.920  30.610  1.00  0.00     0.167 HD
ATOM     58  C   UNL A   1      41.860  31.222  32.168  1.00  0.00     0.074 A 
ATOM     59  C   UNL A   1      41.765  32.231  31.117  1.00  0.00     0.031 C 
ATOM     60  C   UNL A   1      42.887  30.434  32.602  1.00  0.00     0.037 A 
BRANCH  47  61
ATOM     61  C   UNL A   1      45.558  32.140  28.173  1.00  0.00     0.064 A 
ATOM     62  C   UNL A   1      44.361  32.812  27.836  1.00  0.00     0.173 A 
ATOM     63  C   UNL A   1      46.733  32.710  27.636  1.00  0.00     0.173 A 
ATOM     64  F   UNL A   1      43.177  32.361  28.276  1.00  0.00    -0.203 F 
ATOM     65  C   UNL A   1      44.340  33.900  26.957  1.00  0.00     0.198 A 
ATOM     66  C   UNL A   1      46.711  33.825  26.797  1.00  0.00     0.198 A 
ATOM     67  F   UNL A   1      47.940  32.163  27.798  1.00  0.00    -0.203 F 
ATOM     68  F   UNL A   1      43.166  34.416  26.563  1.00  0.00    -0.200 F 
ATOM     69  C   UNL A   1      45.515  34.399  26.429  1.00  0.00     0.200 A 
ATOM     70  F   UNL A   1      47.861  34.279  26.278  1.00  0.00    -0.200 F 
ATOM     71  F   UNL A   1      45.495  35.397  25.536  1.00  0.00    -0.200 F 
ENDBRANCH  47  61
BRANCH  48  72
ATOM     72  C   UNL A   1      37.429  31.079  30.602  1.00  0.00     0.064 A 
ATOM     73  C   UNL A   1      36.597  31.329  31.709  1.00  0.00     0.173 A 
ATOM     74  C   UNL A   1      37.062  31.700  29.394  1.00  0.00     0.173 A 
ATOM     75  F   UNL A   1      36.890  30.807  32.908  1.00  0.00    -0.203 F 
ATOM     76  C   UNL A   1      35.496  32.189  31.623  1.00  0.00     0.198 A 
ATOM     77  C   UNL A   1      35.960  32.554  29.308  1.00  0.00     0.198 A 
ATOM     78  F   UNL A   1      37.826  31.573  28.299  1.00  0.00    -0.203 F 
ATOM     79  F   UNL A   1      34.775  32.464  32.718  1.00  0.00    -0.200 F 
ATOM     80  C   UNL A   1      35.188  32.813  30.426  1.00  0.00     0.200 A 
ATOM     81  F   UNL A   1      35.695  33.181  28.153  1.00  0.00    -0.200 F 
ATOM     82  F   UNL A   1      34.182  33.696  30.360  1.00  0.00    -0.200 F 
ENDBRANCH  48  72
BRANCH  60  83
ATOM     83  C   UNL A   1      42.591  29.487  33.731  1.00  0.00     0.064 A 
ATOM     84  C   UNL A   1      42.052  28.197  33.584  1.00  0.00     0.173 A 
ATOM     85  C   UNL A   1      42.930  29.899  35.027  1.00  0.00     0.173 A 
ATOM     86  F   UNL A   1      41.787  27.690  32.374  1.00  0.00    -0.203 F 
ATOM     87  C   UNL A   1      41.810  27.386  34.693  1.00  0.00     0.198 A 
ATOM     88  C   UNL A   1      42.728  29.071  36.127  1.00  0.00     0.198 A 
ATOM     89  F   UNL A   1      43.489  31.103  35.225  1.00  0.00    -0.203 F 
ATOM     90  F   UNL A   1      41.263  26.173  34.531  1.00  0.00    -0.200 F 
ATOM     91  C   UNL A   1      42.153  27.824  35.961  1.00  0.00     0.200 A 
ATOM     92  F   UNL A   1      43.107  29.481  37.345  1.00  0.00    -0.200 F 
ATOM     93  F   UNL A   1      41.947  27.034  37.025  1.00  0.00    -0.200 F 
ENDBRANCH  60  83
ENDBRANCH  34  35
ENDBRANCH  26  29
ENDBRANCH  24  25
ENDBRANCH  23  24
ENDBRANCH   1  23
TORSDOF 14
ENDMDL
MODEL 2
REMARK VINA RESULT:     -12.1      3.288      7.132
REMARK SMILES Cn1cc(CNC(=O)Cn2ccc(C(=O)NCCCNC(=O)c3ccc(-c4c5nc(c(-c6c(F)c(F)c(F)c(F)c6F)c6ccc([nH]6)c(-c6c(F)c(F)c(F)c(F)c6F)c6nc(c(-c7c(F)c(F)c(F)c(F)c7F)c7ccc4[nH]7)C=C6)C=C5)cc3)n2)cn1
REMARK SMILES IDX 17 1 16 2 14 3 15 4 13 6 10 7 11 8 86 9 12 10 9 11 7 12 6 13
REMARK SMILES IDX 8 15 5 16 4 17 1 18 2 19 3 20 88 21 87 22 18 23 19 24 20 25
REMARK SMILES IDX 21 26 22 28 23 29 24 30 85 31 25 32 84 33 26 34 27 35 28 36
REMARK SMILES IDX 78 37 29 38 83 39 77 40 79 41 30 42 82 43 76 44 75 45 31 47
REMARK SMILES IDX 63 48 43 49 62 50 44 51 47 52 61 53 80 54 45 55 46 56 60 58
REMARK SMILES IDX 81 59 48 60 32 61 33 62 41 63 34 64 35 65 39 66 42 67 36 68
REMARK SMILES IDX 37 69 40 70 38 71 64 72 65 73 73 74 66 75 67 76 71 77 74 78
REMARK SMILES IDX 68 79 69 80 72 81 70 82 49 83 50 84 58 85 51 86 52 87 56 88
REMARK SMILES IDX 59 89 53 90 54 91 57 92 55 93
REMARK H PARENT 16 5 6 14 20 27 79 46 47 57
REMARK Flexibility Score: inf
ROOT
ATOM      1  C   UNL A   1      44.465  20.475  25.574  1.00  0.00     0.118 C 
ENDROOT
BRANCH   1   2
ATOM      2  N   UNL A   1      44.795  21.418  24.523  1.00  0.00    -0.351 N 
ATOM      3  C   UNL A   1      45.292  22.702  24.577  1.00  0.00     0.271 C 
ATOM      4  O   UNL A   1      45.602  23.204  23.494  1.00  0.00    -0.267 OA
ATOM      5  H   UNL A   1      44.636  21.082  23.612  1.00  0.00     0.163 HD
BRANCH   3   6
ATOM      6  C   UNL A   1      45.439  23.424  25.861  1.00  0.00     0.150 A 
ATOM      7  N   UNL A   1      46.461  24.343  27.509  1.00  0.00    -0.263 N 
ATOM      8  C   UNL A   1      45.146  24.603  27.739  1.00  0.00     0.110 A 
ATOM      9  N   UNL A   1      46.664  23.614  26.397  1.00  0.00    -0.167 NA
ATOM     10  C   UNL A   1      44.464  24.035  26.696  1.00  0.00     0.056 A 
BRANCH   7  11
ATOM     11  C   UNL A   1      47.605  24.733  28.315  1.00  0.00     0.243 C 
BRANCH  11  12
ATOM     12  C   UNL A   1      48.820  25.049  27.478  1.00  0.00     0.241 C 
ATOM     13  N   UNL A   1      48.778  26.072  26.576  1.00  0.00    -0.350 N 
ATOM     14  H   UNL A   1      49.600  26.214  26.052  1.00  0.00     0.163 HD
ATOM     15  O   UNL A   1      49.859  24.393  27.575  1.00  0.00    -0.273 OA
BRANCH  13  16
ATOM     16  C   UNL A   1      47.686  26.978  26.287  1.00  0.00     0.155 C 
BRANCH  16  17
ATOM     17  C   UNL A   1      47.743  27.311  24.847  1.00  0.00     0.009 A 
ATOM     18  C   UNL A   1      49.009  27.444  21.474  1.00  0.00     0.173 C 
ATOM     19  N   UNL A   1      48.316  27.513  22.737  1.00  0.00    -0.275 N 
ATOM     20  C   UNL A   1      48.701  26.953  23.920  1.00  0.00     0.113 A 
ATOM     21  N   UNL A   1      47.166  28.202  22.821  1.00  0.00    -0.181 NA
ATOM     22  C   UNL A   1      46.816  28.076  24.102  1.00  0.00     0.140 A 
ENDBRANCH  16  17
ENDBRANCH  13  16
ENDBRANCH  11  12
ENDBRANCH   7  11
ENDBRANCH   3   6
ENDBRANCH   1   2
BRANCH   1  23
ATOM     23  C   UNL A   1      42.955  20.242  25.701  1.00  0.00     0.042 C 
BRANCH  23  24
ATOM     24  C   UNL A   1      42.209  21.511  26.081  1.00  0.00     0.118 C 
BRANCH  24  25
ATOM     25  N   UNL A   1      40.802  21.466  25.680  1.00  0.00    -0.352 N 
ATOM     26  C   UNL A   1      39.724  22.152  26.205  1.00  0.00     0.251 C 
ATOM     27  H   UNL A   1      40.595  20.861  24.932  1.00  0.00     0.163 HD
ATOM     28  O   UNL A   1      38.586  21.766  26.005  1.00  0.00    -0.269 OA
BRANCH  26  29
ATOM     29  C   UNL A   1      39.970  23.355  27.021  1.00  0.00     0.039 A 
ATOM     30  C   UNL A   1      41.034  23.401  27.926  1.00  0.00     0.014 A 
ATOM     31  C   UNL A   1      39.130  24.453  26.858  1.00  0.00     0.014 A 
ATOM     32  C   UNL A   1      41.290  24.593  28.597  1.00  0.00     0.010 A 
ATOM     33  C   UNL A   1      39.481  25.669  27.386  1.00  0.00     0.010 A 
ATOM     34  C   UNL A   1      40.526  25.733  28.298  1.00  0.00    -0.014 A 
BRANCH  34  35
ATOM     35  C   UNL A   1      40.921  27.045  28.800  1.00  0.00     0.031 A 
ATOM     36  C   UNL A   1      42.115  27.591  28.104  1.00  0.00     0.074 A 
ATOM     37  C   UNL A   1      40.163  27.777  29.648  1.00  0.00     0.049 A 
ATOM     38  N   UNL A   1      43.297  27.752  28.597  1.00  0.00    -0.248 NA
ATOM     39  C   UNL A   1      42.048  27.810  26.649  1.00  0.00     0.031 C 
ATOM     40  C   UNL A   1      38.820  27.460  30.149  1.00  0.00     0.029 A 
ATOM     41  N   UNL A   1      40.385  29.019  30.169  1.00  0.00    -0.354 N 
ATOM     42  C   UNL A   1      44.060  28.319  27.579  1.00  0.00     0.074 A 
ATOM     43  C   UNL A   1      43.315  28.126  26.367  1.00  0.00     0.031 C 
ATOM     44  C   UNL A   1      38.259  28.564  30.688  1.00  0.00     0.029 A 
ATOM     45  C   UNL A   1      39.257  29.616  30.731  1.00  0.00     0.049 A 
ATOM     46  H   UNL A   1      41.266  29.456  30.151  1.00  0.00     0.167 HD
ATOM     47  C   UNL A   1      45.072  29.175  27.893  1.00  0.00     0.037 A 
ATOM     48  C   UNL A   1      39.148  30.890  31.185  1.00  0.00     0.037 A 
ATOM     49  C   UNL A   1      45.396  29.059  29.297  1.00  0.00     0.049 A 
ATOM     50  C   UNL A   1      40.521  31.372  31.446  1.00  0.00     0.074 A 
ATOM     51  C   UNL A   1      45.937  28.098  30.122  1.00  0.00     0.029 A 
ATOM     52  N   UNL A   1      44.721  29.942  30.096  1.00  0.00    -0.354 N 
ATOM     53  N   UNL A   1      41.279  30.911  32.400  1.00  0.00    -0.248 NA
ATOM     54  C   UNL A   1      41.213  32.112  30.400  1.00  0.00     0.031 C 
ATOM     55  C   UNL A   1      45.321  28.291  31.397  1.00  0.00     0.029 A 
ATOM     56  C   UNL A   1      44.483  29.404  31.328  1.00  0.00     0.049 A 
ATOM     57  H   UNL A   1      44.444  30.846  29.819  1.00  0.00     0.167 HD
ATOM     58  C   UNL A   1      42.547  30.889  31.847  1.00  0.00     0.074 A 
ATOM     59  C   UNL A   1      42.474  31.798  30.707  1.00  0.00     0.031 C 
ATOM     60  C   UNL A   1      43.419  29.892  32.180  1.00  0.00     0.037 A 
BRANCH  47  61
ATOM     61  C   UNL A   1      45.386  30.456  27.132  1.00  0.00     0.064 A 
ATOM     62  C   UNL A   1      46.742  30.813  26.951  1.00  0.00     0.173 A 
ATOM     63  C   UNL A   1      44.459  31.492  26.885  1.00  0.00     0.173 A 
ATOM     64  F   UNL A   1      47.719  29.920  27.167  1.00  0.00    -0.203 F 
ATOM     65  C   UNL A   1      47.134  32.121  26.648  1.00  0.00     0.198 A 
ATOM     66  C   UNL A   1      44.853  32.785  26.535  1.00  0.00     0.198 A 
ATOM     67  F   UNL A   1      43.145  31.346  27.075  1.00  0.00    -0.203 F 
ATOM     68  F   UNL A   1      48.436  32.438  26.621  1.00  0.00    -0.200 F 
ATOM     69  C   UNL A   1      46.189  33.109  26.450  1.00  0.00     0.200 A 
ATOM     70  F   UNL A   1      43.919  33.733  26.370  1.00  0.00    -0.200 F 
ATOM     71  F   UNL A   1      46.559  34.376  26.225  1.00  0.00    -0.200 F 
ENDBRANCH  47  61
BRANCH  48  72
ATOM     72  C   UNL A   1      37.984  31.810  31.190  1.00  0.00     0.064 A 
ATOM     73  C   UNL A   1      37.511  32.386  29.995  1.00  0.00     0.173 A 
ATOM     74  C   UNL A   1      37.127  31.895  32.302  1.00  0.00     0.173 A 
ATOM     75  F   UNL A   1      38.246  32.321  28.876  1.00  0.00    -0.203 F 
ATOM     76  C   UNL A   1      36.240  32.964  29.909  1.00  0.00     0.198 A 
ATOM     77  C   UNL A   1      35.860  32.476  32.217  1.00  0.00     0.198 A 
ATOM     78  F   UNL A   1      37.461  31.322  33.468  1.00  0.00    -0.203 F 
ATOM     79  F   UNL A   1      35.795  33.431  28.734  1.00  0.00    -0.200 F 
ATOM     80  C   UNL A   1      35.409  32.994  31.016  1.00  0.00     0.200 A 
ATOM     81  F   UNL A   1      35.051  32.466  33.285  1.00  0.00    -0.200 F 
ATOM     82  F   UNL A   1      34.163  33.476  30.916  1.00  0.00    -0.200 F 
ENDBRANCH  48  72
BRANCH  60  83
ATOM     83  C   UNL A   1      43.156  29.154  33.461  1.00  0.00     0.064 A 
ATOM     84  C   UNL A   1      42.378  27.989  33.578  1.00  0.00     0.173 A 
ATOM     85  C   UNL A   1      43.779  29.631  34.623  1.00  0.00     0.173 A 
ATOM     86  F   UNL A   1      41.825  27.414  32.504  1.00  0.00    -0.203 F 
ATOM     87  C   UNL A   1      42.188  27.370  34.814  1.00  0.00     0.198 A 
ATOM     88  C   UNL A   1      43.623  28.986  35.846  1.00  0.00     0.198 A 
ATOM     89  F   UNL A   1      44.570  30.713  34.565  1.00  0.00    -0.203 F 
ATOM     90  F   UNL A   1      41.413  26.279  34.907  1.00  0.00    -0.200 F 
ATOM     91  C   UNL A   1      42.815  27.868  35.944  1.00  0.00     0.200 A 
ATOM     92  F   UNL A   1      44.271  29.445  36.925  1.00  0.00    -0.200 F 
ATOM     93  F   UNL A   1      42.655  27.257  37.127  1.00  0.00    -0.200 F 
ENDBRANCH  60  83
ENDBRANCH  34  35
ENDBRANCH  26  29
ENDBRANCH  24  25
ENDBRANCH  23  24
ENDBRANCH   1  23
TORSDOF 14
ENDMDL
MODEL 3
REMARK VINA RESULT:     -12.0      3.343      6.092
REMARK SMILES Cn1cc(CNC(=O)Cn2ccc(C(=O)NCCCNC(=O)c3ccc(-c4c5nc(c(-c6c(F)c(F)c(F)c(F)c6F)c6ccc([nH]6)c(-c6c(F)c(F)c(F)c(F)c6F)c6nc(c(-c7c(F)c(F)c(F)c(F)c7F)c7ccc4[nH]7)C=C6)C=C5)cc3)n2)cn1
REMARK SMILES IDX 17 1 16 2 14 3 15 4 13 6 10 7 11 8 86 9 12 10 9 11 7 12 6 13
REMARK SMILES IDX 8 15 5 16 4 17 1 18 2 19 3 20 88 21 87 22 18 23 19 24 20 25
REMARK SMILES IDX 21 26 22 28 23 29 24 30 85 31 25 32 84 33 26 34 27 35 28 36
REMARK SMILES IDX 78 37 29 38 83 39 77 40 79 41 30 42 82 43 76 44 75 45 31 47
REMARK SMILES IDX 63 48 43 49 62 50 44 51 47 52 61 53 80 54 45 55 46 56 60 58
REMARK SMILES IDX 81 59 48 60 32 61 33 62 41 63 34 64 35 65 39 66 42 67 36 68
REMARK SMILES IDX 37 69 40 70 38 71 64 72 65 73 73 74 66 75 67 76 71 77 74 78
REMARK SMILES IDX 68 79 69 80 72 81 70 82 49 83 50 84 58 85 51 86 52 87 56 88
REMARK SMILES IDX 59 89 53 90 54 91 57 92 55 93
REMARK H PARENT 16 5 6 14 20 27 79 46 47 57
REMARK Flexibility Score: inf
ROOT
ATOM      1  C   UNL A   1      43.284  19.366  25.373  1.00  0.00     0.118 C 
ENDROOT
BRANCH   1   2
ATOM      2  N   UNL A   1      44.692  19.019  25.358  1.00  0.00    -0.351 N 
ATOM      3  C   UNL A   1      45.822  19.805  25.292  1.00  0.00     0.271 C 
ATOM      4  O   UNL A   1      46.896  19.215  25.437  1.00  0.00    -0.267 OA
ATOM      5  H   UNL A   1      44.872  18.052  25.401  1.00  0.00     0.163 HD
BRANCH   3   6
ATOM      6  C   UNL A   1      45.740  21.265  25.060  1.00  0.00     0.150 A 
ATOM      7  N   UNL A   1      45.896  23.354  25.524  1.00  0.00    -0.263 N 
ATOM      8  C   UNL A   1      45.551  23.324  24.208  1.00  0.00     0.110 A 
ATOM      9  N   UNL A   1      45.993  22.128  26.068  1.00  0.00    -0.167 NA
ATOM     10  C   UNL A   1      45.452  21.999  23.877  1.00  0.00     0.056 A 
BRANCH   7  11
ATOM     11  C   UNL A   1      46.132  24.517  26.361  1.00  0.00     0.243 C 
BRANCH  11  12
ATOM     12  C   UNL A   1      44.852  25.200  26.776  1.00  0.00     0.241 C 
ATOM     13  N   UNL A   1      44.730  25.711  28.036  1.00  0.00    -0.350 N 
ATOM     14  H   UNL A   1      43.864  26.128  28.245  1.00  0.00     0.163 HD
ATOM     15  O   UNL A   1      43.894  25.299  26.006  1.00  0.00    -0.273 OA
BRANCH  13  16
ATOM     16  C   UNL A   1      45.707  25.721  29.105  1.00  0.00     0.155 C 
BRANCH  16  17
ATOM     17  C   UNL A   1      45.132  24.982  30.250  1.00  0.00     0.009 A 
ATOM     18  C   UNL A   1      44.293  24.199  33.667  1.00  0.00     0.173 C 
ATOM     19  N   UNL A   1      44.505  24.314  32.246  1.00  0.00    -0.275 N 
ATOM     20  C   UNL A   1      45.155  25.318  31.588  1.00  0.00     0.113 A 
ATOM     21  N   UNL A   1      44.046  23.351  31.430  1.00  0.00    -0.181 NA
ATOM     22  C   UNL A   1      44.423  23.758  30.217  1.00  0.00     0.140 A 
ENDBRANCH  16  17
ENDBRANCH  13  16
ENDBRANCH  11  12
ENDBRANCH   7  11
ENDBRANCH   3   6
ENDBRANCH   1   2
BRANCH   1  23
ATOM     23  C   UNL A   1      42.885  20.147  26.631  1.00  0.00     0.042 C 
BRANCH  23  24
ATOM     24  C   UNL A   1      42.357  21.534  26.302  1.00  0.00     0.118 C 
BRANCH  24  25
ATOM     25  N   UNL A   1      40.913  21.532  26.064  1.00  0.00    -0.352 N 
ATOM     26  C   UNL A   1      39.961  22.444  26.479  1.00  0.00     0.251 C 
ATOM     27  H   UNL A   1      40.572  20.776  25.536  1.00  0.00     0.163 HD
ATOM     28  O   UNL A   1      38.781  22.142  26.501  1.00  0.00    -0.269 OA
BRANCH  26  29
ATOM     29  C   UNL A   1      40.395  23.788  26.903  1.00  0.00     0.039 A 
ATOM     30  C   UNL A   1      40.023  24.922  26.177  1.00  0.00     0.014 A 
ATOM     31  C   UNL A   1      41.169  23.905  28.054  1.00  0.00     0.014 A 
ATOM     32  C   UNL A   1      40.367  26.176  26.671  1.00  0.00     0.010 A 
ATOM     33  C   UNL A   1      41.360  25.136  28.628  1.00  0.00     0.010 A 
ATOM     34  C   UNL A   1      41.010  26.275  27.917  1.00  0.00    -0.014 A 
BRANCH  34  35
ATOM     35  C   UNL A   1      41.167  27.570  28.571  1.00  0.00     0.031 A 
ATOM     36  C   UNL A   1      42.331  28.337  28.054  1.00  0.00     0.074 A 
ATOM     37  C   UNL A   1      40.237  28.107  29.393  1.00  0.00     0.049 A 
ATOM     38  N   UNL A   1      43.427  28.602  28.683  1.00  0.00    -0.248 NA
ATOM     39  C   UNL A   1      42.370  28.690  26.625  1.00  0.00     0.031 C 
ATOM     40  C   UNL A   1      38.912  27.567  29.719  1.00  0.00     0.029 A 
ATOM     41  N   UNL A   1      40.231  29.309  30.041  1.00  0.00    -0.354 N 
ATOM     42  C   UNL A   1      44.194  29.364  27.804  1.00  0.00     0.074 A 
ATOM     43  C   UNL A   1      43.600  29.197  26.507  1.00  0.00     0.031 C 
ATOM     44  C   UNL A   1      38.152  28.528  30.290  1.00  0.00     0.029 A 
ATOM     45  C   UNL A   1      38.983  29.693  30.529  1.00  0.00     0.049 A 
ATOM     46  H   UNL A   1      41.040  29.859  30.154  1.00  0.00     0.167 HD
ATOM     47  C   UNL A   1      45.041  30.310  28.297  1.00  0.00     0.037 A 
ATOM     48  C   UNL A   1      38.653  30.888  31.078  1.00  0.00     0.037 A 
ATOM     49  C   UNL A   1      45.246  30.098  29.711  1.00  0.00     0.049 A 
ATOM     50  C   UNL A   1      39.914  31.519  31.523  1.00  0.00     0.074 A 
ATOM     51  C   UNL A   1      45.838  29.139  30.503  1.00  0.00     0.029 A 
ATOM     52  N   UNL A   1      44.382  30.799  30.508  1.00  0.00    -0.354 N 
ATOM     53  N   UNL A   1      40.638  31.069  32.509  1.00  0.00    -0.248 NA
ATOM     54  C   UNL A   1      40.588  32.445  30.625  1.00  0.00     0.031 C 
ATOM     55  C   UNL A   1      45.085  29.120  31.718  1.00  0.00     0.029 A 
ATOM     56  C   UNL A   1      44.108  30.114  31.657  1.00  0.00     0.049 A 
ATOM     57  H   UNL A   1      44.007  31.682  30.283  1.00  0.00     0.167 HD
ATOM     58  C   UNL A   1      41.941  31.270  32.093  1.00  0.00     0.074 A 
ATOM     59  C   UNL A   1      41.847  32.271  31.035  1.00  0.00     0.031 C 
ATOM     60  C   UNL A   1      42.911  30.369  32.429  1.00  0.00     0.037 A 
BRANCH  47  61
ATOM     61  C   UNL A   1      45.240  31.691  27.687  1.00  0.00     0.064 A 
ATOM     62  C   UNL A   1      46.551  32.086  27.334  1.00  0.00     0.173 A 
ATOM     63  C   UNL A   1      44.299  32.743  27.753  1.00  0.00     0.173 A 
ATOM     64  F   UNL A   1      47.537  31.181  27.249  1.00  0.00    -0.203 F 
ATOM     65  C   UNL A   1      46.904  33.428  27.161  1.00  0.00     0.198 A 
ATOM     66  C   UNL A   1      44.646  34.077  27.532  1.00  0.00     0.198 A 
ATOM     67  F   UNL A   1      43.034  32.557  28.138  1.00  0.00    -0.203 F 
ATOM     68  F   UNL A   1      48.188  33.759  26.961  1.00  0.00    -0.200 F 
ATOM     69  C   UNL A   1      45.953  34.424  27.270  1.00  0.00     0.200 A 
ATOM     70  F   UNL A   1      43.712  35.029  27.665  1.00  0.00    -0.200 F 
ATOM     71  F   UNL A   1      46.298  35.714  27.172  1.00  0.00    -0.200 F 
ENDBRANCH  47  61
BRANCH  48  72
ATOM     72  C   UNL A   1      37.375  31.642  31.038  1.00  0.00     0.064 A 
ATOM     73  C   UNL A   1      36.614  31.839  32.206  1.00  0.00     0.173 A 
ATOM     74  C   UNL A   1      37.037  32.443  29.933  1.00  0.00     0.173 A 
ATOM     75  F   UNL A   1      36.889  31.143  33.319  1.00  0.00    -0.203 F 
ATOM     76  C   UNL A   1      35.612  32.813  32.276  1.00  0.00     0.198 A 
ATOM     77  C   UNL A   1      36.034  33.412  30.002  1.00  0.00     0.198 A 
ATOM     78  F   UNL A   1      37.744  32.374  28.795  1.00  0.00    -0.203 F 
ATOM     79  F   UNL A   1      34.963  33.024  33.430  1.00  0.00    -0.200 F 
ATOM     80  C   UNL A   1      35.334  33.610  31.179  1.00  0.00     0.200 A 
ATOM     81  F   UNL A   1      35.799  34.203  28.945  1.00  0.00    -0.200 F 
ATOM     82  F   UNL A   1      34.429  34.595  31.267  1.00  0.00    -0.200 F 
ENDBRANCH  48  72
BRANCH  60  83
ATOM     83  C   UNL A   1      42.637  29.478  33.607  1.00  0.00     0.064 A 
ATOM     84  C   UNL A   1      41.994  28.229  33.544  1.00  0.00     0.173 A 
ATOM     85  C   UNL A   1      43.108  29.896  34.860  1.00  0.00     0.173 A 
ATOM     86  F   UNL A   1      41.597  27.712  32.375  1.00  0.00    -0.203 F 
ATOM     87  C   UNL A   1      41.781  27.468  34.694  1.00  0.00     0.198 A 
ATOM     88  C   UNL A   1      42.933  29.115  35.997  1.00  0.00     0.198 A 
ATOM     89  F   UNL A   1      43.768  31.058  34.974  1.00  0.00    -0.203 F 
ATOM     90  F   UNL A   1      41.134  26.297  34.614  1.00  0.00    -0.200 F 
ATOM     91  C   UNL A   1      42.255  27.911  35.917  1.00  0.00     0.200 A 
ATOM     92  F   UNL A   1      43.437  29.527  37.169  1.00  0.00    -0.200 F 
ATOM     93  F   UNL A   1      42.077  27.167  37.019  1.00  0.00    -0.200 F 
ENDBRANCH  60  83
ENDBRANCH  34  35
ENDBRANCH  26  29
ENDBRANCH  24  25
ENDBRANCH  23  24
ENDBRANCH   1  23
TORSDOF 14
ENDMDL
