MODEL 1
REMARK VINA RESULT:     -11.9      0.000      0.000
REMARK SMILES C[NH+](C)Cc1noc(C[C@@](C)(C(=O)NCCCNC(=O)c2ccc(-c3c4nc(c(-c5c(F)c(F)c(F)c(F)c5F)c5ccc([nH]5)c(-c5c(F)c(F)c(F)c(F)c5F)c5nc(c(-c6c(F)c(F)c(F)c(F)c6F)c6ccc3[nH]6)C=C5)C=C4)cc2)c2ccccc2)n1
REMARK SMILES IDX 15 1 14 2 12 3 13 4 10 6 11 7 9 8 8 9 5 10 6 11 90 12 7 13
REMARK SMILES IDX 4 14 2 15 1 16 3 17 84 19 85 20 89 21 86 22 88 23 87 24
REMARK SMILES IDX 16 25 17 26 18 27 19 28 20 30 21 31 22 32 83 33 23 34 82 35
REMARK SMILES IDX 24 36 25 37 26 38 76 39 27 40 81 41 75 42 77 43 28 44 80 45
REMARK SMILES IDX 74 46 73 47 29 49 61 50 41 51 60 52 42 53 45 54 59 55 78 56
REMARK SMILES IDX 43 57 44 58 58 60 79 61 46 62 30 63 31 64 39 65 32 66 33 67
REMARK SMILES IDX 37 68 40 69 34 70 35 71 38 72 36 73 62 74 63 75 71 76 64 77
REMARK SMILES IDX 65 78 69 79 72 80 66 81 67 82 70 83 68 84 47 85 48 86 56 87
REMARK SMILES IDX 49 88 50 89 54 90 57 91 51 92 52 93 55 94 53 95
REMARK H PARENT 14 5 2 18 18 29 77 48 45 59
REMARK Flexibility Score: inf
ROOT
ATOM      1  C   UNL A   1      33.326  26.455  24.739  1.00  0.00     0.117 C 
ENDROOT
BRANCH   1   2
ATOM      2  N   UNL A   1      32.554  25.838  25.812  1.00  0.00    -0.355 N 
ATOM      3  C   UNL A   1      32.316  24.543  26.186  1.00  0.00     0.230 C 
ATOM      4  O   UNL A   1      31.692  24.433  27.245  1.00  0.00    -0.274 OA
ATOM      5  H   UNL A   1      32.108  26.495  26.393  1.00  0.00     0.163 HD
BRANCH   3   6
ATOM      6  C   UNL A   1      32.813  23.317  25.357  1.00  0.00     0.080 C 
ATOM      7  C   UNL A   1      31.968  23.334  24.056  1.00  0.00     0.027 C 
BRANCH   6   8
ATOM      8  C   UNL A   1      32.643  22.052  26.238  1.00  0.00     0.122 C 
BRANCH   8   9
ATOM      9  C   UNL A   1      32.855  20.764  25.539  1.00  0.00     0.228 A 
ATOM     10  C   UNL A   1      33.475  18.921  24.764  1.00  0.00     0.226 A 
ATOM     11  N   UNL A   1      32.166  18.961  24.468  1.00  0.00    -0.056 NA
ATOM     12  N   UNL A   1      33.933  20.019  25.454  1.00  0.00    -0.190 NA
ATOM     13  O   UNL A   1      31.756  20.191  24.972  1.00  0.00    -0.339 OA
BRANCH  10  14
ATOM     14  C   UNL A   1      34.363  17.746  24.478  1.00  0.00     0.344 C 
BRANCH  14  15
ATOM     15  N   UNL A   1      34.437  16.703  25.522  1.00  0.00    -0.333 N 
ATOM     16  C   UNL A   1      33.162  16.032  25.758  1.00  0.00     0.332 C 
ATOM     17  C   UNL A   1      35.513  15.745  25.291  1.00  0.00     0.332 C 
ATOM     18  H   UNL A   1      34.662  17.203  26.383  1.00  0.00     0.348 HD
ENDBRANCH  14  15
ENDBRANCH  10  14
ENDBRANCH   8   9
ENDBRANCH   6   8
BRANCH   6  19
ATOM     19  C   UNL A   1      34.333  23.393  25.001  1.00  0.00    -0.032 A 
ATOM     20  C   UNL A   1      34.800  23.139  23.693  1.00  0.00     0.005 A 
ATOM     21  C   UNL A   1      35.308  23.591  25.996  1.00  0.00     0.005 A 
ATOM     22  C   UNL A   1      36.164  23.105  23.395  1.00  0.00     0.000 A 
ATOM     23  C   UNL A   1      36.674  23.568  25.696  1.00  0.00     0.000 A 
ATOM     24  C   UNL A   1      37.102  23.322  24.396  1.00  0.00     0.000 A 
ENDBRANCH   6  19
ENDBRANCH   3   6
ENDBRANCH   1   2
BRANCH   1  25
ATOM     25  C   UNL A   1      33.681  27.908  25.030  1.00  0.00     0.042 C 
BRANCH  25  26
ATOM     26  C   UNL A   1      34.161  28.162  26.452  1.00  0.00     0.118 C 
BRANCH  26  27
ATOM     27  N   UNL A   1      33.838  29.503  26.922  1.00  0.00    -0.352 N 
ATOM     28  C   UNL A   1      34.524  30.338  27.767  1.00  0.00     0.251 C 
ATOM     29  H   UNL A   1      32.992  29.869  26.579  1.00  0.00     0.163 HD
ATOM     30  O   UNL A   1      33.976  31.357  28.187  1.00  0.00    -0.269 OA
BRANCH  28  31
ATOM     31  C   UNL A   1      35.905  30.023  28.194  1.00  0.00     0.039 A 
ATOM     32  C   UNL A   1      36.112  29.497  29.473  1.00  0.00     0.014 A 
ATOM     33  C   UNL A   1      36.996  30.271  27.358  1.00  0.00     0.014 A 
ATOM     34  C   UNL A   1      37.403  29.158  29.885  1.00  0.00     0.010 A 
ATOM     35  C   UNL A   1      38.270  29.853  27.736  1.00  0.00     0.010 A 
ATOM     36  C   UNL A   1      38.489  29.298  29.006  1.00  0.00    -0.014 A 
BRANCH  36  37
ATOM     37  C   UNL A   1      39.859  28.875  29.392  1.00  0.00     0.031 A 
ATOM     38  C   UNL A   1      40.723  29.783  30.225  1.00  0.00     0.074 A 
ATOM     39  C   UNL A   1      40.356  27.713  28.924  1.00  0.00     0.049 A 
ATOM     40  N   UNL A   1      41.976  29.639  30.579  1.00  0.00    -0.248 NA
ATOM     41  C   UNL A   1      40.110  31.034  30.697  1.00  0.00     0.031 C 
ATOM     42  C   UNL A   1      39.639  26.773  28.058  1.00  0.00     0.029 A 
ATOM     43  N   UNL A   1      41.588  27.131  29.092  1.00  0.00    -0.354 N 
ATOM     44  C   UNL A   1      42.305  30.790  31.282  1.00  0.00     0.074 A 
ATOM     45  C   UNL A   1      41.136  31.641  31.277  1.00  0.00     0.031 C 
ATOM     46  C   UNL A   1      40.440  25.732  27.780  1.00  0.00     0.029 A 
ATOM     47  C   UNL A   1      41.736  25.945  28.415  1.00  0.00     0.049 A 
ATOM     48  H   UNL A   1      42.299  27.528  29.646  1.00  0.00     0.167 HD
ATOM     49  C   UNL A   1      43.473  31.100  31.894  1.00  0.00     0.037 A 
ATOM     50  C   UNL A   1      42.802  25.128  28.308  1.00  0.00     0.037 A 
ATOM     51  C   UNL A   1      44.614  30.226  31.948  1.00  0.00     0.049 A 
ATOM     52  C   UNL A   1      44.074  25.483  29.030  1.00  0.00     0.074 A 
ATOM     53  C   UNL A   1      45.805  30.405  32.633  1.00  0.00     0.029 A 
ATOM     54  N   UNL A   1      44.707  29.007  31.294  1.00  0.00    -0.354 N 
ATOM     55  N   UNL A   1      44.341  26.531  29.770  1.00  0.00    -0.248 NA
ATOM     56  C   UNL A   1      45.192  24.536  28.910  1.00  0.00     0.031 C 
ATOM     57  C   UNL A   1      46.636  29.316  32.355  1.00  0.00     0.029 A 
ATOM     58  C   UNL A   1      45.946  28.436  31.538  1.00  0.00     0.049 A 
ATOM     59  H   UNL A   1      44.000  28.607  30.739  1.00  0.00     0.167 HD
ATOM     60  C   UNL A   1      45.641  26.356  30.226  1.00  0.00     0.074 A 
ATOM     61  C   UNL A   1      46.104  25.092  29.694  1.00  0.00     0.031 C 
ATOM     62  C   UNL A   1      46.384  27.169  31.014  1.00  0.00     0.037 A 
BRANCH  49  63
ATOM     63  C   UNL A   1      43.586  32.435  32.569  1.00  0.00     0.064 A 
ATOM     64  C   UNL A   1      44.017  33.577  31.879  1.00  0.00     0.173 A 
ATOM     65  C   UNL A   1      43.181  32.587  33.904  1.00  0.00     0.173 A 
ATOM     66  F   UNL A   1      44.424  33.482  30.603  1.00  0.00    -0.203 F 
ATOM     67  C   UNL A   1      44.054  34.820  32.505  1.00  0.00     0.198 A 
ATOM     68  C   UNL A   1      43.193  33.836  34.518  1.00  0.00     0.198 A 
ATOM     69  F   UNL A   1      42.756  31.527  34.607  1.00  0.00    -0.203 F 
ATOM     70  F   UNL A   1      44.499  35.892  31.835  1.00  0.00    -0.200 F 
ATOM     71  C   UNL A   1      43.631  34.951  33.819  1.00  0.00     0.200 A 
ATOM     72  F   UNL A   1      42.773  33.964  35.784  1.00  0.00    -0.200 F 
ATOM     73  F   UNL A   1      43.650  36.152  34.414  1.00  0.00    -0.200 F 
ENDBRANCH  49  63
BRANCH  50  74
ATOM     74  C   UNL A   1      42.718  23.889  27.490  1.00  0.00     0.064 A 
ATOM     75  C   UNL A   1      42.343  22.668  28.067  1.00  0.00     0.173 A 
ATOM     76  C   UNL A   1      43.041  23.893  26.125  1.00  0.00     0.173 A 
ATOM     77  F   UNL A   1      42.044  22.609  29.374  1.00  0.00    -0.203 F 
ATOM     78  C   UNL A   1      42.327  21.492  27.320  1.00  0.00     0.198 A 
ATOM     79  C   UNL A   1      42.994  22.722  25.371  1.00  0.00     0.198 A 
ATOM     80  F   UNL A   1      43.399  25.035  25.523  1.00  0.00    -0.203 F 
ATOM     81  F   UNL A   1      42.023  20.329  27.912  1.00  0.00    -0.200 F 
ATOM     82  C   UNL A   1      42.649  21.520  25.972  1.00  0.00     0.200 A 
ATOM     83  F   UNL A   1      43.294  22.756  24.065  1.00  0.00    -0.200 F 
ATOM     84  F   UNL A   1      42.640  20.389  25.254  1.00  0.00    -0.200 F 
ENDBRANCH  50  74
BRANCH  62  85
ATOM     85  C   UNL A   1      47.760  26.700  31.384  1.00  0.00     0.064 A 
ATOM     86  C   UNL A   1      47.983  25.871  32.494  1.00  0.00     0.173 A 
ATOM     87  C   UNL A   1      48.864  27.048  30.591  1.00  0.00     0.173 A 
ATOM     88  F   UNL A   1      46.962  25.523  33.291  1.00  0.00    -0.203 F 
ATOM     89  C   UNL A   1      49.265  25.430  32.809  1.00  0.00     0.198 A 
ATOM     90  C   UNL A   1      50.140  26.580  30.893  1.00  0.00     0.198 A 
ATOM     91  F   UNL A   1      48.702  27.833  29.514  1.00  0.00    -0.203 F 
ATOM     92  F   UNL A   1      49.461  24.678  33.901  1.00  0.00    -0.200 F 
ATOM     93  C   UNL A   1      50.340  25.778  32.005  1.00  0.00     0.200 A 
ATOM     94  F   UNL A   1      51.175  26.906  30.105  1.00  0.00    -0.200 F 
ATOM     95  F   UNL A   1      51.571  25.345  32.306  1.00  0.00    -0.200 F 
ENDBRANCH  62  85
ENDBRANCH  36  37
ENDBRANCH  28  31
ENDBRANCH  26  27
ENDBRANCH  25  26
ENDBRANCH   1  25
TORSDOF 15
ENDMDL
MODEL 2
REMARK VINA RESULT:     -11.8      3.733      7.508
REMARK SMILES C[NH+](C)Cc1noc(C[C@@](C)(C(=O)NCCCNC(=O)c2ccc(-c3c4nc(c(-c5c(F)c(F)c(F)c(F)c5F)c5ccc([nH]5)c(-c5c(F)c(F)c(F)c(F)c5F)c5nc(c(-c6c(F)c(F)c(F)c(F)c6F)c6ccc3[nH]6)C=C5)C=C4)cc2)c2ccccc2)n1
REMARK SMILES IDX 15 1 14 2 12 3 13 4 10 6 11 7 9 8 8 9 5 10 6 11 90 12 7 13
REMARK SMILES IDX 4 14 2 15 1 16 3 17 84 19 85 20 89 21 86 22 88 23 87 24
REMARK SMILES IDX 16 25 17 26 18 27 19 28 20 30 21 31 22 32 83 33 23 34 82 35
REMARK SMILES IDX 24 36 25 37 26 38 76 39 27 40 81 41 75 42 77 43 28 44 80 45
REMARK SMILES IDX 74 46 73 47 29 49 61 50 41 51 60 52 42 53 45 54 59 55 78 56
REMARK SMILES IDX 43 57 44 58 58 60 79 61 46 62 30 63 31 64 39 65 32 66 33 67
REMARK SMILES IDX 37 68 40 69 34 70 35 71 38 72 36 73 62 74 63 75 71 76 64 77
REMARK SMILES IDX 65 78 69 79 72 80 66 81 67 82 70 83 68 84 47 85 48 86 56 87
REMARK SMILES IDX 49 88 50 89 54 90 57 91 51 92 52 93 55 94 53 95
REMARK H PARENT 14 5 2 18 18 29 77 48 45 59
REMARK Flexibility Score: inf
ROOT
ATOM      1  C   UNL A   1      36.999  20.466  25.001  1.00  0.00     0.117 C 
ENDROOT
BRANCH   1   2
ATOM      2  N   UNL A   1      37.324  21.885  25.080  1.00  0.00    -0.355 N 
ATOM      3  C   UNL A   1      36.578  23.022  25.236  1.00  0.00     0.230 C 
ATOM      4  O   UNL A   1      37.250  24.048  25.376  1.00  0.00    -0.274 OA
ATOM      5  H   UNL A   1      38.289  22.064  25.005  1.00  0.00     0.163 HD
BRANCH   3   6
ATOM      6  C   UNL A   1      35.017  23.014  25.260  1.00  0.00     0.080 C 
ATOM      7  C   UNL A   1      34.633  22.502  26.674  1.00  0.00     0.027 C 
BRANCH   6   8
ATOM      8  C   UNL A   1      34.532  22.129  24.083  1.00  0.00     0.122 C 
BRANCH   8   9
ATOM      9  C   UNL A   1      33.693  20.971  24.469  1.00  0.00     0.228 A 
ATOM     10  C   UNL A   1      32.834  19.193  25.162  1.00  0.00     0.226 A 
ATOM     11  N   UNL A   1      31.779  20.008  25.001  1.00  0.00    -0.056 NA
ATOM     12  N   UNL A   1      34.046  19.770  24.863  1.00  0.00    -0.190 NA
ATOM     13  O   UNL A   1      32.349  21.187  24.528  1.00  0.00    -0.339 OA
BRANCH  10  14
ATOM     14  C   UNL A   1      32.741  17.805  25.724  1.00  0.00     0.344 C 
BRANCH  14  15
ATOM     15  N   UNL A   1      32.514  16.712  24.755  1.00  0.00    -0.333 N 
ATOM     16  C   UNL A   1      33.405  16.772  23.600  1.00  0.00     0.332 C 
ATOM     17  C   UNL A   1      32.528  15.392  25.377  1.00  0.00     0.332 C 
ATOM     18  H   UNL A   1      31.570  16.864  24.399  1.00  0.00     0.348 HD
ENDBRANCH  14  15
ENDBRANCH  10  14
ENDBRANCH   8   9
ENDBRANCH   6   8
BRANCH   6  19
ATOM     19  C   UNL A   1      34.393  24.427  25.023  1.00  0.00    -0.032 A 
ATOM     20  C   UNL A   1      33.860  25.188  26.085  1.00  0.00     0.005 A 
ATOM     21  C   UNL A   1      34.220  24.941  23.724  1.00  0.00     0.005 A 
ATOM     22  C   UNL A   1      33.210  26.405  25.862  1.00  0.00     0.000 A 
ATOM     23  C   UNL A   1      33.578  26.163  23.500  1.00  0.00     0.000 A 
ATOM     24  C   UNL A   1      33.071  26.894  24.569  1.00  0.00     0.000 A 
ENDBRANCH   6  19
ENDBRANCH   3   6
ENDBRANCH   1   2
BRANCH   1  25
ATOM     25  C   UNL A   1      38.237  19.578  24.978  1.00  0.00     0.042 C 
BRANCH  25  26
ATOM     26  C   UNL A   1      39.325  19.997  25.957  1.00  0.00     0.118 C 
BRANCH  26  27
ATOM     27  N   UNL A   1      40.415  19.034  26.031  1.00  0.00    -0.352 N 
ATOM     28  C   UNL A   1      41.768  19.228  26.151  1.00  0.00     0.251 C 
ATOM     29  H   UNL A   1      40.137  18.091  25.988  1.00  0.00     0.163 HD
ATOM     30  O   UNL A   1      42.532  18.276  26.000  1.00  0.00    -0.269 OA
BRANCH  28  31
ATOM     31  C   UNL A   1      42.321  20.569  26.441  1.00  0.00     0.039 A 
ATOM     32  C   UNL A   1      42.755  21.365  25.375  1.00  0.00     0.014 A 
ATOM     33  C   UNL A   1      42.446  21.034  27.752  1.00  0.00     0.014 A 
ATOM     34  C   UNL A   1      43.247  22.649  25.621  1.00  0.00     0.010 A 
ATOM     35  C   UNL A   1      42.856  22.343  27.989  1.00  0.00     0.010 A 
ATOM     36  C   UNL A   1      43.267  23.164  26.927  1.00  0.00    -0.014 A 
BRANCH  36  37
ATOM     37  C   UNL A   1      43.715  24.552  27.208  1.00  0.00     0.031 A 
ATOM     38  C   UNL A   1      42.731  25.578  27.700  1.00  0.00     0.074 A 
ATOM     39  C   UNL A   1      44.987  24.909  26.941  1.00  0.00     0.049 A 
ATOM     40  N   UNL A   1      42.904  26.860  27.905  1.00  0.00    -0.248 NA
ATOM     41  C   UNL A   1      41.361  25.111  27.967  1.00  0.00     0.031 C 
ATOM     42  C   UNL A   1      46.021  24.021  26.404  1.00  0.00     0.029 A 
ATOM     43  N   UNL A   1      45.623  26.120  27.064  1.00  0.00    -0.354 N 
ATOM     44  C   UNL A   1      41.664  27.352  28.291  1.00  0.00     0.074 A 
ATOM     45  C   UNL A   1      40.737  26.243  28.257  1.00  0.00     0.031 C 
ATOM     46  C   UNL A   1      47.162  24.714  26.254  1.00  0.00     0.029 A 
ATOM     47  C   UNL A   1      46.933  26.100  26.648  1.00  0.00     0.049 A 
ATOM     48  H   UNL A   1      45.183  26.926  27.418  1.00  0.00     0.167 HD
ATOM     49  C   UNL A   1      41.335  28.614  28.658  1.00  0.00     0.037 A 
ATOM     50  C   UNL A   1      47.842  27.092  26.578  1.00  0.00     0.037 A 
ATOM     51  C   UNL A   1      42.272  29.701  28.747  1.00  0.00     0.049 A 
ATOM     52  C   UNL A   1      47.454  28.476  27.028  1.00  0.00     0.074 A 
ATOM     53  C   UNL A   1      42.056  30.988  29.210  1.00  0.00     0.029 A 
ATOM     54  N   UNL A   1      43.603  29.629  28.367  1.00  0.00    -0.354 N 
ATOM     55  N   UNL A   1      46.301  28.906  27.480  1.00  0.00    -0.248 NA
ATOM     56  C   UNL A   1      48.496  29.510  26.968  1.00  0.00     0.031 C 
ATOM     57  C   UNL A   1      43.246  31.709  29.065  1.00  0.00     0.029 A 
ATOM     58  C   UNL A   1      44.215  30.858  28.560  1.00  0.00     0.049 A 
ATOM     59  H   UNL A   1      44.048  28.826  28.012  1.00  0.00     0.167 HD
ATOM     60  C   UNL A   1      46.488  30.248  27.785  1.00  0.00     0.074 A 
ATOM     61  C   UNL A   1      47.869  30.558  27.483  1.00  0.00     0.031 C 
ATOM     62  C   UNL A   1      45.595  31.144  28.270  1.00  0.00     0.037 A 
BRANCH  49  63
ATOM     63  C   UNL A   1      39.903  28.898  29.005  1.00  0.00     0.064 A 
ATOM     64  C   UNL A   1      38.976  29.307  28.036  1.00  0.00     0.173 A 
ATOM     65  C   UNL A   1      39.437  28.682  30.312  1.00  0.00     0.173 A 
ATOM     66  F   UNL A   1      39.373  29.536  26.775  1.00  0.00    -0.203 F 
ATOM     67  C   UNL A   1      37.637  29.503  28.365  1.00  0.00     0.198 A 
ATOM     68  C   UNL A   1      38.094  28.853  30.630  1.00  0.00     0.198 A 
ATOM     69  F   UNL A   1      40.283  28.286  31.274  1.00  0.00    -0.203 F 
ATOM     70  F   UNL A   1      36.774  29.924  27.429  1.00  0.00    -0.200 F 
ATOM     71  C   UNL A   1      37.195  29.266  29.658  1.00  0.00     0.200 A 
ATOM     72  F   UNL A   1      37.665  28.612  31.877  1.00  0.00    -0.200 F 
ATOM     73  F   UNL A   1      35.903  29.438  29.968  1.00  0.00    -0.200 F 
ENDBRANCH  49  63
BRANCH  50  74
ATOM     74  C   UNL A   1      49.211  26.820  26.068  1.00  0.00     0.064 A 
ATOM     75  C   UNL A   1      49.531  27.022  24.718  1.00  0.00     0.173 A 
ATOM     76  C   UNL A   1      50.217  26.324  26.909  1.00  0.00     0.173 A 
ATOM     77  F   UNL A   1      48.597  27.476  23.869  1.00  0.00    -0.203 F 
ATOM     78  C   UNL A   1      50.794  26.704  24.222  1.00  0.00     0.198 A 
ATOM     79  C   UNL A   1      51.489  26.036  26.418  1.00  0.00     0.198 A 
ATOM     80  F   UNL A   1      49.966  26.119  28.210  1.00  0.00    -0.203 F 
ATOM     81  F   UNL A   1      51.053  26.850  22.915  1.00  0.00    -0.200 F 
ATOM     82  C   UNL A   1      51.773  26.215  25.072  1.00  0.00     0.200 A 
ATOM     83  F   UNL A   1      52.437  25.576  27.247  1.00  0.00    -0.200 F 
ATOM     84  F   UNL A   1      52.986  25.905  24.594  1.00  0.00    -0.200 F 
ENDBRANCH  50  74
BRANCH  62  85
ATOM     85  C   UNL A   1      46.092  32.532  28.544  1.00  0.00     0.064 A 
ATOM     86  C   UNL A   1      46.659  32.881  29.779  1.00  0.00     0.173 A 
ATOM     87  C   UNL A   1      46.041  33.513  27.542  1.00  0.00     0.173 A 
ATOM     88  F   UNL A   1      46.717  31.982  30.773  1.00  0.00    -0.203 F 
ATOM     89  C   UNL A   1      47.133  34.170  30.008  1.00  0.00     0.198 A 
ATOM     90  C   UNL A   1      46.543  34.792  27.766  1.00  0.00     0.198 A 
ATOM     91  F   UNL A   1      45.515  33.227  26.342  1.00  0.00    -0.203 F 
ATOM     92  F   UNL A   1      47.627  34.495  31.210  1.00  0.00    -0.200 F 
ATOM     93  C   UNL A   1      47.082  35.121  29.000  1.00  0.00     0.200 A 
ATOM     94  F   UNL A   1      46.506  35.706  26.785  1.00  0.00    -0.200 F 
ATOM     95  F   UNL A   1      47.547  36.358  29.221  1.00  0.00    -0.200 F 
ENDBRANCH  62  85
ENDBRANCH  36  37
ENDBRANCH  28  31
ENDBRANCH  26  27
ENDBRANCH  25  26
ENDBRANCH   1  25
TORSDOF 15
ENDMDL
MODEL 3
REMARK VINA RESULT:     -11.8      3.551      7.753
REMARK SMILES C[NH+](C)Cc1noc(C[C@@](C)(C(=O)NCCCNC(=O)c2ccc(-c3c4nc(c(-c5c(F)c(F)c(F)c(F)c5F)c5ccc([nH]5)c(-c5c(F)c(F)c(F)c(F)c5F)c5nc(c(-c6c(F)c(F)c(F)c(F)c6F)c6ccc3[nH]6)C=C5)C=C4)cc2)c2ccccc2)n1
REMARK SMILES IDX 15 1 14 2 12 3 13 4 10 6 11 7 9 8 8 9 5 10 6 11 90 12 7 13
REMARK SMILES IDX 4 14 2 15 1 16 3 17 84 19 85 20 89 21 86 22 88 23 87 24
REMARK SMILES IDX 16 25 17 26 18 27 19 28 20 30 21 31 22 32 83 33 23 34 82 35
REMARK SMILES IDX 24 36 25 37 26 38 76 39 27 40 81 41 75 42 77 43 28 44 80 45
REMARK SMILES IDX 74 46 73 47 29 49 61 50 41 51 60 52 42 53 45 54 59 55 78 56
REMARK SMILES IDX 43 57 44 58 58 60 79 61 46 62 30 63 31 64 39 65 32 66 33 67
REMARK SMILES IDX 37 68 40 69 34 70 35 71 38 72 36 73 62 74 63 75 71 76 64 77
REMARK SMILES IDX 65 78 69 79 72 80 66 81 67 82 70 83 68 84 47 85 48 86 56 87
REMARK SMILES IDX 49 88 50 89 54 90 57 91 51 92 52 93 55 94 53 95
REMARK H PARENT 14 5 2 18 18 29 77 48 45 59
REMARK Flexibility Score: inf
ROOT
ATOM      1  C   UNL A   1      36.568  20.891  24.732  1.00  0.00     0.117 C 
ENDROOT
BRANCH   1   2
ATOM      2  N   UNL A   1      35.765  21.116  25.927  1.00  0.00    -0.355 N 
ATOM      3  C   UNL A   1      34.420  21.212  26.162  1.00  0.00     0.230 C 
ATOM      4  O   UNL A   1      34.123  21.291  27.358  1.00  0.00    -0.274 OA
ATOM      5  H   UNL A   1      36.307  21.222  26.742  1.00  0.00     0.163 HD
BRANCH   3   6
ATOM      6  C   UNL A   1      33.357  21.196  25.019  1.00  0.00     0.080 C 
ATOM      7  C   UNL A   1      33.837  22.264  24.000  1.00  0.00     0.027 C 
BRANCH   6   8
ATOM      8  C   UNL A   1      31.972  21.471  25.658  1.00  0.00     0.122 C 
BRANCH   8   9
ATOM      9  C   UNL A   1      31.580  22.898  25.727  1.00  0.00     0.228 A 
ATOM     10  C   UNL A   1      30.787  24.825  25.536  1.00  0.00     0.226 A 
ATOM     11  N   UNL A   1      31.322  24.827  26.767  1.00  0.00    -0.056 NA
ATOM     12  N   UNL A   1      30.908  23.629  24.868  1.00  0.00    -0.190 NA
ATOM     13  O   UNL A   1      31.861  23.550  26.890  1.00  0.00    -0.339 OA
BRANCH  10  14
ATOM     14  C   UNL A   1      30.019  25.975  24.954  1.00  0.00     0.344 C 
BRANCH  14  15
ATOM     15  N   UNL A   1      30.784  26.930  24.126  1.00  0.00    -0.333 N 
ATOM     16  C   UNL A   1      30.008  27.484  23.020  1.00  0.00     0.332 C 
ATOM     17  C   UNL A   1      31.422  27.980  24.914  1.00  0.00     0.332 C 
ATOM     18  H   UNL A   1      31.532  26.378  23.705  1.00  0.00     0.348 HD
ENDBRANCH  14  15
ENDBRANCH  10  14
ENDBRANCH   8   9
ENDBRANCH   6   8
BRANCH   6  19
ATOM     19  C   UNL A   1      33.238  19.808  24.311  1.00  0.00    -0.032 A 
ATOM     20  C   UNL A   1      34.055  18.717  24.679  1.00  0.00     0.005 A 
ATOM     21  C   UNL A   1      32.402  19.627  23.193  1.00  0.00     0.005 A 
ATOM     22  C   UNL A   1      34.021  17.507  23.980  1.00  0.00     0.000 A 
ATOM     23  C   UNL A   1      32.361  18.413  22.499  1.00  0.00     0.000 A 
ATOM     24  C   UNL A   1      33.172  17.354  22.891  1.00  0.00     0.000 A 
ENDBRANCH   6  19
ENDBRANCH   3   6
ENDBRANCH   1   2
BRANCH   1  25
ATOM     25  C   UNL A   1      37.647  19.834  24.938  1.00  0.00     0.042 C 
BRANCH  25  26
ATOM     26  C   UNL A   1      38.863  20.323  25.712  1.00  0.00     0.118 C 
BRANCH  26  27
ATOM     27  N   UNL A   1      39.893  19.302  25.844  1.00  0.00    -0.352 N 
ATOM     28  C   UNL A   1      41.242  19.422  26.061  1.00  0.00     0.251 C 
ATOM     29  H   UNL A   1      39.569  18.376  25.765  1.00  0.00     0.163 HD
ATOM     30  O   UNL A   1      41.963  18.431  25.946  1.00  0.00    -0.269 OA
BRANCH  28  31
ATOM     31  C   UNL A   1      41.843  20.727  26.412  1.00  0.00     0.039 A 
ATOM     32  C   UNL A   1      42.111  21.643  25.390  1.00  0.00     0.014 A 
ATOM     33  C   UNL A   1      42.175  21.040  27.732  1.00  0.00     0.014 A 
ATOM     34  C   UNL A   1      42.645  22.896  25.701  1.00  0.00     0.010 A 
ATOM     35  C   UNL A   1      42.625  22.319  28.050  1.00  0.00     0.010 A 
ATOM     36  C   UNL A   1      42.872  23.259  27.038  1.00  0.00    -0.014 A 
BRANCH  36  37
ATOM     37  C   UNL A   1      43.369  24.611  27.402  1.00  0.00     0.031 A 
ATOM     38  C   UNL A   1      42.423  25.636  27.967  1.00  0.00     0.074 A 
ATOM     39  C   UNL A   1      44.650  24.942  27.146  1.00  0.00     0.049 A 
ATOM     40  N   UNL A   1      42.640  26.895  28.251  1.00  0.00    -0.248 NA
ATOM     41  C   UNL A   1      41.040  25.198  28.216  1.00  0.00     0.031 C 
ATOM     42  C   UNL A   1      45.650  24.057  26.545  1.00  0.00     0.029 A 
ATOM     43  N   UNL A   1      45.327  26.121  27.340  1.00  0.00    -0.354 N 
ATOM     44  C   UNL A   1      41.420  27.403  28.678  1.00  0.00     0.074 A 
ATOM     45  C   UNL A   1      40.457  26.330  28.583  1.00  0.00     0.031 C 
ATOM     46  C   UNL A   1      46.812  24.719  26.429  1.00  0.00     0.029 A 
ATOM     47  C   UNL A   1      46.632  26.084  26.912  1.00  0.00     0.049 A 
ATOM     48  H   UNL A   1      44.917  26.917  27.748  1.00  0.00     0.167 HD
ATOM     49  C   UNL A   1      41.136  28.649  29.127  1.00  0.00     0.037 A 
ATOM     50  C   UNL A   1      47.574  27.048  26.897  1.00  0.00     0.037 A 
ATOM     51  C   UNL A   1      42.110  29.697  29.277  1.00  0.00     0.049 A 
ATOM     52  C   UNL A   1      47.236  28.412  27.437  1.00  0.00     0.074 A 
ATOM     53  C   UNL A   1      41.941  30.958  29.822  1.00  0.00     0.029 A 
ATOM     54  N   UNL A   1      43.435  29.605  28.880  1.00  0.00    -0.354 N 
ATOM     55  N   UNL A   1      46.101  28.851  27.926  1.00  0.00    -0.248 NA
ATOM     56  C   UNL A   1      48.311  29.413  27.433  1.00  0.00     0.031 C 
ATOM     57  C   UNL A   1      43.152  31.647  29.713  1.00  0.00     0.029 A 
ATOM     58  C   UNL A   1      44.089  30.798  29.145  1.00  0.00     0.049 A 
ATOM     59  H   UNL A   1      43.850  28.812  28.471  1.00  0.00     0.167 HD
ATOM     60  C   UNL A   1      46.335  30.164  28.313  1.00  0.00     0.074 A 
ATOM     61  C   UNL A   1      47.723  30.446  28.019  1.00  0.00     0.031 C 
ATOM     62  C   UNL A   1      45.476  31.056  28.862  1.00  0.00     0.037 A 
BRANCH  49  63
ATOM     63  C   UNL A   1      39.717  28.958  29.505  1.00  0.00     0.064 A 
ATOM     64  C   UNL A   1      38.788  29.425  28.564  1.00  0.00     0.173 A 
ATOM     65  C   UNL A   1      39.263  28.707  30.809  1.00  0.00     0.173 A 
ATOM     66  F   UNL A   1      39.175  29.688  27.306  1.00  0.00    -0.203 F 
ATOM     67  C   UNL A   1      37.460  29.644  28.919  1.00  0.00     0.198 A 
ATOM     68  C   UNL A   1      37.929  28.902  31.153  1.00  0.00     0.198 A 
ATOM     69  F   UNL A   1      40.111  28.256  31.745  1.00  0.00    -0.203 F 
ATOM     70  F   UNL A   1      36.596  30.121  28.011  1.00  0.00    -0.200 F 
ATOM     71  C   UNL A   1      37.029  29.373  30.208  1.00  0.00     0.200 A 
ATOM     72  F   UNL A   1      37.511  28.627  32.396  1.00  0.00    -0.200 F 
ATOM     73  F   UNL A   1      35.746  29.567  30.543  1.00  0.00    -0.200 F 
ENDBRANCH  49  63
BRANCH  50  74
ATOM     74  C   UNL A   1      48.930  26.764  26.358  1.00  0.00     0.064 A 
ATOM     75  C   UNL A   1      49.243  27.026  25.017  1.00  0.00     0.173 A 
ATOM     76  C   UNL A   1      49.929  26.196  27.161  1.00  0.00     0.173 A 
ATOM     77  F   UNL A   1      48.314  27.551  24.203  1.00  0.00    -0.203 F 
ATOM     78  C   UNL A   1      50.491  26.699  24.491  1.00  0.00     0.198 A 
ATOM     79  C   UNL A   1      51.187  25.898  26.642  1.00  0.00     0.198 A 
ATOM     80  F   UNL A   1      49.684  25.931  28.452  1.00  0.00    -0.203 F 
ATOM     81  F   UNL A   1      50.742  26.906  23.191  1.00  0.00    -0.200 F 
ATOM     82  C   UNL A   1      51.463  26.139  25.304  1.00  0.00     0.200 A 
ATOM     83  F   UNL A   1      52.129  25.368  27.435  1.00  0.00    -0.200 F 
ATOM     84  F   UNL A   1      52.662  25.819  24.797  1.00  0.00    -0.200 F 
ENDBRANCH  50  74
BRANCH  62  85
ATOM     85  C   UNL A   1      46.021  32.407  29.219  1.00  0.00     0.064 A 
ATOM     86  C   UNL A   1      46.619  32.655  30.464  1.00  0.00     0.173 A 
ATOM     87  C   UNL A   1      45.985  33.454  28.286  1.00  0.00     0.173 A 
ATOM     88  F   UNL A   1      46.665  31.689  31.394  1.00  0.00    -0.203 F 
ATOM     89  C   UNL A   1      47.137  33.910  30.769  1.00  0.00     0.198 A 
ATOM     90  C   UNL A   1      46.531  34.699  28.585  1.00  0.00     0.198 A 
ATOM     91  F   UNL A   1      45.431  33.266  27.079  1.00  0.00    -0.203 F 
ATOM     92  F   UNL A   1      47.661  34.138  31.982  1.00  0.00    -0.200 F 
ATOM     93  C   UNL A   1      47.101  34.928  29.828  1.00  0.00     0.200 A 
ATOM     94  F   UNL A   1      46.508  35.678  27.668  1.00  0.00    -0.200 F 
ATOM     95  F   UNL A   1      47.608  36.133  30.122  1.00  0.00    -0.200 F 
ENDBRANCH  62  85
ENDBRANCH  36  37
ENDBRANCH  28  31
ENDBRANCH  26  27
ENDBRANCH  25  26
ENDBRANCH   1  25
TORSDOF 15
ENDMDL
