MODEL 1
REMARK VINA RESULT:     -12.3      0.000      0.000
REMARK SMILES Cc1ccc(N2C(=O)S/C(=C/c3cccc(O[C@H](C)C(=O)NCCCNC(=O)c4ccc(-c5c6nc(c(-c7c(F)c(F)c(F)c(F)c7F)c7ccc([nH]7)c(-c7c(F)c(F)c(F)c(F)c7F)c7nc(c(-c8c(F)c(F)c(F)c(F)c8F)c8ccc5[nH]8)C=C7)C=C6)cc4)c3)C2=O)c(C)c1
REMARK SMILES IDX 23 1 22 2 20 3 21 4 18 6 19 7 17 8 16 9 12 10 13 11 92 12
REMARK SMILES IDX 14 13 15 14 11 15 6 16 7 17 93 18 8 19 9 20 10 21 94 22 5 23
REMARK SMILES IDX 1 24 2 25 3 26 97 27 4 28 95 29 96 30 24 31 25 32 26 33
REMARK SMILES IDX 27 34 28 36 29 37 30 38 91 39 31 40 90 41 32 42 33 43 34 44
REMARK SMILES IDX 84 45 35 46 89 47 83 48 85 49 36 50 88 51 82 52 81 53 37 55
REMARK SMILES IDX 69 56 49 57 68 58 50 59 53 60 67 61 86 62 51 63 52 64 66 66
REMARK SMILES IDX 87 67 54 68 38 69 39 70 47 71 40 72 41 73 45 74 48 75 42 76
REMARK SMILES IDX 43 77 46 78 44 79 70 80 71 81 79 82 72 83 73 84 77 85 80 86
REMARK SMILES IDX 74 87 75 88 78 89 76 90 55 91 56 92 64 93 57 94 58 95 62 96
REMARK SMILES IDX 65 97 59 98 60 99 63 100 61 101
REMARK H PARENT 22 5 26 35 85 54 53 65
REMARK Flexibility Score: inf
ROOT
ATOM      1  C   UNL A   1      35.051  32.078  30.029  1.00  0.00     0.118 C 
ENDROOT
BRANCH   1   2
ATOM      2  N   UNL A   1      35.759  30.892  30.474  1.00  0.00    -0.353 N 
ATOM      3  C   UNL A   1      36.278  29.876  29.735  1.00  0.00     0.260 C 
ATOM      4  O   UNL A   1      36.835  28.954  30.338  1.00  0.00    -0.271 OA
ATOM      5  H   UNL A   1      35.882  30.813  31.447  1.00  0.00     0.163 HD
BRANCH   3   6
ATOM      6  C   UNL A   1      36.179  29.877  28.195  1.00  0.00     0.258 C 
ATOM      7  C   UNL A   1      37.592  30.115  27.633  1.00  0.00     0.064 C 
BRANCH   6   8
ATOM      8  O   UNL A   1      35.613  28.808  27.448  1.00  0.00    -0.481 OA
BRANCH   8   9
ATOM      9  C   UNL A   1      34.341  28.852  26.962  1.00  0.00     0.121 A 
ATOM     10  C   UNL A   1      32.968  28.229  25.043  1.00  0.00    -0.021 A 
ATOM     11  C   UNL A   1      31.820  28.581  25.753  1.00  0.00     0.008 A 
ATOM     12  C   UNL A   1      34.221  28.377  25.653  1.00  0.00     0.054 A 
ATOM     13  C   UNL A   1      31.935  29.111  27.038  1.00  0.00     0.004 A 
ATOM     14  C   UNL A   1      33.194  29.279  27.626  1.00  0.00     0.046 A 
BRANCH  10  15
ATOM     15  C   UNL A   1      32.858  27.746  23.664  1.00  0.00     0.029 C 
ATOM     16  N   UNL A   1      33.111  24.117  23.340  1.00  0.00    -0.236 N 
ATOM     17  C   UNL A   1      33.140  24.305  21.976  1.00  0.00     0.298 C 
ATOM     18  C   UNL A   1      33.073  25.255  24.128  1.00  0.00     0.272 C 
ATOM     19  O   UNL A   1      33.279  23.480  21.089  1.00  0.00    -0.260 OA
ATOM     20  S   UNL A   1      32.900  26.008  21.607  1.00  0.00    -0.022 SA
ATOM     21  C   UNL A   1      32.933  26.467  23.268  1.00  0.00     0.083 C 
ATOM     22  O   UNL A   1      33.191  25.300  25.347  1.00  0.00    -0.268 OA
BRANCH  16  23
ATOM     23  C   UNL A   1      33.239  22.831  23.929  1.00  0.00     0.056 A 
ATOM     24  C   UNL A   1      33.504  18.766  25.371  1.00  0.00     0.044 C 
ATOM     25  C   UNL A   1      33.397  20.181  24.887  1.00  0.00    -0.051 A 
ATOM     26  C   UNL A   1      32.156  20.792  24.709  1.00  0.00     0.005 A 
ATOM     27  C   UNL A   1      34.559  20.917  24.628  1.00  0.00     0.009 A 
ATOM     28  C   UNL A   1      32.077  22.107  24.243  1.00  0.00     0.027 A 
ATOM     29  C   UNL A   1      34.499  22.243  24.165  1.00  0.00    -0.026 A 
ATOM     30  C   UNL A   1      35.811  22.967  23.994  1.00  0.00     0.046 C 
ENDBRANCH  16  23
ENDBRANCH  10  15
ENDBRANCH   8   9
ENDBRANCH   6   8
ENDBRANCH   3   6
ENDBRANCH   1   2
BRANCH   1  31
ATOM     31  C   UNL A   1      34.713  32.972  31.212  1.00  0.00     0.042 C 
BRANCH  31  32
ATOM     32  C   UNL A   1      35.419  32.561  32.497  1.00  0.00     0.118 C 
BRANCH  32  33
ATOM     33  N   UNL A   1      36.056  33.683  33.173  1.00  0.00    -0.352 N 
ATOM     34  C   UNL A   1      37.390  33.998  33.247  1.00  0.00     0.251 C 
ATOM     35  H   UNL A   1      35.447  34.300  33.639  1.00  0.00     0.163 HD
ATOM     36  O   UNL A   1      37.780  34.876  34.009  1.00  0.00    -0.269 OA
BRANCH  34  37
ATOM     37  C   UNL A   1      38.360  33.241  32.428  1.00  0.00     0.039 A 
ATOM     38  C   UNL A   1      38.402  33.469  31.052  1.00  0.00     0.014 A 
ATOM     39  C   UNL A   1      39.248  32.339  33.021  1.00  0.00     0.014 A 
ATOM     40  C   UNL A   1      39.383  32.845  30.280  1.00  0.00     0.010 A 
ATOM     41  C   UNL A   1      40.278  31.787  32.268  1.00  0.00     0.010 A 
ATOM     42  C   UNL A   1      40.355  32.032  30.888  1.00  0.00    -0.014 A 
BRANCH  42  43
ATOM     43  C   UNL A   1      41.460  31.435  30.096  1.00  0.00     0.031 A 
ATOM     44  C   UNL A   1      42.663  32.262  29.737  1.00  0.00     0.074 A 
ATOM     45  C   UNL A   1      41.353  30.168  29.651  1.00  0.00     0.049 A 
ATOM     46  N   UNL A   1      43.701  31.940  29.007  1.00  0.00    -0.248 NA
ATOM     47  C   UNL A   1      42.691  33.644  30.241  1.00  0.00     0.031 C 
ATOM     48  C   UNL A   1      40.214  29.281  29.892  1.00  0.00     0.029 A 
ATOM     49  N   UNL A   1      42.211  29.407  28.897  1.00  0.00    -0.354 N 
ATOM     50  C   UNL A   1      44.496  33.077  28.959  1.00  0.00     0.074 A 
ATOM     51  C   UNL A   1      43.792  34.117  29.677  1.00  0.00     0.031 C 
ATOM     52  C   UNL A   1      40.457  28.089  29.323  1.00  0.00     0.029 A 
ATOM     53  C   UNL A   1      41.746  28.140  28.641  1.00  0.00     0.049 A 
ATOM     54  H   UNL A   1      43.079  29.739  28.570  1.00  0.00     0.167 HD
ATOM     55  C   UNL A   1      45.715  33.234  28.391  1.00  0.00     0.037 A 
ATOM     56  C   UNL A   1      42.295  27.136  27.931  1.00  0.00     0.037 A 
ATOM     57  C   UNL A   1      46.420  32.192  27.691  1.00  0.00     0.049 A 
ATOM     58  C   UNL A   1      43.641  27.344  27.288  1.00  0.00     0.074 A 
ATOM     59  C   UNL A   1      47.682  32.234  27.124  1.00  0.00     0.029 A 
ATOM     60  N   UNL A   1      45.918  30.919  27.457  1.00  0.00    -0.354 N 
ATOM     61  N   UNL A   1      44.415  28.402  27.311  1.00  0.00    -0.248 NA
ATOM     62  C   UNL A   1      44.191  26.214  26.528  1.00  0.00     0.031 C 
ATOM     63  C   UNL A   1      47.922  31.005  26.500  1.00  0.00     0.029 A 
ATOM     64  C   UNL A   1      46.835  30.176  26.731  1.00  0.00     0.049 A 
ATOM     65  H   UNL A   1      45.041  30.593  27.762  1.00  0.00     0.167 HD
ATOM     66  C   UNL A   1      45.554  28.056  26.596  1.00  0.00     0.074 A 
ATOM     67  C   UNL A   1      45.377  26.685  26.168  1.00  0.00     0.031 C 
ATOM     68  C   UNL A   1      46.648  28.807  26.319  1.00  0.00     0.037 A 
BRANCH  55  69
ATOM     69  C   UNL A   1      46.368  34.583  28.505  1.00  0.00     0.064 A 
ATOM     70  C   UNL A   1      46.133  35.596  27.563  1.00  0.00     0.173 A 
ATOM     71  C   UNL A   1      47.210  34.878  29.588  1.00  0.00     0.173 A 
ATOM     72  F   UNL A   1      45.345  35.363  26.502  1.00  0.00    -0.203 F 
ATOM     73  C   UNL A   1      46.742  36.843  27.684  1.00  0.00     0.198 A 
ATOM     74  C   UNL A   1      47.790  36.137  29.723  1.00  0.00     0.198 A 
ATOM     75  F   UNL A   1      47.465  33.949  30.521  1.00  0.00    -0.203 F 
ATOM     76  F   UNL A   1      46.546  37.776  26.741  1.00  0.00    -0.200 F 
ATOM     77  C   UNL A   1      47.563  37.115  28.767  1.00  0.00     0.200 A 
ATOM     78  F   UNL A   1      48.571  36.403  30.780  1.00  0.00    -0.200 F 
ATOM     79  F   UNL A   1      48.141  38.318  28.886  1.00  0.00    -0.200 F 
ENDBRANCH  55  69
BRANCH  56  80
ATOM     80  C   UNL A   1      41.585  25.835  27.806  1.00  0.00     0.064 A 
ATOM     81  C   UNL A   1      42.018  24.707  28.516  1.00  0.00     0.173 A 
ATOM     82  C   UNL A   1      40.468  25.688  26.970  1.00  0.00     0.173 A 
ATOM     83  F   UNL A   1      43.094  24.792  29.314  1.00  0.00    -0.203 F 
ATOM     84  C   UNL A   1      41.380  23.477  28.376  1.00  0.00     0.198 A 
ATOM     85  C   UNL A   1      39.810  24.465  26.855  1.00  0.00     0.198 A 
ATOM     86  F   UNL A   1      40.008  26.738  26.272  1.00  0.00    -0.203 F 
ATOM     87  F   UNL A   1      41.848  22.403  29.027  1.00  0.00    -0.200 F 
ATOM     88  C   UNL A   1      40.273  23.358  27.551  1.00  0.00     0.200 A 
ATOM     89  F   UNL A   1      38.731  24.360  26.068  1.00  0.00    -0.200 F 
ATOM     90  F   UNL A   1      39.656  22.176  27.419  1.00  0.00    -0.200 F 
ENDBRANCH  56  80
BRANCH  68  91
ATOM     91  C   UNL A   1      47.760  28.151  25.551  1.00  0.00     0.064 A 
ATOM     92  C   UNL A   1      47.692  27.970  24.162  1.00  0.00     0.173 A 
ATOM     93  C   UNL A   1      48.926  27.734  26.211  1.00  0.00     0.173 A 
ATOM     94  F   UNL A   1      46.592  28.338  23.486  1.00  0.00    -0.203 F 
ATOM     95  C   UNL A   1      48.738  27.369  23.466  1.00  0.00     0.198 A 
ATOM     96  C   UNL A   1      49.984  27.165  25.507  1.00  0.00     0.198 A 
ATOM     97  F   UNL A   1      49.046  27.891  27.538  1.00  0.00    -0.203 F 
ATOM     98  F   UNL A   1      48.628  27.158  22.147  1.00  0.00    -0.200 F 
ATOM     99  C   UNL A   1      49.885  26.976  24.137  1.00  0.00     0.200 A 
ATOM    100  F   UNL A   1      51.099  26.801  26.156  1.00  0.00    -0.200 F 
ATOM    101  F   UNL A   1      50.895  26.406  23.464  1.00  0.00    -0.200 F 
ENDBRANCH  68  91
ENDBRANCH  42  43
ENDBRANCH  34  37
ENDBRANCH  32  33
ENDBRANCH  31  32
ENDBRANCH   1  31
TORSDOF 14
ENDMDL
MODEL 2
REMARK VINA RESULT:     -12.1      3.376      8.845
REMARK SMILES Cc1ccc(N2C(=O)S/C(=C/c3cccc(O[C@H](C)C(=O)NCCCNC(=O)c4ccc(-c5c6nc(c(-c7c(F)c(F)c(F)c(F)c7F)c7ccc([nH]7)c(-c7c(F)c(F)c(F)c(F)c7F)c7nc(c(-c8c(F)c(F)c(F)c(F)c8F)c8ccc5[nH]8)C=C7)C=C6)cc4)c3)C2=O)c(C)c1
REMARK SMILES IDX 23 1 22 2 20 3 21 4 18 6 19 7 17 8 16 9 12 10 13 11 92 12
REMARK SMILES IDX 14 13 15 14 11 15 6 16 7 17 93 18 8 19 9 20 10 21 94 22 5 23
REMARK SMILES IDX 1 24 2 25 3 26 97 27 4 28 95 29 96 30 24 31 25 32 26 33
REMARK SMILES IDX 27 34 28 36 29 37 30 38 91 39 31 40 90 41 32 42 33 43 34 44
REMARK SMILES IDX 84 45 35 46 89 47 83 48 85 49 36 50 88 51 82 52 81 53 37 55
REMARK SMILES IDX 69 56 49 57 68 58 50 59 53 60 67 61 86 62 51 63 52 64 66 66
REMARK SMILES IDX 87 67 54 68 38 69 39 70 47 71 40 72 41 73 45 74 48 75 42 76
REMARK SMILES IDX 43 77 46 78 44 79 70 80 71 81 79 82 72 83 73 84 77 85 80 86
REMARK SMILES IDX 74 87 75 88 78 89 76 90 55 91 56 92 64 93 57 94 58 95 62 96
REMARK SMILES IDX 65 97 59 98 60 99 63 100 61 101
REMARK H PARENT 22 5 26 35 85 54 53 65
REMARK Flexibility Score: inf
ROOT
ATOM      1  C   UNL A   1      39.997  19.934  26.096  1.00  0.00     0.118 C 
ENDROOT
BRANCH   1   2
ATOM      2  N   UNL A   1      40.493  21.281  26.312  1.00  0.00    -0.353 N 
ATOM      3  C   UNL A   1      39.808  22.455  26.323  1.00  0.00     0.260 C 
ATOM      4  O   UNL A   1      40.449  23.492  26.518  1.00  0.00    -0.271 OA
ATOM      5  H   UNL A   1      41.461  21.355  26.475  1.00  0.00     0.163 HD
BRANCH   3   6
ATOM      6  C   UNL A   1      38.281  22.491  26.105  1.00  0.00     0.258 C 
ATOM      7  C   UNL A   1      37.798  23.924  26.390  1.00  0.00     0.064 C 
BRANCH   6   8
ATOM      8  O   UNL A   1      37.655  22.077  24.898  1.00  0.00    -0.481 OA
BRANCH   8   9
ATOM      9  C   UNL A   1      36.313  21.859  24.809  1.00  0.00     0.121 A 
ATOM     10  C   UNL A   1      34.342  22.376  23.466  1.00  0.00    -0.021 A 
ATOM     11  C   UNL A   1      33.600  21.453  24.203  1.00  0.00     0.008 A 
ATOM     12  C   UNL A   1      35.692  22.577  23.783  1.00  0.00     0.054 A 
ATOM     13  C   UNL A   1      34.197  20.776  25.266  1.00  0.00     0.004 A 
ATOM     14  C   UNL A   1      35.539  21.005  25.590  1.00  0.00     0.046 A 
BRANCH  10  15
ATOM     15  C   UNL A   1      33.699  23.149  22.399  1.00  0.00     0.029 C 
ATOM     16  N   UNL A   1      32.627  26.486  23.425  1.00  0.00    -0.236 N 
ATOM     17  C   UNL A   1      32.002  26.591  22.202  1.00  0.00     0.298 C 
ATOM     18  C   UNL A   1      33.248  25.282  23.709  1.00  0.00     0.272 C 
ATOM     19  O   UNL A   1      31.308  27.495  21.768  1.00  0.00    -0.260 OA
ATOM     20  S   UNL A   1      32.366  25.174  21.227  1.00  0.00    -0.022 SA
ATOM     21  C   UNL A   1      33.202  24.389  22.514  1.00  0.00     0.083 C 
ATOM     22  O   UNL A   1      33.724  24.945  24.787  1.00  0.00    -0.268 OA
BRANCH  16  23
ATOM     23  C   UNL A   1      32.542  27.509  24.408  1.00  0.00     0.056 A 
ATOM     24  C   UNL A   1      32.150  30.859  27.107  1.00  0.00     0.044 C 
ATOM     25  C   UNL A   1      32.309  29.696  26.175  1.00  0.00    -0.051 A 
ATOM     26  C   UNL A   1      33.338  29.659  25.235  1.00  0.00     0.005 A 
ATOM     27  C   UNL A   1      31.425  28.614  26.258  1.00  0.00     0.009 A 
ATOM     28  C   UNL A   1      33.460  28.571  24.365  1.00  0.00     0.027 A 
ATOM     29  C   UNL A   1      31.537  27.509  25.396  1.00  0.00    -0.026 A 
ATOM     30  C   UNL A   1      30.582  26.364  25.625  1.00  0.00     0.046 C 
ENDBRANCH  16  23
ENDBRANCH  10  15
ENDBRANCH   8   9
ENDBRANCH   6   8
ENDBRANCH   3   6
ENDBRANCH   1   2
BRANCH   1  31
ATOM     31  C   UNL A   1      41.147  18.984  25.802  1.00  0.00     0.042 C 
BRANCH  31  32
ATOM     32  C   UNL A   1      42.515  19.646  25.900  1.00  0.00     0.118 C 
BRANCH  32  33
ATOM     33  N   UNL A   1      43.480  19.086  24.965  1.00  0.00    -0.352 N 
ATOM     34  C   UNL A   1      44.535  19.705  24.342  1.00  0.00     0.251 C 
ATOM     35  H   UNL A   1      43.360  18.133  24.750  1.00  0.00     0.163 HD
ATOM     36  O   UNL A   1      45.144  19.140  23.439  1.00  0.00    -0.269 OA
BRANCH  34  37
ATOM     37  C   UNL A   1      44.907  21.079  24.740  1.00  0.00     0.039 A 
ATOM     38  C   UNL A   1      44.617  22.133  23.871  1.00  0.00     0.014 A 
ATOM     39  C   UNL A   1      45.504  21.330  25.978  1.00  0.00     0.014 A 
ATOM     40  C   UNL A   1      44.861  23.446  24.275  1.00  0.00     0.010 A 
ATOM     41  C   UNL A   1      45.665  22.641  26.414  1.00  0.00     0.010 A 
ATOM     42  C   UNL A   1      45.348  23.713  25.566  1.00  0.00    -0.014 A 
BRANCH  42  43
ATOM     43  C   UNL A   1      45.526  25.107  26.045  1.00  0.00     0.031 A 
ATOM     44  C   UNL A   1      46.881  25.757  25.987  1.00  0.00     0.074 A 
ATOM     45  C   UNL A   1      44.483  25.765  26.586  1.00  0.00     0.049 A 
ATOM     46  N   UNL A   1      47.250  26.941  26.407  1.00  0.00    -0.248 NA
ATOM     47  C   UNL A   1      47.972  24.961  25.404  1.00  0.00     0.031 C 
ATOM     48  C   UNL A   1      43.132  25.225  26.743  1.00  0.00     0.029 A 
ATOM     49  N   UNL A   1      44.396  27.031  27.111  1.00  0.00    -0.354 N 
ATOM     50  C   UNL A   1      48.611  27.026  26.149  1.00  0.00     0.074 A 
ATOM     51  C   UNL A   1      49.017  25.752  25.595  1.00  0.00     0.031 C 
ATOM     52  C   UNL A   1      42.345  26.161  27.296  1.00  0.00     0.029 A 
ATOM     53  C   UNL A   1      43.143  27.352  27.574  1.00  0.00     0.049 A 
ATOM     54  H   UNL A   1      45.160  27.650  27.152  1.00  0.00     0.167 HD
ATOM     55  C   UNL A   1      49.442  28.079  26.331  1.00  0.00     0.037 A 
ATOM     56  C   UNL A   1      42.691  28.475  28.161  1.00  0.00     0.037 A 
ATOM     57  C   UNL A   1      49.031  29.349  26.867  1.00  0.00     0.049 A 
ATOM     58  C   UNL A   1      43.642  29.623  28.375  1.00  0.00     0.074 A 
ATOM     59  C   UNL A   1      49.784  30.497  27.042  1.00  0.00     0.029 A 
ATOM     60  N   UNL A   1      47.751  29.638  27.319  1.00  0.00    -0.354 N 
ATOM     61  N   UNL A   1      44.912  29.717  28.060  1.00  0.00    -0.248 NA
ATOM     62  C   UNL A   1      43.094  30.824  29.019  1.00  0.00     0.031 C 
ATOM     63  C   UNL A   1      48.975  31.462  27.652  1.00  0.00     0.029 A 
ATOM     64  C   UNL A   1      47.702  30.937  27.799  1.00  0.00     0.049 A 
ATOM     65  H   UNL A   1      46.991  29.012  27.302  1.00  0.00     0.167 HD
ATOM     66  C   UNL A   1      45.305  30.994  28.439  1.00  0.00     0.074 A 
ATOM     67  C   UNL A   1      44.136  31.643  28.990  1.00  0.00     0.031 C 
ATOM     68  C   UNL A   1      46.526  31.574  28.338  1.00  0.00     0.037 A 
BRANCH  55  69
ATOM     69  C   UNL A   1      50.884  27.902  25.943  1.00  0.00     0.064 A 
ATOM     70  C   UNL A   1      51.860  27.541  26.885  1.00  0.00     0.173 A 
ATOM     71  C   UNL A   1      51.289  28.060  24.609  1.00  0.00     0.173 A 
ATOM     72  F   UNL A   1      51.529  27.388  28.176  1.00  0.00    -0.203 F 
ATOM     73  C   UNL A   1      53.192  27.377  26.511  1.00  0.00     0.198 A 
ATOM     74  C   UNL A   1      52.615  27.862  24.233  1.00  0.00     0.198 A 
ATOM     75  F   UNL A   1      50.396  28.399  23.666  1.00  0.00    -0.203 F 
ATOM     76  F   UNL A   1      54.115  27.086  27.439  1.00  0.00    -0.200 F 
ATOM     77  C   UNL A   1      53.566  27.530  25.185  1.00  0.00     0.200 A 
ATOM     78  F   UNL A   1      52.972  27.995  22.948  1.00  0.00    -0.200 F 
ATOM     79  F   UNL A   1      54.846  27.363  24.826  1.00  0.00    -0.200 F 
ENDBRANCH  55  69
BRANCH  56  80
ATOM     80  C   UNL A   1      41.265  28.582  28.572  1.00  0.00     0.064 A 
ATOM     81  C   UNL A   1      40.860  28.221  29.865  1.00  0.00     0.173 A 
ATOM     82  C   UNL A   1      40.279  29.034  27.683  1.00  0.00     0.173 A 
ATOM     83  F   UNL A   1      41.763  27.764  30.746  1.00  0.00    -0.203 F 
ATOM     84  C   UNL A   1      39.521  28.284  30.245  1.00  0.00     0.198 A 
ATOM     85  C   UNL A   1      38.945  29.127  28.074  1.00  0.00     0.198 A 
ATOM     86  F   UNL A   1      40.614  29.397  26.436  1.00  0.00    -0.203 F 
ATOM     87  F   UNL A   1      39.155  27.883  31.470  1.00  0.00    -0.200 F 
ATOM     88  C   UNL A   1      38.565  28.742  29.351  1.00  0.00     0.200 A 
ATOM     89  F   UNL A   1      38.028  29.586  27.212  1.00  0.00    -0.200 F 
ATOM     90  F   UNL A   1      37.279  28.807  29.717  1.00  0.00    -0.200 F 
ENDBRANCH  56  80
BRANCH  68  91
ATOM     91  C   UNL A   1      46.652  32.999  28.797  1.00  0.00     0.064 A 
ATOM     92  C   UNL A   1      46.421  34.078  27.931  1.00  0.00     0.173 A 
ATOM     93  C   UNL A   1      46.972  33.286  30.133  1.00  0.00     0.173 A 
ATOM     94  F   UNL A   1      46.128  33.858  26.640  1.00  0.00    -0.203 F 
ATOM     95  C   UNL A   1      46.533  35.392  28.379  1.00  0.00     0.198 A 
ATOM     96  C   UNL A   1      47.049  34.600  30.586  1.00  0.00     0.198 A 
ATOM     97  F   UNL A   1      47.195  32.291  31.005  1.00  0.00    -0.203 F 
ATOM     98  F   UNL A   1      46.360  36.407  27.521  1.00  0.00    -0.200 F 
ATOM     99  C   UNL A   1      46.838  35.652  29.707  1.00  0.00     0.200 A 
ATOM    100  F   UNL A   1      47.326  34.848  31.873  1.00  0.00    -0.200 F 
ATOM    101  F   UNL A   1      46.936  36.917  30.138  1.00  0.00    -0.200 F 
ENDBRANCH  68  91
ENDBRANCH  42  43
ENDBRANCH  34  37
ENDBRANCH  32  33
ENDBRANCH  31  32
ENDBRANCH   1  31
TORSDOF 14
ENDMDL
MODEL 3
REMARK VINA RESULT:     -12.0      5.076      9.219
REMARK SMILES Cc1ccc(N2C(=O)S/C(=C/c3cccc(O[C@H](C)C(=O)NCCCNC(=O)c4ccc(-c5c6nc(c(-c7c(F)c(F)c(F)c(F)c7F)c7ccc([nH]7)c(-c7c(F)c(F)c(F)c(F)c7F)c7nc(c(-c8c(F)c(F)c(F)c(F)c8F)c8ccc5[nH]8)C=C7)C=C6)cc4)c3)C2=O)c(C)c1
REMARK SMILES IDX 23 1 22 2 20 3 21 4 18 6 19 7 17 8 16 9 12 10 13 11 92 12
REMARK SMILES IDX 14 13 15 14 11 15 6 16 7 17 93 18 8 19 9 20 10 21 94 22 5 23
REMARK SMILES IDX 1 24 2 25 3 26 97 27 4 28 95 29 96 30 24 31 25 32 26 33
REMARK SMILES IDX 27 34 28 36 29 37 30 38 91 39 31 40 90 41 32 42 33 43 34 44
REMARK SMILES IDX 84 45 35 46 89 47 83 48 85 49 36 50 88 51 82 52 81 53 37 55
REMARK SMILES IDX 69 56 49 57 68 58 50 59 53 60 67 61 86 62 51 63 52 64 66 66
REMARK SMILES IDX 87 67 54 68 38 69 39 70 47 71 40 72 41 73 45 74 48 75 42 76
REMARK SMILES IDX 43 77 46 78 44 79 70 80 71 81 79 82 72 83 73 84 77 85 80 86
REMARK SMILES IDX 74 87 75 88 78 89 76 90 55 91 56 92 64 93 57 94 58 95 62 96
REMARK SMILES IDX 65 97 59 98 60 99 63 100 61 101
REMARK H PARENT 22 5 26 35 85 54 53 65
REMARK Flexibility Score: inf
ROOT
ATOM      1  C   UNL A   1      31.521  30.788  26.480  1.00  0.00     0.118 C 
ENDROOT
BRANCH   1   2
ATOM      2  N   UNL A   1      32.873  30.281  26.627  1.00  0.00    -0.353 N 
ATOM      3  C   UNL A   1      33.302  28.994  26.713  1.00  0.00     0.260 C 
ATOM      4  O   UNL A   1      34.514  28.800  26.847  1.00  0.00    -0.271 OA
ATOM      5  H   UNL A   1      33.580  30.966  26.668  1.00  0.00     0.163 HD
BRANCH   3   6
ATOM      6  C   UNL A   1      32.309  27.815  26.639  1.00  0.00     0.258 C 
ATOM      7  C   UNL A   1      31.465  27.829  27.926  1.00  0.00     0.064 C 
BRANCH   6   8
ATOM      8  O   UNL A   1      31.408  27.620  25.557  1.00  0.00    -0.481 OA
BRANCH   8   9
ATOM      9  C   UNL A   1      31.800  27.071  24.373  1.00  0.00     0.121 A 
ATOM     10  C   UNL A   1      33.536  25.700  23.343  1.00  0.00    -0.021 A 
ATOM     11  C   UNL A   1      32.782  25.629  22.171  1.00  0.00     0.008 A 
ATOM     12  C   UNL A   1      33.040  26.429  24.432  1.00  0.00     0.054 A 
ATOM     13  C   UNL A   1      31.571  26.316  22.084  1.00  0.00     0.004 A 
ATOM     14  C   UNL A   1      31.099  27.063  23.170  1.00  0.00     0.046 A 
BRANCH  10  15
ATOM     15  C   UNL A   1      34.846  25.047  23.412  1.00  0.00     0.029 C 
ATOM     16  N   UNL A   1      34.699  21.531  24.389  1.00  0.00    -0.236 N 
ATOM     17  C   UNL A   1      36.073  21.560  24.462  1.00  0.00     0.298 C 
ATOM     18  C   UNL A   1      34.063  22.722  24.083  1.00  0.00     0.272 C 
ATOM     19  O   UNL A   1      36.844  20.682  24.813  1.00  0.00    -0.260 OA
ATOM     20  S   UNL A   1      36.663  23.125  23.917  1.00  0.00    -0.022 SA
ATOM     21  C   UNL A   1      35.074  23.772  23.759  1.00  0.00     0.083 C 
ATOM     22  O   UNL A   1      32.856  22.932  24.117  1.00  0.00    -0.268 OA
BRANCH  16  23
ATOM     23  C   UNL A   1      33.947  20.375  24.732  1.00  0.00     0.056 A 
ATOM     24  C   UNL A   1      32.003  16.649  25.734  1.00  0.00     0.044 C 
ATOM     25  C   UNL A   1      32.664  17.944  25.368  1.00  0.00    -0.051 A 
ATOM     26  C   UNL A   1      33.051  18.211  24.055  1.00  0.00     0.005 A 
ATOM     27  C   UNL A   1      32.879  18.916  26.352  1.00  0.00     0.009 A 
ATOM     28  C   UNL A   1      33.679  19.419  23.738  1.00  0.00     0.027 A 
ATOM     29  C   UNL A   1      33.503  20.139  26.049  1.00  0.00    -0.026 A 
ATOM     30  C   UNL A   1      33.614  21.145  27.167  1.00  0.00     0.046 C 
ENDBRANCH  16  23
ENDBRANCH  10  15
ENDBRANCH   8   9
ENDBRANCH   6   8
ENDBRANCH   3   6
ENDBRANCH   1   2
BRANCH   1  31
ATOM     31  C   UNL A   1      31.517  32.309  26.497  1.00  0.00     0.042 C 
BRANCH  31  32
ATOM     32  C   UNL A   1      32.524  32.902  27.474  1.00  0.00     0.118 C 
BRANCH  32  33
ATOM     33  N   UNL A   1      32.304  34.321  27.715  1.00  0.00    -0.352 N 
ATOM     34  C   UNL A   1      32.926  35.148  28.617  1.00  0.00     0.251 C 
ATOM     35  H   UNL A   1      31.616  34.746  27.154  1.00  0.00     0.163 HD
ATOM     36  O   UNL A   1      32.497  36.278  28.825  1.00  0.00    -0.269 OA
BRANCH  34  37
ATOM     37  C   UNL A   1      34.095  34.648  29.372  1.00  0.00     0.039 A 
ATOM     38  C   UNL A   1      33.904  34.168  30.668  1.00  0.00     0.014 A 
ATOM     39  C   UNL A   1      35.365  34.621  28.789  1.00  0.00     0.014 A 
ATOM     40  C   UNL A   1      34.975  33.594  31.354  1.00  0.00     0.010 A 
ATOM     41  C   UNL A   1      36.409  33.970  29.437  1.00  0.00     0.010 A 
ATOM     42  C   UNL A   1      36.226  33.452  30.729  1.00  0.00    -0.014 A 
BRANCH  42  43
ATOM     43  C   UNL A   1      37.349  32.761  31.409  1.00  0.00     0.031 A 
ATOM     44  C   UNL A   1      38.027  31.591  30.749  1.00  0.00     0.074 A 
ATOM     45  C   UNL A   1      37.721  33.148  32.645  1.00  0.00     0.049 A 
ATOM     46  N   UNL A   1      38.985  30.824  31.205  1.00  0.00    -0.248 NA
ATOM     47  C   UNL A   1      37.545  31.218  29.410  1.00  0.00     0.031 C 
ATOM     48  C   UNL A   1      37.109  34.235  33.410  1.00  0.00     0.029 A 
ATOM     49  N   UNL A   1      38.698  32.666  33.480  1.00  0.00    -0.354 N 
ATOM     50  C   UNL A   1      39.212  29.876  30.216  1.00  0.00     0.074 A 
ATOM     51  C   UNL A   1      38.250  30.123  29.164  1.00  0.00     0.031 C 
ATOM     52  C   UNL A   1      37.743  34.357  34.587  1.00  0.00     0.029 A 
ATOM     53  C   UNL A   1      38.776  33.330  34.680  1.00  0.00     0.049 A 
ATOM     54  H   UNL A   1      39.287  31.914  33.241  1.00  0.00     0.167 HD
ATOM     55  C   UNL A   1      40.154  28.905  30.176  1.00  0.00     0.037 A 
ATOM     56  C   UNL A   1      39.585  33.129  35.737  1.00  0.00     0.037 A 
ATOM     57  C   UNL A   1      41.120  28.673  31.218  1.00  0.00     0.049 A 
ATOM     58  C   UNL A   1      40.608  32.026  35.677  1.00  0.00     0.074 A 
ATOM     59  C   UNL A   1      42.149  27.749  31.251  1.00  0.00     0.029 A 
ATOM     60  N   UNL A   1      41.171  29.371  32.417  1.00  0.00    -0.354 N 
ATOM     61  N   UNL A   1      40.861  31.182  34.706  1.00  0.00    -0.248 NA
ATOM     62  C   UNL A   1      41.464  31.854  36.859  1.00  0.00     0.031 C 
ATOM     63  C   UNL A   1      42.789  27.850  32.491  1.00  0.00     0.029 A 
ATOM     64  C   UNL A   1      42.198  28.879  33.206  1.00  0.00     0.049 A 
ATOM     65  H   UNL A   1      40.567  30.107  32.669  1.00  0.00     0.167 HD
ATOM     66  C   UNL A   1      41.921  30.400  35.146  1.00  0.00     0.074 A 
ATOM     67  C   UNL A   1      42.275  30.883  36.464  1.00  0.00     0.031 C 
ATOM     68  C   UNL A   1      42.545  29.376  34.514  1.00  0.00     0.037 A 
BRANCH  55  69
ATOM     69  C   UNL A   1      40.189  28.019  28.963  1.00  0.00     0.064 A 
ATOM     70  C   UNL A   1      40.912  28.374  27.813  1.00  0.00     0.173 A 
ATOM     71  C   UNL A   1      39.520  26.786  28.960  1.00  0.00     0.173 A 
ATOM     72  F   UNL A   1      41.560  29.547  27.758  1.00  0.00    -0.203 F 
ATOM     73  C   UNL A   1      40.938  27.541  26.697  1.00  0.00     0.198 A 
ATOM     74  C   UNL A   1      39.576  25.941  27.855  1.00  0.00     0.198 A 
ATOM     75  F   UNL A   1      38.817  26.394  30.035  1.00  0.00    -0.203 F 
ATOM     76  F   UNL A   1      41.591  27.927  25.591  1.00  0.00    -0.200 F 
ATOM     77  C   UNL A   1      40.277  26.323  26.722  1.00  0.00     0.200 A 
ATOM     78  F   UNL A   1      38.949  24.756  27.887  1.00  0.00    -0.200 F 
ATOM     79  F   UNL A   1      40.311  25.519  25.650  1.00  0.00    -0.200 F 
ENDBRANCH  55  69
BRANCH  56  80
ATOM     80  C   UNL A   1      39.477  34.003  36.936  1.00  0.00     0.064 A 
ATOM     81  C   UNL A   1      40.146  35.233  36.993  1.00  0.00     0.173 A 
ATOM     82  C   UNL A   1      38.714  33.624  38.051  1.00  0.00     0.173 A 
ATOM     83  F   UNL A   1      40.904  35.630  35.960  1.00  0.00    -0.203 F 
ATOM     84  C   UNL A   1      40.079  36.039  38.127  1.00  0.00     0.198 A 
ATOM     85  C   UNL A   1      38.621  34.446  39.173  1.00  0.00     0.198 A 
ATOM     86  F   UNL A   1      38.049  32.459  38.047  1.00  0.00    -0.203 F 
ATOM     87  F   UNL A   1      40.771  37.186  38.174  1.00  0.00    -0.200 F 
ATOM     88  C   UNL A   1      39.311  35.648  39.214  1.00  0.00     0.200 A 
ATOM     89  F   UNL A   1      37.865  34.071  40.214  1.00  0.00    -0.200 F 
ATOM     90  F   UNL A   1      39.243  36.425  40.303  1.00  0.00    -0.200 F 
ENDBRANCH  56  80
BRANCH  68  91
ATOM     91  C   UNL A   1      43.702  28.731  35.222  1.00  0.00     0.064 A 
ATOM     92  C   UNL A   1      43.535  27.604  36.039  1.00  0.00     0.173 A 
ATOM     93  C   UNL A   1      45.003  29.228  35.047  1.00  0.00     0.173 A 
ATOM     94  F   UNL A   1      42.310  27.099  36.251  1.00  0.00    -0.203 F 
ATOM     95  C   UNL A   1      44.624  27.014  36.677  1.00  0.00     0.198 A 
ATOM     96  C   UNL A   1      46.094  28.616  35.659  1.00  0.00     0.198 A 
ATOM     97  F   UNL A   1      45.220  30.300  34.270  1.00  0.00    -0.203 F 
ATOM     98  F   UNL A   1      44.433  25.970  37.496  1.00  0.00    -0.200 F 
ATOM     99  C   UNL A   1      45.902  27.515  36.480  1.00  0.00     0.200 A 
ATOM    100  F   UNL A   1      47.330  29.091  35.453  1.00  0.00    -0.200 F 
ATOM    101  F   UNL A   1      46.949  26.941  37.089  1.00  0.00    -0.200 F 
ENDBRANCH  68  91
ENDBRANCH  42  43
ENDBRANCH  34  37
ENDBRANCH  32  33
ENDBRANCH  31  32
ENDBRANCH   1  31
TORSDOF 14
ENDMDL
