MODEL 1
REMARK VINA RESULT:     -12.2      0.000      0.000
REMARK SMILES Cc1ccc(S(=O)(=O)n2cc(C(=O)C(=O)NCC(=O)N[C@H](Cc3c[nH]c4ccccc34)C(=O)NCCCNC(=O)c3ccc(-c4c5nc(c(-c6c(F)c(F)c(F)c(F)c6F)c6ccc([nH]6)c(-c6c(F)c(F)c(F)c(F)c6F)c6nc(c(-c7c(F)c(F)c(F)c(F)c7F)c7ccc4[nH]7)C=C6)C=C5)cc3)c3ccccc32)cc1
REMARK SMILES IDX 32 1 33 2 34 3 21 5 20 6 18 7 19 8 17 10 16 11 14 12 15 13
REMARK SMILES IDX 12 15 13 16 11 17 9 18 10 19 109 20 104 21 108 22 105 23
REMARK SMILES IDX 107 24 106 25 6 26 7 27 8 28 5 29 1 30 2 31 3 32 111 33 4 34
REMARK SMILES IDX 110 35 22 36 23 37 24 38 31 39 25 40 26 41 30 42 27 44 29 45
REMARK SMILES IDX 28 46 35 47 36 48 37 49 38 50 39 51 40 53 41 54 42 55 103 56
REMARK SMILES IDX 43 57 102 58 44 59 45 60 46 61 96 62 47 63 101 64 95 65
REMARK SMILES IDX 97 66 48 67 100 68 94 69 93 70 49 72 81 73 61 74 80 75 62 76
REMARK SMILES IDX 65 77 79 78 98 79 63 80 64 81 78 83 99 84 66 85 50 86 51 87
REMARK SMILES IDX 59 88 52 89 53 90 57 91 60 92 54 93 55 94 58 95 56 96 82 97
REMARK SMILES IDX 83 98 91 99 84 100 85 101 89 102 92 103 86 104 87 105 90 106
REMARK SMILES IDX 88 107 67 108 68 109 76 110 69 111 70 112 74 113 77 114
REMARK SMILES IDX 71 115 72 116 75 117 73 118
REMARK H PARENT 34 4 20 9 16 14 25 43 38 52 97 71 65 82
REMARK Flexibility Score: inf
ROOT
ATOM      1  C   UNL A   1      33.648  31.251  27.558  1.00  0.00     0.242 C 
ATOM      2  O   UNL A   1      32.464  30.890  27.569  1.00  0.00    -0.273 OA
ATOM      3  N   UNL A   1      33.870  32.511  28.014  1.00  0.00    -0.354 N 
ATOM      4  H   UNL A   1      33.041  32.980  28.267  1.00  0.00     0.163 HD
ENDROOT
BRANCH   1   5
ATOM      5  C   UNL A   1      34.725  30.309  26.985  1.00  0.00     0.175 C 
BRANCH   5   6
ATOM      6  N   UNL A   1      34.271  28.928  27.178  1.00  0.00    -0.342 N 
ATOM      7  C   UNL A   1      33.618  28.104  26.309  1.00  0.00     0.240 C 
ATOM      8  O   UNL A   1      33.237  27.020  26.761  1.00  0.00    -0.273 OA
ATOM      9  H   UNL A   1      34.464  28.540  28.062  1.00  0.00     0.164 HD
BRANCH   7  10
ATOM     10  C   UNL A   1      33.537  28.404  24.795  1.00  0.00     0.216 C 
BRANCH  10  11
ATOM     11  N   UNL A   1      32.336  27.988  24.075  1.00  0.00    -0.340 N 
ATOM     12  C   UNL A   1      32.195  26.938  23.179  1.00  0.00     0.292 C 
ATOM     13  O   UNL A   1      31.112  26.645  22.687  1.00  0.00    -0.265 OA
ATOM     14  H   UNL A   1      31.526  28.518  24.247  1.00  0.00     0.164 HD
BRANCH  12  15
ATOM     15  C   UNL A   1      33.424  26.109  22.814  1.00  0.00     0.252 C 
ATOM     16  O   UNL A   1      33.936  26.350  21.721  1.00  0.00    -0.283 OA
BRANCH  15  17
ATOM     17  C   UNL A   1      33.834  24.961  23.633  1.00  0.00     0.054 A 
ATOM     18  N   UNL A   1      34.781  23.543  25.119  1.00  0.00    -0.240 N 
ATOM     19  C   UNL A   1      34.778  24.861  24.663  1.00  0.00     0.117 A 
ATOM     20  C   UNL A   1      33.681  22.891  24.534  1.00  0.00     0.065 A 
ATOM     21  C   UNL A   1      33.345  23.641  23.411  1.00  0.00     0.012 A 
ATOM     22  C   UNL A   1      33.167  21.594  24.731  1.00  0.00     0.028 A 
ATOM     23  C   UNL A   1      32.625  23.015  22.371  1.00  0.00     0.011 A 
ATOM     24  C   UNL A   1      32.522  20.976  23.661  1.00  0.00     0.002 A 
ATOM     25  C   UNL A   1      32.288  21.663  22.479  1.00  0.00     0.001 A 
BRANCH  18  26
ATOM     26  S   UNL A   1      36.174  22.492  25.197  1.00  0.00     0.268 S 
ATOM     27  O   UNL A   1      36.433  22.188  23.799  1.00  0.00    -0.201 OA
ATOM     28  O   UNL A   1      35.731  21.456  26.123  1.00  0.00    -0.201 OA
BRANCH  26  29
ATOM     29  C   UNL A   1      37.738  22.910  25.874  1.00  0.00     0.088 A 
ATOM     30  C   UNL A   1      41.663  22.866  27.678  1.00  0.00     0.044 C 
ATOM     31  C   UNL A   1      40.316  22.934  27.018  1.00  0.00    -0.051 A 
ATOM     32  C   UNL A   1      39.866  21.790  26.373  1.00  0.00     0.005 A 
ATOM     33  C   UNL A   1      39.473  24.068  27.069  1.00  0.00     0.005 A 
ATOM     34  C   UNL A   1      38.606  21.790  25.804  1.00  0.00     0.022 A 
ATOM     35  C   UNL A   1      38.172  24.064  26.501  1.00  0.00     0.022 A 
ENDBRANCH  26  29
ENDBRANCH  18  26
ENDBRANCH  15  17
ENDBRANCH  12  15
ENDBRANCH  10  11
ENDBRANCH   7  10
ENDBRANCH   5   6
BRANCH   5  36
ATOM     36  C   UNL A   1      36.188  30.502  27.447  1.00  0.00     0.072 C 
BRANCH  36  37
ATOM     37  C   UNL A   1      36.682  29.962  28.768  1.00  0.00    -0.020 A 
ATOM     38  C   UNL A   1      36.306  30.289  30.056  1.00  0.00     0.087 A 
ATOM     39  C   UNL A   1      37.678  28.922  28.916  1.00  0.00     0.003 A 
ATOM     40  N   UNL A   1      36.939  29.458  30.933  1.00  0.00    -0.361 N 
ATOM     41  C   UNL A   1      37.741  28.579  30.266  1.00  0.00     0.046 A 
ATOM     42  C   UNL A   1      38.522  28.221  28.026  1.00  0.00     0.010 A 
ATOM     43  H   UNL A   1      36.832  29.489  31.912  1.00  0.00     0.166 HD
ATOM     44  C   UNL A   1      38.528  27.538  30.769  1.00  0.00     0.026 A 
ATOM     45  C   UNL A   1      39.360  27.208  28.519  1.00  0.00     0.001 A 
ATOM     46  C   UNL A   1      39.342  26.856  29.866  1.00  0.00     0.002 A 
ENDBRANCH  36  37
ENDBRANCH   5  36
ENDBRANCH   1   5
BRANCH   3  47
ATOM     47  C   UNL A   1      35.062  33.321  28.213  1.00  0.00     0.117 C 
BRANCH  47  48
ATOM     48  C   UNL A   1      34.924  34.383  29.297  1.00  0.00     0.042 C 
BRANCH  48  49
ATOM     49  C   UNL A   1      34.784  33.814  30.711  1.00  0.00     0.118 C 
BRANCH  49  50
ATOM     50  N   UNL A   1      35.399  34.637  31.749  1.00  0.00    -0.352 N 
ATOM     51  C   UNL A   1      36.659  34.532  32.319  1.00  0.00     0.251 C 
ATOM     52  H   UNL A   1      34.841  35.371  32.092  1.00  0.00     0.163 HD
ATOM     53  O   UNL A   1      37.029  35.327  33.161  1.00  0.00    -0.269 OA
BRANCH  51  54
ATOM     54  C   UNL A   1      37.598  33.511  31.797  1.00  0.00     0.039 A 
ATOM     55  C   UNL A   1      37.774  32.341  32.543  1.00  0.00     0.014 A 
ATOM     56  C   UNL A   1      38.404  33.768  30.691  1.00  0.00     0.014 A 
ATOM     57  C   UNL A   1      38.915  31.566  32.342  1.00  0.00     0.010 A 
ATOM     58  C   UNL A   1      39.555  33.022  30.517  1.00  0.00     0.010 A 
ATOM     59  C   UNL A   1      39.856  31.985  31.401  1.00  0.00    -0.014 A 
BRANCH  59  60
ATOM     60  C   UNL A   1      41.232  31.499  31.396  1.00  0.00     0.031 A 
ATOM     61  C   UNL A   1      41.672  30.437  30.473  1.00  0.00     0.074 A 
ATOM     62  C   UNL A   1      42.129  32.043  32.250  1.00  0.00     0.049 A 
ATOM     63  N   UNL A   1      42.578  29.565  30.767  1.00  0.00    -0.248 NA
ATOM     64  C   UNL A   1      41.109  30.265  29.139  1.00  0.00     0.031 C 
ATOM     65  C   UNL A   1      43.573  31.814  32.280  1.00  0.00     0.029 A 
ATOM     66  N   UNL A   1      41.869  32.774  33.424  1.00  0.00    -0.354 N 
ATOM     67  C   UNL A   1      42.901  28.898  29.611  1.00  0.00     0.074 A 
ATOM     68  C   UNL A   1      41.915  29.321  28.639  1.00  0.00     0.031 C 
ATOM     69  C   UNL A   1      44.023  32.076  33.516  1.00  0.00     0.029 A 
ATOM     70  C   UNL A   1      42.866  32.371  34.342  1.00  0.00     0.049 A 
ATOM     71  H   UNL A   1      41.146  33.425  33.574  1.00  0.00     0.167 HD
ATOM     72  C   UNL A   1      44.049  28.165  29.546  1.00  0.00     0.037 A 
ATOM     73  C   UNL A   1      42.565  31.759  35.521  1.00  0.00     0.037 A 
ATOM     74  C   UNL A   1      44.803  28.223  30.791  1.00  0.00     0.049 A 
ATOM     75  C   UNL A   1      43.226  30.418  35.704  1.00  0.00     0.074 A 
ATOM     76  C   UNL A   1      45.868  29.013  31.192  1.00  0.00     0.029 A 
ATOM     77  N   UNL A   1      44.299  27.628  31.942  1.00  0.00    -0.354 N 
ATOM     78  N   UNL A   1      43.678  29.695  34.719  1.00  0.00    -0.248 NA
ATOM     79  C   UNL A   1      43.396  29.771  37.001  1.00  0.00     0.031 C 
ATOM     80  C   UNL A   1      45.994  28.909  32.596  1.00  0.00     0.029 A 
ATOM     81  C   UNL A   1      45.011  28.047  33.049  1.00  0.00     0.049 A 
ATOM     82  H   UNL A   1      43.542  26.999  31.965  1.00  0.00     0.167 HD
ATOM     83  C   UNL A   1      44.180  28.517  35.213  1.00  0.00     0.074 A 
ATOM     84  C   UNL A   1      43.994  28.619  36.647  1.00  0.00     0.031 C 
ATOM     85  C   UNL A   1      44.701  27.563  34.384  1.00  0.00     0.037 A 
BRANCH  72  86
ATOM     86  C   UNL A   1      44.615  27.666  28.240  1.00  0.00     0.064 A 
ATOM     87  C   UNL A   1      44.200  26.442  27.677  1.00  0.00     0.173 A 
ATOM     88  C   UNL A   1      45.615  28.348  27.526  1.00  0.00     0.173 A 
ATOM     89  F   UNL A   1      43.193  25.731  28.198  1.00  0.00    -0.203 F 
ATOM     90  C   UNL A   1      44.824  25.886  26.557  1.00  0.00     0.198 A 
ATOM     91  C   UNL A   1      46.273  27.770  26.435  1.00  0.00     0.198 A 
ATOM     92  F   UNL A   1      45.972  29.595  27.865  1.00  0.00    -0.203 F 
ATOM     93  F   UNL A   1      44.403  24.707  26.078  1.00  0.00    -0.200 F 
ATOM     94  C   UNL A   1      45.887  26.533  25.960  1.00  0.00     0.200 A 
ATOM     95  F   UNL A   1      47.296  28.415  25.857  1.00  0.00    -0.200 F 
ATOM     96  F   UNL A   1      46.525  25.971  24.925  1.00  0.00    -0.200 F 
ENDBRANCH  72  86
BRANCH  73  97
ATOM     97  C   UNL A   1      41.238  32.137  36.068  1.00  0.00     0.064 A 
ATOM     98  C   UNL A   1      41.040  33.469  36.479  1.00  0.00     0.173 A 
ATOM     99  C   UNL A   1      40.102  31.350  35.852  1.00  0.00     0.173 A 
ATOM    100  F   UNL A   1      42.098  34.267  36.695  1.00  0.00    -0.203 F 
ATOM    101  C   UNL A   1      39.765  34.020  36.560  1.00  0.00     0.198 A 
ATOM    102  C   UNL A   1      38.822  31.902  35.953  1.00  0.00     0.198 A 
ATOM    103  F   UNL A   1      40.224  30.082  35.433  1.00  0.00    -0.203 F 
ATOM    104  F   UNL A   1      39.617  35.325  36.838  1.00  0.00    -0.200 F 
ATOM    105  C   UNL A   1      38.657  33.243  36.271  1.00  0.00     0.200 A 
ATOM    106  F   UNL A   1      37.751  31.156  35.651  1.00  0.00    -0.200 F 
ATOM    107  F   UNL A   1      37.436  33.796  36.258  1.00  0.00    -0.200 F 
ENDBRANCH  73  97
BRANCH  85 108
ATOM    108  C   UNL A   1      45.088  26.145  34.749  1.00  0.00     0.064 A 
ATOM    109  C   UNL A   1      46.299  25.788  35.361  1.00  0.00     0.173 A 
ATOM    110  C   UNL A   1      44.150  25.089  34.605  1.00  0.00     0.173 A 
ATOM    111  F   UNL A   1      47.224  26.705  35.673  1.00  0.00    -0.203 F 
ATOM    112  C   UNL A   1      46.580  24.469  35.738  1.00  0.00     0.198 A 
ATOM    113  C   UNL A   1      44.410  23.789  35.035  1.00  0.00     0.198 A 
ATOM    114  F   UNL A   1      42.938  25.290  34.068  1.00  0.00    -0.203 F 
ATOM    115  F   UNL A   1      47.770  24.175  36.280  1.00  0.00    -0.200 F 
ATOM    116  C   UNL A   1      45.633  23.474  35.587  1.00  0.00     0.200 A 
ATOM    117  F   UNL A   1      43.458  22.851  34.930  1.00  0.00    -0.200 F 
ATOM    118  F   UNL A   1      45.889  22.224  35.993  1.00  0.00    -0.200 F 
ENDBRANCH  85 108
ENDBRANCH  59  60
ENDBRANCH  51  54
ENDBRANCH  49  50
ENDBRANCH  48  49
ENDBRANCH  47  48
ENDBRANCH   3  47
TORSDOF 19
ENDMDL
MODEL 2
REMARK VINA RESULT:     -12.1      5.223      9.463
REMARK SMILES Cc1ccc(S(=O)(=O)n2cc(C(=O)C(=O)NCC(=O)N[C@H](Cc3c[nH]c4ccccc34)C(=O)NCCCNC(=O)c3ccc(-c4c5nc(c(-c6c(F)c(F)c(F)c(F)c6F)c6ccc([nH]6)c(-c6c(F)c(F)c(F)c(F)c6F)c6nc(c(-c7c(F)c(F)c(F)c(F)c7F)c7ccc4[nH]7)C=C6)C=C5)cc3)c3ccccc32)cc1
REMARK SMILES IDX 32 1 33 2 34 3 21 5 20 6 18 7 19 8 17 10 16 11 14 12 15 13
REMARK SMILES IDX 12 15 13 16 11 17 9 18 10 19 109 20 104 21 108 22 105 23
REMARK SMILES IDX 107 24 106 25 6 26 7 27 8 28 5 29 1 30 2 31 3 32 111 33 4 34
REMARK SMILES IDX 110 35 22 36 23 37 24 38 31 39 25 40 26 41 30 42 27 44 29 45
REMARK SMILES IDX 28 46 35 47 36 48 37 49 38 50 39 51 40 53 41 54 42 55 103 56
REMARK SMILES IDX 43 57 102 58 44 59 45 60 46 61 96 62 47 63 101 64 95 65
REMARK SMILES IDX 97 66 48 67 100 68 94 69 93 70 49 72 81 73 61 74 80 75 62 76
REMARK SMILES IDX 65 77 79 78 98 79 63 80 64 81 78 83 99 84 66 85 50 86 51 87
REMARK SMILES IDX 59 88 52 89 53 90 57 91 60 92 54 93 55 94 58 95 56 96 82 97
REMARK SMILES IDX 83 98 91 99 84 100 85 101 89 102 92 103 86 104 87 105 90 106
REMARK SMILES IDX 88 107 67 108 68 109 76 110 69 111 70 112 74 113 77 114
REMARK SMILES IDX 71 115 72 116 75 117 73 118
REMARK H PARENT 34 4 20 9 16 14 25 43 38 52 97 71 65 82
REMARK Flexibility Score: inf
ROOT
ATOM      1  C   UNL A   1      46.526  33.346  28.668  1.00  0.00     0.242 C 
ATOM      2  O   UNL A   1      47.074  34.247  28.019  1.00  0.00    -0.273 OA
ATOM      3  N   UNL A   1      47.373  32.440  29.222  1.00  0.00    -0.354 N 
ATOM      4  H   UNL A   1      48.318  32.612  29.001  1.00  0.00     0.163 HD
ENDROOT
BRANCH   1   5
ATOM      5  C   UNL A   1      44.988  33.285  28.736  1.00  0.00     0.175 C 
BRANCH   5   6
ATOM      6  N   UNL A   1      44.475  33.209  27.364  1.00  0.00    -0.342 N 
ATOM      7  C   UNL A   1      44.534  32.174  26.476  1.00  0.00     0.240 C 
ATOM      8  O   UNL A   1      44.130  32.408  25.333  1.00  0.00    -0.273 OA
ATOM      9  H   UNL A   1      44.024  34.020  27.036  1.00  0.00     0.164 HD
BRANCH   7  10
ATOM     10  C   UNL A   1      44.885  30.735  26.914  1.00  0.00     0.216 C 
BRANCH  10  11
ATOM     11  N   UNL A   1      46.196  30.205  26.545  1.00  0.00    -0.340 N 
ATOM     12  C   UNL A   1      46.494  28.977  25.972  1.00  0.00     0.292 C 
ATOM     13  O   UNL A   1      47.635  28.672  25.645  1.00  0.00    -0.265 OA
ATOM     14  H   UNL A   1      46.963  30.794  26.724  1.00  0.00     0.164 HD
BRANCH  12  15
ATOM     15  C   UNL A   1      45.361  27.985  25.722  1.00  0.00     0.252 C 
ATOM     16  O   UNL A   1      44.254  28.472  25.494  1.00  0.00    -0.283 OA
BRANCH  15  17
ATOM     17  C   UNL A   1      45.550  26.547  25.948  1.00  0.00     0.054 A 
ATOM     18  N   UNL A   1      46.099  24.355  25.841  1.00  0.00    -0.240 N 
ATOM     19  C   UNL A   1      46.198  25.575  25.174  1.00  0.00     0.117 A 
ATOM     20  C   UNL A   1      45.596  24.617  27.128  1.00  0.00     0.065 A 
ATOM     21  C   UNL A   1      44.965  25.854  27.048  1.00  0.00     0.012 A 
ATOM     22  C   UNL A   1      45.401  23.763  28.232  1.00  0.00     0.028 A 
ATOM     23  C   UNL A   1      43.975  26.171  28.002  1.00  0.00     0.011 A 
ATOM     24  C   UNL A   1      44.369  24.066  29.119  1.00  0.00     0.002 A 
ATOM     25  C   UNL A   1      43.636  25.236  28.983  1.00  0.00     0.001 A 
BRANCH  18  26
ATOM     26  S   UNL A   1      45.426  22.883  25.185  1.00  0.00     0.268 S 
ATOM     27  O   UNL A   1      46.413  21.880  25.551  1.00  0.00    -0.201 OA
ATOM     28  O   UNL A   1      45.197  23.240  23.790  1.00  0.00    -0.201 OA
BRANCH  26  29
ATOM     29  C   UNL A   1      43.876  22.182  25.616  1.00  0.00     0.088 A 
ATOM     30  C   UNL A   1      40.451  19.600  26.139  1.00  0.00     0.044 C 
ATOM     31  C   UNL A   1      41.628  20.525  26.014  1.00  0.00    -0.051 A 
ATOM     32  C   UNL A   1      42.868  19.948  25.778  1.00  0.00     0.005 A 
ATOM     33  C   UNL A   1      41.528  21.934  26.066  1.00  0.00     0.005 A 
ATOM     34  C   UNL A   1      43.968  20.766  25.597  1.00  0.00     0.022 A 
ATOM     35  C   UNL A   1      42.652  22.777  25.863  1.00  0.00     0.022 A 
ENDBRANCH  26  29
ENDBRANCH  18  26
ENDBRANCH  15  17
ENDBRANCH  12  15
ENDBRANCH  10  11
ENDBRANCH   7  10
ENDBRANCH   5   6
BRANCH   5  36
ATOM     36  C   UNL A   1      44.248  34.359  29.567  1.00  0.00     0.072 C 
BRANCH  36  37
ATOM     37  C   UNL A   1      42.874  34.854  29.182  1.00  0.00    -0.020 A 
ATOM     38  C   UNL A   1      42.465  35.555  28.065  1.00  0.00     0.087 A 
ATOM     39  C   UNL A   1      41.671  34.640  29.958  1.00  0.00     0.003 A 
ATOM     40  N   UNL A   1      41.107  35.684  28.088  1.00  0.00    -0.361 N 
ATOM     41  C   UNL A   1      40.589  35.091  29.202  1.00  0.00     0.046 A 
ATOM     42  C   UNL A   1      41.393  34.086  31.227  1.00  0.00     0.010 A 
ATOM     43  H   UNL A   1      40.575  36.142  27.398  1.00  0.00     0.166 HD
ATOM     44  C   UNL A   1      39.254  34.952  29.595  1.00  0.00     0.026 A 
ATOM     45  C   UNL A   1      40.062  33.988  31.664  1.00  0.00     0.001 A 
ATOM     46  C   UNL A   1      39.009  34.392  30.848  1.00  0.00     0.002 A 
ENDBRANCH  36  37
ENDBRANCH   5  36
ENDBRANCH   1   5
BRANCH   3  47
ATOM     47  C   UNL A   1      47.192  31.272  30.069  1.00  0.00     0.117 C 
BRANCH  47  48
ATOM     48  C   UNL A   1      47.587  31.488  31.526  1.00  0.00     0.042 C 
BRANCH  48  49
ATOM     49  C   UNL A   1      46.604  32.358  32.314  1.00  0.00     0.118 C 
BRANCH  49  50
ATOM     50  N   UNL A   1      47.194  33.024  33.472  1.00  0.00    -0.352 N 
ATOM     51  C   UNL A   1      46.610  33.352  34.685  1.00  0.00     0.251 C 
ATOM     52  H   UNL A   1      48.141  33.276  33.377  1.00  0.00     0.163 HD
ATOM     53  O   UNL A   1      47.260  33.887  35.564  1.00  0.00    -0.269 OA
BRANCH  51  54
ATOM     54  C   UNL A   1      45.214  32.930  34.946  1.00  0.00     0.039 A 
ATOM     55  C   UNL A   1      45.006  31.669  35.514  1.00  0.00     0.014 A 
ATOM     56  C   UNL A   1      44.134  33.684  34.494  1.00  0.00     0.014 A 
ATOM     57  C   UNL A   1      43.759  31.059  35.391  1.00  0.00     0.010 A 
ATOM     58  C   UNL A   1      42.907  33.065  34.337  1.00  0.00     0.010 A 
ATOM     59  C   UNL A   1      42.749  31.725  34.696  1.00  0.00    -0.014 A 
BRANCH  59  60
ATOM     60  C   UNL A   1      41.576  31.039  34.165  1.00  0.00     0.031 A 
ATOM     61  C   UNL A   1      41.506  30.607  32.757  1.00  0.00     0.074 A 
ATOM     62  C   UNL A   1      40.533  30.781  34.987  1.00  0.00     0.049 A 
ATOM     63  N   UNL A   1      40.410  30.575  32.074  1.00  0.00    -0.248 NA
ATOM     64  C   UNL A   1      42.678  30.186  32.000  1.00  0.00     0.031 C 
ATOM     65  C   UNL A   1      39.355  29.966  34.691  1.00  0.00     0.029 A 
ATOM     66  N   UNL A   1      40.230  31.397  36.215  1.00  0.00    -0.354 N 
ATOM     67  C   UNL A   1      40.672  29.905  30.905  1.00  0.00     0.074 A 
ATOM     68  C   UNL A   1      42.109  29.741  30.872  1.00  0.00     0.031 C 
ATOM     69  C   UNL A   1      38.351  30.359  35.489  1.00  0.00     0.029 A 
ATOM     70  C   UNL A   1      38.820  31.511  36.238  1.00  0.00     0.049 A 
ATOM     71  H   UNL A   1      40.864  31.686  36.910  1.00  0.00     0.167 HD
ATOM     72  C   UNL A   1      39.641  29.430  30.147  1.00  0.00     0.037 A 
ATOM     73  C   UNL A   1      38.190  32.716  36.305  1.00  0.00     0.037 A 
ATOM     74  C   UNL A   1      38.346  29.719  30.748  1.00  0.00     0.049 A 
ATOM     75  C   UNL A   1      37.222  32.968  35.178  1.00  0.00     0.074 A 
ATOM     76  C   UNL A   1      37.508  28.960  31.550  1.00  0.00     0.029 A 
ATOM     77  N   UNL A   1      37.891  31.030  30.832  1.00  0.00    -0.354 N 
ATOM     78  N   UNL A   1      37.269  32.347  34.034  1.00  0.00    -0.248 NA
ATOM     79  C   UNL A   1      36.154  33.960  35.237  1.00  0.00     0.031 C 
ATOM     80  C   UNL A   1      36.554  29.822  32.135  1.00  0.00     0.029 A 
ATOM     81  C   UNL A   1      36.805  31.105  31.683  1.00  0.00     0.049 A 
ATOM     82  H   UNL A   1      38.287  31.794  30.355  1.00  0.00     0.167 HD
ATOM     83  C   UNL A   1      36.282  32.833  33.213  1.00  0.00     0.074 A 
ATOM     84  C   UNL A   1      35.602  33.829  34.017  1.00  0.00     0.031 C 
ATOM     85  C   UNL A   1      36.123  32.363  31.939  1.00  0.00     0.037 A 
BRANCH  72  86
ATOM     86  C   UNL A   1      39.851  28.437  29.032  1.00  0.00     0.064 A 
ATOM     87  C   UNL A   1      39.627  27.058  29.221  1.00  0.00     0.173 A 
ATOM     88  C   UNL A   1      40.325  28.800  27.760  1.00  0.00     0.173 A 
ATOM     89  F   UNL A   1      39.091  26.579  30.350  1.00  0.00    -0.203 F 
ATOM     90  C   UNL A   1      39.968  26.107  28.256  1.00  0.00     0.198 A 
ATOM     91  C   UNL A   1      40.712  27.846  26.812  1.00  0.00     0.198 A 
ATOM     92  F   UNL A   1      40.416  30.089  27.402  1.00  0.00    -0.203 F 
ATOM     93  F   UNL A   1      39.754  24.807  28.499  1.00  0.00    -0.200 F 
ATOM     94  C   UNL A   1      40.547  26.499  27.066  1.00  0.00     0.200 A 
ATOM     95  F   UNL A   1      41.263  28.243  25.656  1.00  0.00    -0.200 F 
ATOM     96  F   UNL A   1      40.930  25.584  26.167  1.00  0.00    -0.200 F 
ENDBRANCH  72  86
BRANCH  73  97
ATOM     97  C   UNL A   1      38.977  33.763  37.003  1.00  0.00     0.064 A 
ATOM     98  C   UNL A   1      39.677  34.703  36.223  1.00  0.00     0.173 A 
ATOM     99  C   UNL A   1      38.759  34.072  38.350  1.00  0.00     0.173 A 
ATOM    100  F   UNL A   1      39.908  34.456  34.924  1.00  0.00    -0.203 F 
ATOM    101  C   UNL A   1      40.042  35.943  36.739  1.00  0.00     0.198 A 
ATOM    102  C   UNL A   1      39.144  35.311  38.869  1.00  0.00     0.198 A 
ATOM    103  F   UNL A   1      38.075  33.229  39.138  1.00  0.00    -0.203 F 
ATOM    104  F   UNL A   1      40.600  36.863  35.937  1.00  0.00    -0.200 F 
ATOM    105  C   UNL A   1      39.751  36.257  38.055  1.00  0.00     0.200 A 
ATOM    106  F   UNL A   1      38.842  35.623  40.137  1.00  0.00    -0.200 F 
ATOM    107  F   UNL A   1      40.018  37.484  38.526  1.00  0.00    -0.200 F 
ENDBRANCH  73  97
BRANCH  85 108
ATOM    108  C   UNL A   1      35.236  32.940  30.855  1.00  0.00     0.064 A 
ATOM    109  C   UNL A   1      34.796  34.272  30.818  1.00  0.00     0.173 A 
ATOM    110  C   UNL A   1      34.906  32.164  29.714  1.00  0.00     0.173 A 
ATOM    111  F   UNL A   1      35.142  35.151  31.768  1.00  0.00    -0.203 F 
ATOM    112  C   UNL A   1      34.031  34.772  29.758  1.00  0.00     0.198 A 
ATOM    113  C   UNL A   1      34.194  32.681  28.632  1.00  0.00     0.198 A 
ATOM    114  F   UNL A   1      35.289  30.884  29.595  1.00  0.00    -0.203 F 
ATOM    115  F   UNL A   1      33.601  36.041  29.793  1.00  0.00    -0.200 F 
ATOM    116  C   UNL A   1      33.741  33.982  28.661  1.00  0.00     0.200 A 
ATOM    117  F   UNL A   1      33.971  31.916  27.554  1.00  0.00    -0.200 F 
ATOM    118  F   UNL A   1      33.049  34.480  27.628  1.00  0.00    -0.200 F 
ENDBRANCH  85 108
ENDBRANCH  59  60
ENDBRANCH  51  54
ENDBRANCH  49  50
ENDBRANCH  48  49
ENDBRANCH  47  48
ENDBRANCH   3  47
TORSDOF 19
ENDMDL
MODEL 3
REMARK VINA RESULT:     -11.6      2.173      3.626
REMARK SMILES Cc1ccc(S(=O)(=O)n2cc(C(=O)C(=O)NCC(=O)N[C@H](Cc3c[nH]c4ccccc34)C(=O)NCCCNC(=O)c3ccc(-c4c5nc(c(-c6c(F)c(F)c(F)c(F)c6F)c6ccc([nH]6)c(-c6c(F)c(F)c(F)c(F)c6F)c6nc(c(-c7c(F)c(F)c(F)c(F)c7F)c7ccc4[nH]7)C=C6)C=C5)cc3)c3ccccc32)cc1
REMARK SMILES IDX 32 1 33 2 34 3 21 5 20 6 18 7 19 8 17 10 16 11 14 12 15 13
REMARK SMILES IDX 12 15 13 16 11 17 9 18 10 19 109 20 104 21 108 22 105 23
REMARK SMILES IDX 107 24 106 25 6 26 7 27 8 28 5 29 1 30 2 31 3 32 111 33 4 34
REMARK SMILES IDX 110 35 22 36 23 37 24 38 31 39 25 40 26 41 30 42 27 44 29 45
REMARK SMILES IDX 28 46 35 47 36 48 37 49 38 50 39 51 40 53 41 54 42 55 103 56
REMARK SMILES IDX 43 57 102 58 44 59 45 60 46 61 96 62 47 63 101 64 95 65
REMARK SMILES IDX 97 66 48 67 100 68 94 69 93 70 49 72 81 73 61 74 80 75 62 76
REMARK SMILES IDX 65 77 79 78 98 79 63 80 64 81 78 83 99 84 66 85 50 86 51 87
REMARK SMILES IDX 59 88 52 89 53 90 57 91 60 92 54 93 55 94 58 95 56 96 82 97
REMARK SMILES IDX 83 98 91 99 84 100 85 101 89 102 92 103 86 104 87 105 90 106
REMARK SMILES IDX 88 107 67 108 68 109 76 110 69 111 70 112 74 113 77 114
REMARK SMILES IDX 71 115 72 116 75 117 73 118
REMARK H PARENT 34 4 20 9 16 14 25 43 38 52 97 71 65 82
REMARK Flexibility Score: inf
ROOT
ATOM      1  C   UNL A   1      35.363  31.949  28.708  1.00  0.00     0.242 C 
ATOM      2  O   UNL A   1      34.274  31.829  29.285  1.00  0.00    -0.273 OA
ATOM      3  N   UNL A   1      36.014  33.118  28.943  1.00  0.00    -0.354 N 
ATOM      4  H   UNL A   1      35.507  33.729  29.526  1.00  0.00     0.163 HD
ENDROOT
BRANCH   1   5
ATOM      5  C   UNL A   1      35.841  30.840  27.751  1.00  0.00     0.175 C 
BRANCH   5   6
ATOM      6  N   UNL A   1      34.962  29.678  27.923  1.00  0.00    -0.342 N 
ATOM      7  C   UNL A   1      33.890  29.288  27.174  1.00  0.00     0.240 C 
ATOM      8  O   UNL A   1      33.239  28.332  27.605  1.00  0.00    -0.273 OA
ATOM      9  H   UNL A   1      35.175  29.098  28.690  1.00  0.00     0.164 HD
BRANCH   7  10
ATOM     10  C   UNL A   1      33.620  29.862  25.765  1.00  0.00     0.216 C 
BRANCH  10  11
ATOM     11  N   UNL A   1      32.245  29.851  25.272  1.00  0.00    -0.340 N 
ATOM     12  C   UNL A   1      31.658  28.958  24.388  1.00  0.00     0.292 C 
ATOM     13  O   UNL A   1      30.469  29.015  24.099  1.00  0.00    -0.265 OA
ATOM     14  H   UNL A   1      31.662  30.569  25.608  1.00  0.00     0.164 HD
BRANCH  12  15
ATOM     15  C   UNL A   1      32.517  27.855  23.775  1.00  0.00     0.252 C 
ATOM     16  O   UNL A   1      32.689  27.914  22.558  1.00  0.00    -0.283 OA
BRANCH  15  17
ATOM     17  C   UNL A   1      32.934  26.691  24.566  1.00  0.00     0.054 A 
ATOM     18  N   UNL A   1      34.056  25.064  25.667  1.00  0.00    -0.240 N 
ATOM     19  C   UNL A   1      34.210  26.201  24.874  1.00  0.00     0.117 A 
ATOM     20  C   UNL A   1      32.702  24.988  26.039  1.00  0.00     0.065 A 
ATOM     21  C   UNL A   1      32.007  25.754  25.108  1.00  0.00     0.012 A 
ATOM     22  C   UNL A   1      32.034  24.104  26.909  1.00  0.00     0.028 A 
ATOM     23  C   UNL A   1      30.632  25.498  24.915  1.00  0.00     0.011 A 
ATOM     24  C   UNL A   1      30.694  23.819  26.650  1.00  0.00     0.002 A 
ATOM     25  C   UNL A   1      30.010  24.478  25.639  1.00  0.00     0.001 A 
BRANCH  18  26
ATOM     26  S   UNL A   1      34.709  23.481  25.322  1.00  0.00     0.268 S 
ATOM     27  O   UNL A   1      35.217  23.049  26.614  1.00  0.00    -0.201 OA
ATOM     28  O   UNL A   1      35.612  23.752  24.210  1.00  0.00    -0.201 OA
BRANCH  26  29
ATOM     29  C   UNL A   1      33.804  22.112  24.701  1.00  0.00     0.088 A 
ATOM     30  C   UNL A   1      32.506  18.214  23.365  1.00  0.00     0.044 C 
ATOM     31  C   UNL A   1      32.897  19.581  23.847  1.00  0.00    -0.051 A 
ATOM     32  C   UNL A   1      33.945  19.660  24.753  1.00  0.00     0.005 A 
ATOM     33  C   UNL A   1      32.297  20.777  23.388  1.00  0.00     0.005 A 
ATOM     34  C   UNL A   1      34.376  20.904  25.177  1.00  0.00     0.022 A 
ATOM     35  C   UNL A   1      32.749  22.055  23.808  1.00  0.00     0.022 A 
ENDBRANCH  26  29
ENDBRANCH  18  26
ENDBRANCH  15  17
ENDBRANCH  12  15
ENDBRANCH  10  11
ENDBRANCH   7  10
ENDBRANCH   5   6
BRANCH   5  36
ATOM     36  C   UNL A   1      37.334  30.439  27.783  1.00  0.00     0.072 C 
BRANCH  36  37
ATOM     37  C   UNL A   1      37.837  29.316  28.659  1.00  0.00    -0.020 A 
ATOM     38  C   UNL A   1      38.565  28.191  28.328  1.00  0.00     0.087 A 
ATOM     39  C   UNL A   1      37.650  29.239  30.093  1.00  0.00     0.003 A 
ATOM     40  N   UNL A   1      38.893  27.515  29.467  1.00  0.00    -0.361 N 
ATOM     41  C   UNL A   1      38.395  28.157  30.563  1.00  0.00     0.046 A 
ATOM     42  C   UNL A   1      36.933  29.998  31.044  1.00  0.00     0.010 A 
ATOM     43  H   UNL A   1      39.415  26.681  29.494  1.00  0.00     0.166 HD
ATOM     44  C   UNL A   1      38.532  27.837  31.918  1.00  0.00     0.026 A 
ATOM     45  C   UNL A   1      37.014  29.659  32.404  1.00  0.00     0.001 A 
ATOM     46  C   UNL A   1      37.822  28.610  32.834  1.00  0.00     0.002 A 
ENDBRANCH  36  37
ENDBRANCH   5  36
ENDBRANCH   1   5
BRANCH   3  47
ATOM     47  C   UNL A   1      37.294  33.665  28.524  1.00  0.00     0.117 C 
BRANCH  47  48
ATOM     48  C   UNL A   1      38.125  34.254  29.659  1.00  0.00     0.042 C 
BRANCH  48  49
ATOM     49  C   UNL A   1      37.781  33.690  31.039  1.00  0.00     0.118 C 
BRANCH  49  50
ATOM     50  N   UNL A   1      38.641  34.178  32.114  1.00  0.00    -0.352 N 
ATOM     51  C   UNL A   1      39.832  33.651  32.591  1.00  0.00     0.251 C 
ATOM     52  H   UNL A   1      38.331  34.997  32.564  1.00  0.00     0.163 HD
ATOM     53  O   UNL A   1      40.443  34.206  33.485  1.00  0.00    -0.269 OA
BRANCH  51  54
ATOM     54  C   UNL A   1      40.416  32.471  31.911  1.00  0.00     0.039 A 
ATOM     55  C   UNL A   1      40.339  31.236  32.562  1.00  0.00     0.014 A 
ATOM     56  C   UNL A   1      41.162  32.605  30.743  1.00  0.00     0.014 A 
ATOM     57  C   UNL A   1      41.210  30.213  32.195  1.00  0.00     0.010 A 
ATOM     58  C   UNL A   1      42.053  31.605  30.403  1.00  0.00     0.010 A 
ATOM     59  C   UNL A   1      42.144  30.453  31.186  1.00  0.00    -0.014 A 
BRANCH  59  60
ATOM     60  C   UNL A   1      43.335  29.629  31.005  1.00  0.00     0.031 A 
ATOM     61  C   UNL A   1      43.316  28.420  30.162  1.00  0.00     0.074 A 
ATOM     62  C   UNL A   1      44.487  29.990  31.615  1.00  0.00     0.049 A 
ATOM     63  N   UNL A   1      44.029  27.371  30.402  1.00  0.00    -0.248 NA
ATOM     64  C   UNL A   1      42.475  28.294  28.978  1.00  0.00     0.031 C 
ATOM     65  C   UNL A   1      45.811  29.399  31.424  1.00  0.00     0.029 A 
ATOM     66  N   UNL A   1      44.647  30.853  32.714  1.00  0.00    -0.354 N 
ATOM     67  C   UNL A   1      43.946  26.553  29.302  1.00  0.00     0.074 A 
ATOM     68  C   UNL A   1      42.917  27.137  28.470  1.00  0.00     0.031 C 
ATOM     69  C   UNL A   1      46.547  29.633  32.520  1.00  0.00     0.029 A 
ATOM     70  C   UNL A   1      45.682  30.281  33.490  1.00  0.00     0.049 A 
ATOM     71  H   UNL A   1      44.146  31.679  32.903  1.00  0.00     0.167 HD
ATOM     72  C   UNL A   1      44.850  25.546  29.133  1.00  0.00     0.037 A 
ATOM     73  C   UNL A   1      45.484  29.863  34.771  1.00  0.00     0.037 A 
ATOM     74  C   UNL A   1      45.828  25.506  30.212  1.00  0.00     0.049 A 
ATOM     75  C   UNL A   1      45.829  28.415  35.006  1.00  0.00     0.074 A 
ATOM     76  C   UNL A   1      47.109  26.024  30.320  1.00  0.00     0.029 A 
ATOM     77  N   UNL A   1      45.436  25.154  31.499  1.00  0.00    -0.354 N 
ATOM     78  N   UNL A   1      45.891  27.525  34.057  1.00  0.00    -0.248 NA
ATOM     79  C   UNL A   1      46.095  27.851  36.325  1.00  0.00     0.031 C 
ATOM     80  C   UNL A   1      47.483  26.002  31.682  1.00  0.00     0.029 A 
ATOM     81  C   UNL A   1      46.434  25.462  32.404  1.00  0.00     0.049 A 
ATOM     82  H   UNL A   1      44.571  24.745  31.731  1.00  0.00     0.167 HD
ATOM     83  C   UNL A   1      46.185  26.300  34.602  1.00  0.00     0.074 A 
ATOM     84  C   UNL A   1      46.318  26.560  36.022  1.00  0.00     0.031 C 
ATOM     85  C   UNL A   1      46.289  25.181  33.823  1.00  0.00     0.037 A 
BRANCH  72  86
ATOM     86  C   UNL A   1      45.009  24.816  27.823  1.00  0.00     0.064 A 
ATOM     87  C   UNL A   1      44.336  23.604  27.568  1.00  0.00     0.173 A 
ATOM     88  C   UNL A   1      45.862  25.257  26.797  1.00  0.00     0.173 A 
ATOM     89  F   UNL A   1      43.425  23.111  28.416  1.00  0.00    -0.203 F 
ATOM     90  C   UNL A   1      44.592  22.832  26.432  1.00  0.00     0.198 A 
ATOM     91  C   UNL A   1      46.156  24.463  25.684  1.00  0.00     0.198 A 
ATOM     92  F   UNL A   1      46.425  26.473  26.847  1.00  0.00    -0.203 F 
ATOM     93  F   UNL A   1      43.940  21.675  26.252  1.00  0.00    -0.200 F 
ATOM     94  C   UNL A   1      45.532  23.244  25.508  1.00  0.00     0.200 A 
ATOM     95  F   UNL A   1      47.062  24.881  24.789  1.00  0.00    -0.200 F 
ATOM     96  F   UNL A   1      45.822  22.475  24.451  1.00  0.00    -0.200 F 
ENDBRANCH  72  86
BRANCH  73  97
ATOM     97  C   UNL A   1      44.422  30.613  35.486  1.00  0.00     0.064 A 
ATOM     98  C   UNL A   1      44.677  31.949  35.849  1.00  0.00     0.173 A 
ATOM     99  C   UNL A   1      43.090  30.185  35.484  1.00  0.00     0.173 A 
ATOM    100  F   UNL A   1      45.937  32.410  35.863  1.00  0.00    -0.203 F 
ATOM    101  C   UNL A   1      43.639  32.845  36.088  1.00  0.00     0.198 A 
ATOM    102  C   UNL A   1      42.052  31.083  35.742  1.00  0.00     0.198 A 
ATOM    103  F   UNL A   1      42.781  28.931  35.121  1.00  0.00    -0.203 F 
ATOM    104  F   UNL A   1      43.912  34.139  36.314  1.00  0.00    -0.200 F 
ATOM    105  C   UNL A   1      42.325  32.417  36.008  1.00  0.00     0.200 A 
ATOM    106  F   UNL A   1      40.779  30.674  35.643  1.00  0.00    -0.200 F 
ATOM    107  F   UNL A   1      41.324  33.299  36.146  1.00  0.00    -0.200 F 
ENDBRANCH  73  97
BRANCH  85 108
ATOM    108  C   UNL A   1      46.391  23.746  34.292  1.00  0.00     0.064 A 
ATOM    109  C   UNL A   1      45.320  22.839  34.309  1.00  0.00     0.173 A 
ATOM    110  C   UNL A   1      47.655  23.191  34.623  1.00  0.00     0.173 A 
ATOM    111  F   UNL A   1      44.095  23.195  33.898  1.00  0.00    -0.203 F 
ATOM    112  C   UNL A   1      45.483  21.503  34.691  1.00  0.00     0.198 A 
ATOM    113  C   UNL A   1      47.825  21.845  34.946  1.00  0.00     0.198 A 
ATOM    114  F   UNL A   1      48.774  23.930  34.616  1.00  0.00    -0.203 F 
ATOM    115  F   UNL A   1      44.418  20.690  34.730  1.00  0.00    -0.200 F 
ATOM    116  C   UNL A   1      46.735  21.003  34.996  1.00  0.00     0.200 A 
ATOM    117  F   UNL A   1      49.055  21.368  35.185  1.00  0.00    -0.200 F 
ATOM    118  F   UNL A   1      46.893  19.712  35.315  1.00  0.00    -0.200 F 
ENDBRANCH  85 108
ENDBRANCH  59  60
ENDBRANCH  51  54
ENDBRANCH  49  50
ENDBRANCH  48  49
ENDBRANCH  47  48
ENDBRANCH   3  47
TORSDOF 19
ENDMDL
