MODEL 1
REMARK VINA RESULT:     -12.1      0.000      0.000
REMARK SMILES CC(C)CN(C)c1ccc([N+](=O)[O-])cc1C(=O)NCCCNC(=O)c1ccc(-c2c3nc(c(-c4c(F)c(F)c(F)c(F)c4F)c4ccc([nH]4)c(-c4c(F)c(F)c(F)c(F)c4F)c4nc(c(-c5c(F)c(F)c(F)c(F)c5F)c5ccc2[nH]5)C=C4)C=C3)cc1
REMARK SMILES IDX 19 1 18 2 16 3 17 4 15 6 7 7 8 8 9 9 14 10 10 11 5 12 6 13
REMARK SMILES IDX 4 14 2 15 1 16 3 17 11 18 12 19 13 20 20 21 21 22 22 23
REMARK SMILES IDX 23 24 24 26 25 27 26 28 87 29 27 30 86 31 28 32 29 33 30 34
REMARK SMILES IDX 80 35 31 36 85 37 79 38 81 39 32 40 84 41 78 42 77 43 33 45
REMARK SMILES IDX 65 46 45 47 64 48 46 49 49 50 63 51 82 52 47 53 48 54 62 56
REMARK SMILES IDX 83 57 50 58 34 59 35 60 43 61 36 62 37 63 41 64 44 65 38 66
REMARK SMILES IDX 39 67 42 68 40 69 66 70 67 71 75 72 68 73 69 74 73 75 76 76
REMARK SMILES IDX 70 77 71 78 74 79 72 80 51 81 52 82 60 83 53 84 54 85 58 86
REMARK SMILES IDX 61 87 55 88 56 89 59 90 57 91
REMARK H PARENT 18 5 22 25 81 44 49 55
REMARK Flexibility Score: inf
ROOT
ATOM      1  C   UNL A   1      32.081  27.857  27.152  1.00  0.00     0.118 C 
ENDROOT
BRANCH   1   2
ATOM      2  N   UNL A   1      31.097  26.888  26.724  1.00  0.00    -0.352 N 
ATOM      3  C   UNL A   1      30.523  26.679  25.499  1.00  0.00     0.253 C 
ATOM      4  O   UNL A   1      29.795  25.687  25.398  1.00  0.00    -0.269 OA
ATOM      5  H   UNL A   1      30.788  26.277  27.432  1.00  0.00     0.163 HD
BRANCH   3   6
ATOM      6  C   UNL A   1      30.646  27.596  24.324  1.00  0.00     0.069 A 
ATOM      7  C   UNL A   1      31.812  27.928  23.587  1.00  0.00     0.050 A 
ATOM      8  C   UNL A   1      31.679  28.871  22.539  1.00  0.00     0.034 A 
ATOM      9  C   UNL A   1      30.446  29.403  22.159  1.00  0.00     0.088 A 
ATOM     10  C   UNL A   1      29.393  28.105  23.904  1.00  0.00     0.101 A 
ATOM     11  C   UNL A   1      29.299  28.980  22.821  1.00  0.00     0.270 A 
BRANCH   7  12
ATOM     12  N   UNL A   1      33.064  27.333  23.774  1.00  0.00    -0.374 N 
ATOM     13  C   UNL A   1      34.225  28.232  23.692  1.00  0.00     0.143 C 
BRANCH  12  14
ATOM     14  C   UNL A   1      33.282  25.973  23.221  1.00  0.00     0.119 C 
BRANCH  14  15
ATOM     15  C   UNL A   1      34.283  25.117  24.024  1.00  0.00     0.002 C 
ATOM     16  C   UNL A   1      33.875  25.002  25.495  1.00  0.00     0.009 C 
ATOM     17  C   UNL A   1      34.412  23.710  23.433  1.00  0.00     0.009 C 
ENDBRANCH  14  15
ENDBRANCH  12  14
ENDBRANCH   7  12
BRANCH  11  18
ATOM     18  N   UNL A   1      27.986  29.428  22.353  1.00  0.00     0.062 N 
ATOM     19  O   UNL A   1      27.031  29.312  23.133  1.00  0.00    -0.258 OA
ATOM     20  O   UNL A   1      27.913  29.909  21.214  1.00  0.00    -0.258 OA
ENDBRANCH  11  18
ENDBRANCH   3   6
ENDBRANCH   1   2
BRANCH   1  21
ATOM     21  C   UNL A   1      31.550  29.280  27.164  1.00  0.00     0.042 C 
BRANCH  21  22
ATOM     22  C   UNL A   1      32.433  30.218  26.341  1.00  0.00     0.118 C 
BRANCH  22  23
ATOM     23  N   UNL A   1      32.483  31.593  26.839  1.00  0.00    -0.352 N 
ATOM     24  C   UNL A   1      33.445  32.304  27.523  1.00  0.00     0.251 C 
ATOM     25  H   UNL A   1      31.669  32.112  26.648  1.00  0.00     0.163 HD
ATOM     26  O   UNL A   1      33.200  33.438  27.912  1.00  0.00    -0.269 OA
BRANCH  24  27
ATOM     27  C   UNL A   1      34.743  31.677  27.863  1.00  0.00     0.039 A 
ATOM     28  C   UNL A   1      35.862  32.490  28.064  1.00  0.00     0.014 A 
ATOM     29  C   UNL A   1      34.853  30.304  28.044  1.00  0.00     0.014 A 
ATOM     30  C   UNL A   1      37.031  31.941  28.597  1.00  0.00     0.010 A 
ATOM     31  C   UNL A   1      35.951  29.789  28.716  1.00  0.00     0.010 A 
ATOM     32  C   UNL A   1      37.052  30.603  29.020  1.00  0.00    -0.014 A 
BRANCH  32  33
ATOM     33  C   UNL A   1      38.178  30.029  29.808  1.00  0.00     0.031 A 
ATOM     34  C   UNL A   1      38.404  30.467  31.231  1.00  0.00     0.074 A 
ATOM     35  C   UNL A   1      39.076  29.223  29.205  1.00  0.00     0.049 A 
ATOM     36  N   UNL A   1      39.435  30.255  32.011  1.00  0.00    -0.248 NA
ATOM     37  C   UNL A   1      37.359  31.307  31.838  1.00  0.00     0.031 C 
ATOM     38  C   UNL A   1      39.026  28.783  27.809  1.00  0.00     0.029 A 
ATOM     39  N   UNL A   1      40.226  28.645  29.686  1.00  0.00    -0.354 N 
ATOM     40  C   UNL A   1      39.185  30.980  33.170  1.00  0.00     0.074 A 
ATOM     41  C   UNL A   1      37.935  31.681  32.970  1.00  0.00     0.031 C 
ATOM     42  C   UNL A   1      40.068  27.976  27.559  1.00  0.00     0.029 A 
ATOM     43  C   UNL A   1      40.893  27.884  28.757  1.00  0.00     0.049 A 
ATOM     44  H   UNL A   1      40.542  28.766  30.611  1.00  0.00     0.167 HD
ATOM     45  C   UNL A   1      39.915  31.035  34.309  1.00  0.00     0.037 A 
ATOM     46  C   UNL A   1      42.046  27.196  28.855  1.00  0.00     0.037 A 
ATOM     47  C   UNL A   1      41.113  30.273  34.536  1.00  0.00     0.049 A 
ATOM     48  C   UNL A   1      42.802  27.215  30.156  1.00  0.00     0.074 A 
ATOM     49  C   UNL A   1      41.875  30.183  35.688  1.00  0.00     0.029 A 
ATOM     50  N   UNL A   1      41.715  29.453  33.592  1.00  0.00    -0.354 N 
ATOM     51  N   UNL A   1      42.524  27.858  31.263  1.00  0.00    -0.248 NA
ATOM     52  C   UNL A   1      44.028  26.408  30.220  1.00  0.00     0.031 C 
ATOM     53  C   UNL A   1      42.953  29.327  35.433  1.00  0.00     0.029 A 
ATOM     54  C   UNL A   1      42.840  28.856  34.135  1.00  0.00     0.049 A 
ATOM     55  H   UNL A   1      41.389  29.316  32.673  1.00  0.00     0.167 HD
ATOM     56  C   UNL A   1      43.524  27.515  32.163  1.00  0.00     0.074 A 
ATOM     57  C   UNL A   1      44.407  26.596  31.476  1.00  0.00     0.031 C 
ATOM     58  C   UNL A   1      43.696  27.929  33.442  1.00  0.00     0.037 A 
BRANCH  45  59
ATOM     59  C   UNL A   1      39.421  31.932  35.407  1.00  0.00     0.064 A 
ATOM     60  C   UNL A   1      38.548  31.466  36.402  1.00  0.00     0.173 A 
ATOM     61  C   UNL A   1      39.842  33.269  35.479  1.00  0.00     0.173 A 
ATOM     62  F   UNL A   1      38.106  30.200  36.374  1.00  0.00    -0.203 F 
ATOM     63  C   UNL A   1      38.084  32.315  37.404  1.00  0.00     0.198 A 
ATOM     64  C   UNL A   1      39.401  34.106  36.501  1.00  0.00     0.198 A 
ATOM     65  F   UNL A   1      40.682  33.765  34.558  1.00  0.00    -0.203 F 
ATOM     66  F   UNL A   1      37.202  31.862  38.307  1.00  0.00    -0.200 F 
ATOM     67  C   UNL A   1      38.515  33.631  37.456  1.00  0.00     0.200 A 
ATOM     68  F   UNL A   1      39.830  35.375  36.560  1.00  0.00    -0.200 F 
ATOM     69  F   UNL A   1      38.069  34.445  38.423  1.00  0.00    -0.200 F 
ENDBRANCH  45  59
BRANCH  46  70
ATOM     70  C   UNL A   1      42.538  26.397  27.703  1.00  0.00     0.064 A 
ATOM     71  C   UNL A   1      43.466  26.941  26.803  1.00  0.00     0.173 A 
ATOM     72  C   UNL A   1      42.100  25.085  27.475  1.00  0.00     0.173 A 
ATOM     73  F   UNL A   1      43.899  28.199  26.970  1.00  0.00    -0.203 F 
ATOM     74  C   UNL A   1      43.920  26.211  25.707  1.00  0.00     0.198 A 
ATOM     75  C   UNL A   1      42.576  24.346  26.394  1.00  0.00     0.198 A 
ATOM     76  F   UNL A   1      41.221  24.515  28.312  1.00  0.00    -0.203 F 
ATOM     77  F   UNL A   1      44.774  26.771  24.840  1.00  0.00    -0.200 F 
ATOM     78  C   UNL A   1      43.479  24.912  25.506  1.00  0.00     0.200 A 
ATOM     79  F   UNL A   1      42.160  23.085  26.210  1.00  0.00    -0.200 F 
ATOM     80  F   UNL A   1      43.921  24.207  24.455  1.00  0.00    -0.200 F 
ENDBRANCH  46  70
BRANCH  58  81
ATOM     81  C   UNL A   1      44.859  27.358  34.196  1.00  0.00     0.064 A 
ATOM     82  C   UNL A   1      46.114  27.981  34.195  1.00  0.00     0.173 A 
ATOM     83  C   UNL A   1      44.699  26.196  34.966  1.00  0.00     0.173 A 
ATOM     84  F   UNL A   1      46.318  29.085  33.459  1.00  0.00    -0.203 F 
ATOM     85  C   UNL A   1      47.175  27.451  34.923  1.00  0.00     0.198 A 
ATOM     86  C   UNL A   1      45.755  25.684  35.715  1.00  0.00     0.198 A 
ATOM     87  F   UNL A   1      43.515  25.567  35.004  1.00  0.00    -0.203 F 
ATOM     88  F   UNL A   1      48.378  28.040  34.876  1.00  0.00    -0.200 F 
ATOM     89  C   UNL A   1      46.993  26.308  35.687  1.00  0.00     0.200 A 
ATOM     90  F   UNL A   1      45.574  24.586  36.462  1.00  0.00    -0.200 F 
ATOM     91  F   UNL A   1      48.013  25.804  36.395  1.00  0.00    -0.200 F 
ENDBRANCH  58  81
ENDBRANCH  32  33
ENDBRANCH  24  27
ENDBRANCH  22  23
ENDBRANCH  21  22
ENDBRANCH   1  21
TORSDOF 14
ENDMDL
MODEL 2
REMARK VINA RESULT:     -12.0      1.907      3.103
REMARK SMILES CC(C)CN(C)c1ccc([N+](=O)[O-])cc1C(=O)NCCCNC(=O)c1ccc(-c2c3nc(c(-c4c(F)c(F)c(F)c(F)c4F)c4ccc([nH]4)c(-c4c(F)c(F)c(F)c(F)c4F)c4nc(c(-c5c(F)c(F)c(F)c(F)c5F)c5ccc2[nH]5)C=C4)C=C3)cc1
REMARK SMILES IDX 19 1 18 2 16 3 17 4 15 6 7 7 8 8 9 9 14 10 10 11 5 12 6 13
REMARK SMILES IDX 4 14 2 15 1 16 3 17 11 18 12 19 13 20 20 21 21 22 22 23
REMARK SMILES IDX 23 24 24 26 25 27 26 28 87 29 27 30 86 31 28 32 29 33 30 34
REMARK SMILES IDX 80 35 31 36 85 37 79 38 81 39 32 40 84 41 78 42 77 43 33 45
REMARK SMILES IDX 65 46 45 47 64 48 46 49 49 50 63 51 82 52 47 53 48 54 62 56
REMARK SMILES IDX 83 57 50 58 34 59 35 60 43 61 36 62 37 63 41 64 44 65 38 66
REMARK SMILES IDX 39 67 42 68 40 69 66 70 67 71 75 72 68 73 69 74 73 75 76 76
REMARK SMILES IDX 70 77 71 78 74 79 72 80 51 81 52 82 60 83 53 84 54 85 58 86
REMARK SMILES IDX 61 87 55 88 56 89 59 90 57 91
REMARK H PARENT 18 5 22 25 81 44 49 55
REMARK Flexibility Score: inf
ROOT
ATOM      1  C   UNL A   1      31.790  30.344  26.514  1.00  0.00     0.118 C 
ENDROOT
BRANCH   1   2
ATOM      2  N   UNL A   1      32.571  29.886  25.387  1.00  0.00    -0.352 N 
ATOM      3  C   UNL A   1      32.181  29.371  24.180  1.00  0.00     0.253 C 
ATOM      4  O   UNL A   1      33.078  29.177  23.353  1.00  0.00    -0.269 OA
ATOM      5  H   UNL A   1      33.546  29.955  25.509  1.00  0.00     0.163 HD
BRANCH   3   6
ATOM      6  C   UNL A   1      30.787  28.956  23.831  1.00  0.00     0.069 A 
ATOM      7  C   UNL A   1      30.226  27.654  23.856  1.00  0.00     0.050 A 
ATOM      8  C   UNL A   1      28.885  27.509  23.426  1.00  0.00     0.034 A 
ATOM      9  C   UNL A   1      28.088  28.599  23.074  1.00  0.00     0.088 A 
ATOM     10  C   UNL A   1      29.959  30.061  23.516  1.00  0.00     0.101 A 
ATOM     11  C   UNL A   1      28.621  29.878  23.163  1.00  0.00     0.270 A 
BRANCH   7  12
ATOM     12  N   UNL A   1      30.880  26.518  24.347  1.00  0.00    -0.374 N 
ATOM     13  C   UNL A   1      30.840  25.328  23.486  1.00  0.00     0.143 C 
BRANCH  12  14
ATOM     14  C   UNL A   1      30.809  26.243  25.803  1.00  0.00     0.119 C 
BRANCH  14  15
ATOM     15  C   UNL A   1      32.147  25.806  26.432  1.00  0.00     0.002 C 
ATOM     16  C   UNL A   1      32.254  24.283  26.530  1.00  0.00     0.009 C 
ATOM     17  C   UNL A   1      33.339  26.338  25.630  1.00  0.00     0.009 C 
ENDBRANCH  14  15
ENDBRANCH  12  14
ENDBRANCH   7  12
BRANCH  11  18
ATOM     18  N   UNL A   1      27.763  31.040  22.922  1.00  0.00     0.062 N 
ATOM     19  O   UNL A   1      26.964  31.355  23.814  1.00  0.00    -0.258 OA
ATOM     20  O   UNL A   1      27.900  31.644  21.850  1.00  0.00    -0.258 OA
ENDBRANCH  11  18
ENDBRANCH   3   6
ENDBRANCH   1   2
BRANCH   1  21
ATOM     21  C   UNL A   1      31.594  31.849  26.532  1.00  0.00     0.042 C 
BRANCH  21  22
ATOM     22  C   UNL A   1      32.676  32.550  27.354  1.00  0.00     0.118 C 
BRANCH  22  23
ATOM     23  N   UNL A   1      32.392  33.953  27.654  1.00  0.00    -0.352 N 
ATOM     24  C   UNL A   1      32.963  34.856  28.525  1.00  0.00     0.251 C 
ATOM     25  H   UNL A   1      31.647  34.326  27.131  1.00  0.00     0.163 HD
ATOM     26  O   UNL A   1      32.472  35.970  28.654  1.00  0.00    -0.269 OA
BRANCH  24  27
ATOM     27  C   UNL A   1      34.117  34.462  29.365  1.00  0.00     0.039 A 
ATOM     28  C   UNL A   1      33.886  33.940  30.642  1.00  0.00     0.014 A 
ATOM     29  C   UNL A   1      35.418  34.547  28.886  1.00  0.00     0.014 A 
ATOM     30  C   UNL A   1      34.940  33.361  31.355  1.00  0.00     0.010 A 
ATOM     31  C   UNL A   1      36.428  33.838  29.519  1.00  0.00     0.010 A 
ATOM     32  C   UNL A   1      36.201  33.218  30.756  1.00  0.00    -0.014 A 
BRANCH  32  33
ATOM     33  C   UNL A   1      37.289  32.405  31.366  1.00  0.00     0.031 A 
ATOM     34  C   UNL A   1      37.800  32.739  32.744  1.00  0.00     0.074 A 
ATOM     35  C   UNL A   1      37.914  31.461  30.633  1.00  0.00     0.049 A 
ATOM     36  N   UNL A   1      38.867  32.301  33.363  1.00  0.00    -0.248 NA
ATOM     37  C   UNL A   1      37.041  33.746  33.504  1.00  0.00     0.031 C 
ATOM     38  C   UNL A   1      37.578  31.089  29.256  1.00  0.00     0.029 A 
ATOM     39  N   UNL A   1      38.981  30.651  30.937  1.00  0.00    -0.354 N 
ATOM     40  C   UNL A   1      38.935  33.019  34.550  1.00  0.00     0.074 A 
ATOM     41  C   UNL A   1      37.835  33.959  34.540  1.00  0.00     0.031 C 
ATOM     42  C   UNL A   1      38.391  30.102  28.851  1.00  0.00     0.029 A 
ATOM     43  C   UNL A   1      39.344  29.807  29.914  1.00  0.00     0.049 A 
ATOM     44  H   UNL A   1      39.443  30.675  31.806  1.00  0.00     0.167 HD
ATOM     45  C   UNL A   1      39.816  32.888  35.570  1.00  0.00     0.037 A 
ATOM     46  C   UNL A   1      40.338  28.902  29.838  1.00  0.00     0.037 A 
ATOM     47  C   UNL A   1      40.858  31.898  35.614  1.00  0.00     0.049 A 
ATOM     48  C   UNL A   1      41.259  28.726  31.013  1.00  0.00     0.074 A 
ATOM     49  C   UNL A   1      41.743  31.619  36.641  1.00  0.00     0.029 A 
ATOM     50  N   UNL A   1      41.143  31.010  34.587  1.00  0.00    -0.354 N 
ATOM     51  N   UNL A   1      41.277  29.371  32.153  1.00  0.00    -0.248 NA
ATOM     52  C   UNL A   1      42.296  27.692  30.892  1.00  0.00     0.031 C 
ATOM     53  C   UNL A   1      42.580  30.578  36.225  1.00  0.00     0.029 A 
ATOM     54  C   UNL A   1      42.191  30.184  34.955  1.00  0.00     0.049 A 
ATOM     55  H   UNL A   1      40.669  30.972  33.725  1.00  0.00     0.167 HD
ATOM     56  C   UNL A   1      42.305  28.806  32.895  1.00  0.00     0.074 A 
ATOM     57  C   UNL A   1      42.880  27.756  32.080  1.00  0.00     0.031 C 
ATOM     58  C   UNL A   1      42.737  29.132  34.137  1.00  0.00     0.037 A 
BRANCH  45  59
ATOM     59  C   UNL A   1      39.673  33.825  36.735  1.00  0.00     0.064 A 
ATOM     60  C   UNL A   1      40.313  35.074  36.759  1.00  0.00     0.173 A 
ATOM     61  C   UNL A   1      38.871  33.480  37.834  1.00  0.00     0.173 A 
ATOM     62  F   UNL A   1      41.101  35.448  35.739  1.00  0.00    -0.203 F 
ATOM     63  C   UNL A   1      40.187  35.924  37.854  1.00  0.00     0.198 A 
ATOM     64  C   UNL A   1      38.721  34.347  38.913  1.00  0.00     0.198 A 
ATOM     65  F   UNL A   1      38.230  32.302  37.861  1.00  0.00    -0.203 F 
ATOM     66  F   UNL A   1      40.858  37.085  37.879  1.00  0.00    -0.200 F 
ATOM     67  C   UNL A   1      39.388  35.563  38.927  1.00  0.00     0.200 A 
ATOM     68  F   UNL A   1      37.936  34.004  39.944  1.00  0.00    -0.200 F 
ATOM     69  F   UNL A   1      39.266  36.385  39.979  1.00  0.00    -0.200 F 
ENDBRANCH  45  59
BRANCH  46  70
ATOM     70  C   UNL A   1      40.490  28.065  28.620  1.00  0.00     0.064 A 
ATOM     71  C   UNL A   1      39.859  26.816  28.531  1.00  0.00     0.173 A 
ATOM     72  C   UNL A   1      41.258  28.487  27.526  1.00  0.00     0.173 A 
ATOM     73  F   UNL A   1      39.128  26.362  29.560  1.00  0.00    -0.203 F 
ATOM     74  C   UNL A   1      40.009  26.011  27.403  1.00  0.00     0.198 A 
ATOM     75  C   UNL A   1      41.385  27.693  26.388  1.00  0.00     0.198 A 
ATOM     76  F   UNL A   1      41.874  29.678  27.557  1.00  0.00    -0.203 F 
ATOM     77  F   UNL A   1      39.429  24.804  27.363  1.00  0.00    -0.200 F 
ATOM     78  C   UNL A   1      40.768  26.453  26.330  1.00  0.00     0.200 A 
ATOM     79  F   UNL A   1      42.107  28.129  25.345  1.00  0.00    -0.200 F 
ATOM     80  F   UNL A   1      40.907  25.682  25.243  1.00  0.00    -0.200 F 
ENDBRANCH  46  70
BRANCH  58  81
ATOM     81  C   UNL A   1      43.857  28.317  34.709  1.00  0.00     0.064 A 
ATOM     82  C   UNL A   1      45.196  28.705  34.566  1.00  0.00     0.173 A 
ATOM     83  C   UNL A   1      43.581  27.156  35.448  1.00  0.00     0.173 A 
ATOM     84  F   UNL A   1      45.510  29.798  33.854  1.00  0.00    -0.203 F 
ATOM     85  C   UNL A   1      46.222  27.949  35.127  1.00  0.00     0.198 A 
ATOM     86  C   UNL A   1      44.608  26.418  36.031  1.00  0.00     0.198 A 
ATOM     87  F   UNL A   1      42.315  26.748  35.617  1.00  0.00    -0.203 F 
ATOM     88  F   UNL A   1      47.499  28.316  34.944  1.00  0.00    -0.200 F 
ATOM     89  C   UNL A   1      45.927  26.812  35.864  1.00  0.00     0.200 A 
ATOM     90  F   UNL A   1      44.320  25.327  36.752  1.00  0.00    -0.200 F 
ATOM     91  F   UNL A   1      46.915  26.091  36.410  1.00  0.00    -0.200 F 
ENDBRANCH  58  81
ENDBRANCH  32  33
ENDBRANCH  24  27
ENDBRANCH  22  23
ENDBRANCH  21  22
ENDBRANCH   1  21
TORSDOF 14
ENDMDL
MODEL 3
REMARK VINA RESULT:     -11.9      5.415      8.941
REMARK SMILES CC(C)CN(C)c1ccc([N+](=O)[O-])cc1C(=O)NCCCNC(=O)c1ccc(-c2c3nc(c(-c4c(F)c(F)c(F)c(F)c4F)c4ccc([nH]4)c(-c4c(F)c(F)c(F)c(F)c4F)c4nc(c(-c5c(F)c(F)c(F)c(F)c5F)c5ccc2[nH]5)C=C4)C=C3)cc1
REMARK SMILES IDX 19 1 18 2 16 3 17 4 15 6 7 7 8 8 9 9 14 10 10 11 5 12 6 13
REMARK SMILES IDX 4 14 2 15 1 16 3 17 11 18 12 19 13 20 20 21 21 22 22 23
REMARK SMILES IDX 23 24 24 26 25 27 26 28 87 29 27 30 86 31 28 32 29 33 30 34
REMARK SMILES IDX 80 35 31 36 85 37 79 38 81 39 32 40 84 41 78 42 77 43 33 45
REMARK SMILES IDX 65 46 45 47 64 48 46 49 49 50 63 51 82 52 47 53 48 54 62 56
REMARK SMILES IDX 83 57 50 58 34 59 35 60 43 61 36 62 37 63 41 64 44 65 38 66
REMARK SMILES IDX 39 67 42 68 40 69 66 70 67 71 75 72 68 73 69 74 73 75 76 76
REMARK SMILES IDX 70 77 71 78 74 79 72 80 51 81 52 82 60 83 53 84 54 85 58 86
REMARK SMILES IDX 61 87 55 88 56 89 59 90 57 91
REMARK H PARENT 18 5 22 25 81 44 49 55
REMARK Flexibility Score: inf
ROOT
ATOM      1  C   UNL A   1      36.810  22.058  25.079  1.00  0.00     0.118 C 
ENDROOT
BRANCH   1   2
ATOM      2  N   UNL A   1      35.907  22.038  26.208  1.00  0.00    -0.352 N 
ATOM      3  C   UNL A   1      34.678  21.453  26.359  1.00  0.00     0.253 C 
ATOM      4  O   UNL A   1      34.186  21.500  27.491  1.00  0.00    -0.269 OA
ATOM      5  H   UNL A   1      36.229  22.528  27.000  1.00  0.00     0.163 HD
BRANCH   3   6
ATOM      6  C   UNL A   1      33.871  20.850  25.255  1.00  0.00     0.069 A 
ATOM      7  C   UNL A   1      32.949  21.492  24.388  1.00  0.00     0.050 A 
ATOM      8  C   UNL A   1      32.263  20.687  23.447  1.00  0.00     0.034 A 
ATOM      9  C   UNL A   1      32.528  19.326  23.289  1.00  0.00     0.088 A 
ATOM     10  C   UNL A   1      34.167  19.478  25.058  1.00  0.00     0.101 A 
ATOM     11  C   UNL A   1      33.515  18.738  24.071  1.00  0.00     0.270 A 
BRANCH   7  12
ATOM     12  N   UNL A   1      32.730  22.873  24.348  1.00  0.00    -0.374 N 
ATOM     13  C   UNL A   1      31.324  23.303  24.340  1.00  0.00     0.143 C 
BRANCH  12  14
ATOM     14  C   UNL A   1      33.645  23.705  23.529  1.00  0.00     0.119 C 
BRANCH  14  15
ATOM     15  C   UNL A   1      34.195  24.947  24.259  1.00  0.00     0.002 C 
ATOM     16  C   UNL A   1      33.653  26.244  23.652  1.00  0.00     0.009 C 
ATOM     17  C   UNL A   1      33.851  24.915  25.751  1.00  0.00     0.009 C 
ENDBRANCH  14  15
ENDBRANCH  12  14
ENDBRANCH   7  12
BRANCH  11  18
ATOM     18  N   UNL A   1      33.895  17.345  23.831  1.00  0.00     0.062 N 
ATOM     19  O   UNL A   1      33.560  16.838  22.751  1.00  0.00    -0.258 OA
ATOM     20  O   UNL A   1      34.542  16.764  24.712  1.00  0.00    -0.258 OA
ENDBRANCH  11  18
ENDBRANCH   3   6
ENDBRANCH   1   2
BRANCH   1  21
ATOM     21  C   UNL A   1      37.683  20.818  24.992  1.00  0.00     0.042 C 
BRANCH  21  22
ATOM     22  C   UNL A   1      38.986  20.991  25.774  1.00  0.00     0.118 C 
BRANCH  22  23
ATOM     23  N   UNL A   1      39.808  19.783  25.850  1.00  0.00    -0.352 N 
ATOM     24  C   UNL A   1      41.144  19.578  26.116  1.00  0.00     0.251 C 
ATOM     25  H   UNL A   1      39.307  18.953  25.678  1.00  0.00     0.163 HD
ATOM     26  O   UNL A   1      41.615  18.451  26.030  1.00  0.00    -0.269 OA
BRANCH  24  27
ATOM     27  C   UNL A   1      42.033  20.721  26.426  1.00  0.00     0.039 A 
ATOM     28  C   UNL A   1      42.586  21.461  25.376  1.00  0.00     0.014 A 
ATOM     29  C   UNL A   1      42.277  21.108  27.738  1.00  0.00     0.014 A 
ATOM     30  C   UNL A   1      43.240  22.666  25.646  1.00  0.00     0.010 A 
ATOM     31  C   UNL A   1      42.784  22.372  27.996  1.00  0.00     0.010 A 
ATOM     32  C   UNL A   1      43.257  23.181  26.952  1.00  0.00    -0.014 A 
BRANCH  32  33
ATOM     33  C   UNL A   1      43.725  24.560  27.263  1.00  0.00     0.031 A 
ATOM     34  C   UNL A   1      42.754  25.585  27.790  1.00  0.00     0.074 A 
ATOM     35  C   UNL A   1      44.981  24.931  26.944  1.00  0.00     0.049 A 
ATOM     36  N   UNL A   1      42.903  26.879  27.922  1.00  0.00    -0.248 NA
ATOM     37  C   UNL A   1      41.416  25.098  28.162  1.00  0.00     0.031 C 
ATOM     38  C   UNL A   1      46.003  24.064  26.352  1.00  0.00     0.029 A 
ATOM     39  N   UNL A   1      45.611  26.147  27.052  1.00  0.00    -0.354 N 
ATOM     40  C   UNL A   1      41.666  27.360  28.333  1.00  0.00     0.074 A 
ATOM     41  C   UNL A   1      40.764  26.230  28.375  1.00  0.00     0.031 C 
ATOM     42  C   UNL A   1      47.137  24.761  26.188  1.00  0.00     0.029 A 
ATOM     43  C   UNL A   1      46.911  26.139  26.609  1.00  0.00     0.049 A 
ATOM     44  H   UNL A   1      45.170  26.950  27.414  1.00  0.00     0.167 HD
ATOM     45  C   UNL A   1      41.320  28.624  28.673  1.00  0.00     0.037 A 
ATOM     46  C   UNL A   1      47.819  27.131  26.540  1.00  0.00     0.037 A 
ATOM     47  C   UNL A   1      42.238  29.730  28.709  1.00  0.00     0.049 A 
ATOM     48  C   UNL A   1      47.431  28.512  26.992  1.00  0.00     0.074 A 
ATOM     49  C   UNL A   1      42.012  31.029  29.130  1.00  0.00     0.029 A 
ATOM     50  N   UNL A   1      43.569  29.661  28.324  1.00  0.00    -0.354 N 
ATOM     51  N   UNL A   1      46.274  28.941  27.434  1.00  0.00    -0.248 NA
ATOM     52  C   UNL A   1      48.475  29.544  26.939  1.00  0.00     0.031 C 
ATOM     53  C   UNL A   1      43.200  31.752  28.976  1.00  0.00     0.029 A 
ATOM     54  C   UNL A   1      44.175  30.894  28.495  1.00  0.00     0.049 A 
ATOM     55  H   UNL A   1      44.017  28.854  27.981  1.00  0.00     0.167 HD
ATOM     56  C   UNL A   1      46.457  30.283  27.736  1.00  0.00     0.074 A 
ATOM     57  C   UNL A   1      47.840  30.594  27.440  1.00  0.00     0.031 C 
ATOM     58  C   UNL A   1      45.558  31.179  28.212  1.00  0.00     0.037 A 
BRANCH  45  59
ATOM     59  C   UNL A   1      39.889  28.873  29.058  1.00  0.00     0.064 A 
ATOM     60  C   UNL A   1      38.930  29.267  28.113  1.00  0.00     0.173 A 
ATOM     61  C   UNL A   1      39.467  28.695  30.384  1.00  0.00     0.173 A 
ATOM     62  F   UNL A   1      39.284  29.463  26.833  1.00  0.00    -0.203 F 
ATOM     63  C   UNL A   1      37.612  29.512  28.487  1.00  0.00     0.198 A 
ATOM     64  C   UNL A   1      38.140  28.909  30.749  1.00  0.00     0.198 A 
ATOM     65  F   UNL A   1      40.340  28.312  31.328  1.00  0.00    -0.203 F 
ATOM     66  F   UNL A   1      36.729  29.948  27.577  1.00  0.00    -0.200 F 
ATOM     67  C   UNL A   1      37.217  29.328  29.803  1.00  0.00     0.200 A 
ATOM     68  F   UNL A   1      37.755  28.717  32.019  1.00  0.00    -0.200 F 
ATOM     69  F   UNL A   1      35.946  29.561  30.161  1.00  0.00    -0.200 F 
ENDBRANCH  45  59
BRANCH  46  70
ATOM     70  C   UNL A   1      49.197  26.847  26.062  1.00  0.00     0.064 A 
ATOM     71  C   UNL A   1      49.537  27.036  24.715  1.00  0.00     0.173 A 
ATOM     72  C   UNL A   1      50.199  26.390  26.930  1.00  0.00     0.173 A 
ATOM     73  F   UNL A   1      48.607  27.456  23.844  1.00  0.00    -0.203 F 
ATOM     74  C   UNL A   1      50.820  26.757  24.249  1.00  0.00     0.198 A 
ATOM     75  C   UNL A   1      51.489  26.136  26.468  1.00  0.00     0.198 A 
ATOM     76  F   UNL A   1      49.929  26.202  28.230  1.00  0.00    -0.203 F 
ATOM     77  F   UNL A   1      51.105  26.905  22.948  1.00  0.00    -0.200 F 
ATOM     78  C   UNL A   1      51.796  26.311  25.126  1.00  0.00     0.200 A 
ATOM     79  F   UNL A   1      52.435  25.720  27.321  1.00  0.00    -0.200 F 
ATOM     80  F   UNL A   1      53.032  26.048  24.679  1.00  0.00    -0.200 F 
ENDBRANCH  46  70
BRANCH  58  81
ATOM     81  C   UNL A   1      46.052  32.568  28.483  1.00  0.00     0.064 A 
ATOM     82  C   UNL A   1      46.606  32.923  29.720  1.00  0.00     0.173 A 
ATOM     83  C   UNL A   1      46.010  33.542  27.474  1.00  0.00     0.173 A 
ATOM     84  F   UNL A   1      46.652  32.029  30.721  1.00  0.00    -0.203 F 
ATOM     85  C   UNL A   1      47.084  34.210  29.945  1.00  0.00     0.198 A 
ATOM     86  C   UNL A   1      46.514  34.821  27.694  1.00  0.00     0.198 A 
ATOM     87  F   UNL A   1      45.494  33.249  26.272  1.00  0.00    -0.203 F 
ATOM     88  F   UNL A   1      47.574  34.540  31.149  1.00  0.00    -0.200 F 
ATOM     89  C   UNL A   1      47.044  35.155  28.931  1.00  0.00     0.200 A 
ATOM     90  F   UNL A   1      46.486  35.729  26.709  1.00  0.00    -0.200 F 
ATOM     91  F   UNL A   1      47.513  36.392  29.147  1.00  0.00    -0.200 F 
ENDBRANCH  58  81
ENDBRANCH  32  33
ENDBRANCH  24  27
ENDBRANCH  22  23
ENDBRANCH  21  22
ENDBRANCH   1  21
TORSDOF 14
ENDMDL
