MODEL 1
REMARK VINA RESULT:     -12.2      0.000      0.000
REMARK SMILES CC(C)(C)C(=O)C[N@H+]1CCCC[C@H]1C(=O)NCCCNC(=O)c1ccc(-c2c3nc(c(-c4c(F)c(F)c(F)c(F)c4F)c4ccc([nH]4)c(-c4c(F)c(F)c(F)c(F)c4F)c4nc(c(-c5c(F)c(F)c(F)c(F)c5F)c5ccc2[nH]5)C=C4)C=C3)cc1
REMARK SMILES IDX 17 1 16 2 14 3 15 4 13 6 8 7 9 8 10 10 12 11 11 12 7 13 5 14
REMARK SMILES IDX 6 15 2 16 1 17 3 18 4 19 18 20 19 21 20 22 21 23 22 25 23 26
REMARK SMILES IDX 24 27 85 28 25 29 84 30 26 31 27 32 28 33 78 34 29 35 83 36
REMARK SMILES IDX 77 37 79 38 30 39 82 40 76 41 75 42 31 44 63 45 43 46 62 47
REMARK SMILES IDX 44 48 47 49 61 50 80 51 45 52 46 53 60 55 81 56 48 57 32 58
REMARK SMILES IDX 33 59 41 60 34 61 35 62 39 63 42 64 36 65 37 66 40 67 38 68
REMARK SMILES IDX 64 69 65 70 73 71 66 72 67 73 71 74 74 75 68 76 69 77 72 78
REMARK SMILES IDX 70 79 49 80 50 81 58 82 51 83 52 84 56 85 59 86 53 87 54 88
REMARK SMILES IDX 57 89 55 90
REMARK H PARENT 16 5 8 9 20 24 79 43 47 54
REMARK Flexibility Score: inf
ROOT
ATOM      1  C   UNL A   1      31.884  30.548  26.193  1.00  0.00     0.118 C 
ENDROOT
BRANCH   1   2
ATOM      2  N   UNL A   1      31.296  30.362  24.897  1.00  0.00    -0.351 N 
ATOM      3  C   UNL A   1      31.129  29.198  24.203  1.00  0.00     0.278 C 
ATOM      4  O   UNL A   1      30.475  29.309  23.160  1.00  0.00    -0.268 OA
ATOM      5  H   UNL A   1      30.973  31.179  24.451  1.00  0.00     0.163 HD
BRANCH   3   6
ATOM      6  C   UNL A   1      31.791  27.844  24.637  1.00  0.00     0.274 C 
ATOM      7  N   UNL A   1      31.496  26.652  23.801  1.00  0.00    -0.319 N 
ATOM      8  C   UNL A   1      31.805  26.876  22.398  1.00  0.00     0.263 C 
ATOM      9  H   UNL A   1      32.173  25.946  24.088  1.00  0.00     0.349 HD
ATOM     10  C   UNL A   1      33.318  27.029  22.250  1.00  0.00     0.062 C 
ATOM     11  C   UNL A   1      33.333  27.997  24.599  1.00  0.00     0.076 C 
ATOM     12  C   UNL A   1      33.890  28.101  23.172  1.00  0.00     0.012 C 
BRANCH   7  13
ATOM     13  C   UNL A   1      30.330  25.847  24.146  1.00  0.00     0.340 C 
BRANCH  13  14
ATOM     14  C   UNL A   1      30.398  25.181  25.516  1.00  0.00     0.192 C 
ATOM     15  O   UNL A   1      29.748  25.654  26.457  1.00  0.00    -0.293 OA
BRANCH  14  16
ATOM     16  C   UNL A   1      31.262  23.919  25.727  1.00  0.00     0.026 C 
ATOM     17  C   UNL A   1      31.373  23.164  24.387  1.00  0.00     0.019 C 
ATOM     18  C   UNL A   1      30.510  23.036  26.732  1.00  0.00     0.019 C 
ATOM     19  C   UNL A   1      32.703  24.190  26.191  1.00  0.00     0.019 C 
ENDBRANCH  14  16
ENDBRANCH  13  14
ENDBRANCH   7  13
ENDBRANCH   3   6
ENDBRANCH   1   2
BRANCH   1  20
ATOM     20  C   UNL A   1      31.545  31.838  26.905  1.00  0.00     0.042 C 
BRANCH  20  21
ATOM     21  C   UNL A   1      32.748  32.699  27.242  1.00  0.00     0.118 C 
BRANCH  21  22
ATOM     22  N   UNL A   1      32.415  34.072  27.615  1.00  0.00    -0.352 N 
ATOM     23  C   UNL A   1      32.970  34.948  28.519  1.00  0.00     0.251 C 
ATOM     24  H   UNL A   1      31.644  34.440  27.125  1.00  0.00     0.163 HD
ATOM     25  O   UNL A   1      32.423  36.033  28.712  1.00  0.00    -0.269 OA
BRANCH  23  26
ATOM     26  C   UNL A   1      34.172  34.590  29.309  1.00  0.00     0.039 A 
ATOM     27  C   UNL A   1      34.013  34.118  30.617  1.00  0.00     0.014 A 
ATOM     28  C   UNL A   1      35.453  34.698  28.780  1.00  0.00     0.014 A 
ATOM     29  C   UNL A   1      35.118  33.635  31.326  1.00  0.00     0.010 A 
ATOM     30  C   UNL A   1      36.524  34.089  29.422  1.00  0.00     0.010 A 
ATOM     31  C   UNL A   1      36.373  33.544  30.703  1.00  0.00    -0.014 A 
BRANCH  31  32
ATOM     32  C   UNL A   1      37.536  32.880  31.353  1.00  0.00     0.031 A 
ATOM     33  C   UNL A   1      38.208  31.706  30.687  1.00  0.00     0.074 A 
ATOM     34  C   UNL A   1      37.910  33.252  32.594  1.00  0.00     0.049 A 
ATOM     35  N   UNL A   1      39.129  30.903  31.157  1.00  0.00    -0.248 NA
ATOM     36  C   UNL A   1      37.751  31.359  29.331  1.00  0.00     0.031 C 
ATOM     37  C   UNL A   1      37.290  34.315  33.387  1.00  0.00     0.029 A 
ATOM     38  N   UNL A   1      38.892  32.758  33.421  1.00  0.00    -0.354 N 
ATOM     39  C   UNL A   1      39.324  29.938  30.176  1.00  0.00     0.074 A 
ATOM     40  C   UNL A   1      38.394  30.223  29.108  1.00  0.00     0.031 C 
ATOM     41  C   UNL A   1      37.916  34.410  34.571  1.00  0.00     0.029 A 
ATOM     42  C   UNL A   1      38.951  33.385  34.644  1.00  0.00     0.049 A 
ATOM     43  H   UNL A   1      39.495  32.025  33.162  1.00  0.00     0.167 HD
ATOM     44  C   UNL A   1      40.217  28.920  30.158  1.00  0.00     0.037 A 
ATOM     45  C   UNL A   1      39.741  33.151  35.709  1.00  0.00     0.037 A 
ATOM     46  C   UNL A   1      41.194  28.685  31.187  1.00  0.00     0.049 A 
ATOM     47  C   UNL A   1      40.763  32.049  35.637  1.00  0.00     0.074 A 
ATOM     48  C   UNL A   1      42.226  27.762  31.199  1.00  0.00     0.029 A 
ATOM     49  N   UNL A   1      41.263  29.382  32.383  1.00  0.00    -0.354 N 
ATOM     50  N   UNL A   1      41.003  31.207  34.662  1.00  0.00    -0.248 NA
ATOM     51  C   UNL A   1      41.626  31.866  36.812  1.00  0.00     0.031 C 
ATOM     52  C   UNL A   1      42.892  27.870  32.424  1.00  0.00     0.029 A 
ATOM     53  C   UNL A   1      42.303  28.889  33.154  1.00  0.00     0.049 A 
ATOM     54  H   UNL A   1      40.662  30.116  32.645  1.00  0.00     0.167 HD
ATOM     55  C   UNL A   1      42.054  30.410  35.095  1.00  0.00     0.074 A 
ATOM     56  C   UNL A   1      42.421  30.883  36.413  1.00  0.00     0.031 C 
ATOM     57  C   UNL A   1      42.656  29.376  34.462  1.00  0.00     0.037 A 
BRANCH  44  58
ATOM     58  C   UNL A   1      40.202  27.991  28.979  1.00  0.00     0.064 A 
ATOM     59  C   UNL A   1      40.921  28.273  27.808  1.00  0.00     0.173 A 
ATOM     60  C   UNL A   1      39.509  26.773  29.047  1.00  0.00     0.173 A 
ATOM     61  F   UNL A   1      41.592  29.429  27.689  1.00  0.00    -0.203 F 
ATOM     62  C   UNL A   1      40.930  27.379  26.740  1.00  0.00     0.198 A 
ATOM     63  C   UNL A   1      39.543  25.869  27.988  1.00  0.00     0.198 A 
ATOM     64  F   UNL A   1      38.809  26.453  30.146  1.00  0.00    -0.203 F 
ATOM     65  F   UNL A   1      41.590  27.689  25.615  1.00  0.00    -0.200 F 
ATOM     66  C   UNL A   1      40.249  26.176  26.834  1.00  0.00     0.200 A 
ATOM     67  F   UNL A   1      38.895  24.700  28.086  1.00  0.00    -0.200 F 
ATOM     68  F   UNL A   1      40.270  25.310  25.811  1.00  0.00    -0.200 F 
ENDBRANCH  44  58
BRANCH  45  69
ATOM     69  C   UNL A   1      39.606  33.980  36.937  1.00  0.00     0.064 A 
ATOM     70  C   UNL A   1      38.825  33.547  38.016  1.00  0.00     0.173 A 
ATOM     71  C   UNL A   1      40.238  35.228  37.049  1.00  0.00     0.173 A 
ATOM     72  F   UNL A   1      38.185  32.370  37.950  1.00  0.00    -0.203 F 
ATOM     73  C   UNL A   1      38.655  34.342  39.149  1.00  0.00     0.198 A 
ATOM     74  C   UNL A   1      40.092  36.008  38.193  1.00  0.00     0.198 A 
ATOM     75  F   UNL A   1      41.002  35.686  36.046  1.00  0.00    -0.203 F 
ATOM     76  F   UNL A   1      37.858  33.927  40.143  1.00  0.00    -0.200 F 
ATOM     77  C   UNL A   1      39.292  35.570  39.238  1.00  0.00     0.200 A 
ATOM     78  F   UNL A   1      40.720  37.188  38.281  1.00  0.00    -0.200 F 
ATOM     79  F   UNL A   1      39.128  36.335  40.326  1.00  0.00    -0.200 F 
ENDBRANCH  45  69
BRANCH  57  80
ATOM     80  C   UNL A   1      43.787  28.697  35.176  1.00  0.00     0.064 A 
ATOM     81  C   UNL A   1      43.565  27.602  36.022  1.00  0.00     0.173 A 
ATOM     82  C   UNL A   1      45.110  29.117  34.974  1.00  0.00     0.173 A 
ATOM     83  F   UNL A   1      42.315  27.174  36.258  1.00  0.00    -0.203 F 
ATOM     84  C   UNL A   1      44.626  26.963  36.658  1.00  0.00     0.198 A 
ATOM     85  C   UNL A   1      46.171  28.458  35.589  1.00  0.00     0.198 A 
ATOM     86  F   UNL A   1      45.375  30.156  34.168  1.00  0.00    -0.203 F 
ATOM     87  F   UNL A   1      44.388  25.946  37.497  1.00  0.00    -0.200 F 
ATOM     88  C   UNL A   1      45.927  27.387  36.435  1.00  0.00     0.200 A 
ATOM     89  F   UNL A   1      47.429  28.860  35.361  1.00  0.00    -0.200 F 
ATOM     90  F   UNL A   1      46.949  26.765  37.041  1.00  0.00    -0.200 F 
ENDBRANCH  57  80
ENDBRANCH  31  32
ENDBRANCH  23  26
ENDBRANCH  21  22
ENDBRANCH  20  21
ENDBRANCH   1  20
TORSDOF 13
ENDMDL
MODEL 2
REMARK VINA RESULT:     -12.2      6.350     11.608
REMARK SMILES CC(C)(C)C(=O)C[N@H+]1CCCC[C@H]1C(=O)NCCCNC(=O)c1ccc(-c2c3nc(c(-c4c(F)c(F)c(F)c(F)c4F)c4ccc([nH]4)c(-c4c(F)c(F)c(F)c(F)c4F)c4nc(c(-c5c(F)c(F)c(F)c(F)c5F)c5ccc2[nH]5)C=C4)C=C3)cc1
REMARK SMILES IDX 17 1 16 2 14 3 15 4 13 6 8 7 9 8 10 10 12 11 11 12 7 13 5 14
REMARK SMILES IDX 6 15 2 16 1 17 3 18 4 19 18 20 19 21 20 22 21 23 22 25 23 26
REMARK SMILES IDX 24 27 85 28 25 29 84 30 26 31 27 32 28 33 78 34 29 35 83 36
REMARK SMILES IDX 77 37 79 38 30 39 82 40 76 41 75 42 31 44 63 45 43 46 62 47
REMARK SMILES IDX 44 48 47 49 61 50 80 51 45 52 46 53 60 55 81 56 48 57 32 58
REMARK SMILES IDX 33 59 41 60 34 61 35 62 39 63 42 64 36 65 37 66 40 67 38 68
REMARK SMILES IDX 64 69 65 70 73 71 66 72 67 73 71 74 74 75 68 76 69 77 72 78
REMARK SMILES IDX 70 79 49 80 50 81 58 82 51 83 52 84 56 85 59 86 53 87 54 88
REMARK SMILES IDX 57 89 55 90
REMARK H PARENT 16 5 8 9 20 24 79 43 47 54
REMARK Flexibility Score: inf
ROOT
ATOM      1  C   UNL A   1      37.259  21.438  24.831  1.00  0.00     0.118 C 
ENDROOT
BRANCH   1   2
ATOM      2  N   UNL A   1      36.357  21.765  25.899  1.00  0.00    -0.351 N 
ATOM      3  C   UNL A   1      35.006  21.573  25.953  1.00  0.00     0.278 C 
ATOM      4  O   UNL A   1      34.491  21.831  27.046  1.00  0.00    -0.268 OA
ATOM      5  H   UNL A   1      36.764  22.182  26.692  1.00  0.00     0.163 HD
BRANCH   3   6
ATOM      6  C   UNL A   1      34.154  21.151  24.705  1.00  0.00     0.274 C 
ATOM      7  N   UNL A   1      32.758  20.714  24.960  1.00  0.00    -0.319 N 
ATOM      8  C   UNL A   1      32.001  21.704  25.708  1.00  0.00     0.263 C 
ATOM      9  H   UNL A   1      32.306  20.705  24.045  1.00  0.00     0.349 HD
ATOM     10  C   UNL A   1      31.815  22.942  24.832  1.00  0.00     0.062 C 
ATOM     11  C   UNL A   1      34.034  22.358  23.740  1.00  0.00     0.076 C 
ATOM     12  C   UNL A   1      33.136  23.477  24.288  1.00  0.00     0.012 C 
BRANCH   7  13
ATOM     13  C   UNL A   1      32.522  19.299  25.223  1.00  0.00     0.340 C 
BRANCH  13  14
ATOM     14  C   UNL A   1      32.784  18.377  24.038  1.00  0.00     0.192 C 
ATOM     15  O   UNL A   1      32.158  18.546  22.983  1.00  0.00    -0.293 OA
BRANCH  14  16
ATOM     16  C   UNL A   1      33.828  17.245  24.147  1.00  0.00     0.026 C 
ATOM     17  C   UNL A   1      34.029  16.621  22.751  1.00  0.00     0.019 C 
ATOM     18  C   UNL A   1      33.230  16.186  25.081  1.00  0.00     0.019 C 
ATOM     19  C   UNL A   1      35.220  17.690  24.626  1.00  0.00     0.019 C 
ENDBRANCH  14  16
ENDBRANCH  13  14
ENDBRANCH   7  13
ENDBRANCH   3   6
ENDBRANCH   1   2
BRANCH   1  20
ATOM     20  C   UNL A   1      38.067  20.170  25.001  1.00  0.00     0.042 C 
BRANCH  20  21
ATOM     21  C   UNL A   1      39.146  20.257  26.065  1.00  0.00     0.118 C 
BRANCH  21  22
ATOM     22  N   UNL A   1      40.154  19.203  25.980  1.00  0.00    -0.352 N 
ATOM     23  C   UNL A   1      41.525  19.219  26.099  1.00  0.00     0.251 C 
ATOM     24  H   UNL A   1      39.780  18.309  25.805  1.00  0.00     0.163 HD
ATOM     25  O   UNL A   1      42.155  18.186  25.881  1.00  0.00    -0.269 OA
BRANCH  23  26
ATOM     26  C   UNL A   1      42.261  20.465  26.419  1.00  0.00     0.039 A 
ATOM     27  C   UNL A   1      42.803  21.225  25.376  1.00  0.00     0.014 A 
ATOM     28  C   UNL A   1      42.416  20.906  27.729  1.00  0.00     0.014 A 
ATOM     29  C   UNL A   1      43.371  22.476  25.642  1.00  0.00     0.010 A 
ATOM     30  C   UNL A   1      42.846  22.203  27.979  1.00  0.00     0.010 A 
ATOM     31  C   UNL A   1      43.325  23.010  26.939  1.00  0.00    -0.014 A 
BRANCH  31  32
ATOM     32  C   UNL A   1      43.758  24.403  27.240  1.00  0.00     0.031 A 
ATOM     33  C   UNL A   1      42.757  25.416  27.735  1.00  0.00     0.074 A 
ATOM     34  C   UNL A   1      45.017  24.789  26.952  1.00  0.00     0.049 A 
ATOM     35  N   UNL A   1      42.900  26.707  27.906  1.00  0.00    -0.248 NA
ATOM     36  C   UNL A   1      41.402  24.924  28.032  1.00  0.00     0.031 C 
ATOM     37  C   UNL A   1      46.062  23.931  26.388  1.00  0.00     0.029 A 
ATOM     38  N   UNL A   1      45.630  26.014  27.071  1.00  0.00    -0.354 N 
ATOM     39  C   UNL A   1      41.649  27.179  28.284  1.00  0.00     0.074 A 
ATOM     40  C   UNL A   1      40.747  26.051  28.270  1.00  0.00     0.031 C 
ATOM     41  C   UNL A   1      47.187  24.646  26.232  1.00  0.00     0.029 A 
ATOM     42  C   UNL A   1      46.935  26.024  26.639  1.00  0.00     0.049 A 
ATOM     43  H   UNL A   1      45.176  26.810  27.432  1.00  0.00     0.167 HD
ATOM     44  C   UNL A   1      41.292  28.436  28.637  1.00  0.00     0.037 A 
ATOM     45  C   UNL A   1      47.825  27.032  26.565  1.00  0.00     0.037 A 
ATOM     46  C   UNL A   1      42.208  29.541  28.725  1.00  0.00     0.049 A 
ATOM     47  C   UNL A   1      47.414  28.408  27.018  1.00  0.00     0.074 A 
ATOM     48  C   UNL A   1      41.970  30.821  29.197  1.00  0.00     0.029 A 
ATOM     49  N   UNL A   1      43.538  29.496  28.337  1.00  0.00    -0.354 N 
ATOM     50  N   UNL A   1      46.253  28.817  27.468  1.00  0.00    -0.248 NA
ATOM     51  C   UNL A   1      48.438  29.460  26.955  1.00  0.00     0.031 C 
ATOM     52  C   UNL A   1      43.146  31.564  29.052  1.00  0.00     0.029 A 
ATOM     53  C   UNL A   1      44.126  30.734  28.533  1.00  0.00     0.049 A 
ATOM     54  H   UNL A   1      43.995  28.702  27.977  1.00  0.00     0.167 HD
ATOM     55  C   UNL A   1      46.411  30.165  27.760  1.00  0.00     0.074 A 
ATOM     56  C   UNL A   1      47.787  30.500  27.458  1.00  0.00     0.031 C 
ATOM     57  C   UNL A   1      45.498  31.047  28.230  1.00  0.00     0.037 A 
BRANCH  44  58
ATOM     58  C   UNL A   1      39.852  28.689  28.978  1.00  0.00     0.064 A 
ATOM     59  C   UNL A   1      39.361  28.520  30.282  1.00  0.00     0.173 A 
ATOM     60  C   UNL A   1      38.966  29.168  28.001  1.00  0.00     0.173 A 
ATOM     61  F   UNL A   1      40.165  28.055  31.250  1.00  0.00    -0.203 F 
ATOM     62  C   UNL A   1      38.033  28.800  30.589  1.00  0.00     0.198 A 
ATOM     63  C   UNL A   1      37.645  29.474  28.318  1.00  0.00     0.198 A 
ATOM     64  F   UNL A   1      39.385  29.352  26.740  1.00  0.00    -0.203 F 
ATOM     65  F   UNL A   1      37.576  28.590  31.832  1.00  0.00    -0.200 F 
ATOM     66  C   UNL A   1      37.179  29.285  29.610  1.00  0.00     0.200 A 
ATOM     67  F   UNL A   1      36.825  29.955  27.374  1.00  0.00    -0.200 F 
ATOM     68  F   UNL A   1      35.904  29.567  29.911  1.00  0.00    -0.200 F 
ENDBRANCH  44  58
BRANCH  45  69
ATOM     69  C   UNL A   1      49.198  26.783  26.050  1.00  0.00     0.064 A 
ATOM     70  C   UNL A   1      49.511  26.998  24.701  1.00  0.00     0.173 A 
ATOM     71  C   UNL A   1      50.217  26.306  26.887  1.00  0.00     0.173 A 
ATOM     72  F   UNL A   1      48.565  27.435  23.856  1.00  0.00    -0.203 F 
ATOM     73  C   UNL A   1      50.782  26.719  24.202  1.00  0.00     0.198 A 
ATOM     74  C   UNL A   1      51.495  26.056  26.394  1.00  0.00     0.198 A 
ATOM     75  F   UNL A   1      49.971  26.089  28.188  1.00  0.00    -0.203 F 
ATOM     76  F   UNL A   1      51.038  26.883  22.897  1.00  0.00    -0.200 F 
ATOM     77  C   UNL A   1      51.774  26.252  25.050  1.00  0.00     0.200 A 
ATOM     78  F   UNL A   1      52.455  25.618  27.219  1.00  0.00    -0.200 F 
ATOM     79  F   UNL A   1      52.996  25.982  24.570  1.00  0.00    -0.200 F 
ENDBRANCH  45  69
BRANCH  57  80
ATOM     80  C   UNL A   1      45.960  32.455  28.465  1.00  0.00     0.064 A 
ATOM     81  C   UNL A   1      45.846  33.437  27.471  1.00  0.00     0.173 A 
ATOM     82  C   UNL A   1      46.476  32.836  29.713  1.00  0.00     0.173 A 
ATOM     83  F   UNL A   1      45.373  33.117  26.257  1.00  0.00    -0.203 F 
ATOM     84  C   UNL A   1      46.254  34.746  27.711  1.00  0.00     0.198 A 
ATOM     85  C   UNL A   1      46.856  34.152  29.958  1.00  0.00     0.198 A 
ATOM     86  F   UNL A   1      46.598  31.934  30.698  1.00  0.00    -0.203 F 
ATOM     87  F   UNL A   1      46.178  35.660  26.733  1.00  0.00    -0.200 F 
ATOM     88  C   UNL A   1      46.751  35.104  28.955  1.00  0.00     0.200 A 
ATOM     89  F   UNL A   1      47.322  34.499  31.165  1.00  0.00    -0.200 F 
ATOM     90  F   UNL A   1      47.134  36.367  29.187  1.00  0.00    -0.200 F 
ENDBRANCH  57  80
ENDBRANCH  31  32
ENDBRANCH  23  26
ENDBRANCH  21  22
ENDBRANCH  20  21
ENDBRANCH   1  20
TORSDOF 13
ENDMDL
MODEL 3
REMARK VINA RESULT:     -12.1      0.184      1.701
REMARK SMILES CC(C)(C)C(=O)C[N@H+]1CCCC[C@H]1C(=O)NCCCNC(=O)c1ccc(-c2c3nc(c(-c4c(F)c(F)c(F)c(F)c4F)c4ccc([nH]4)c(-c4c(F)c(F)c(F)c(F)c4F)c4nc(c(-c5c(F)c(F)c(F)c(F)c5F)c5ccc2[nH]5)C=C4)C=C3)cc1
REMARK SMILES IDX 17 1 16 2 14 3 15 4 13 6 8 7 9 8 10 10 12 11 11 12 7 13 5 14
REMARK SMILES IDX 6 15 2 16 1 17 3 18 4 19 18 20 19 21 20 22 21 23 22 25 23 26
REMARK SMILES IDX 24 27 85 28 25 29 84 30 26 31 27 32 28 33 78 34 29 35 83 36
REMARK SMILES IDX 77 37 79 38 30 39 82 40 76 41 75 42 31 44 63 45 43 46 62 47
REMARK SMILES IDX 44 48 47 49 61 50 80 51 45 52 46 53 60 55 81 56 48 57 32 58
REMARK SMILES IDX 33 59 41 60 34 61 35 62 39 63 42 64 36 65 37 66 40 67 38 68
REMARK SMILES IDX 64 69 65 70 73 71 66 72 67 73 71 74 74 75 68 76 69 77 72 78
REMARK SMILES IDX 70 79 49 80 50 81 58 82 51 83 52 84 56 85 59 86 53 87 54 88
REMARK SMILES IDX 57 89 55 90
REMARK H PARENT 16 5 8 9 20 24 79 43 47 54
REMARK Flexibility Score: inf
ROOT
ATOM      1  C   UNL A   1      32.006  30.469  26.084  1.00  0.00     0.118 C 
ENDROOT
BRANCH   1   2
ATOM      2  N   UNL A   1      31.335  30.275  24.830  1.00  0.00    -0.351 N 
ATOM      3  C   UNL A   1      31.107  29.104  24.165  1.00  0.00     0.278 C 
ATOM      4  O   UNL A   1      30.391  29.210  23.164  1.00  0.00    -0.268 OA
ATOM      5  H   UNL A   1      30.996  31.090  24.393  1.00  0.00     0.163 HD
BRANCH   3   6
ATOM      6  C   UNL A   1      31.775  27.746  24.577  1.00  0.00     0.274 C 
ATOM      7  N   UNL A   1      31.423  26.550  23.769  1.00  0.00    -0.319 N 
ATOM      8  C   UNL A   1      31.660  26.758  22.350  1.00  0.00     0.263 C 
ATOM      9  H   UNL A   1      32.106  25.838  24.028  1.00  0.00     0.349 HD
ATOM     10  C   UNL A   1      33.165  26.891  22.121  1.00  0.00     0.062 C 
ATOM     11  C   UNL A   1      33.315  27.880  24.457  1.00  0.00     0.076 C 
ATOM     12  C   UNL A   1      33.798  27.964  23.001  1.00  0.00     0.012 C 
BRANCH   7  13
ATOM     13  C   UNL A   1      30.268  25.762  24.183  1.00  0.00     0.340 C 
BRANCH  13  14
ATOM     14  C   UNL A   1      30.384  25.138  25.569  1.00  0.00     0.192 C 
ATOM     15  O   UNL A   1      29.842  25.692  26.535  1.00  0.00    -0.293 OA
BRANCH  14  16
ATOM     16  C   UNL A   1      31.164  23.821  25.768  1.00  0.00     0.026 C 
ATOM     17  C   UNL A   1      30.351  22.901  26.701  1.00  0.00     0.019 C 
ATOM     18  C   UNL A   1      32.480  24.192  26.464  1.00  0.00     0.019 C 
ATOM     19  C   UNL A   1      31.418  23.017  24.483  1.00  0.00     0.019 C 
ENDBRANCH  14  16
ENDBRANCH  13  14
ENDBRANCH   7  13
ENDBRANCH   3   6
ENDBRANCH   1   2
BRANCH   1  20
ATOM     20  C   UNL A   1      31.631  31.712  26.859  1.00  0.00     0.042 C 
BRANCH  20  21
ATOM     21  C   UNL A   1      32.815  32.560  27.286  1.00  0.00     0.118 C 
BRANCH  21  22
ATOM     22  N   UNL A   1      32.469  33.937  27.634  1.00  0.00    -0.352 N 
ATOM     23  C   UNL A   1      33.008  34.832  28.529  1.00  0.00     0.251 C 
ATOM     24  H   UNL A   1      31.701  34.293  27.129  1.00  0.00     0.163 HD
ATOM     25  O   UNL A   1      32.453  35.916  28.698  1.00  0.00    -0.269 OA
BRANCH  23  26
ATOM     26  C   UNL A   1      34.204  34.495  29.337  1.00  0.00     0.039 A 
ATOM     27  C   UNL A   1      34.033  34.010  30.639  1.00  0.00     0.014 A 
ATOM     28  C   UNL A   1      35.492  34.634  28.831  1.00  0.00     0.014 A 
ATOM     29  C   UNL A   1      35.136  33.547  31.365  1.00  0.00     0.010 A 
ATOM     30  C   UNL A   1      36.565  34.044  29.487  1.00  0.00     0.010 A 
ATOM     31  C   UNL A   1      36.403  33.487  30.763  1.00  0.00    -0.014 A 
BRANCH  31  32
ATOM     32  C   UNL A   1      37.569  32.844  31.429  1.00  0.00     0.031 A 
ATOM     33  C   UNL A   1      38.263  31.675  30.778  1.00  0.00     0.074 A 
ATOM     34  C   UNL A   1      37.927  33.230  32.670  1.00  0.00     0.049 A 
ATOM     35  N   UNL A   1      39.191  30.887  31.262  1.00  0.00    -0.248 NA
ATOM     36  C   UNL A   1      37.824  31.311  29.420  1.00  0.00     0.031 C 
ATOM     37  C   UNL A   1      37.284  34.291  33.449  1.00  0.00     0.029 A 
ATOM     38  N   UNL A   1      38.907  32.756  33.510  1.00  0.00    -0.354 N 
ATOM     39  C   UNL A   1      39.409  29.918  30.291  1.00  0.00     0.074 A 
ATOM     40  C   UNL A   1      38.485  30.182  29.211  1.00  0.00     0.031 C 
ATOM     41  C   UNL A   1      37.898  34.403  34.638  1.00  0.00     0.029 A 
ATOM     42  C   UNL A   1      38.946  33.393  34.728  1.00  0.00     0.049 A 
ATOM     43  H   UNL A   1      39.522  32.029  33.262  1.00  0.00     0.167 HD
ATOM     44  C   UNL A   1      40.316  28.913  30.288  1.00  0.00     0.037 A 
ATOM     45  C   UNL A   1      39.729  33.178  35.803  1.00  0.00     0.037 A 
ATOM     46  C   UNL A   1      41.286  28.699  31.328  1.00  0.00     0.049 A 
ATOM     47  C   UNL A   1      40.767  32.089  35.748  1.00  0.00     0.074 A 
ATOM     48  C   UNL A   1      42.330  27.791  31.357  1.00  0.00     0.029 A 
ATOM     49  N   UNL A   1      41.334  29.405  32.520  1.00  0.00    -0.354 N 
ATOM     50  N   UNL A   1      41.027  31.243  34.782  1.00  0.00    -0.248 NA
ATOM     51  C   UNL A   1      41.621  31.927  36.933  1.00  0.00     0.031 C 
ATOM     52  C   UNL A   1      42.983  27.916  32.587  1.00  0.00     0.029 A 
ATOM     53  C   UNL A   1      42.373  28.933  33.304  1.00  0.00     0.049 A 
ATOM     54  H   UNL A   1      40.720  30.133  32.771  1.00  0.00     0.167 HD
ATOM     55  C   UNL A   1      42.085  30.465  35.231  1.00  0.00     0.074 A 
ATOM     56  C   UNL A   1      42.433  30.952  36.549  1.00  0.00     0.031 C 
ATOM     57  C   UNL A   1      42.707  29.434  34.612  1.00  0.00     0.037 A 
BRANCH  44  58
ATOM     58  C   UNL A   1      40.325  27.975  29.116  1.00  0.00     0.064 A 
ATOM     59  C   UNL A   1      39.565  26.796  29.109  1.00  0.00     0.173 A 
ATOM     60  C   UNL A   1      41.055  28.293  27.961  1.00  0.00     0.173 A 
ATOM     61  F   UNL A   1      38.858  26.441  30.192  1.00  0.00    -0.203 F 
ATOM     62  C   UNL A   1      39.552  25.959  27.996  1.00  0.00     0.198 A 
ATOM     63  C   UNL A   1      41.018  27.468  26.840  1.00  0.00     0.198 A 
ATOM     64  F   UNL A   1      41.795  29.411  27.914  1.00  0.00    -0.203 F 
ATOM     65  F   UNL A   1      38.852  24.816  28.028  1.00  0.00    -0.200 F 
ATOM     66  C   UNL A   1      40.271  26.300  26.861  1.00  0.00     0.200 A 
ATOM     67  F   UNL A   1      41.702  27.805  25.738  1.00  0.00    -0.200 F 
ATOM     68  F   UNL A   1      40.246  25.500  25.785  1.00  0.00    -0.200 F 
ENDBRANCH  44  58
BRANCH  45  69
ATOM     69  C   UNL A   1      39.571  34.014  37.023  1.00  0.00     0.064 A 
ATOM     70  C   UNL A   1      38.796  33.573  38.103  1.00  0.00     0.173 A 
ATOM     71  C   UNL A   1      40.174  35.276  37.126  1.00  0.00     0.173 A 
ATOM     72  F   UNL A   1      38.182  32.381  38.044  1.00  0.00    -0.203 F 
ATOM     73  C   UNL A   1      38.604  34.374  39.228  1.00  0.00     0.198 A 
ATOM     74  C   UNL A   1      40.007  36.063  38.263  1.00  0.00     0.198 A 
ATOM     75  F   UNL A   1      40.932  35.743  36.122  1.00  0.00    -0.203 F 
ATOM     76  F   UNL A   1      37.813  33.949  40.223  1.00  0.00    -0.200 F 
ATOM     77  C   UNL A   1      39.213  35.616  39.309  1.00  0.00     0.200 A 
ATOM     78  F   UNL A   1      40.608  37.257  38.344  1.00  0.00    -0.200 F 
ATOM     79  F   UNL A   1      39.028  36.387  40.390  1.00  0.00    -0.200 F 
ENDBRANCH  45  69
BRANCH  57  80
ATOM     80  C   UNL A   1      43.841  28.776  35.341  1.00  0.00     0.064 A 
ATOM     81  C   UNL A   1      45.169  29.177  35.143  1.00  0.00     0.173 A 
ATOM     82  C   UNL A   1      43.589  27.766  36.283  1.00  0.00     0.173 A 
ATOM     83  F   UNL A   1      45.460  30.127  34.242  1.00  0.00    -0.203 F 
ATOM     84  C   UNL A   1      46.209  28.575  35.846  1.00  0.00     0.198 A 
ATOM     85  C   UNL A   1      44.629  27.187  37.005  1.00  0.00     0.198 A 
ATOM     86  F   UNL A   1      42.334  27.352  36.513  1.00  0.00    -0.203 F 
ATOM     87  F   UNL A   1      47.476  28.943  35.610  1.00  0.00    -0.200 F 
ATOM     88  C   UNL A   1      45.937  27.587  36.781  1.00  0.00     0.200 A 
ATOM     89  F   UNL A   1      44.363  26.243  37.917  1.00  0.00    -0.200 F 
ATOM     90  F   UNL A   1      46.939  27.016  37.464  1.00  0.00    -0.200 F 
ENDBRANCH  57  80
ENDBRANCH  31  32
ENDBRANCH  23  26
ENDBRANCH  21  22
ENDBRANCH  20  21
ENDBRANCH   1  20
TORSDOF 13
ENDMDL
