MODEL 1
REMARK VINA RESULT:     -10.8      0.000      0.000
REMARK SMILES CCN(CCC(=O)NCCCNC(=O)c1ccc(-c2c3nc(c(-c4c(F)c(F)c(F)c(F)c4F)c4ccc([nH]4)c(-c4c(F)c(F)c(F)c(F)c4F)c4nc(c(-c5c(F)c(F)c(F)c(F)c5F)c5ccc2[nH]5)C=C4)C=C3)cc1)C(=O)N1C[C@H](C(=O)OC)[C@@H](C)C1
REMARK SMILES IDX 6 1 7 2 8 3 5 5 4 6 3 7 2 8 1 9 78 10 79 11 80 12 81 13
REMARK SMILES IDX 89 14 82 15 87 16 88 17 83 18 84 19 85 20 86 21 9 22 10 23
REMARK SMILES IDX 11 24 12 25 13 26 14 28 15 29 16 30 77 31 17 32 76 33 18 34
REMARK SMILES IDX 19 35 20 36 70 37 21 38 75 39 69 40 71 41 22 42 74 43 68 44
REMARK SMILES IDX 67 45 23 47 55 48 35 49 54 50 36 51 39 52 53 53 72 54 37 55
REMARK SMILES IDX 38 56 52 58 73 59 40 60 24 61 25 62 33 63 26 64 27 65 31 66
REMARK SMILES IDX 34 67 28 68 29 69 32 70 30 71 56 72 57 73 65 74 58 75 59 76
REMARK SMILES IDX 63 77 66 78 60 79 61 80 64 81 62 82 41 83 42 84 50 85 43 86
REMARK SMILES IDX 44 87 48 88 51 89 45 90 46 91 49 92 47 93
REMARK H PARENT 8 4 12 27 71 46 39 57
REMARK Flexibility Score: inf
ROOT
ATOM      1  C   UNL A   1      33.766  29.169  26.869  1.00  0.00     0.221 C 
ATOM      2  O   UNL A   1      34.896  29.170  27.366  1.00  0.00    -0.275 OA
ATOM      3  N   UNL A   1      32.847  30.048  27.361  1.00  0.00    -0.356 N 
ATOM      4  H   UNL A   1      33.043  30.395  28.261  1.00  0.00     0.163 HD
ENDROOT
BRANCH   1   5
ATOM      5  C   UNL A   1      33.417  28.176  25.788  1.00  0.00     0.121 C 
BRANCH   5   6
ATOM      6  C   UNL A   1      33.355  26.734  26.299  1.00  0.00     0.131 C 
BRANCH   6   7
ATOM      7  N   UNL A   1      32.145  25.989  25.924  1.00  0.00    -0.324 N 
BRANCH   7   8
ATOM      8  C   UNL A   1      31.091  26.890  25.380  1.00  0.00     0.118 C 
ATOM      9  C   UNL A   1      30.129  26.436  24.291  1.00  0.00     0.027 C 
ENDBRANCH   7   8
BRANCH   7  10
ATOM     10  C   UNL A   1      31.869  24.649  26.153  1.00  0.00     0.320 C 
ATOM     11  O   UNL A   1      31.395  24.285  27.235  1.00  0.00    -0.248 OA
BRANCH  10  12
ATOM     12  N   UNL A   1      32.177  23.654  25.253  1.00  0.00    -0.323 N 
ATOM     13  C   UNL A   1      31.470  22.470  24.773  1.00  0.00     0.137 C 
ATOM     14  C   UNL A   1      33.524  23.671  24.683  1.00  0.00     0.125 C 
ATOM     15  C   UNL A   1      32.504  21.598  24.063  1.00  0.00     0.123 C 
ATOM     16  C   UNL A   1      33.566  22.591  23.599  1.00  0.00     0.021 C 
ATOM     17  C   UNL A   1      33.221  23.161  22.217  1.00  0.00     0.010 C 
BRANCH  15  18
ATOM     18  C   UNL A   1      32.943  20.538  25.052  1.00  0.00     0.310 C 
ATOM     19  O   UNL A   1      33.970  20.616  25.703  1.00  0.00    -0.252 OA
BRANCH  18  20
ATOM     20  O   UNL A   1      32.152  19.435  24.977  1.00  0.00    -0.469 OA
ATOM     21  C   UNL A   1      32.463  18.563  23.891  1.00  0.00     0.282 C 
ENDBRANCH  18  20
ENDBRANCH  15  18
ENDBRANCH  10  12
ENDBRANCH   7  10
ENDBRANCH   6   7
ENDBRANCH   5   6
ENDBRANCH   1   5
BRANCH   3  22
ATOM     22  C   UNL A   1      31.621  30.552  26.760  1.00  0.00     0.117 C 
BRANCH  22  23
ATOM     23  C   UNL A   1      31.387  32.057  26.877  1.00  0.00     0.042 C 
BRANCH  23  24
ATOM     24  C   UNL A   1      32.624  32.949  26.876  1.00  0.00     0.118 C 
BRANCH  24  25
ATOM     25  N   UNL A   1      32.412  34.202  27.580  1.00  0.00    -0.352 N 
ATOM     26  C   UNL A   1      33.031  34.723  28.690  1.00  0.00     0.251 C 
ATOM     27  H   UNL A   1      31.707  34.772  27.196  1.00  0.00     0.163 HD
ATOM     28  O   UNL A   1      32.559  35.733  29.209  1.00  0.00    -0.269 OA
BRANCH  26  29
ATOM     29  C   UNL A   1      34.232  34.101  29.302  1.00  0.00     0.039 A 
ATOM     30  C   UNL A   1      34.035  33.160  30.320  1.00  0.00     0.014 A 
ATOM     31  C   UNL A   1      35.536  34.490  28.977  1.00  0.00     0.014 A 
ATOM     32  C   UNL A   1      35.128  32.576  30.971  1.00  0.00     0.010 A 
ATOM     33  C   UNL A   1      36.632  33.871  29.597  1.00  0.00     0.010 A 
ATOM     34  C   UNL A   1      36.442  32.904  30.598  1.00  0.00    -0.014 A 
BRANCH  34  35
ATOM     35  C   UNL A   1      37.603  32.214  31.232  1.00  0.00     0.031 A 
ATOM     36  C   UNL A   1      38.333  31.104  30.525  1.00  0.00     0.074 A 
ATOM     37  C   UNL A   1      37.995  32.576  32.470  1.00  0.00     0.049 A 
ATOM     38  N   UNL A   1      39.346  30.380  30.940  1.00  0.00    -0.248 NA
ATOM     39  C   UNL A   1      37.863  30.757  29.177  1.00  0.00     0.031 C 
ATOM     40  C   UNL A   1      37.370  33.624  33.276  1.00  0.00     0.029 A 
ATOM     41  N   UNL A   1      39.008  32.102  33.270  1.00  0.00    -0.354 N 
ATOM     42  C   UNL A   1      39.630  29.492  29.910  1.00  0.00     0.074 A 
ATOM     43  C   UNL A   1      38.657  29.741  28.865  1.00  0.00     0.031 C 
ATOM     44  C   UNL A   1      38.018  33.724  34.447  1.00  0.00     0.029 A 
ATOM     45  C   UNL A   1      39.077  32.718  34.497  1.00  0.00     0.049 A 
ATOM     46  H   UNL A   1      39.626  31.388  32.990  1.00  0.00     0.167 HD
ATOM     47  C   UNL A   1      40.616  28.565  29.837  1.00  0.00     0.037 A 
ATOM     48  C   UNL A   1      39.883  32.490  35.552  1.00  0.00     0.037 A 
ATOM     49  C   UNL A   1      41.589  28.319  30.872  1.00  0.00     0.049 A 
ATOM     50  C   UNL A   1      40.932  31.413  35.466  1.00  0.00     0.074 A 
ATOM     51  C   UNL A   1      42.656  27.436  30.861  1.00  0.00     0.029 A 
ATOM     52  N   UNL A   1      41.605  28.944  32.110  1.00  0.00    -0.354 N 
ATOM     53  N   UNL A   1      41.231  30.626  34.461  1.00  0.00    -0.248 NA
ATOM     54  C   UNL A   1      41.756  31.192  36.664  1.00  0.00     0.031 C 
ATOM     55  C   UNL A   1      43.280  27.482  32.111  1.00  0.00     0.029 A 
ATOM     56  C   UNL A   1      42.640  28.438  32.883  1.00  0.00     0.049 A 
ATOM     57  H   UNL A   1      40.976  29.645  32.397  1.00  0.00     0.167 HD
ATOM     58  C   UNL A   1      42.287  29.835  34.896  1.00  0.00     0.074 A 
ATOM     59  C   UNL A   1      42.592  30.249  36.249  1.00  0.00     0.031 C 
ATOM     60  C   UNL A   1      42.941  28.853  34.230  1.00  0.00     0.037 A 
BRANCH  47  61
ATOM     61  C   UNL A   1      40.697  27.726  28.591  1.00  0.00     0.064 A 
ATOM     62  C   UNL A   1      39.979  26.528  28.462  1.00  0.00     0.173 A 
ATOM     63  C   UNL A   1      41.454  28.158  27.491  1.00  0.00     0.173 A 
ATOM     64  F   UNL A   1      39.242  26.069  29.483  1.00  0.00    -0.203 F 
ATOM     65  C   UNL A   1      40.039  25.779  27.289  1.00  0.00     0.198 A 
ATOM     66  C   UNL A   1      41.487  27.423  26.309  1.00  0.00     0.198 A 
ATOM     67  F   UNL A   1      42.149  29.304  27.554  1.00  0.00    -0.203 F 
ATOM     68  F   UNL A   1      39.380  24.616  27.204  1.00  0.00    -0.200 F 
ATOM     69  C   UNL A   1      40.786  26.230  26.211  1.00  0.00     0.200 A 
ATOM     70  F   UNL A   1      42.195  27.870  25.262  1.00  0.00    -0.200 F 
ATOM     71  F   UNL A   1      40.836  25.514  25.080  1.00  0.00    -0.200 F 
ENDBRANCH  47  61
BRANCH  48  72
ATOM     72  C   UNL A   1      39.726  33.294  36.793  1.00  0.00     0.064 A 
ATOM     73  C   UNL A   1      38.787  32.937  37.772  1.00  0.00     0.173 A 
ATOM     74  C   UNL A   1      40.501  34.440  37.021  1.00  0.00     0.173 A 
ATOM     75  F   UNL A   1      38.002  31.865  37.588  1.00  0.00    -0.203 F 
ATOM     76  C   UNL A   1      38.617  33.707  38.921  1.00  0.00     0.198 A 
ATOM     77  C   UNL A   1      40.354  35.190  38.187  1.00  0.00     0.198 A 
ATOM     78  F   UNL A   1      41.412  34.827  36.117  1.00  0.00    -0.203 F 
ATOM     79  F   UNL A   1      37.678  33.372  39.816  1.00  0.00    -0.200 F 
ATOM     80  C   UNL A   1      39.406  34.827  39.131  1.00  0.00     0.200 A 
ATOM     81  F   UNL A   1      41.127  36.265  38.392  1.00  0.00    -0.200 F 
ATOM     82  F   UNL A   1      39.246  35.564  40.239  1.00  0.00    -0.200 F 
ENDBRANCH  48  72
BRANCH  60  83
ATOM     83  C   UNL A   1      44.073  28.166  34.941  1.00  0.00     0.064 A 
ATOM     84  C   UNL A   1      43.877  26.977  35.660  1.00  0.00     0.173 A 
ATOM     85  C   UNL A   1      45.380  28.673  34.858  1.00  0.00     0.173 A 
ATOM     86  F   UNL A   1      42.646  26.460  35.786  1.00  0.00    -0.203 F 
ATOM     87  C   UNL A   1      44.943  26.334  36.284  1.00  0.00     0.198 A 
ATOM     88  C   UNL A   1      46.447  28.010  35.457  1.00  0.00     0.198 A 
ATOM     89  F   UNL A   1      45.624  29.805  34.179  1.00  0.00    -0.203 F 
ATOM     90  F   UNL A   1      44.725  25.222  37.001  1.00  0.00    -0.200 F 
ATOM     91  C   UNL A   1      46.227  26.844  36.174  1.00  0.00     0.200 A 
ATOM     92  F   UNL A   1      47.689  28.498  35.337  1.00  0.00    -0.200 F 
ATOM     93  F   UNL A   1      47.254  26.215  36.764  1.00  0.00    -0.200 F 
ENDBRANCH  60  83
ENDBRANCH  34  35
ENDBRANCH  26  29
ENDBRANCH  24  25
ENDBRANCH  23  24
ENDBRANCH  22  23
ENDBRANCH   3  22
TORSDOF 17
ENDMDL
MODEL 2
REMARK VINA RESULT:     -10.6      1.678      2.332
REMARK SMILES CCN(CCC(=O)NCCCNC(=O)c1ccc(-c2c3nc(c(-c4c(F)c(F)c(F)c(F)c4F)c4ccc([nH]4)c(-c4c(F)c(F)c(F)c(F)c4F)c4nc(c(-c5c(F)c(F)c(F)c(F)c5F)c5ccc2[nH]5)C=C4)C=C3)cc1)C(=O)N1C[C@H](C(=O)OC)[C@@H](C)C1
REMARK SMILES IDX 6 1 7 2 8 3 5 5 4 6 3 7 2 8 1 9 78 10 79 11 80 12 81 13
REMARK SMILES IDX 89 14 82 15 87 16 88 17 83 18 84 19 85 20 86 21 9 22 10 23
REMARK SMILES IDX 11 24 12 25 13 26 14 28 15 29 16 30 77 31 17 32 76 33 18 34
REMARK SMILES IDX 19 35 20 36 70 37 21 38 75 39 69 40 71 41 22 42 74 43 68 44
REMARK SMILES IDX 67 45 23 47 55 48 35 49 54 50 36 51 39 52 53 53 72 54 37 55
REMARK SMILES IDX 38 56 52 58 73 59 40 60 24 61 25 62 33 63 26 64 27 65 31 66
REMARK SMILES IDX 34 67 28 68 29 69 32 70 30 71 56 72 57 73 65 74 58 75 59 76
REMARK SMILES IDX 63 77 66 78 60 79 61 80 64 81 62 82 41 83 42 84 50 85 43 86
REMARK SMILES IDX 44 87 48 88 51 89 45 90 46 91 49 92 47 93
REMARK H PARENT 8 4 12 27 71 46 39 57
REMARK Flexibility Score: inf
ROOT
ATOM      1  C   UNL A   1      30.399  29.569  23.685  1.00  0.00     0.221 C 
ATOM      2  O   UNL A   1      29.366  29.444  23.020  1.00  0.00    -0.275 OA
ATOM      3  N   UNL A   1      30.479  30.613  24.558  1.00  0.00    -0.356 N 
ATOM      4  H   UNL A   1      29.857  31.355  24.378  1.00  0.00     0.163 HD
ENDROOT
BRANCH   1   5
ATOM      5  C   UNL A   1      31.549  28.615  23.479  1.00  0.00     0.121 C 
BRANCH   5   6
ATOM      6  C   UNL A   1      31.258  27.547  22.422  1.00  0.00     0.131 C 
BRANCH   6   7
ATOM      7  N   UNL A   1      31.771  26.205  22.731  1.00  0.00    -0.324 N 
BRANCH   7   8
ATOM      8  C   UNL A   1      30.819  25.434  23.578  1.00  0.00     0.118 C 
ATOM      9  C   UNL A   1      29.431  25.963  23.914  1.00  0.00     0.027 C 
ENDBRANCH   7   8
BRANCH   7  10
ATOM     10  C   UNL A   1      33.027  25.690  22.447  1.00  0.00     0.320 C 
ATOM     11  O   UNL A   1      33.673  26.115  21.482  1.00  0.00    -0.248 OA
BRANCH  10  12
ATOM     12  N   UNL A   1      33.586  24.644  23.146  1.00  0.00    -0.323 N 
ATOM     13  C   UNL A   1      34.406  24.557  24.351  1.00  0.00     0.137 C 
ATOM     14  C   UNL A   1      33.448  23.310  22.563  1.00  0.00     0.125 C 
ATOM     15  C   UNL A   1      34.992  23.146  24.383  1.00  0.00     0.123 C 
ATOM     16  C   UNL A   1      33.987  22.313  23.592  1.00  0.00     0.021 C 
ATOM     17  C   UNL A   1      32.873  21.782  24.504  1.00  0.00     0.010 C 
BRANCH  15  18
ATOM     18  C   UNL A   1      36.396  23.237  23.825  1.00  0.00     0.310 C 
ATOM     19  O   UNL A   1      36.666  23.012  22.658  1.00  0.00    -0.252 OA
BRANCH  18  20
ATOM     20  O   UNL A   1      37.311  23.415  24.814  1.00  0.00    -0.469 OA
ATOM     21  C   UNL A   1      37.622  22.231  25.545  1.00  0.00     0.282 C 
ENDBRANCH  18  20
ENDBRANCH  15  18
ENDBRANCH  10  12
ENDBRANCH   7  10
ENDBRANCH   6   7
ENDBRANCH   5   6
ENDBRANCH   1   5
BRANCH   3  22
ATOM     22  C   UNL A   1      31.342  30.799  25.715  1.00  0.00     0.117 C 
BRANCH  22  23
ATOM     23  C   UNL A   1      31.273  32.168  26.389  1.00  0.00     0.042 C 
BRANCH  23  24
ATOM     24  C   UNL A   1      32.464  32.572  27.252  1.00  0.00     0.118 C 
BRANCH  24  25
ATOM     25  N   UNL A   1      32.411  33.962  27.667  1.00  0.00    -0.352 N 
ATOM     26  C   UNL A   1      33.171  34.658  28.576  1.00  0.00     0.251 C 
ATOM     27  H   UNL A   1      31.713  34.496  27.222  1.00  0.00     0.163 HD
ATOM     28  O   UNL A   1      32.824  35.796  28.887  1.00  0.00    -0.269 OA
BRANCH  26  29
ATOM     29  C   UNL A   1      34.381  34.080  29.214  1.00  0.00     0.039 A 
ATOM     30  C   UNL A   1      34.197  33.197  30.285  1.00  0.00     0.014 A 
ATOM     31  C   UNL A   1      35.680  34.460  28.859  1.00  0.00     0.014 A 
ATOM     32  C   UNL A   1      35.299  32.660  30.961  1.00  0.00     0.010 A 
ATOM     33  C   UNL A   1      36.784  33.885  29.506  1.00  0.00     0.010 A 
ATOM     34  C   UNL A   1      36.608  32.975  30.561  1.00  0.00    -0.014 A 
BRANCH  34  35
ATOM     35  C   UNL A   1      37.777  32.331  31.226  1.00  0.00     0.031 A 
ATOM     36  C   UNL A   1      38.544  31.222  30.555  1.00  0.00     0.074 A 
ATOM     37  C   UNL A   1      38.146  32.733  32.459  1.00  0.00     0.049 A 
ATOM     38  N   UNL A   1      39.569  30.535  31.000  1.00  0.00    -0.248 NA
ATOM     39  C   UNL A   1      38.098  30.830  29.212  1.00  0.00     0.031 C 
ATOM     40  C   UNL A   1      37.485  33.785  33.230  1.00  0.00     0.029 A 
ATOM     41  N   UNL A   1      39.160  32.306  33.282  1.00  0.00    -0.354 N 
ATOM     42  C   UNL A   1      39.887  29.628  29.997  1.00  0.00     0.074 A 
ATOM     43  C   UNL A   1      38.922  29.827  28.935  1.00  0.00     0.031 C 
ATOM     44  C   UNL A   1      38.116  33.931  34.406  1.00  0.00     0.029 A 
ATOM     45  C   UNL A   1      39.199  32.954  34.494  1.00  0.00     0.049 A 
ATOM     46  H   UNL A   1      39.799  31.600  33.028  1.00  0.00     0.167 HD
ATOM     47  C   UNL A   1      40.897  28.725  29.958  1.00  0.00     0.037 A 
ATOM     48  C   UNL A   1      39.998  32.773  35.563  1.00  0.00     0.037 A 
ATOM     49  C   UNL A   1      41.864  28.530  31.011  1.00  0.00     0.049 A 
ATOM     50  C   UNL A   1      41.075  31.720  35.516  1.00  0.00     0.074 A 
ATOM     51  C   UNL A   1      42.952  27.674  31.034  1.00  0.00     0.029 A 
ATOM     52  N   UNL A   1      41.849  29.186  32.232  1.00  0.00    -0.354 N 
ATOM     53  N   UNL A   1      41.405  30.916  34.536  1.00  0.00    -0.248 NA
ATOM     54  C   UNL A   1      41.889  31.550  36.729  1.00  0.00     0.031 C 
ATOM     55  C   UNL A   1      43.560  27.767  32.290  1.00  0.00     0.029 A 
ATOM     56  C   UNL A   1      42.887  28.726  33.030  1.00  0.00     0.049 A 
ATOM     57  H   UNL A   1      41.199  29.877  32.494  1.00  0.00     0.167 HD
ATOM     58  C   UNL A   1      42.475  30.163  35.002  1.00  0.00     0.074 A 
ATOM     59  C   UNL A   1      42.753  30.619  36.348  1.00  0.00     0.031 C 
ATOM     60  C   UNL A   1      43.162  29.182  34.369  1.00  0.00     0.037 A 
BRANCH  47  61
ATOM     61  C   UNL A   1      41.014  27.858  28.735  1.00  0.00     0.064 A 
ATOM     62  C   UNL A   1      40.216  26.717  28.562  1.00  0.00     0.173 A 
ATOM     63  C   UNL A   1      41.893  28.206  27.697  1.00  0.00     0.173 A 
ATOM     64  F   UNL A   1      39.361  26.338  29.523  1.00  0.00    -0.203 F 
ATOM     65  C   UNL A   1      40.313  25.942  27.408  1.00  0.00     0.198 A 
ATOM     66  C   UNL A   1      41.965  27.447  26.532  1.00  0.00     0.198 A 
ATOM     67  F   UNL A   1      42.669  29.295  27.804  1.00  0.00    -0.203 F 
ATOM     68  F   UNL A   1      39.572  24.833  27.284  1.00  0.00    -0.200 F 
ATOM     69  C   UNL A   1      41.181  26.311  26.392  1.00  0.00     0.200 A 
ATOM     70  F   UNL A   1      42.791  27.816  25.543  1.00  0.00    -0.200 F 
ATOM     71  F   UNL A   1      41.267  25.571  25.278  1.00  0.00    -0.200 F 
ENDBRANCH  47  61
BRANCH  48  72
ATOM     72  C   UNL A   1      39.806  33.603  36.782  1.00  0.00     0.064 A 
ATOM     73  C   UNL A   1      38.919  33.208  37.794  1.00  0.00     0.173 A 
ATOM     74  C   UNL A   1      40.494  34.812  36.955  1.00  0.00     0.173 A 
ATOM     75  F   UNL A   1      38.216  32.073  37.663  1.00  0.00    -0.203 F 
ATOM     76  C   UNL A   1      38.715  34.000  38.922  1.00  0.00     0.198 A 
ATOM     77  C   UNL A   1      40.315  35.587  38.099  1.00  0.00     0.198 A 
ATOM     78  F   UNL A   1      41.352  35.238  36.017  1.00  0.00    -0.203 F 
ATOM     79  F   UNL A   1      37.824  33.624  39.849  1.00  0.00    -0.200 F 
ATOM     80  C   UNL A   1      39.418  35.185  39.077  1.00  0.00     0.200 A 
ATOM     81  F   UNL A   1      41.006  36.725  38.251  1.00  0.00    -0.200 F 
ATOM     82  F   UNL A   1      39.226  35.943  40.164  1.00  0.00    -0.200 F 
ENDBRANCH  48  72
BRANCH  60  83
ATOM     83  C   UNL A   1      44.301  28.542  35.110  1.00  0.00     0.064 A 
ATOM     84  C   UNL A   1      45.599  29.074  35.067  1.00  0.00     0.173 A 
ATOM     85  C   UNL A   1      44.083  27.414  35.917  1.00  0.00     0.173 A 
ATOM     86  F   UNL A   1      45.866  30.140  34.298  1.00  0.00    -0.203 F 
ATOM     87  C   UNL A   1      46.637  28.490  35.788  1.00  0.00     0.198 A 
ATOM     88  C   UNL A   1      45.117  26.852  36.661  1.00  0.00     0.198 A 
ATOM     89  F   UNL A   1      42.861  26.867  35.998  1.00  0.00    -0.203 F 
ATOM     90  F   UNL A   1      47.877  28.990  35.698  1.00  0.00    -0.200 F 
ATOM     91  C   UNL A   1      46.394  27.386  36.592  1.00  0.00     0.200 A 
ATOM     92  F   UNL A   1      44.876  25.794  37.448  1.00  0.00    -0.200 F 
ATOM     93  F   UNL A   1      47.392  26.834  37.297  1.00  0.00    -0.200 F 
ENDBRANCH  60  83
ENDBRANCH  34  35
ENDBRANCH  26  29
ENDBRANCH  24  25
ENDBRANCH  23  24
ENDBRANCH  22  23
ENDBRANCH   3  22
TORSDOF 17
ENDMDL
MODEL 3
REMARK VINA RESULT:     -10.6      1.448      2.278
REMARK SMILES CCN(CCC(=O)NCCCNC(=O)c1ccc(-c2c3nc(c(-c4c(F)c(F)c(F)c(F)c4F)c4ccc([nH]4)c(-c4c(F)c(F)c(F)c(F)c4F)c4nc(c(-c5c(F)c(F)c(F)c(F)c5F)c5ccc2[nH]5)C=C4)C=C3)cc1)C(=O)N1C[C@H](C(=O)OC)[C@@H](C)C1
REMARK SMILES IDX 6 1 7 2 8 3 5 5 4 6 3 7 2 8 1 9 78 10 79 11 80 12 81 13
REMARK SMILES IDX 89 14 82 15 87 16 88 17 83 18 84 19 85 20 86 21 9 22 10 23
REMARK SMILES IDX 11 24 12 25 13 26 14 28 15 29 16 30 77 31 17 32 76 33 18 34
REMARK SMILES IDX 19 35 20 36 70 37 21 38 75 39 69 40 71 41 22 42 74 43 68 44
REMARK SMILES IDX 67 45 23 47 55 48 35 49 54 50 36 51 39 52 53 53 72 54 37 55
REMARK SMILES IDX 38 56 52 58 73 59 40 60 24 61 25 62 33 63 26 64 27 65 31 66
REMARK SMILES IDX 34 67 28 68 29 69 32 70 30 71 56 72 57 73 65 74 58 75 59 76
REMARK SMILES IDX 63 77 66 78 60 79 61 80 64 81 62 82 41 83 42 84 50 85 43 86
REMARK SMILES IDX 44 87 48 88 51 89 45 90 46 91 49 92 47 93
REMARK H PARENT 8 4 12 27 71 46 39 57
REMARK Flexibility Score: inf
ROOT
ATOM      1  C   UNL A   1      30.275  29.643  23.902  1.00  0.00     0.221 C 
ATOM      2  O   UNL A   1      29.481  29.763  22.964  1.00  0.00    -0.275 OA
ATOM      3  N   UNL A   1      30.655  30.768  24.571  1.00  0.00    -0.356 N 
ATOM      4  H   UNL A   1      30.521  31.611  24.079  1.00  0.00     0.163 HD
ENDROOT
BRANCH   1   5
ATOM      5  C   UNL A   1      30.841  28.287  24.243  1.00  0.00     0.121 C 
BRANCH   5   6
ATOM      6  C   UNL A   1      31.595  27.643  23.076  1.00  0.00     0.131 C 
BRANCH   6   7
ATOM      7  N   UNL A   1      32.157  26.314  23.352  1.00  0.00    -0.324 N 
BRANCH   7   8
ATOM      8  C   UNL A   1      31.577  25.717  24.587  1.00  0.00     0.118 C 
ATOM      9  C   UNL A   1      30.423  24.725  24.536  1.00  0.00     0.027 C 
ENDBRANCH   7   8
BRANCH   7  10
ATOM     10  C   UNL A   1      33.204  25.683  22.696  1.00  0.00     0.320 C 
ATOM     11  O   UNL A   1      33.654  26.150  21.643  1.00  0.00    -0.248 OA
BRANCH  10  12
ATOM     12  N   UNL A   1      33.736  24.483  23.110  1.00  0.00    -0.323 N 
ATOM     13  C   UNL A   1      33.407  23.085  22.845  1.00  0.00     0.137 C 
ATOM     14  C   UNL A   1      34.809  24.542  24.103  1.00  0.00     0.125 C 
ATOM     15  C   UNL A   1      34.146  22.253  23.891  1.00  0.00     0.123 C 
ATOM     16  C   UNL A   1      35.346  23.118  24.268  1.00  0.00     0.021 C 
ATOM     17  C   UNL A   1      36.534  22.848  23.335  1.00  0.00     0.010 C 
BRANCH  15  18
ATOM     18  C   UNL A   1      33.154  21.942  24.992  1.00  0.00     0.310 C 
ATOM     19  O   UNL A   1      32.887  22.721  25.890  1.00  0.00    -0.252 OA
BRANCH  18  20
ATOM     20  O   UNL A   1      32.755  20.643  24.945  1.00  0.00    -0.469 OA
ATOM     21  C   UNL A   1      33.801  19.718  24.653  1.00  0.00     0.282 C 
ENDBRANCH  18  20
ENDBRANCH  15  18
ENDBRANCH  10  12
ENDBRANCH   7  10
ENDBRANCH   6   7
ENDBRANCH   5   6
ENDBRANCH   1   5
BRANCH   3  22
ATOM     22  C   UNL A   1      31.228  30.916  25.901  1.00  0.00     0.117 C 
BRANCH  22  23
ATOM     23  C   UNL A   1      31.185  32.322  26.497  1.00  0.00     0.042 C 
BRANCH  23  24
ATOM     24  C   UNL A   1      32.496  32.882  27.037  1.00  0.00     0.118 C 
BRANCH  24  25
ATOM     25  N   UNL A   1      32.343  34.201  27.623  1.00  0.00    -0.352 N 
ATOM     26  C   UNL A   1      33.012  34.805  28.661  1.00  0.00     0.251 C 
ATOM     27  H   UNL A   1      31.644  34.756  27.208  1.00  0.00     0.163 HD
ATOM     28  O   UNL A   1      32.586  35.875  29.094  1.00  0.00    -0.269 OA
BRANCH  26  29
ATOM     29  C   UNL A   1      34.213  34.206  29.294  1.00  0.00     0.039 A 
ATOM     30  C   UNL A   1      34.027  33.426  30.443  1.00  0.00     0.014 A 
ATOM     31  C   UNL A   1      35.515  34.472  28.856  1.00  0.00     0.014 A 
ATOM     32  C   UNL A   1      35.124  32.876  31.115  1.00  0.00     0.010 A 
ATOM     33  C   UNL A   1      36.612  33.882  29.503  1.00  0.00     0.010 A 
ATOM     34  C   UNL A   1      36.430  33.075  30.637  1.00  0.00    -0.014 A 
BRANCH  34  35
ATOM     35  C   UNL A   1      37.588  32.413  31.304  1.00  0.00     0.031 A 
ATOM     36  C   UNL A   1      38.327  31.280  30.644  1.00  0.00     0.074 A 
ATOM     37  C   UNL A   1      37.972  32.823  32.530  1.00  0.00     0.049 A 
ATOM     38  N   UNL A   1      39.339  30.575  31.093  1.00  0.00    -0.248 NA
ATOM     39  C   UNL A   1      37.867  30.880  29.308  1.00  0.00     0.031 C 
ATOM     40  C   UNL A   1      37.338  33.898  33.291  1.00  0.00     0.029 A 
ATOM     41  N   UNL A   1      38.981  32.383  33.354  1.00  0.00    -0.354 N 
ATOM     42  C   UNL A   1      39.633  29.649  30.100  1.00  0.00     0.074 A 
ATOM     43  C   UNL A   1      38.667  29.856  29.040  1.00  0.00     0.031 C 
ATOM     44  C   UNL A   1      37.978  34.046  34.462  1.00  0.00     0.029 A 
ATOM     45  C   UNL A   1      39.039  33.046  34.557  1.00  0.00     0.049 A 
ATOM     46  H   UNL A   1      39.603  31.661  33.106  1.00  0.00     0.167 HD
ATOM     47  C   UNL A   1      40.622  28.724  30.068  1.00  0.00     0.037 A 
ATOM     48  C   UNL A   1      39.839  32.861  35.625  1.00  0.00     0.037 A 
ATOM     49  C   UNL A   1      41.589  28.521  31.119  1.00  0.00     0.049 A 
ATOM     50  C   UNL A   1      40.893  31.785  35.587  1.00  0.00     0.074 A 
ATOM     51  C   UNL A   1      42.659  27.641  31.148  1.00  0.00     0.029 A 
ATOM     52  N   UNL A   1      41.596  29.192  32.332  1.00  0.00    -0.354 N 
ATOM     53  N   UNL A   1      41.200  30.961  34.615  1.00  0.00    -0.248 NA
ATOM     54  C   UNL A   1      41.709  31.612  36.798  1.00  0.00     0.031 C 
ATOM     55  C   UNL A   1      43.275  27.737  32.400  1.00  0.00     0.029 A 
ATOM     56  C   UNL A   1      42.627  28.719  33.131  1.00  0.00     0.049 A 
ATOM     57  H   UNL A   1      40.962  29.901  32.588  1.00  0.00     0.167 HD
ATOM     58  C   UNL A   1      42.256  30.191  35.086  1.00  0.00     0.074 A 
ATOM     59  C   UNL A   1      42.550  30.657  36.424  1.00  0.00     0.031 C 
ATOM     60  C   UNL A   1      42.918  29.187  34.462  1.00  0.00     0.037 A 
BRANCH  47  61
ATOM     61  C   UNL A   1      40.714  27.839  28.856  1.00  0.00     0.064 A 
ATOM     62  C   UNL A   1      39.919  26.691  28.719  1.00  0.00     0.173 A 
ATOM     63  C   UNL A   1      41.565  28.176  27.792  1.00  0.00     0.173 A 
ATOM     64  F   UNL A   1      39.091  26.322  29.707  1.00  0.00    -0.203 F 
ATOM     65  C   UNL A   1      39.992  25.899  27.576  1.00  0.00     0.198 A 
ATOM     66  C   UNL A   1      41.613  27.400  26.637  1.00  0.00     0.198 A 
ATOM     67  F   UNL A   1      42.338  29.271  27.862  1.00  0.00    -0.203 F 
ATOM     68  F   UNL A   1      39.255  24.784  27.486  1.00  0.00    -0.200 F 
ATOM     69  C   UNL A   1      40.833  26.258  26.533  1.00  0.00     0.200 A 
ATOM     70  F   UNL A   1      42.412  27.758  25.622  1.00  0.00    -0.200 F 
ATOM     71  F   UNL A   1      40.896  25.501  25.428  1.00  0.00    -0.200 F 
ENDBRANCH  47  61
BRANCH  48  72
ATOM     72  C   UNL A   1      39.671  33.710  36.834  1.00  0.00     0.064 A 
ATOM     73  C   UNL A   1      40.392  34.903  36.985  1.00  0.00     0.173 A 
ATOM     74  C   UNL A   1      38.798  33.342  37.867  1.00  0.00     0.173 A 
ATOM     75  F   UNL A   1      41.261  35.286  36.037  1.00  0.00    -0.203 F 
ATOM     76  C   UNL A   1      40.260  35.685  38.131  1.00  0.00     0.198 A 
ATOM     77  C   UNL A   1      38.640  34.141  38.999  1.00  0.00     0.198 A 
ATOM     78  F   UNL A   1      38.086  32.210  37.775  1.00  0.00    -0.203 F 
ATOM     79  F   UNL A   1      40.998  36.793  38.272  1.00  0.00    -0.200 F 
ATOM     80  C   UNL A   1      39.379  35.307  39.133  1.00  0.00     0.200 A 
ATOM     81  F   UNL A   1      37.779  33.779  39.958  1.00  0.00    -0.200 F 
ATOM     82  F   UNL A   1      39.248  36.061  40.232  1.00  0.00    -0.200 F 
ENDBRANCH  48  72
BRANCH  60  83
ATOM     83  C   UNL A   1      44.047  28.531  35.206  1.00  0.00     0.064 A 
ATOM     84  C   UNL A   1      45.361  29.017  35.127  1.00  0.00     0.173 A 
ATOM     85  C   UNL A   1      43.804  27.437  36.052  1.00  0.00     0.173 A 
ATOM     86  F   UNL A   1      45.652  30.049  34.321  1.00  0.00    -0.203 F 
ATOM     87  C   UNL A   1      46.390  28.420  35.851  1.00  0.00     0.198 A 
ATOM     88  C   UNL A   1      44.829  26.863  36.798  1.00  0.00     0.198 A 
ATOM     89  F   UNL A   1      42.564  26.935  36.168  1.00  0.00    -0.203 F 
ATOM     90  F   UNL A   1      47.645  28.875  35.727  1.00  0.00    -0.200 F 
ATOM     91  C   UNL A   1      46.122  27.351  36.693  1.00  0.00     0.200 A 
ATOM     92  F   UNL A   1      44.565  25.839  37.621  1.00  0.00    -0.200 F 
ATOM     93  F   UNL A   1      47.112  26.787  37.400  1.00  0.00    -0.200 F 
ENDBRANCH  60  83
ENDBRANCH  34  35
ENDBRANCH  26  29
ENDBRANCH  24  25
ENDBRANCH  23  24
ENDBRANCH  22  23
ENDBRANCH   3  22
TORSDOF 17
ENDMDL
