MODEL 1
REMARK VINA RESULT:     -11.7      0.000      0.000
REMARK SMILES COC(CNS(=O)(=O)c1ccc(Cl)c(C(=O)NCCCNC(=O)c2ccc(-c3c4nc(c(-c5c(F)c(F)c(F)c(F)c5F)c5ccc([nH]5)c(-c5c(F)c(F)c(F)c(F)c5F)c5nc(c(-c6c(F)c(F)c(F)c(F)c6F)c6ccc3[nH]6)C=C5)C=C4)cc2)c1Cl)OC
REMARK SMILES IDX 15 1 16 2 17 3 14 5 9 6 10 7 87 8 11 9 88 10 12 11 13 12
REMARK SMILES IDX 6 13 7 14 8 15 5 16 4 18 3 19 2 20 1 21 89 22 90 23 18 24
REMARK SMILES IDX 19 25 20 26 21 27 22 28 23 30 24 31 25 32 86 33 26 34 85 35
REMARK SMILES IDX 27 36 28 37 29 38 79 39 30 40 84 41 78 42 80 43 31 44 83 45
REMARK SMILES IDX 77 46 76 47 32 49 64 50 44 51 63 52 45 53 48 54 62 55 81 56
REMARK SMILES IDX 46 57 47 58 61 60 82 61 49 62 33 63 34 64 42 65 35 66 36 67
REMARK SMILES IDX 40 68 43 69 37 70 38 71 41 72 39 73 65 74 66 75 74 76 67 77
REMARK SMILES IDX 68 78 72 79 75 80 69 81 70 82 73 83 71 84 50 85 51 86 59 87
REMARK SMILES IDX 52 88 53 89 57 90 60 91 54 92 55 93 58 94 56 95
REMARK H PARENT 17 4 5 17 21 29 80 48 48 59
REMARK Flexibility Score: inf
ROOT
ATOM      1  C   UNL A   1      32.117  29.246  24.731  1.00  0.00     0.254 C 
ATOM      2  O   UNL A   1      33.034  29.291  23.903  1.00  0.00    -0.269 OA
ATOM      3  N   UNL A   1      32.052  30.405  25.447  1.00  0.00    -0.352 N 
ATOM      4  H   UNL A   1      32.811  30.995  25.232  1.00  0.00     0.163 HD
ENDROOT
BRANCH   1   5
ATOM      5  C   UNL A   1      31.183  28.060  24.710  1.00  0.00     0.078 A 
ATOM      6  C   UNL A   1      31.202  25.692  25.368  1.00  0.00     0.101 A 
ATOM      7  C   UNL A   1      30.348  25.393  24.304  1.00  0.00     0.025 A 
ATOM      8  C   UNL A   1      31.511  27.027  25.640  1.00  0.00     0.075 A 
ATOM      9  C   UNL A   1      29.776  26.427  23.578  1.00  0.00     0.023 A 
ATOM     10  Cl  UNL A   1      31.800  27.507  27.296  1.00  0.00    -0.082 Cl
ATOM     11  C   UNL A   1      30.176  27.758  23.787  1.00  0.00     0.055 A 
ATOM     12  Cl  UNL A   1      29.107  28.898  23.063  1.00  0.00    -0.083 Cl
BRANCH   6  13
ATOM     13  S   UNL A   1      31.851  24.278  26.213  1.00  0.00     0.242 S 
ATOM     14  O   UNL A   1      31.070  24.131  27.423  1.00  0.00    -0.207 OA
ATOM     15  O   UNL A   1      33.283  24.472  26.267  1.00  0.00    -0.207 OA
BRANCH  13  16
ATOM     16  N   UNL A   1      31.642  22.896  25.313  1.00  0.00    -0.206 NA
ATOM     17  H   UNL A   1      30.636  22.755  25.219  1.00  0.00     0.141 HD
BRANCH  16  18
ATOM     18  C   UNL A   1      32.211  21.614  25.783  1.00  0.00     0.161 C 
BRANCH  18  19
ATOM     19  C   UNL A   1      32.716  20.685  24.637  1.00  0.00     0.263 C 
BRANCH  19  20
ATOM     20  O   UNL A   1      32.219  19.345  24.596  1.00  0.00    -0.355 OA
ATOM     21  C   UNL A   1      32.707  18.429  25.554  1.00  0.00     0.198 C 
ENDBRANCH  19  20
BRANCH  19  22
ATOM     22  O   UNL A   1      34.107  20.813  24.334  1.00  0.00    -0.355 OA
ATOM     23  C   UNL A   1      34.953  21.220  25.390  1.00  0.00     0.198 C 
ENDBRANCH  19  22
ENDBRANCH  18  19
ENDBRANCH  16  18
ENDBRANCH  13  16
ENDBRANCH   6  13
ENDBRANCH   1   5
BRANCH   3  24
ATOM     24  C   UNL A   1      31.187  31.019  26.431  1.00  0.00     0.118 C 
BRANCH  24  25
ATOM     25  C   UNL A   1      31.356  32.537  26.439  1.00  0.00     0.042 C 
BRANCH  25  26
ATOM     26  C   UNL A   1      32.589  33.002  27.212  1.00  0.00     0.118 C 
BRANCH  26  27
ATOM     27  N   UNL A   1      32.455  34.378  27.663  1.00  0.00    -0.352 N 
ATOM     28  C   UNL A   1      33.034  35.023  28.727  1.00  0.00     0.251 C 
ATOM     29  H   UNL A   1      31.855  34.937  27.117  1.00  0.00     0.163 HD
ATOM     30  O   UNL A   1      32.579  36.101  29.101  1.00  0.00    -0.269 OA
BRANCH  28  31
ATOM     31  C   UNL A   1      34.198  34.439  29.431  1.00  0.00     0.039 A 
ATOM     32  C   UNL A   1      35.473  34.607  28.879  1.00  0.00     0.014 A 
ATOM     33  C   UNL A   1      34.036  33.658  30.578  1.00  0.00     0.014 A 
ATOM     34  C   UNL A   1      36.585  34.030  29.499  1.00  0.00     0.010 A 
ATOM     35  C   UNL A   1      35.151  33.142  31.235  1.00  0.00     0.010 A 
ATOM     36  C   UNL A   1      36.434  33.310  30.694  1.00  0.00    -0.014 A 
BRANCH  36  37
ATOM     37  C   UNL A   1      37.599  32.690  31.376  1.00  0.00     0.031 A 
ATOM     38  C   UNL A   1      38.337  31.557  30.719  1.00  0.00     0.074 A 
ATOM     39  C   UNL A   1      37.952  33.105  32.608  1.00  0.00     0.049 A 
ATOM     40  N   UNL A   1      39.303  30.811  31.190  1.00  0.00    -0.248 NA
ATOM     41  C   UNL A   1      37.913  31.198  29.356  1.00  0.00     0.031 C 
ATOM     42  C   UNL A   1      37.292  34.169  33.364  1.00  0.00     0.029 A 
ATOM     43  N   UNL A   1      38.946  32.667  33.448  1.00  0.00    -0.354 N 
ATOM     44  C   UNL A   1      39.589  29.888  30.192  1.00  0.00     0.074 A 
ATOM     45  C   UNL A   1      38.665  30.135  29.108  1.00  0.00     0.031 C 
ATOM     46  C   UNL A   1      37.903  34.308  34.552  1.00  0.00     0.029 A 
ATOM     47  C   UNL A   1      38.975  33.322  34.654  1.00  0.00     0.049 A 
ATOM     48  H   UNL A   1      39.578  31.951  33.207  1.00  0.00     0.167 HD
ATOM     49  C   UNL A   1      40.552  28.935  30.174  1.00  0.00     0.037 A 
ATOM     50  C   UNL A   1      39.770  33.138  35.725  1.00  0.00     0.037 A 
ATOM     51  C   UNL A   1      41.488  28.707  31.242  1.00  0.00     0.049 A 
ATOM     52  C   UNL A   1      40.839  32.080  35.672  1.00  0.00     0.074 A 
ATOM     53  C   UNL A   1      42.517  27.783  31.311  1.00  0.00     0.029 A 
ATOM     54  N   UNL A   1      41.514  29.423  32.429  1.00  0.00    -0.354 N 
ATOM     55  N   UNL A   1      41.122  31.237  34.710  1.00  0.00    -0.248 NA
ATOM     56  C   UNL A   1      41.706  31.955  36.853  1.00  0.00     0.031 C 
ATOM     57  C   UNL A   1      43.151  27.925  32.550  1.00  0.00     0.029 A 
ATOM     58  C   UNL A   1      42.540  28.962  33.238  1.00  0.00     0.049 A 
ATOM     59  H   UNL A   1      40.895  30.152  32.663  1.00  0.00     0.167 HD
ATOM     60  C   UNL A   1      42.210  30.500  35.155  1.00  0.00     0.074 A 
ATOM     61  C   UNL A   1      42.547  31.006  36.469  1.00  0.00     0.031 C 
ATOM     62  C   UNL A   1      42.869  29.491  34.535  1.00  0.00     0.037 A 
BRANCH  49  63
ATOM     63  C   UNL A   1      40.651  28.076  28.947  1.00  0.00     0.064 A 
ATOM     64  C   UNL A   1      39.905  26.894  28.822  1.00  0.00     0.173 A 
ATOM     65  C   UNL A   1      41.469  28.454  27.871  1.00  0.00     0.173 A 
ATOM     66  F   UNL A   1      39.119  26.483  29.827  1.00  0.00    -0.203 F 
ATOM     67  C   UNL A   1      39.993  26.110  27.675  1.00  0.00     0.198 A 
ATOM     68  C   UNL A   1      41.533  27.681  26.715  1.00  0.00     0.198 A 
ATOM     69  F   UNL A   1      42.197  29.578  27.938  1.00  0.00    -0.203 F 
ATOM     70  F   UNL A   1      39.305  24.962  27.596  1.00  0.00    -0.200 F 
ATOM     71  C   UNL A   1      40.801  26.507  26.620  1.00  0.00     0.200 A 
ATOM     72  F   UNL A   1      42.305  28.072  25.691  1.00  0.00    -0.200 F 
ATOM     73  F   UNL A   1      40.879  25.754  25.514  1.00  0.00    -0.200 F 
ENDBRANCH  49  63
BRANCH  50  74
ATOM     74  C   UNL A   1      39.599  33.986  36.931  1.00  0.00     0.064 A 
ATOM     75  C   UNL A   1      40.210  35.245  37.018  1.00  0.00     0.173 A 
ATOM     76  C   UNL A   1      38.836  33.554  38.025  1.00  0.00     0.173 A 
ATOM     77  F   UNL A   1      40.968  35.692  36.005  1.00  0.00    -0.203 F 
ATOM     78  C   UNL A   1      40.084  36.030  38.163  1.00  0.00     0.198 A 
ATOM     79  C   UNL A   1      38.688  34.351  39.159  1.00  0.00     0.198 A 
ATOM     80  F   UNL A   1      38.227  32.360  37.991  1.00  0.00    -0.203 F 
ATOM     81  F   UNL A   1      40.717  37.208  38.237  1.00  0.00    -0.200 F 
ATOM     82  C   UNL A   1      39.319  35.585  39.230  1.00  0.00     0.200 A 
ATOM     83  F   UNL A   1      37.939  33.923  40.183  1.00  0.00    -0.200 F 
ATOM     84  F   UNL A   1      39.198  36.339  40.330  1.00  0.00    -0.200 F 
ENDBRANCH  50  74
BRANCH  62  85
ATOM     85  C   UNL A   1      44.043  28.898  35.253  1.00  0.00     0.064 A 
ATOM     86  C   UNL A   1      43.889  27.835  36.155  1.00  0.00     0.173 A 
ATOM     87  C   UNL A   1      45.338  29.373  35.006  1.00  0.00     0.173 A 
ATOM     88  F   UNL A   1      42.667  27.358  36.434  1.00  0.00    -0.203 F 
ATOM     89  C   UNL A   1      44.992  27.284  36.802  1.00  0.00     0.198 A 
ATOM     90  C   UNL A   1      46.441  28.803  35.636  1.00  0.00     0.198 A 
ATOM     91  F   UNL A   1      45.536  30.385  34.148  1.00  0.00    -0.203 F 
ATOM     92  F   UNL A   1      44.819  26.297  37.691  1.00  0.00    -0.200 F 
ATOM     93  C   UNL A   1      46.266  27.764  36.538  1.00  0.00     0.200 A 
ATOM     94  F   UNL A   1      47.673  29.262  35.373  1.00  0.00    -0.200 F 
ATOM     95  F   UNL A   1      47.326  27.229  37.159  1.00  0.00    -0.200 F 
ENDBRANCH  62  85
ENDBRANCH  36  37
ENDBRANCH  28  31
ENDBRANCH  26  27
ENDBRANCH  25  26
ENDBRANCH  24  25
ENDBRANCH   3  24
TORSDOF 16
ENDMDL
MODEL 2
REMARK VINA RESULT:     -11.6      1.125      2.081
REMARK SMILES COC(CNS(=O)(=O)c1ccc(Cl)c(C(=O)NCCCNC(=O)c2ccc(-c3c4nc(c(-c5c(F)c(F)c(F)c(F)c5F)c5ccc([nH]5)c(-c5c(F)c(F)c(F)c(F)c5F)c5nc(c(-c6c(F)c(F)c(F)c(F)c6F)c6ccc3[nH]6)C=C5)C=C4)cc2)c1Cl)OC
REMARK SMILES IDX 15 1 16 2 17 3 14 5 9 6 10 7 87 8 11 9 88 10 12 11 13 12
REMARK SMILES IDX 6 13 7 14 8 15 5 16 4 18 3 19 2 20 1 21 89 22 90 23 18 24
REMARK SMILES IDX 19 25 20 26 21 27 22 28 23 30 24 31 25 32 86 33 26 34 85 35
REMARK SMILES IDX 27 36 28 37 29 38 79 39 30 40 84 41 78 42 80 43 31 44 83 45
REMARK SMILES IDX 77 46 76 47 32 49 64 50 44 51 63 52 45 53 48 54 62 55 81 56
REMARK SMILES IDX 46 57 47 58 61 60 82 61 49 62 33 63 34 64 42 65 35 66 36 67
REMARK SMILES IDX 40 68 43 69 37 70 38 71 41 72 39 73 65 74 66 75 74 76 67 77
REMARK SMILES IDX 68 78 72 79 75 80 69 81 70 82 73 83 71 84 50 85 51 86 59 87
REMARK SMILES IDX 52 88 53 89 57 90 60 91 54 92 55 93 58 94 56 95
REMARK H PARENT 17 4 5 17 21 29 80 48 48 59
REMARK Flexibility Score: inf
ROOT
ATOM      1  C   UNL A   1      32.225  29.316  24.825  1.00  0.00     0.254 C 
ATOM      2  O   UNL A   1      33.236  29.326  24.114  1.00  0.00    -0.269 OA
ATOM      3  N   UNL A   1      32.156  30.443  25.590  1.00  0.00    -0.352 N 
ATOM      4  H   UNL A   1      32.977  30.980  25.498  1.00  0.00     0.163 HD
ENDROOT
BRANCH   1   5
ATOM      5  C   UNL A   1      31.217  28.209  24.630  1.00  0.00     0.078 A 
ATOM      6  C   UNL A   1      31.013  25.803  25.095  1.00  0.00     0.101 A 
ATOM      7  C   UNL A   1      30.240  25.650  23.941  1.00  0.00     0.025 A 
ATOM      8  C   UNL A   1      31.388  27.087  25.498  1.00  0.00     0.075 A 
ATOM      9  C   UNL A   1      29.808  26.775  23.256  1.00  0.00     0.023 A 
ATOM     10  Cl  UNL A   1      31.559  27.420  27.206  1.00  0.00    -0.082 Cl
ATOM     11  C   UNL A   1      30.279  28.052  23.604  1.00  0.00     0.055 A 
ATOM     12  Cl  UNL A   1      29.360  29.321  22.886  1.00  0.00    -0.083 Cl
BRANCH   6  13
ATOM     13  S   UNL A   1      31.485  24.286  25.875  1.00  0.00     0.242 S 
ATOM     14  O   UNL A   1      31.004  23.220  25.021  1.00  0.00    -0.207 OA
ATOM     15  O   UNL A   1      31.049  24.395  27.250  1.00  0.00    -0.207 OA
BRANCH  13  16
ATOM     16  N   UNL A   1      33.140  24.148  25.962  1.00  0.00    -0.206 NA
ATOM     17  H   UNL A   1      33.419  24.519  26.871  1.00  0.00     0.141 HD
BRANCH  16  18
ATOM     18  C   UNL A   1      33.991  24.810  24.951  1.00  0.00     0.161 C 
BRANCH  18  19
ATOM     19  C   UNL A   1      33.977  24.114  23.555  1.00  0.00     0.263 C 
BRANCH  19  20
ATOM     20  O   UNL A   1      34.741  22.917  23.397  1.00  0.00    -0.355 OA
ATOM     21  C   UNL A   1      36.150  23.027  23.394  1.00  0.00     0.198 C 
ENDBRANCH  19  20
BRANCH  19  22
ATOM     22  O   UNL A   1      34.037  25.009  22.442  1.00  0.00    -0.355 OA
ATOM     23  C   UNL A   1      32.902  25.058  21.602  1.00  0.00     0.198 C 
ENDBRANCH  19  22
ENDBRANCH  18  19
ENDBRANCH  16  18
ENDBRANCH  13  16
ENDBRANCH   6  13
ENDBRANCH   1   5
BRANCH   3  24
ATOM     24  C   UNL A   1      31.226  31.077  26.498  1.00  0.00     0.118 C 
BRANCH  24  25
ATOM     25  C   UNL A   1      31.404  32.594  26.493  1.00  0.00     0.042 C 
BRANCH  25  26
ATOM     26  C   UNL A   1      32.653  33.055  27.240  1.00  0.00     0.118 C 
BRANCH  26  27
ATOM     27  N   UNL A   1      32.518  34.420  27.728  1.00  0.00    -0.352 N 
ATOM     28  C   UNL A   1      33.076  35.030  28.823  1.00  0.00     0.251 C 
ATOM     29  H   UNL A   1      31.933  34.998  27.185  1.00  0.00     0.163 HD
ATOM     30  O   UNL A   1      32.619  36.100  29.217  1.00  0.00    -0.269 OA
BRANCH  28  31
ATOM     31  C   UNL A   1      34.221  34.419  29.535  1.00  0.00     0.039 A 
ATOM     32  C   UNL A   1      35.506  34.568  29.000  1.00  0.00     0.014 A 
ATOM     33  C   UNL A   1      34.031  33.632  30.673  1.00  0.00     0.014 A 
ATOM     34  C   UNL A   1      36.599  33.966  29.627  1.00  0.00     0.010 A 
ATOM     35  C   UNL A   1      35.129  33.089  31.339  1.00  0.00     0.010 A 
ATOM     36  C   UNL A   1      36.421  33.238  30.814  1.00  0.00    -0.014 A 
BRANCH  36  37
ATOM     37  C   UNL A   1      37.566  32.591  31.504  1.00  0.00     0.031 A 
ATOM     38  C   UNL A   1      38.281  31.440  30.853  1.00  0.00     0.074 A 
ATOM     39  C   UNL A   1      37.921  32.999  32.738  1.00  0.00     0.049 A 
ATOM     40  N   UNL A   1      39.226  30.671  31.331  1.00  0.00    -0.248 NA
ATOM     41  C   UNL A   1      37.858  31.089  29.487  1.00  0.00     0.031 C 
ATOM     42  C   UNL A   1      37.282  34.080  33.489  1.00  0.00     0.029 A 
ATOM     43  N   UNL A   1      38.899  32.538  33.585  1.00  0.00    -0.354 N 
ATOM     44  C   UNL A   1      39.497  29.740  30.336  1.00  0.00     0.074 A 
ATOM     45  C   UNL A   1      38.585  30.009  29.246  1.00  0.00     0.031 C 
ATOM     46  C   UNL A   1      37.889  34.205  34.680  1.00  0.00     0.029 A 
ATOM     47  C   UNL A   1      38.936  33.193  34.791  1.00  0.00     0.049 A 
ATOM     48  H   UNL A   1      39.515  31.807  33.349  1.00  0.00     0.167 HD
ATOM     49  C   UNL A   1      40.436  28.765  30.325  1.00  0.00     0.037 A 
ATOM     50  C   UNL A   1      39.719  32.991  35.867  1.00  0.00     0.037 A 
ATOM     51  C   UNL A   1      41.360  28.516  31.400  1.00  0.00     0.049 A 
ATOM     52  C   UNL A   1      40.763  31.908  35.822  1.00  0.00     0.074 A 
ATOM     53  C   UNL A   1      42.365  27.567  31.476  1.00  0.00     0.029 A 
ATOM     54  N   UNL A   1      41.395  29.232  32.586  1.00  0.00    -0.354 N 
ATOM     55  N   UNL A   1      41.031  31.057  34.863  1.00  0.00    -0.248 NA
ATOM     56  C   UNL A   1      41.619  31.764  37.008  1.00  0.00     0.031 C 
ATOM     57  C   UNL A   1      42.995  27.696  32.719  1.00  0.00     0.029 A 
ATOM     58  C   UNL A   1      42.405  28.747  33.401  1.00  0.00     0.049 A 
ATOM     59  H   UNL A   1      40.792  29.977  32.815  1.00  0.00     0.167 HD
ATOM     60  C   UNL A   1      42.099  30.295  35.316  1.00  0.00     0.074 A 
ATOM     61  C   UNL A   1      42.440  30.794  36.631  1.00  0.00     0.031 C 
ATOM     62  C   UNL A   1      42.737  29.270  34.700  1.00  0.00     0.037 A 
BRANCH  49  63
ATOM     63  C   UNL A   1      40.523  27.902  29.100  1.00  0.00     0.064 A 
ATOM     64  C   UNL A   1      41.399  28.213  28.049  1.00  0.00     0.173 A 
ATOM     65  C   UNL A   1      39.752  26.734  28.989  1.00  0.00     0.173 A 
ATOM     66  F   UNL A   1      42.147  29.325  28.101  1.00  0.00    -0.203 F 
ATOM     67  C   UNL A   1      41.483  27.400  26.922  1.00  0.00     0.198 A 
ATOM     68  C   UNL A   1      39.859  25.910  27.872  1.00  0.00     0.198 A 
ATOM     69  F   UNL A   1      38.904  26.389  29.968  1.00  0.00    -0.203 F 
ATOM     70  F   UNL A   1      42.295  27.741  25.912  1.00  0.00    -0.200 F 
ATOM     71  C   UNL A   1      40.718  26.247  26.837  1.00  0.00     0.200 A 
ATOM     72  F   UNL A   1      39.128  24.788  27.796  1.00  0.00    -0.200 F 
ATOM     73  F   UNL A   1      40.806  25.462  25.754  1.00  0.00    -0.200 F 
ENDBRANCH  49  63
BRANCH  50  74
ATOM     74  C   UNL A   1      39.561  33.845  37.071  1.00  0.00     0.064 A 
ATOM     75  C   UNL A   1      38.771  33.428  38.151  1.00  0.00     0.173 A 
ATOM     76  C   UNL A   1      40.184  35.098  37.164  1.00  0.00     0.173 A 
ATOM     77  F   UNL A   1      38.138  32.246  38.099  1.00  0.00    -0.203 F 
ATOM     78  C   UNL A   1      38.591  34.240  39.269  1.00  0.00     0.198 A 
ATOM     79  C   UNL A   1      40.025  35.898  38.293  1.00  0.00     0.198 A 
ATOM     80  F   UNL A   1      40.955  35.542  36.160  1.00  0.00    -0.203 F 
ATOM     81  F   UNL A   1      37.793  33.837  40.265  1.00  0.00    -0.200 F 
ATOM     82  C   UNL A   1      39.222  35.473  39.341  1.00  0.00     0.200 A 
ATOM     83  F   UNL A   1      40.646  37.084  38.364  1.00  0.00    -0.200 F 
ATOM     84  F   UNL A   1      39.048  36.255  40.415  1.00  0.00    -0.200 F 
ENDBRANCH  50  74
BRANCH  62  85
ATOM     85  C   UNL A   1      43.892  28.649  35.426  1.00  0.00     0.064 A 
ATOM     86  C   UNL A   1      43.706  27.599  36.337  1.00  0.00     0.173 A 
ATOM     87  C   UNL A   1      45.201  29.085  35.179  1.00  0.00     0.173 A 
ATOM     88  F   UNL A   1      42.469  27.160  36.617  1.00  0.00    -0.203 F 
ATOM     89  C   UNL A   1      44.790  27.023  36.991  1.00  0.00     0.198 A 
ATOM     90  C   UNL A   1      46.285  28.489  35.817  1.00  0.00     0.198 A 
ATOM     91  F   UNL A   1      45.430  30.084  34.313  1.00  0.00    -0.203 F 
ATOM     92  F   UNL A   1      44.588  26.049  37.889  1.00  0.00    -0.200 F 
ATOM     93  C   UNL A   1      46.079  27.463  36.727  1.00  0.00     0.200 A 
ATOM     94  F   UNL A   1      47.531  28.910  35.554  1.00  0.00    -0.200 F 
ATOM     95  F   UNL A   1      47.122  26.904  37.356  1.00  0.00    -0.200 F 
ENDBRANCH  62  85
ENDBRANCH  36  37
ENDBRANCH  28  31
ENDBRANCH  26  27
ENDBRANCH  25  26
ENDBRANCH  24  25
ENDBRANCH   3  24
TORSDOF 16
ENDMDL
MODEL 3
REMARK VINA RESULT:     -11.6      4.835     10.679
REMARK SMILES COC(CNS(=O)(=O)c1ccc(Cl)c(C(=O)NCCCNC(=O)c2ccc(-c3c4nc(c(-c5c(F)c(F)c(F)c(F)c5F)c5ccc([nH]5)c(-c5c(F)c(F)c(F)c(F)c5F)c5nc(c(-c6c(F)c(F)c(F)c(F)c6F)c6ccc3[nH]6)C=C5)C=C4)cc2)c1Cl)OC
REMARK SMILES IDX 15 1 16 2 17 3 14 5 9 6 10 7 87 8 11 9 88 10 12 11 13 12
REMARK SMILES IDX 6 13 7 14 8 15 5 16 4 18 3 19 2 20 1 21 89 22 90 23 18 24
REMARK SMILES IDX 19 25 20 26 21 27 22 28 23 30 24 31 25 32 86 33 26 34 85 35
REMARK SMILES IDX 27 36 28 37 29 38 79 39 30 40 84 41 78 42 80 43 31 44 83 45
REMARK SMILES IDX 77 46 76 47 32 49 64 50 44 51 63 52 45 53 48 54 62 55 81 56
REMARK SMILES IDX 46 57 47 58 61 60 82 61 49 62 33 63 34 64 42 65 35 66 36 67
REMARK SMILES IDX 40 68 43 69 37 70 38 71 41 72 39 73 65 74 66 75 74 76 67 77
REMARK SMILES IDX 68 78 72 79 75 80 69 81 70 82 73 83 71 84 50 85 51 86 59 87
REMARK SMILES IDX 52 88 53 89 57 90 60 91 54 92 55 93 58 94 56 95
REMARK H PARENT 17 4 5 17 21 29 80 48 48 59
REMARK Flexibility Score: inf
ROOT
ATOM      1  C   UNL A   1      36.024  32.712  32.751  1.00  0.00     0.254 C 
ATOM      2  O   UNL A   1      35.228  32.690  33.697  1.00  0.00    -0.269 OA
ATOM      3  N   UNL A   1      35.365  32.849  31.564  1.00  0.00    -0.352 N 
ATOM      4  H   UNL A   1      34.390  32.795  31.695  1.00  0.00     0.163 HD
ENDROOT
BRANCH   1   5
ATOM      5  C   UNL A   1      37.503  32.742  33.053  1.00  0.00     0.078 A 
ATOM      6  C   UNL A   1      39.082  31.694  34.619  1.00  0.00     0.101 A 
ATOM      7  C   UNL A   1      39.853  32.858  34.614  1.00  0.00     0.025 A 
ATOM      8  C   UNL A   1      37.991  31.595  33.751  1.00  0.00     0.075 A 
ATOM      9  C   UNL A   1      39.561  33.866  33.708  1.00  0.00     0.023 A 
ATOM     10  Cl  UNL A   1      37.563  30.028  33.107  1.00  0.00    -0.082 Cl
ATOM     11  C   UNL A   1      38.401  33.806  32.917  1.00  0.00     0.055 A 
ATOM     12  Cl  UNL A   1      38.413  34.946  31.626  1.00  0.00    -0.083 Cl
BRANCH   6  13
ATOM     13  S   UNL A   1      39.572  30.488  35.818  1.00  0.00     0.242 S 
ATOM     14  O   UNL A   1      38.362  30.068  36.494  1.00  0.00    -0.207 OA
ATOM     15  O   UNL A   1      40.669  31.080  36.550  1.00  0.00    -0.207 OA
BRANCH  13  16
ATOM     16  N   UNL A   1      40.225  29.146  35.084  1.00  0.00    -0.206 NA
ATOM     17  H   UNL A   1      40.777  28.662  35.792  1.00  0.00     0.141 HD
BRANCH  16  18
ATOM     18  C   UNL A   1      41.093  29.301  33.897  1.00  0.00     0.161 C 
BRANCH  18  19
ATOM     19  C   UNL A   1      42.472  28.584  34.021  1.00  0.00     0.263 C 
BRANCH  19  20
ATOM     20  O   UNL A   1      42.894  27.755  32.935  1.00  0.00    -0.355 OA
ATOM     21  C   UNL A   1      43.770  26.684  33.222  1.00  0.00     0.198 C 
ENDBRANCH  19  20
BRANCH  19  22
ATOM     22  O   UNL A   1      42.755  28.054  35.318  1.00  0.00    -0.355 OA
ATOM     23  C   UNL A   1      43.542  28.855  36.175  1.00  0.00     0.198 C 
ENDBRANCH  19  22
ENDBRANCH  18  19
ENDBRANCH  16  18
ENDBRANCH  13  16
ENDBRANCH   6  13
ENDBRANCH   1   5
BRANCH   3  24
ATOM     24  C   UNL A   1      35.686  33.051  30.168  1.00  0.00     0.118 C 
BRANCH  24  25
ATOM     25  C   UNL A   1      34.427  33.335  29.352  1.00  0.00     0.042 C 
BRANCH  25  26
ATOM     26  C   UNL A   1      34.492  32.778  27.932  1.00  0.00     0.118 C 
BRANCH  26  27
ATOM     27  N   UNL A   1      33.793  31.507  27.818  1.00  0.00    -0.352 N 
ATOM     28  C   UNL A   1      34.283  30.227  27.756  1.00  0.00     0.251 C 
ATOM     29  H   UNL A   1      32.811  31.576  27.781  1.00  0.00     0.163 HD
ATOM     30  O   UNL A   1      33.550  29.316  27.382  1.00  0.00    -0.269 OA
BRANCH  28  31
ATOM     31  C   UNL A   1      35.683  29.928  28.135  1.00  0.00     0.039 A 
ATOM     32  C   UNL A   1      36.684  30.043  27.164  1.00  0.00     0.014 A 
ATOM     33  C   UNL A   1      36.004  29.453  29.409  1.00  0.00     0.014 A 
ATOM     34  C   UNL A   1      38.007  29.725  27.482  1.00  0.00     0.010 A 
ATOM     35  C   UNL A   1      37.333  29.203  29.748  1.00  0.00     0.010 A 
ATOM     36  C   UNL A   1      38.344  29.322  28.783  1.00  0.00    -0.014 A 
BRANCH  36  37
ATOM     37  C   UNL A   1      39.743  28.983  29.150  1.00  0.00     0.031 A 
ATOM     38  C   UNL A   1      40.576  29.968  29.922  1.00  0.00     0.074 A 
ATOM     39  C   UNL A   1      40.280  27.819  28.738  1.00  0.00     0.049 A 
ATOM     40  N   UNL A   1      41.844  29.913  30.243  1.00  0.00    -0.248 NA
ATOM     41  C   UNL A   1      39.897  31.195  30.371  1.00  0.00     0.031 C 
ATOM     42  C   UNL A   1      39.586  26.797  27.953  1.00  0.00     0.029 A 
ATOM     43  N   UNL A   1      41.542  27.306  28.908  1.00  0.00    -0.354 N 
ATOM     44  C   UNL A   1      42.116  31.099  30.914  1.00  0.00     0.074 A 
ATOM     45  C   UNL A   1      40.897  31.876  30.913  1.00  0.00     0.031 C 
ATOM     46  C   UNL A   1      40.427  25.778  27.717  1.00  0.00     0.029 A 
ATOM     47  C   UNL A   1      41.728  26.087  28.304  1.00  0.00     0.049 A 
ATOM     48  H   UNL A   1      42.247  27.769  29.415  1.00  0.00     0.167 HD
ATOM     49  C   UNL A   1      43.273  31.492  31.497  1.00  0.00     0.037 A 
ATOM     50  C   UNL A   1      42.826  25.314  28.224  1.00  0.00     0.037 A 
ATOM     51  C   UNL A   1      44.478  30.707  31.520  1.00  0.00     0.049 A 
ATOM     52  C   UNL A   1      44.095  25.770  28.892  1.00  0.00     0.074 A 
ATOM     53  C   UNL A   1      45.697  31.006  32.106  1.00  0.00     0.029 A 
ATOM     54  N   UNL A   1      44.611  29.456  30.937  1.00  0.00    -0.354 N 
ATOM     55  N   UNL A   1      44.331  26.877  29.552  1.00  0.00    -0.248 NA
ATOM     56  C   UNL A   1      45.250  24.864  28.811  1.00  0.00     0.031 C 
ATOM     57  C   UNL A   1      46.574  29.944  31.856  1.00  0.00     0.029 A 
ATOM     58  C   UNL A   1      45.891  28.970  31.147  1.00  0.00     0.049 A 
ATOM     59  H   UNL A   1      43.901  28.983  30.445  1.00  0.00     0.167 HD
ATOM     60  C   UNL A   1      45.646  26.792  29.985  1.00  0.00     0.074 A 
ATOM     61  C   UNL A   1      46.154  25.516  29.526  1.00  0.00     0.031 C 
ATOM     62  C   UNL A   1      46.371  27.690  30.696  1.00  0.00     0.037 A 
BRANCH  49  63
ATOM     63  C   UNL A   1      43.285  32.831  32.176  1.00  0.00     0.064 A 
ATOM     64  C   UNL A   1      43.322  34.023  31.438  1.00  0.00     0.173 A 
ATOM     65  C   UNL A   1      43.220  32.926  33.575  1.00  0.00     0.173 A 
ATOM     66  F   UNL A   1      43.397  33.986  30.100  1.00  0.00    -0.203 F 
ATOM     67  C   UNL A   1      43.319  35.261  32.075  1.00  0.00     0.198 A 
ATOM     68  C   UNL A   1      43.191  34.166  34.207  1.00  0.00     0.198 A 
ATOM     69  F   UNL A   1      43.177  31.816  34.327  1.00  0.00    -0.203 F 
ATOM     70  F   UNL A   1      43.399  36.386  31.351  1.00  0.00    -0.200 F 
ATOM     71  C   UNL A   1      43.247  35.332  33.458  1.00  0.00     0.200 A 
ATOM     72  F   UNL A   1      43.109  34.234  35.544  1.00  0.00    -0.200 F 
ATOM     73  F   UNL A   1      43.237  36.524  34.069  1.00  0.00    -0.200 F 
ENDBRANCH  49  63
BRANCH  50  74
ATOM     74  C   UNL A   1      42.772  24.018  27.501  1.00  0.00     0.064 A 
ATOM     75  C   UNL A   1      43.117  23.935  26.145  1.00  0.00     0.173 A 
ATOM     76  C   UNL A   1      42.363  22.840  28.144  1.00  0.00     0.173 A 
ATOM     77  F   UNL A   1      43.493  25.039  25.482  1.00  0.00    -0.203 F 
ATOM     78  C   UNL A   1      43.034  22.729  25.453  1.00  0.00     0.198 A 
ATOM     79  C   UNL A   1      42.306  21.629  27.458  1.00  0.00     0.198 A 
ATOM     80  F   UNL A   1      42.027  22.865  29.442  1.00  0.00    -0.203 F 
ATOM     81  F   UNL A   1      43.323  22.688  24.146  1.00  0.00    -0.200 F 
ATOM     82  C   UNL A   1      42.633  21.576  26.111  1.00  0.00     0.200 A 
ATOM     83  F   UNL A   1      41.930  20.515  28.100  1.00  0.00    -0.200 F 
ATOM     84  F   UNL A   1      42.552  20.416  25.445  1.00  0.00    -0.200 F 
ENDBRANCH  50  74
BRANCH  62  85
ATOM     85  C   UNL A   1      47.775  27.307  31.052  1.00  0.00     0.064 A 
ATOM     86  C   UNL A   1      48.060  26.553  32.199  1.00  0.00     0.173 A 
ATOM     87  C   UNL A   1      48.841  27.666  30.216  1.00  0.00     0.173 A 
ATOM     88  F   UNL A   1      47.073  26.200  33.037  1.00  0.00    -0.203 F 
ATOM     89  C   UNL A   1      49.368  26.191  32.508  1.00  0.00     0.198 A 
ATOM     90  C   UNL A   1      50.145  27.281  30.514  1.00  0.00     0.198 A 
ATOM     91  F   UNL A   1      48.618  28.383  29.104  1.00  0.00    -0.203 F 
ATOM     92  F   UNL A   1      49.624  25.506  33.631  1.00  0.00    -0.200 F 
ATOM     93  C   UNL A   1      50.409  26.550  31.663  1.00  0.00     0.200 A 
ATOM     94  F   UNL A   1      51.148  27.621  29.693  1.00  0.00    -0.200 F 
ATOM     95  F   UNL A   1      51.666  26.197  31.961  1.00  0.00    -0.200 F 
ENDBRANCH  62  85
ENDBRANCH  36  37
ENDBRANCH  28  31
ENDBRANCH  26  27
ENDBRANCH  25  26
ENDBRANCH  24  25
ENDBRANCH   3  24
TORSDOF 16
ENDMDL
