MODEL 1
REMARK VINA RESULT:     -10.4      0.000      0.000
REMARK SMILES Cc1cc(SC[C@H]([NH3+])C(=O)NCCCNC(=O)c2ccc(-c3c4nc(c(-c5c(F)c(F)c(F)c(F)c5F)c5ccc([nH]5)c(-c5c(F)c(F)c(F)c(F)c5F)c5nc(c(-c6c(F)c(F)c(F)c(F)c6F)c6ccc3[nH]6)C=C5)C=C4)cc2)ccc1N
REMARK SMILES IDX 12 1 11 2 9 3 10 4 7 6 6 7 5 8 4 9 1 10 2 11 3 12 83 13
REMARK SMILES IDX 82 14 81 15 84 16 8 19 13 23 14 24 15 25 16 26 17 28 18 29
REMARK SMILES IDX 19 30 80 31 20 32 79 33 21 34 22 35 23 36 73 37 24 38 78 39
REMARK SMILES IDX 72 40 74 41 25 42 77 43 71 44 70 45 26 47 58 48 38 49 57 50
REMARK SMILES IDX 39 51 42 52 56 53 75 54 40 55 41 56 55 58 76 59 43 60 27 61
REMARK SMILES IDX 28 62 36 63 29 64 30 65 34 66 37 67 31 68 32 69 35 70 33 71
REMARK SMILES IDX 59 72 60 73 68 74 61 75 62 76 66 77 69 78 63 79 64 80 67 81
REMARK SMILES IDX 65 82 44 83 45 84 53 85 46 86 47 87 51 88 54 89 48 90 49 91
REMARK SMILES IDX 52 92 50 93
REMARK H PARENT 11 5 84 17 84 18 8 20 8 21 8 22 15 27 74 46 42 57
REMARK Flexibility Score: inf
ROOT
ATOM      1  C   UNL A   1      42.518  20.303  26.130  1.00  0.00     0.118 C 
ENDROOT
BRANCH   1   2
ATOM      2  N   UNL A   1      43.039  19.535  25.012  1.00  0.00    -0.351 N 
ATOM      3  C   UNL A   1      44.335  19.275  24.661  1.00  0.00     0.279 C 
ATOM      4  O   UNL A   1      44.515  18.545  23.683  1.00  0.00    -0.268 OA
ATOM      5  H   UNL A   1      42.358  19.144  24.418  1.00  0.00     0.163 HD
BRANCH   3   6
ATOM      6  C   UNL A   1      45.529  19.922  25.397  1.00  0.00     0.281 C 
BRANCH   6   7
ATOM      7  C   UNL A   1      46.270  21.032  24.627  1.00  0.00     0.150 C 
BRANCH   7   8
ATOM      8  S   UNL A   1      45.366  22.623  24.453  1.00  0.00    -0.119 SA
BRANCH   8   9
ATOM      9  C   UNL A   1      45.158  23.275  26.103  1.00  0.00     0.008 A 
ATOM     10  C   UNL A   1      42.687  23.389  28.992  1.00  0.00     0.046 C 
ATOM     11  C   UNL A   1      43.960  23.604  28.220  1.00  0.00    -0.027 A 
ATOM     12  C   UNL A   1      43.995  23.213  26.865  1.00  0.00     0.020 A 
ATOM     13  C   UNL A   1      45.098  24.175  28.801  1.00  0.00     0.034 A 
ATOM     14  C   UNL A   1      46.236  24.343  28.005  1.00  0.00     0.027 A 
ATOM     15  C   UNL A   1      46.276  23.874  26.687  1.00  0.00     0.017 A 
BRANCH  13  16
ATOM     16  N   UNL A   1      45.092  24.685  30.090  1.00  0.00    -0.399 N 
ATOM     17  H   UNL A   1      45.841  25.242  30.403  1.00  0.00     0.156 HD
ATOM     18  H   UNL A   1      44.338  24.490  30.693  1.00  0.00     0.156 HD
ENDBRANCH  13  16
ENDBRANCH   8   9
ENDBRANCH   7   8
ENDBRANCH   6   7
BRANCH   6  19
ATOM     19  N   UNL A   1      46.455  18.822  25.791  1.00  0.00    -0.347 N 
ATOM     20  H   UNL A   1      47.062  18.592  25.005  1.00  0.00     0.345 HD
ATOM     21  H   UNL A   1      45.911  18.000  26.055  1.00  0.00     0.345 HD
ATOM     22  H   UNL A   1      47.023  19.124  26.583  1.00  0.00     0.345 HD
ENDBRANCH   6  19
ENDBRANCH   3   6
ENDBRANCH   1   2
BRANCH   1  23
ATOM     23  C   UNL A   1      41.003  20.223  26.247  1.00  0.00     0.042 C 
BRANCH  23  24
ATOM     24  C   UNL A   1      40.372  21.418  26.957  1.00  0.00     0.118 C 
BRANCH  24  25
ATOM     25  N   UNL A   1      39.108  21.858  26.376  1.00  0.00    -0.352 N 
ATOM     26  C   UNL A   1      38.589  23.135  26.328  1.00  0.00     0.251 C 
ATOM     27  H   UNL A   1      38.557  21.154  25.964  1.00  0.00     0.163 HD
ATOM     28  O   UNL A   1      37.466  23.344  25.887  1.00  0.00    -0.269 OA
BRANCH  26  29
ATOM     29  C   UNL A   1      39.391  24.252  26.869  1.00  0.00     0.039 A 
ATOM     30  C   UNL A   1      40.188  24.997  25.997  1.00  0.00     0.014 A 
ATOM     31  C   UNL A   1      39.272  24.619  28.212  1.00  0.00     0.014 A 
ATOM     32  C   UNL A   1      40.781  26.179  26.448  1.00  0.00     0.010 A 
ATOM     33  C   UNL A   1      39.802  25.832  28.639  1.00  0.00     0.010 A 
ATOM     34  C   UNL A   1      40.542  26.635  27.755  1.00  0.00    -0.014 A 
BRANCH  34  35
ATOM     35  C   UNL A   1      41.012  27.971  28.205  1.00  0.00     0.031 A 
ATOM     36  C   UNL A   1      42.481  28.263  28.305  1.00  0.00     0.074 A 
ATOM     37  C   UNL A   1      40.114  28.887  28.617  1.00  0.00     0.049 A 
ATOM     38  N   UNL A   1      43.083  29.329  28.769  1.00  0.00    -0.248 NA
ATOM     39  C   UNL A   1      43.395  27.204  27.851  1.00  0.00     0.031 C 
ATOM     40  C   UNL A   1      38.661  28.705  28.630  1.00  0.00     0.029 A 
ATOM     41  N   UNL A   1      40.292  30.152  29.122  1.00  0.00    -0.354 N 
ATOM     42  C   UNL A   1      44.442  29.060  28.682  1.00  0.00     0.074 A 
ATOM     43  C   UNL A   1      44.577  27.716  28.164  1.00  0.00     0.031 C 
ATOM     44  C   UNL A   1      38.081  29.820  29.103  1.00  0.00     0.029 A 
ATOM     45  C   UNL A   1      39.119  30.783  29.458  1.00  0.00     0.049 A 
ATOM     46  H   UNL A   1      41.178  30.568  29.233  1.00  0.00     0.167 HD
ATOM     47  C   UNL A   1      45.483  29.872  28.986  1.00  0.00     0.037 A 
ATOM     48  C   UNL A   1      38.903  31.997  30.000  1.00  0.00     0.037 A 
ATOM     49  C   UNL A   1      45.350  31.220  29.469  1.00  0.00     0.049 A 
ATOM     50  C   UNL A   1      40.077  32.884  30.311  1.00  0.00     0.074 A 
ATOM     51  C   UNL A   1      46.346  32.145  29.730  1.00  0.00     0.029 A 
ATOM     52  N   UNL A   1      44.144  31.837  29.763  1.00  0.00    -0.354 N 
ATOM     53  N   UNL A   1      41.356  32.648  30.154  1.00  0.00    -0.248 NA
ATOM     54  C   UNL A   1      39.775  34.210  30.871  1.00  0.00     0.031 C 
ATOM     55  C   UNL A   1      45.744  33.311  30.216  1.00  0.00     0.029 A 
ATOM     56  C   UNL A   1      44.371  33.125  30.221  1.00  0.00     0.049 A 
ATOM     57  H   UNL A   1      43.257  31.422  29.661  1.00  0.00     0.167 HD
ATOM     58  C   UNL A   1      42.010  33.798  30.573  1.00  0.00     0.074 A 
ATOM     59  C   UNL A   1      40.987  34.738  30.980  1.00  0.00     0.031 C 
ATOM     60  C   UNL A   1      43.341  34.050  30.617  1.00  0.00     0.037 A 
BRANCH  47  61
ATOM     61  C   UNL A   1      46.865  29.319  28.795  1.00  0.00     0.064 A 
ATOM     62  C   UNL A   1      47.547  28.676  29.839  1.00  0.00     0.173 A 
ATOM     63  C   UNL A   1      47.501  29.407  27.549  1.00  0.00     0.173 A 
ATOM     64  F   UNL A   1      46.985  28.578  31.053  1.00  0.00    -0.203 F 
ATOM     65  C   UNL A   1      48.828  28.167  29.649  1.00  0.00     0.198 A 
ATOM     66  C   UNL A   1      48.773  28.872  27.356  1.00  0.00     0.198 A 
ATOM     67  F   UNL A   1      46.890  30.008  26.517  1.00  0.00    -0.203 F 
ATOM     68  F   UNL A   1      49.480  27.600  30.674  1.00  0.00    -0.200 F 
ATOM     69  C   UNL A   1      49.438  28.260  28.408  1.00  0.00     0.200 A 
ATOM     70  F   UNL A   1      49.356  28.953  26.152  1.00  0.00    -0.200 F 
ATOM     71  F   UNL A   1      50.670  27.766  28.226  1.00  0.00    -0.200 F 
ENDBRANCH  47  61
BRANCH  48  72
ATOM     72  C   UNL A   1      37.515  32.454  30.261  1.00  0.00     0.064 A 
ATOM     73  C   UNL A   1      36.801  33.168  29.288  1.00  0.00     0.173 A 
ATOM     74  C   UNL A   1      36.875  32.191  31.481  1.00  0.00     0.173 A 
ATOM     75  F   UNL A   1      37.380  33.462  28.115  1.00  0.00    -0.203 F 
ATOM     76  C   UNL A   1      35.503  33.614  29.532  1.00  0.00     0.198 A 
ATOM     77  C   UNL A   1      35.570  32.617  31.714  1.00  0.00     0.198 A 
ATOM     78  F   UNL A   1      37.516  31.508  32.440  1.00  0.00    -0.203 F 
ATOM     79  F   UNL A   1      34.856  34.328  28.600  1.00  0.00    -0.200 F 
ATOM     80  C   UNL A   1      34.887  33.334  30.742  1.00  0.00     0.200 A 
ATOM     81  F   UNL A   1      34.973  32.333  32.879  1.00  0.00    -0.200 F 
ATOM     82  F   UNL A   1      33.638  33.759  30.974  1.00  0.00    -0.200 F 
ENDBRANCH  48  72
BRANCH  60  83
ATOM     83  C   UNL A   1      43.767  35.405  31.099  1.00  0.00     0.064 A 
ATOM     84  C   UNL A   1      43.869  36.494  30.222  1.00  0.00     0.173 A 
ATOM     85  C   UNL A   1      44.032  35.625  32.459  1.00  0.00     0.173 A 
ATOM     86  F   UNL A   1      43.642  36.329  28.911  1.00  0.00    -0.203 F 
ATOM     87  C   UNL A   1      44.238  37.754  30.689  1.00  0.00     0.198 A 
ATOM     88  C   UNL A   1      44.376  36.891  32.925  1.00  0.00     0.198 A 
ATOM     89  F   UNL A   1      43.943  34.615  33.337  1.00  0.00    -0.203 F 
ATOM     90  F   UNL A   1      44.366  38.773  29.828  1.00  0.00    -0.200 F 
ATOM     91  C   UNL A   1      44.483  37.952  32.039  1.00  0.00     0.200 A 
ATOM     92  F   UNL A   1      44.602  37.083  34.231  1.00  0.00    -0.200 F 
ATOM     93  F   UNL A   1      44.830  39.167  32.487  1.00  0.00    -0.200 F 
ENDBRANCH  60  83
ENDBRANCH  34  35
ENDBRANCH  26  29
ENDBRANCH  24  25
ENDBRANCH  23  24
ENDBRANCH   1  23
TORSDOF 15
ENDMDL
MODEL 2
REMARK VINA RESULT:     -10.4      6.251     11.575
REMARK SMILES Cc1cc(SC[C@H]([NH3+])C(=O)NCCCNC(=O)c2ccc(-c3c4nc(c(-c5c(F)c(F)c(F)c(F)c5F)c5ccc([nH]5)c(-c5c(F)c(F)c(F)c(F)c5F)c5nc(c(-c6c(F)c(F)c(F)c(F)c6F)c6ccc3[nH]6)C=C5)C=C4)cc2)ccc1N
REMARK SMILES IDX 12 1 11 2 9 3 10 4 7 6 6 7 5 8 4 9 1 10 2 11 3 12 83 13
REMARK SMILES IDX 82 14 81 15 84 16 8 19 13 23 14 24 15 25 16 26 17 28 18 29
REMARK SMILES IDX 19 30 80 31 20 32 79 33 21 34 22 35 23 36 73 37 24 38 78 39
REMARK SMILES IDX 72 40 74 41 25 42 77 43 71 44 70 45 26 47 58 48 38 49 57 50
REMARK SMILES IDX 39 51 42 52 56 53 75 54 40 55 41 56 55 58 76 59 43 60 27 61
REMARK SMILES IDX 28 62 36 63 29 64 30 65 34 66 37 67 31 68 32 69 35 70 33 71
REMARK SMILES IDX 59 72 60 73 68 74 61 75 62 76 66 77 69 78 63 79 64 80 67 81
REMARK SMILES IDX 65 82 44 83 45 84 53 85 46 86 47 87 51 88 54 89 48 90 49 91
REMARK SMILES IDX 52 92 50 93
REMARK H PARENT 11 5 84 17 84 18 8 20 8 21 8 22 15 27 74 46 42 57
REMARK Flexibility Score: inf
ROOT
ATOM      1  C   UNL A   1      32.016  30.861  26.147  1.00  0.00     0.118 C 
ENDROOT
BRANCH   1   2
ATOM      2  N   UNL A   1      33.127  30.115  26.712  1.00  0.00    -0.351 N 
ATOM      3  C   UNL A   1      33.821  29.057  26.192  1.00  0.00     0.279 C 
ATOM      4  O   UNL A   1      34.768  28.627  26.855  1.00  0.00    -0.268 OA
ATOM      5  H   UNL A   1      33.425  30.414  27.601  1.00  0.00     0.163 HD
BRANCH   3   6
ATOM      6  C   UNL A   1      33.402  28.371  24.873  1.00  0.00     0.281 C 
BRANCH   6   7
ATOM      7  C   UNL A   1      33.227  26.842  24.938  1.00  0.00     0.150 C 
BRANCH   7   8
ATOM      8  S   UNL A   1      32.310  26.083  23.536  1.00  0.00    -0.119 SA
BRANCH   8   9
ATOM      9  C   UNL A   1      30.743  26.933  23.432  1.00  0.00     0.008 A 
ATOM     10  C   UNL A   1      29.107  30.037  21.964  1.00  0.00     0.046 C 
ATOM     11  C   UNL A   1      29.238  28.722  22.681  1.00  0.00    -0.027 A 
ATOM     12  C   UNL A   1      30.530  28.190  22.874  1.00  0.00     0.020 A 
ATOM     13  C   UNL A   1      28.126  28.017  23.158  1.00  0.00     0.034 A 
ATOM     14  C   UNL A   1      28.344  26.804  23.820  1.00  0.00     0.027 A 
ATOM     15  C   UNL A   1      29.627  26.256  23.928  1.00  0.00     0.017 A 
BRANCH  13  16
ATOM     16  N   UNL A   1      26.843  28.538  23.103  1.00  0.00    -0.399 N 
ATOM     17  H   UNL A   1      26.601  29.175  22.392  1.00  0.00     0.156 HD
ATOM     18  H   UNL A   1      26.174  28.272  23.774  1.00  0.00     0.156 HD
ENDBRANCH  13  16
ENDBRANCH   8   9
ENDBRANCH   7   8
ENDBRANCH   6   7
BRANCH   6  19
ATOM     19  N   UNL A   1      34.398  28.761  23.835  1.00  0.00    -0.347 N 
ATOM     20  H   UNL A   1      34.153  28.322  22.948  1.00  0.00     0.345 HD
ATOM     21  H   UNL A   1      35.327  28.453  24.124  1.00  0.00     0.345 HD
ATOM     22  H   UNL A   1      34.395  29.775  23.725  1.00  0.00     0.345 HD
ENDBRANCH   6  19
ENDBRANCH   3   6
ENDBRANCH   1   2
BRANCH   1  23
ATOM     23  C   UNL A   1      31.603  32.046  27.008  1.00  0.00     0.042 C 
BRANCH  23  24
ATOM     24  C   UNL A   1      32.770  32.912  27.473  1.00  0.00     0.118 C 
BRANCH  24  25
ATOM     25  N   UNL A   1      32.417  34.305  27.723  1.00  0.00    -0.352 N 
ATOM     26  C   UNL A   1      32.992  35.184  28.618  1.00  0.00     0.251 C 
ATOM     27  H   UNL A   1      31.676  34.664  27.185  1.00  0.00     0.163 HD
ATOM     28  O   UNL A   1      32.529  36.305  28.788  1.00  0.00    -0.269 OA
BRANCH  26  29
ATOM     29  C   UNL A   1      34.153  34.735  29.414  1.00  0.00     0.039 A 
ATOM     30  C   UNL A   1      33.939  34.236  30.701  1.00  0.00     0.014 A 
ATOM     31  C   UNL A   1      35.430  34.715  28.847  1.00  0.00     0.014 A 
ATOM     32  C   UNL A   1      34.989  33.613  31.380  1.00  0.00     0.010 A 
ATOM     33  C   UNL A   1      36.454  34.031  29.494  1.00  0.00     0.010 A 
ATOM     34  C   UNL A   1      36.238  33.454  30.756  1.00  0.00    -0.014 A 
BRANCH  34  35
ATOM     35  C   UNL A   1      37.316  32.644  31.381  1.00  0.00     0.031 A 
ATOM     36  C   UNL A   1      37.820  32.984  32.753  1.00  0.00     0.074 A 
ATOM     37  C   UNL A   1      37.906  31.662  30.671  1.00  0.00     0.049 A 
ATOM     38  N   UNL A   1      38.816  32.460  33.422  1.00  0.00    -0.248 NA
ATOM     39  C   UNL A   1      37.132  34.078  33.455  1.00  0.00     0.031 C 
ATOM     40  C   UNL A   1      37.553  31.274  29.304  1.00  0.00     0.029 A 
ATOM     41  N   UNL A   1      38.944  30.822  30.994  1.00  0.00    -0.354 N 
ATOM     42  C   UNL A   1      38.887  33.174  34.611  1.00  0.00     0.074 A 
ATOM     43  C   UNL A   1      37.865  34.196  34.553  1.00  0.00     0.031 C 
ATOM     44  C   UNL A   1      38.347  30.265  28.913  1.00  0.00     0.029 A 
ATOM     45  C   UNL A   1      39.288  29.956  29.986  1.00  0.00     0.049 A 
ATOM     46  H   UNL A   1      39.399  30.840  31.868  1.00  0.00     0.167 HD
ATOM     47  C   UNL A   1      39.716  32.979  35.663  1.00  0.00     0.037 A 
ATOM     48  C   UNL A   1      40.258  29.023  29.928  1.00  0.00     0.037 A 
ATOM     49  C   UNL A   1      40.710  31.941  35.735  1.00  0.00     0.049 A 
ATOM     50  C   UNL A   1      41.153  28.815  31.118  1.00  0.00     0.074 A 
ATOM     51  C   UNL A   1      41.544  31.617  36.791  1.00  0.00     0.029 A 
ATOM     52  N   UNL A   1      41.005  31.059  34.707  1.00  0.00    -0.354 N 
ATOM     53  N   UNL A   1      41.161  29.447  32.266  1.00  0.00    -0.248 NA
ATOM     54  C   UNL A   1      42.172  27.761  31.005  1.00  0.00     0.031 C 
ATOM     55  C   UNL A   1      42.368  30.560  36.389  1.00  0.00     0.029 A 
ATOM     56  C   UNL A   1      42.021  30.202  35.096  1.00  0.00     0.049 A 
ATOM     57  H   UNL A   1      40.558  31.044  33.830  1.00  0.00     0.167 HD
ATOM     58  C   UNL A   1      42.165  28.855  33.019  1.00  0.00     0.074 A 
ATOM     59  C   UNL A   1      42.738  27.805  32.203  1.00  0.00     0.031 C 
ATOM     60  C   UNL A   1      42.576  29.158  34.275  1.00  0.00     0.037 A 
BRANCH  47  61
ATOM     61  C   UNL A   1      39.575  33.908  36.833  1.00  0.00     0.064 A 
ATOM     62  C   UNL A   1      38.804  33.563  37.953  1.00  0.00     0.173 A 
ATOM     63  C   UNL A   1      40.239  35.143  36.845  1.00  0.00     0.173 A 
ATOM     64  F   UNL A   1      38.140  32.399  37.983  1.00  0.00    -0.203 F 
ATOM     65  C   UNL A   1      38.682  34.434  39.032  1.00  0.00     0.198 A 
ATOM     66  C   UNL A   1      40.136  36.000  37.939  1.00  0.00     0.198 A 
ATOM     67  F   UNL A   1      40.993  35.518  35.801  1.00  0.00    -0.203 F 
ATOM     68  F   UNL A   1      37.901  34.105  40.071  1.00  0.00    -0.200 F 
ATOM     69  C   UNL A   1      39.351  35.648  39.027  1.00  0.00     0.200 A 
ATOM     70  F   UNL A   1      40.793  37.168  37.937  1.00  0.00    -0.200 F 
ATOM     71  F   UNL A   1      39.235  36.483  40.068  1.00  0.00    -0.200 F 
ENDBRANCH  47  61
BRANCH  48  72
ATOM     72  C   UNL A   1      40.418  28.198  28.704  1.00  0.00     0.064 A 
ATOM     73  C   UNL A   1      41.239  28.627  27.652  1.00  0.00     0.173 A 
ATOM     74  C   UNL A   1      39.758  26.969  28.559  1.00  0.00     0.173 A 
ATOM     75  F   UNL A   1      41.873  29.806  27.737  1.00  0.00    -0.203 F 
ATOM     76  C   UNL A   1      41.382  27.865  26.494  1.00  0.00     0.198 A 
ATOM     77  C   UNL A   1      39.920  26.197  27.411  1.00  0.00     0.198 A 
ATOM     78  F   UNL A   1      38.965  26.513  29.540  1.00  0.00    -0.203 F 
ATOM     79  F   UNL A   1      42.143  28.317  25.487  1.00  0.00    -0.200 F 
ATOM     80  C   UNL A   1      40.727  26.649  26.377  1.00  0.00     0.200 A 
ATOM     81  F   UNL A   1      39.296  25.016  27.307  1.00  0.00    -0.200 F 
ATOM     82  F   UNL A   1      40.868  25.914  25.265  1.00  0.00    -0.200 F 
ENDBRANCH  48  72
BRANCH  60  83
ATOM     83  C   UNL A   1      43.682  28.326  34.854  1.00  0.00     0.064 A 
ATOM     84  C   UNL A   1      45.024  28.718  34.750  1.00  0.00     0.173 A 
ATOM     85  C   UNL A   1      43.390  27.150  35.560  1.00  0.00     0.173 A 
ATOM     86  F   UNL A   1      45.353  29.826  34.070  1.00  0.00    -0.203 F 
ATOM     87  C   UNL A   1      46.037  27.950  35.319  1.00  0.00     0.198 A 
ATOM     88  C   UNL A   1      44.404  26.399  36.148  1.00  0.00     0.198 A 
ATOM     89  F   UNL A   1      42.121  26.737  35.691  1.00  0.00    -0.203 F 
ATOM     90  F   UNL A   1      47.317  28.323  35.175  1.00  0.00    -0.200 F 
ATOM     91  C   UNL A   1      45.726  26.797  36.023  1.00  0.00     0.200 A 
ATOM     92  F   UNL A   1      44.101  25.290  36.838  1.00  0.00    -0.200 F 
ATOM     93  F   UNL A   1      46.703  26.064  36.576  1.00  0.00    -0.200 F 
ENDBRANCH  60  83
ENDBRANCH  34  35
ENDBRANCH  26  29
ENDBRANCH  24  25
ENDBRANCH  23  24
ENDBRANCH   1  23
TORSDOF 15
ENDMDL
MODEL 3
REMARK VINA RESULT:     -10.4      1.328      2.270
REMARK SMILES Cc1cc(SC[C@H]([NH3+])C(=O)NCCCNC(=O)c2ccc(-c3c4nc(c(-c5c(F)c(F)c(F)c(F)c5F)c5ccc([nH]5)c(-c5c(F)c(F)c(F)c(F)c5F)c5nc(c(-c6c(F)c(F)c(F)c(F)c6F)c6ccc3[nH]6)C=C5)C=C4)cc2)ccc1N
REMARK SMILES IDX 12 1 11 2 9 3 10 4 7 6 6 7 5 8 4 9 1 10 2 11 3 12 83 13
REMARK SMILES IDX 82 14 81 15 84 16 8 19 13 23 14 24 15 25 16 26 17 28 18 29
REMARK SMILES IDX 19 30 80 31 20 32 79 33 21 34 22 35 23 36 73 37 24 38 78 39
REMARK SMILES IDX 72 40 74 41 25 42 77 43 71 44 70 45 26 47 58 48 38 49 57 50
REMARK SMILES IDX 39 51 42 52 56 53 75 54 40 55 41 56 55 58 76 59 43 60 27 61
REMARK SMILES IDX 28 62 36 63 29 64 30 65 34 66 37 67 31 68 32 69 35 70 33 71
REMARK SMILES IDX 59 72 60 73 68 74 61 75 62 76 66 77 69 78 63 79 64 80 67 81
REMARK SMILES IDX 65 82 44 83 45 84 53 85 46 86 47 87 51 88 54 89 48 90 49 91
REMARK SMILES IDX 52 92 50 93
REMARK H PARENT 11 5 84 17 84 18 8 20 8 21 8 22 15 27 74 46 42 57
REMARK Flexibility Score: inf
ROOT
ATOM      1  C   UNL A   1      42.425  20.371  26.168  1.00  0.00     0.118 C 
ENDROOT
BRANCH   1   2
ATOM      2  N   UNL A   1      42.957  19.471  25.159  1.00  0.00    -0.351 N 
ATOM      3  C   UNL A   1      44.254  19.240  24.793  1.00  0.00     0.279 C 
ATOM      4  O   UNL A   1      44.448  18.378  23.932  1.00  0.00    -0.268 OA
ATOM      5  H   UNL A   1      42.283  18.951  24.664  1.00  0.00     0.163 HD
BRANCH   3   6
ATOM      6  C   UNL A   1      45.427  20.067  25.365  1.00  0.00     0.281 C 
BRANCH   6   7
ATOM      7  C   UNL A   1      45.992  21.160  24.439  1.00  0.00     0.150 C 
BRANCH   7   8
ATOM      8  S   UNL A   1      45.063  22.746  24.418  1.00  0.00    -0.119 SA
BRANCH   8   9
ATOM      9  C   UNL A   1      44.935  23.286  26.116  1.00  0.00     0.008 A 
ATOM     10  C   UNL A   1      42.504  23.445  29.037  1.00  0.00     0.046 C 
ATOM     11  C   UNL A   1      43.789  23.577  28.268  1.00  0.00    -0.027 A 
ATOM     12  C   UNL A   1      43.776  23.292  26.886  1.00  0.00     0.020 A 
ATOM     13  C   UNL A   1      44.987  23.971  28.877  1.00  0.00     0.034 A 
ATOM     14  C   UNL A   1      46.133  24.074  28.083  1.00  0.00     0.027 A 
ATOM     15  C   UNL A   1      46.115  23.708  26.732  1.00  0.00     0.017 A 
BRANCH  13  16
ATOM     16  N   UNL A   1      45.042  24.375  30.202  1.00  0.00    -0.399 N 
ATOM     17  H   UNL A   1      45.158  23.706  30.916  1.00  0.00     0.156 HD
ATOM     18  H   UNL A   1      44.966  25.329  30.429  1.00  0.00     0.156 HD
ENDBRANCH  13  16
ENDBRANCH   8   9
ENDBRANCH   7   8
ENDBRANCH   6   7
BRANCH   6  19
ATOM     19  N   UNL A   1      46.486  19.104  25.780  1.00  0.00    -0.347 N 
ATOM     20  H   UNL A   1      47.365  19.603  25.913  1.00  0.00     0.345 HD
ATOM     21  H   UNL A   1      46.603  18.395  25.055  1.00  0.00     0.345 HD
ATOM     22  H   UNL A   1      46.214  18.655  26.654  1.00  0.00     0.345 HD
ENDBRANCH   6  19
ENDBRANCH   3   6
ENDBRANCH   1   2
BRANCH   1  23
ATOM     23  C   UNL A   1      40.904  20.428  26.167  1.00  0.00     0.042 C 
BRANCH  23  24
ATOM     24  C   UNL A   1      40.331  21.712  26.760  1.00  0.00     0.118 C 
BRANCH  24  25
ATOM     25  N   UNL A   1      39.182  22.243  26.035  1.00  0.00    -0.352 N 
ATOM     26  C   UNL A   1      38.693  23.533  26.037  1.00  0.00     0.251 C 
ATOM     27  H   UNL A   1      38.695  21.600  25.472  1.00  0.00     0.163 HD
ATOM     28  O   UNL A   1      37.657  23.817  25.448  1.00  0.00    -0.269 OA
BRANCH  26  29
ATOM     29  C   UNL A   1      39.411  24.568  26.809  1.00  0.00     0.039 A 
ATOM     30  C   UNL A   1      40.281  25.430  26.139  1.00  0.00     0.014 A 
ATOM     31  C   UNL A   1      39.145  24.743  28.170  1.00  0.00     0.014 A 
ATOM     32  C   UNL A   1      40.800  26.540  26.810  1.00  0.00     0.010 A 
ATOM     33  C   UNL A   1      39.604  25.887  28.815  1.00  0.00     0.010 A 
ATOM     34  C   UNL A   1      40.416  26.808  28.135  1.00  0.00    -0.014 A 
BRANCH  34  35
ATOM     35  C   UNL A   1      40.811  28.071  28.812  1.00  0.00     0.031 A 
ATOM     36  C   UNL A   1      42.205  28.244  29.340  1.00  0.00     0.074 A 
ATOM     37  C   UNL A   1      39.882  29.022  29.038  1.00  0.00     0.049 A 
ATOM     38  N   UNL A   1      42.707  29.227  30.044  1.00  0.00    -0.248 NA
ATOM     39  C   UNL A   1      43.153  27.154  29.066  1.00  0.00     0.031 C 
ATOM     40  C   UNL A   1      38.477  28.948  28.633  1.00  0.00     0.029 A 
ATOM     41  N   UNL A   1      39.977  30.232  29.682  1.00  0.00    -0.354 N 
ATOM     42  C   UNL A   1      44.020  28.864  30.313  1.00  0.00     0.074 A 
ATOM     43  C   UNL A   1      44.224  27.553  29.737  1.00  0.00     0.031 C 
ATOM     44  C   UNL A   1      37.847  30.068  29.023  1.00  0.00     0.029 A 
ATOM     45  C   UNL A   1      38.792  30.923  29.735  1.00  0.00     0.049 A 
ATOM     46  H   UNL A   1      40.816  30.571  30.070  1.00  0.00     0.167 HD
ATOM     47  C   UNL A   1      44.974  29.572  30.963  1.00  0.00     0.037 A 
ATOM     48  C   UNL A   1      38.497  32.110  30.299  1.00  0.00     0.037 A 
ATOM     49  C   UNL A   1      44.782  30.890  31.507  1.00  0.00     0.049 A 
ATOM     50  C   UNL A   1      39.580  32.883  31.000  1.00  0.00     0.074 A 
ATOM     51  C   UNL A   1      45.711  31.717  32.113  1.00  0.00     0.029 A 
ATOM     52  N   UNL A   1      43.576  31.573  31.508  1.00  0.00    -0.354 N 
ATOM     53  N   UNL A   1      40.838  32.563  31.183  1.00  0.00    -0.248 NA
ATOM     54  C   UNL A   1      39.203  34.185  31.569  1.00  0.00     0.031 C 
ATOM     55  C   UNL A   1      45.059  32.887  32.514  1.00  0.00     0.029 A 
ATOM     56  C   UNL A   1      43.732  32.805  32.122  1.00  0.00     0.049 A 
ATOM     57  H   UNL A   1      42.733  31.235  31.129  1.00  0.00     0.167 HD
ATOM     58  C   UNL A   1      41.407  33.628  31.865  1.00  0.00     0.074 A 
ATOM     59  C   UNL A   1      40.361  34.612  32.054  1.00  0.00     0.031 C 
ATOM     60  C   UNL A   1      42.683  33.776  32.298  1.00  0.00     0.037 A 
BRANCH  47  61
ATOM     61  C   UNL A   1      46.323  28.931  31.114  1.00  0.00     0.064 A 
ATOM     62  C   UNL A   1      47.317  29.078  30.136  1.00  0.00     0.173 A 
ATOM     63  C   UNL A   1      46.633  28.189  32.262  1.00  0.00     0.173 A 
ATOM     64  F   UNL A   1      47.063  29.768  29.014  1.00  0.00    -0.203 F 
ATOM     65  C   UNL A   1      48.564  28.479  30.288  1.00  0.00     0.198 A 
ATOM     66  C   UNL A   1      47.892  27.614  32.424  1.00  0.00     0.198 A 
ATOM     67  F   UNL A   1      45.720  28.023  33.230  1.00  0.00    -0.203 F 
ATOM     68  F   UNL A   1      49.482  28.592  29.318  1.00  0.00    -0.200 F 
ATOM     69  C   UNL A   1      48.853  27.754  31.433  1.00  0.00     0.200 A 
ATOM     70  F   UNL A   1      48.173  26.922  33.537  1.00  0.00    -0.200 F 
ATOM     71  F   UNL A   1      50.056  27.181  31.580  1.00  0.00    -0.200 F 
ENDBRANCH  47  61
BRANCH  48  72
ATOM     72  C   UNL A   1      37.117  32.651  30.206  1.00  0.00     0.064 A 
ATOM     73  C   UNL A   1      36.188  32.427  31.232  1.00  0.00     0.173 A 
ATOM     74  C   UNL A   1      36.699  33.400  29.097  1.00  0.00     0.173 A 
ATOM     75  F   UNL A   1      36.537  31.697  32.302  1.00  0.00    -0.203 F 
ATOM     76  C   UNL A   1      34.887  32.918  31.144  1.00  0.00     0.198 A 
ATOM     77  C   UNL A   1      35.405  33.911  29.021  1.00  0.00     0.198 A 
ATOM     78  F   UNL A   1      37.553  33.645  28.092  1.00  0.00    -0.203 F 
ATOM     79  F   UNL A   1      34.007  32.657  32.120  1.00  0.00    -0.200 F 
ATOM     80  C   UNL A   1      34.499  33.664  30.042  1.00  0.00     0.200 A 
ATOM     81  F   UNL A   1      35.037  34.642  27.961  1.00  0.00    -0.200 F 
ATOM     82  F   UNL A   1      33.249  34.141  29.959  1.00  0.00    -0.200 F 
ENDBRANCH  48  72
BRANCH  60  83
ATOM     83  C   UNL A   1      43.027  35.058  32.996  1.00  0.00     0.064 A 
ATOM     84  C   UNL A   1      43.490  36.175  32.286  1.00  0.00     0.173 A 
ATOM     85  C   UNL A   1      42.847  35.184  34.381  1.00  0.00     0.173 A 
ATOM     86  F   UNL A   1      43.693  36.098  30.963  1.00  0.00    -0.203 F 
ATOM     87  C   UNL A   1      43.778  37.369  32.944  1.00  0.00     0.198 A 
ATOM     88  C   UNL A   1      43.112  36.386  35.031  1.00  0.00     0.198 A 
ATOM     89  F   UNL A   1      42.402  34.144  35.102  1.00  0.00    -0.203 F 
ATOM     90  F   UNL A   1      44.256  38.413  32.253  1.00  0.00    -0.200 F 
ATOM     91  C   UNL A   1      43.581  37.475  34.312  1.00  0.00     0.200 A 
ATOM     92  F   UNL A   1      42.913  36.490  36.352  1.00  0.00    -0.200 F 
ATOM     93  F   UNL A   1      43.852  38.628  34.942  1.00  0.00    -0.200 F 
ENDBRANCH  60  83
ENDBRANCH  34  35
ENDBRANCH  26  29
ENDBRANCH  24  25
ENDBRANCH  23  24
ENDBRANCH   1  23
TORSDOF 15
ENDMDL
