MODEL 1
REMARK VINA RESULT:     -11.9      0.000      0.000
REMARK SMILES CC1(C)CCSC[C@@]1(Nc1ccccc1Br)C(=O)NCCCNC(=O)c1ccc(-c2c3nc(c(-c4c(F)c(F)c(F)c(F)c4F)c4ccc([nH]4)c(-c4c(F)c(F)c(F)c(F)c4F)c4nc(c(-c5c(F)c(F)c(F)c(F)c5F)c5ccc2[nH]5)C=C4)C=C3)cc1
REMARK SMILES IDX 21 1 20 2 19 3 17 4 18 5 8 7 1 8 2 9 3 10 4 11 5 12 7 13
REMARK SMILES IDX 6 14 9 15 10 17 11 18 15 19 12 20 14 21 16 22 13 23 22 24
REMARK SMILES IDX 23 25 24 26 25 28 26 29 27 30 88 31 28 32 87 33 29 34 30 35
REMARK SMILES IDX 31 36 81 37 32 38 86 39 80 40 82 41 33 42 85 43 79 44 78 45
REMARK SMILES IDX 34 47 66 48 46 49 65 50 47 51 50 52 64 53 83 54 48 55 49 56
REMARK SMILES IDX 63 58 84 59 51 60 35 61 36 62 44 63 37 64 38 65 42 66 45 67
REMARK SMILES IDX 39 68 40 69 43 70 41 71 67 72 68 73 76 74 69 75 70 76 74 77
REMARK SMILES IDX 77 78 71 79 72 80 75 81 73 82 52 83 53 84 61 85 54 86 55 87
REMARK SMILES IDX 59 88 62 89 56 90 57 91 60 92 58 93
REMARK H PARENT 19 6 9 16 23 27 82 46 50 57
REMARK Flexibility Score: inf
ROOT
ATOM      1  C   UNL A   1      31.609  28.915  26.599  1.00  0.00     0.042 C 
ENDROOT
BRANCH   1   2
ATOM      2  C   UNL A   1      31.944  27.455  26.892  1.00  0.00     0.117 C 
BRANCH   2   3
ATOM      3  N   UNL A   1      33.243  27.003  26.406  1.00  0.00    -0.354 N 
ATOM      4  C   UNL A   1      33.657  25.900  25.704  1.00  0.00     0.247 C 
ATOM      5  O   UNL A   1      34.852  25.901  25.375  1.00  0.00    -0.272 OA
ATOM      6  H   UNL A   1      33.978  27.619  26.629  1.00  0.00     0.163 HD
BRANCH   4   7
ATOM      7  C   UNL A   1      32.710  24.738  25.243  1.00  0.00     0.131 C 
ATOM      8  C   UNL A   1      34.532  23.004  26.032  1.00  0.00     0.014 C 
ATOM      9  C   UNL A   1      33.629  23.459  24.846  1.00  0.00    -0.002 C 
ATOM     10  C   UNL A   1      34.605  23.732  23.679  1.00  0.00     0.014 C 
ATOM     11  C   UNL A   1      32.770  22.231  24.407  1.00  0.00     0.020 C 
ATOM     12  C   UNL A   1      31.779  21.696  25.431  1.00  0.00     0.070 C 
ATOM     13  C   UNL A   1      31.786  24.291  26.423  1.00  0.00     0.108 C 
ATOM     14  S   UNL A   1      30.611  22.944  26.005  1.00  0.00    -0.159 SA
BRANCH   7  15
ATOM     15  N   UNL A   1      31.856  25.149  24.090  1.00  0.00    -0.369 N 
ATOM     16  H   UNL A   1      31.665  24.410  23.468  1.00  0.00     0.161 HD
BRANCH  15  17
ATOM     17  C   UNL A   1      31.271  26.352  23.702  1.00  0.00     0.049 A 
ATOM     18  C   UNL A   1      29.866  26.394  23.909  1.00  0.00     0.027 A 
ATOM     19  C   UNL A   1      31.810  27.480  23.041  1.00  0.00     0.041 A 
ATOM     20  C   UNL A   1      29.050  27.456  23.502  1.00  0.00     0.002 A 
ATOM     21  C   UNL A   1      30.981  28.554  22.637  1.00  0.00     0.018 A 
ATOM     22  Br  UNL A   1      33.604  27.741  22.463  1.00  0.00    -0.049 Br
ATOM     23  C   UNL A   1      29.611  28.541  22.859  1.00  0.00     0.001 A 
ENDBRANCH  15  17
ENDBRANCH   7  15
ENDBRANCH   4   7
ENDBRANCH   2   3
ENDBRANCH   1   2
BRANCH   1  24
ATOM     24  C   UNL A   1      32.740  29.745  26.013  1.00  0.00     0.118 C 
BRANCH  24  25
ATOM     25  N   UNL A   1      32.595  31.158  26.326  1.00  0.00    -0.352 N 
ATOM     26  C   UNL A   1      33.277  31.938  27.225  1.00  0.00     0.251 C 
ATOM     27  H   UNL A   1      31.900  31.628  25.812  1.00  0.00     0.163 HD
ATOM     28  O   UNL A   1      32.835  33.058  27.498  1.00  0.00    -0.269 OA
BRANCH  26  29
ATOM     29  C   UNL A   1      34.523  31.475  27.887  1.00  0.00     0.039 A 
ATOM     30  C   UNL A   1      34.571  30.163  28.375  1.00  0.00     0.014 A 
ATOM     31  C   UNL A   1      35.606  32.329  28.119  1.00  0.00     0.014 A 
ATOM     32  C   UNL A   1      35.703  29.703  29.057  1.00  0.00     0.010 A 
ATOM     33  C   UNL A   1      36.763  31.850  28.740  1.00  0.00     0.010 A 
ATOM     34  C   UNL A   1      36.817  30.537  29.233  1.00  0.00    -0.014 A 
BRANCH  34  35
ATOM     35  C   UNL A   1      38.021  30.064  29.969  1.00  0.00     0.031 A 
ATOM     36  C   UNL A   1      38.286  30.537  31.375  1.00  0.00     0.074 A 
ATOM     37  C   UNL A   1      38.893  29.226  29.374  1.00  0.00     0.049 A 
ATOM     38  N   UNL A   1      39.299  30.272  32.164  1.00  0.00    -0.248 NA
ATOM     39  C   UNL A   1      37.288  31.441  31.968  1.00  0.00     0.031 C 
ATOM     40  C   UNL A   1      38.770  28.706  28.013  1.00  0.00     0.029 A 
ATOM     41  N   UNL A   1      40.058  28.667  29.842  1.00  0.00    -0.354 N 
ATOM     42  C   UNL A   1      39.062  30.978  33.336  1.00  0.00     0.074 A 
ATOM     43  C   UNL A   1      37.837  31.722  33.140  1.00  0.00     0.031 C 
ATOM     44  C   UNL A   1      39.804  27.887  27.762  1.00  0.00     0.029 A 
ATOM     45  C   UNL A   1      40.680  27.849  28.931  1.00  0.00     0.049 A 
ATOM     46  H   UNL A   1      40.413  28.836  30.744  1.00  0.00     0.167 HD
ATOM     47  C   UNL A   1      39.786  30.989  34.482  1.00  0.00     0.037 A 
ATOM     48  C   UNL A   1      41.828  27.151  29.025  1.00  0.00     0.037 A 
ATOM     49  C   UNL A   1      40.993  30.234  34.694  1.00  0.00     0.049 A 
ATOM     50  C   UNL A   1      42.626  27.201  30.301  1.00  0.00     0.074 A 
ATOM     51  C   UNL A   1      41.778  30.161  35.833  1.00  0.00     0.029 A 
ATOM     52  N   UNL A   1      41.589  29.418  33.745  1.00  0.00    -0.354 N 
ATOM     53  N   UNL A   1      42.368  27.840  31.414  1.00  0.00    -0.248 NA
ATOM     54  C   UNL A   1      43.874  26.423  30.331  1.00  0.00     0.031 C 
ATOM     55  C   UNL A   1      42.866  29.323  35.563  1.00  0.00     0.029 A 
ATOM     56  C   UNL A   1      42.738  28.846  34.269  1.00  0.00     0.049 A 
ATOM     57  H   UNL A   1      41.247  29.267  32.834  1.00  0.00     0.167 HD
ATOM     58  C   UNL A   1      43.401  27.521  32.285  1.00  0.00     0.074 A 
ATOM     59  C   UNL A   1      44.285  26.620  31.576  1.00  0.00     0.031 C 
ATOM     60  C   UNL A   1      43.600  27.938  33.559  1.00  0.00     0.037 A 
BRANCH  47  61
ATOM     61  C   UNL A   1      39.282  31.841  35.609  1.00  0.00     0.064 A 
ATOM     62  C   UNL A   1      38.390  31.333  36.566  1.00  0.00     0.173 A 
ATOM     63  C   UNL A   1      39.730  33.161  35.763  1.00  0.00     0.173 A 
ATOM     64  F   UNL A   1      37.926  30.079  36.456  1.00  0.00    -0.203 F 
ATOM     65  C   UNL A   1      37.947  32.124  37.622  1.00  0.00     0.198 A 
ATOM     66  C   UNL A   1      39.305  33.940  36.837  1.00  0.00     0.198 A 
ATOM     67  F   UNL A   1      40.589  33.692  34.880  1.00  0.00    -0.203 F 
ATOM     68  F   UNL A   1      37.065  31.630  38.502  1.00  0.00    -0.200 F 
ATOM     69  C   UNL A   1      38.410  33.424  37.760  1.00  0.00     0.200 A 
ATOM     70  F   UNL A   1      39.761  35.193  36.977  1.00  0.00    -0.200 F 
ATOM     71  F   UNL A   1      37.989  34.180  38.784  1.00  0.00    -0.200 F 
ENDBRANCH  47  61
BRANCH  48  72
ATOM     72  C   UNL A   1      42.290  26.321  27.883  1.00  0.00     0.064 A 
ATOM     73  C   UNL A   1      43.226  26.818  26.965  1.00  0.00     0.173 A 
ATOM     74  C   UNL A   1      41.793  25.027  27.674  1.00  0.00     0.173 A 
ATOM     75  F   UNL A   1      43.710  28.060  27.111  1.00  0.00    -0.203 F 
ATOM     76  C   UNL A   1      43.630  26.061  25.869  1.00  0.00     0.198 A 
ATOM     77  C   UNL A   1      42.218  24.260  26.591  1.00  0.00     0.198 A 
ATOM     78  F   UNL A   1      40.897  24.504  28.524  1.00  0.00    -0.203 F 
ATOM     79  F   UNL A   1      44.490  26.579  24.980  1.00  0.00    -0.200 F 
ATOM     80  C   UNL A   1      43.130  24.781  25.685  1.00  0.00     0.200 A 
ATOM     81  F   UNL A   1      41.741  23.019  26.421  1.00  0.00    -0.200 F 
ATOM     82  F   UNL A   1      43.519  24.053  24.629  1.00  0.00    -0.200 F 
ENDBRANCH  48  72
BRANCH  60  83
ATOM     83  C   UNL A   1      44.796  27.396  34.283  1.00  0.00     0.064 A 
ATOM     84  C   UNL A   1      46.032  28.058  34.260  1.00  0.00     0.173 A 
ATOM     85  C   UNL A   1      44.695  26.217  35.037  1.00  0.00     0.173 A 
ATOM     86  F   UNL A   1      46.182  29.180  33.540  1.00  0.00    -0.203 F 
ATOM     87  C   UNL A   1      47.129  27.548  34.948  1.00  0.00     0.198 A 
ATOM     88  C   UNL A   1      45.787  25.723  35.743  1.00  0.00     0.198 A 
ATOM     89  F   UNL A   1      43.532  25.548  35.094  1.00  0.00    -0.203 F 
ATOM     90  F   UNL A   1      48.312  28.174  34.879  1.00  0.00    -0.200 F 
ATOM     91  C   UNL A   1      47.005  26.385  35.694  1.00  0.00     0.200 A 
ATOM     92  F   UNL A   1      45.663  24.603  36.471  1.00  0.00    -0.200 F 
ATOM     93  F   UNL A   1      48.061  25.897  36.359  1.00  0.00    -0.200 F 
ENDBRANCH  60  83
ENDBRANCH  34  35
ENDBRANCH  26  29
ENDBRANCH  24  25
ENDBRANCH   1  24
TORSDOF 12
ENDMDL
MODEL 2
REMARK VINA RESULT:     -11.9      0.215      1.616
REMARK SMILES CC1(C)CCSC[C@@]1(Nc1ccccc1Br)C(=O)NCCCNC(=O)c1ccc(-c2c3nc(c(-c4c(F)c(F)c(F)c(F)c4F)c4ccc([nH]4)c(-c4c(F)c(F)c(F)c(F)c4F)c4nc(c(-c5c(F)c(F)c(F)c(F)c5F)c5ccc2[nH]5)C=C4)C=C3)cc1
REMARK SMILES IDX 21 1 20 2 19 3 17 4 18 5 8 7 1 8 2 9 3 10 4 11 5 12 7 13
REMARK SMILES IDX 6 14 9 15 10 17 11 18 15 19 12 20 14 21 16 22 13 23 22 24
REMARK SMILES IDX 23 25 24 26 25 28 26 29 27 30 88 31 28 32 87 33 29 34 30 35
REMARK SMILES IDX 31 36 81 37 32 38 86 39 80 40 82 41 33 42 85 43 79 44 78 45
REMARK SMILES IDX 34 47 66 48 46 49 65 50 47 51 50 52 64 53 83 54 48 55 49 56
REMARK SMILES IDX 63 58 84 59 51 60 35 61 36 62 44 63 37 64 38 65 42 66 45 67
REMARK SMILES IDX 39 68 40 69 43 70 41 71 67 72 68 73 76 74 69 75 70 76 74 77
REMARK SMILES IDX 77 78 71 79 72 80 75 81 73 82 52 83 53 84 61 85 54 86 55 87
REMARK SMILES IDX 59 88 62 89 56 90 57 91 60 92 58 93
REMARK H PARENT 19 6 9 16 23 27 82 46 50 57
REMARK Flexibility Score: inf
ROOT
ATOM      1  C   UNL A   1      31.639  28.926  26.654  1.00  0.00     0.042 C 
ENDROOT
BRANCH   1   2
ATOM      2  C   UNL A   1      31.975  27.460  26.917  1.00  0.00     0.117 C 
BRANCH   2   3
ATOM      3  N   UNL A   1      33.276  27.019  26.425  1.00  0.00    -0.354 N 
ATOM      4  C   UNL A   1      33.692  25.929  25.705  1.00  0.00     0.247 C 
ATOM      5  O   UNL A   1      34.887  25.938  25.376  1.00  0.00    -0.272 OA
ATOM      6  H   UNL A   1      34.009  27.633  26.658  1.00  0.00     0.163 HD
BRANCH   4   7
ATOM      7  C   UNL A   1      32.748  24.773  25.224  1.00  0.00     0.131 C 
ATOM      8  C   UNL A   1      34.557  23.028  26.023  1.00  0.00     0.014 C 
ATOM      9  C   UNL A   1      33.669  23.495  24.830  1.00  0.00    -0.002 C 
ATOM     10  C   UNL A   1      34.660  23.773  23.676  1.00  0.00     0.014 C 
ATOM     11  C   UNL A   1      32.813  22.271  24.372  1.00  0.00     0.020 C 
ATOM     12  C   UNL A   1      31.809  21.732  25.380  1.00  0.00     0.070 C 
ATOM     13  C   UNL A   1      31.810  24.320  26.389  1.00  0.00     0.108 C 
ATOM     14  S   UNL A   1      30.636  22.978  25.948  1.00  0.00    -0.159 SA
BRANCH   7  15
ATOM     15  N   UNL A   1      31.910  25.194  24.064  1.00  0.00    -0.369 N 
ATOM     16  H   UNL A   1      31.763  24.471  23.411  1.00  0.00     0.161 HD
BRANCH  15  17
ATOM     17  C   UNL A   1      31.290  26.388  23.703  1.00  0.00     0.049 A 
ATOM     18  C   UNL A   1      29.881  26.375  23.889  1.00  0.00     0.027 A 
ATOM     19  C   UNL A   1      31.799  27.553  23.085  1.00  0.00     0.041 A 
ATOM     20  C   UNL A   1      29.035  27.421  23.501  1.00  0.00     0.002 A 
ATOM     21  C   UNL A   1      30.940  28.610  22.701  1.00  0.00     0.018 A 
ATOM     22  Br  UNL A   1      33.591  27.892  22.544  1.00  0.00    -0.049 Br
ATOM     23  C   UNL A   1      29.568  28.544  22.901  1.00  0.00     0.001 A 
ENDBRANCH  15  17
ENDBRANCH   7  15
ENDBRANCH   4   7
ENDBRANCH   2   3
ENDBRANCH   1   2
BRANCH   1  24
ATOM     24  C   UNL A   1      32.754  29.756  26.039  1.00  0.00     0.118 C 
BRANCH  24  25
ATOM     25  N   UNL A   1      32.622  31.168  26.362  1.00  0.00    -0.352 N 
ATOM     26  C   UNL A   1      33.326  31.940  27.250  1.00  0.00     0.251 C 
ATOM     27  H   UNL A   1      31.917  31.643  25.866  1.00  0.00     0.163 HD
ATOM     28  O   UNL A   1      32.895  33.061  27.539  1.00  0.00    -0.269 OA
BRANCH  26  29
ATOM     29  C   UNL A   1      34.584  31.469  27.882  1.00  0.00     0.039 A 
ATOM     30  C   UNL A   1      34.633  30.160  28.377  1.00  0.00     0.014 A 
ATOM     31  C   UNL A   1      35.681  32.314  28.082  1.00  0.00     0.014 A 
ATOM     32  C   UNL A   1      35.777  29.692  29.032  1.00  0.00     0.010 A 
ATOM     33  C   UNL A   1      36.849  31.827  28.675  1.00  0.00     0.010 A 
ATOM     34  C   UNL A   1      36.904  30.517  29.174  1.00  0.00    -0.014 A 
BRANCH  34  35
ATOM     35  C   UNL A   1      38.122  30.036  29.882  1.00  0.00     0.031 A 
ATOM     36  C   UNL A   1      38.426  30.512  31.278  1.00  0.00     0.074 A 
ATOM     37  C   UNL A   1      38.971  29.188  29.269  1.00  0.00     0.049 A 
ATOM     38  N   UNL A   1      39.456  30.241  32.043  1.00  0.00    -0.248 NA
ATOM     39  C   UNL A   1      37.451  31.427  31.892  1.00  0.00     0.031 C 
ATOM     40  C   UNL A   1      38.809  28.663  27.914  1.00  0.00     0.029 A 
ATOM     41  N   UNL A   1      40.142  28.620  29.709  1.00  0.00    -0.354 N 
ATOM     42  C   UNL A   1      39.256  30.955  33.217  1.00  0.00     0.074 A 
ATOM     43  C   UNL A   1      38.033  31.709  33.049  1.00  0.00     0.031 C 
ATOM     44  C   UNL A   1      39.829  27.834  27.640  1.00  0.00     0.029 A 
ATOM     45  C   UNL A   1      40.734  27.794  28.786  1.00  0.00     0.049 A 
ATOM     46  H   UNL A   1      40.521  28.790  30.601  1.00  0.00     0.167 HD
ATOM     47  C   UNL A   1      40.008  30.964  34.345  1.00  0.00     0.037 A 
ATOM     48  C   UNL A   1      41.878  27.086  28.854  1.00  0.00     0.037 A 
ATOM     49  C   UNL A   1      41.214  30.199  34.529  1.00  0.00     0.049 A 
ATOM     50  C   UNL A   1      42.708  27.133  30.109  1.00  0.00     0.074 A 
ATOM     51  C   UNL A   1      42.026  30.124  35.648  1.00  0.00     0.029 A 
ATOM     52  N   UNL A   1      41.778  29.374  33.570  1.00  0.00    -0.354 N 
ATOM     53  N   UNL A   1      42.484  27.780  31.226  1.00  0.00    -0.248 NA
ATOM     54  C   UNL A   1      43.950  26.345  30.112  1.00  0.00     0.031 C 
ATOM     55  C   UNL A   1      43.100  29.276  35.355  1.00  0.00     0.029 A 
ATOM     56  C   UNL A   1      42.935  28.794  34.066  1.00  0.00     0.049 A 
ATOM     57  H   UNL A   1      41.412  29.222  32.668  1.00  0.00     0.167 HD
ATOM     58  C   UNL A   1      43.537  27.455  32.073  1.00  0.00     0.074 A 
ATOM     59  C   UNL A   1      44.395  26.544  31.345  1.00  0.00     0.031 C 
ATOM     60  C   UNL A   1      43.771  27.876  33.339  1.00  0.00     0.037 A 
BRANCH  47  61
ATOM     61  C   UNL A   1      39.540  31.825  35.480  1.00  0.00     0.064 A 
ATOM     62  C   UNL A   1      39.979  33.150  35.620  1.00  0.00     0.173 A 
ATOM     63  C   UNL A   1      38.610  31.338  36.411  1.00  0.00     0.173 A 
ATOM     64  F   UNL A   1      40.876  33.658  34.762  1.00  0.00    -0.203 F 
ATOM     65  C   UNL A   1      39.521  33.949  36.664  1.00  0.00     0.198 A 
ATOM     66  C   UNL A   1      38.133  32.150  37.438  1.00  0.00     0.198 A 
ATOM     67  F   UNL A   1      38.153  30.081  36.317  1.00  0.00    -0.203 F 
ATOM     68  F   UNL A   1      39.984  35.199  36.800  1.00  0.00    -0.200 F 
ATOM     69  C   UNL A   1      38.594  33.451  37.567  1.00  0.00     0.200 A 
ATOM     70  F   UNL A   1      37.229  31.672  38.304  1.00  0.00    -0.200 F 
ATOM     71  F   UNL A   1      38.147  34.225  38.566  1.00  0.00    -0.200 F 
ENDBRANCH  47  61
BRANCH  48  72
ATOM     72  C   UNL A   1      42.304  26.247  27.705  1.00  0.00     0.064 A 
ATOM     73  C   UNL A   1      41.771  24.963  27.518  1.00  0.00     0.173 A 
ATOM     74  C   UNL A   1      43.260  26.698  26.785  1.00  0.00     0.173 A 
ATOM     75  F   UNL A   1      40.872  24.479  28.386  1.00  0.00    -0.203 F 
ATOM     76  C   UNL A   1      42.198  24.154  26.467  1.00  0.00     0.198 A 
ATOM     77  C   UNL A   1      43.667  25.898  25.719  1.00  0.00     0.198 A 
ATOM     78  F   UNL A   1      43.799  27.919  26.919  1.00  0.00    -0.203 F 
ATOM     79  F   UNL A   1      41.708  22.913  26.339  1.00  0.00    -0.200 F 
ATOM     80  C   UNL A   1      43.141  24.624  25.566  1.00  0.00     0.200 A 
ATOM     81  F   UNL A   1      44.571  26.359  24.844  1.00  0.00    -0.200 F 
ATOM     82  F   UNL A   1      43.550  23.845  24.556  1.00  0.00    -0.200 F 
ENDBRANCH  48  72
BRANCH  60  83
ATOM     83  C   UNL A   1      44.980  27.326  34.035  1.00  0.00     0.064 A 
ATOM     84  C   UNL A   1      46.221  27.976  33.976  1.00  0.00     0.173 A 
ATOM     85  C   UNL A   1      44.887  26.152  34.798  1.00  0.00     0.173 A 
ATOM     86  F   UNL A   1      46.363  29.092  33.246  1.00  0.00    -0.203 F 
ATOM     87  C   UNL A   1      47.331  27.459  34.638  1.00  0.00     0.198 A 
ATOM     88  C   UNL A   1      45.993  25.652  35.479  1.00  0.00     0.198 A 
ATOM     89  F   UNL A   1      43.720  25.496  34.889  1.00  0.00    -0.203 F 
ATOM     90  F   UNL A   1      48.518  28.073  34.535  1.00  0.00    -0.200 F 
ATOM     91  C   UNL A   1      47.215  26.302  35.394  1.00  0.00     0.200 A 
ATOM     92  F   UNL A   1      45.877  24.538  36.216  1.00  0.00    -0.200 F 
ATOM     93  F   UNL A   1      48.283  25.808  36.034  1.00  0.00    -0.200 F 
ENDBRANCH  60  83
ENDBRANCH  34  35
ENDBRANCH  26  29
ENDBRANCH  24  25
ENDBRANCH   1  24
TORSDOF 12
ENDMDL
MODEL 3
REMARK VINA RESULT:     -11.8      0.517      7.268
REMARK SMILES CC1(C)CCSC[C@@]1(Nc1ccccc1Br)C(=O)NCCCNC(=O)c1ccc(-c2c3nc(c(-c4c(F)c(F)c(F)c(F)c4F)c4ccc([nH]4)c(-c4c(F)c(F)c(F)c(F)c4F)c4nc(c(-c5c(F)c(F)c(F)c(F)c5F)c5ccc2[nH]5)C=C4)C=C3)cc1
REMARK SMILES IDX 21 1 20 2 19 3 17 4 18 5 8 7 1 8 2 9 3 10 4 11 5 12 7 13
REMARK SMILES IDX 6 14 9 15 10 17 11 18 15 19 12 20 14 21 16 22 13 23 22 24
REMARK SMILES IDX 23 25 24 26 25 28 26 29 27 30 88 31 28 32 87 33 29 34 30 35
REMARK SMILES IDX 31 36 81 37 32 38 86 39 80 40 82 41 33 42 85 43 79 44 78 45
REMARK SMILES IDX 34 47 66 48 46 49 65 50 47 51 50 52 64 53 83 54 48 55 49 56
REMARK SMILES IDX 63 58 84 59 51 60 35 61 36 62 44 63 37 64 38 65 42 66 45 67
REMARK SMILES IDX 39 68 40 69 43 70 41 71 67 72 68 73 76 74 69 75 70 76 74 77
REMARK SMILES IDX 77 78 71 79 72 80 75 81 73 82 52 83 53 84 61 85 54 86 55 87
REMARK SMILES IDX 59 88 62 89 56 90 57 91 60 92 58 93
REMARK H PARENT 19 6 9 16 23 27 82 46 50 57
REMARK Flexibility Score: inf
ROOT
ATOM      1  C   UNL A   1      31.820  28.476  26.157  1.00  0.00     0.042 C 
ENDROOT
BRANCH   1   2
ATOM      2  C   UNL A   1      32.346  27.168  26.742  1.00  0.00     0.117 C 
BRANCH   2   3
ATOM      3  N   UNL A   1      33.563  26.652  26.124  1.00  0.00    -0.354 N 
ATOM      4  C   UNL A   1      33.849  25.519  25.406  1.00  0.00     0.247 C 
ATOM      5  O   UNL A   1      34.998  25.463  24.944  1.00  0.00    -0.272 OA
ATOM      6  H   UNL A   1      34.343  27.240  26.247  1.00  0.00     0.163 HD
BRANCH   4   7
ATOM      7  C   UNL A   1      32.810  24.390  25.084  1.00  0.00     0.131 C 
ATOM      8  C   UNL A   1      34.597  22.599  25.828  1.00  0.00     0.014 C 
ATOM      9  C   UNL A   1      33.628  23.043  24.691  1.00  0.00    -0.002 C 
ATOM     10  C   UNL A   1      34.522  23.200  23.439  1.00  0.00     0.014 C 
ATOM     11  C   UNL A   1      32.675  21.843  24.386  1.00  0.00     0.020 C 
ATOM     12  C   UNL A   1      31.741  21.418  25.511  1.00  0.00     0.070 C 
ATOM     13  C   UNL A   1      31.960  24.057  26.353  1.00  0.00     0.108 C 
ATOM     14  S   UNL A   1      30.687  22.758  26.101  1.00  0.00    -0.159 SA
BRANCH   7  15
ATOM     15  N   UNL A   1      31.891  24.788  23.977  1.00  0.00    -0.369 N 
ATOM     16  H   UNL A   1      31.691  24.050  23.356  1.00  0.00     0.161 HD
BRANCH  15  17
ATOM     17  C   UNL A   1      31.254  25.977  23.632  1.00  0.00     0.049 A 
ATOM     18  C   UNL A   1      29.877  26.007  23.981  1.00  0.00     0.027 A 
ATOM     19  C   UNL A   1      31.708  27.099  22.900  1.00  0.00     0.041 A 
ATOM     20  C   UNL A   1      29.010  27.053  23.643  1.00  0.00     0.002 A 
ATOM     21  C   UNL A   1      30.828  28.156  22.566  1.00  0.00     0.018 A 
ATOM     22  Br  UNL A   1      33.429  27.369  22.137  1.00  0.00    -0.049 Br
ATOM     23  C   UNL A   1      29.488  28.132  22.928  1.00  0.00     0.001 A 
ENDBRANCH  15  17
ENDBRANCH   7  15
ENDBRANCH   4   7
ENDBRANCH   2   3
ENDBRANCH   1   2
BRANCH   1  24
ATOM     24  C   UNL A   1      32.878  29.439  25.643  1.00  0.00     0.118 C 
BRANCH  24  25
ATOM     25  N   UNL A   1      32.563  30.820  25.976  1.00  0.00    -0.352 N 
ATOM     26  C   UNL A   1      33.100  31.640  26.935  1.00  0.00     0.251 C 
ATOM     27  H   UNL A   1      31.855  31.228  25.428  1.00  0.00     0.163 HD
ATOM     28  O   UNL A   1      32.524  32.700  27.203  1.00  0.00    -0.269 OA
BRANCH  26  29
ATOM     29  C   UNL A   1      34.344  31.292  27.667  1.00  0.00     0.039 A 
ATOM     30  C   UNL A   1      34.467  30.002  28.197  1.00  0.00     0.014 A 
ATOM     31  C   UNL A   1      35.347  32.233  27.922  1.00  0.00     0.014 A 
ATOM     32  C   UNL A   1      35.596  29.648  28.944  1.00  0.00     0.010 A 
ATOM     33  C   UNL A   1      36.506  31.860  28.609  1.00  0.00     0.010 A 
ATOM     34  C   UNL A   1      36.635  30.570  29.145  1.00  0.00    -0.014 A 
BRANCH  34  35
ATOM     35  C   UNL A   1      37.835  30.210  29.949  1.00  0.00     0.031 A 
ATOM     36  C   UNL A   1      38.882  29.289  29.381  1.00  0.00     0.074 A 
ATOM     37  C   UNL A   1      37.980  30.691  31.200  1.00  0.00     0.049 A 
ATOM     38  N   UNL A   1      39.973  28.826  29.940  1.00  0.00    -0.248 NA
ATOM     39  C   UNL A   1      38.666  28.810  28.007  1.00  0.00     0.031 C 
ATOM     40  C   UNL A   1      37.035  31.576  31.880  1.00  0.00     0.029 A 
ATOM     41  N   UNL A   1      38.981  30.499  32.121  1.00  0.00    -0.354 N 
ATOM     42  C   UNL A   1      40.565  28.001  28.992  1.00  0.00     0.074 A 
ATOM     43  C   UNL A   1      39.691  27.987  27.840  1.00  0.00     0.031 C 
ATOM     44  C   UNL A   1      37.510  31.869  33.102  1.00  0.00     0.029 A 
ATOM     45  C   UNL A   1      38.776  31.167  33.304  1.00  0.00     0.049 A 
ATOM     46  H   UNL A   1      39.770  29.936  31.951  1.00  0.00     0.167 HD
ATOM     47  C   UNL A   1      41.743  27.335  29.063  1.00  0.00     0.037 A 
ATOM     48  C   UNL A   1      39.521  31.206  34.425  1.00  0.00     0.037 A 
ATOM     49  C   UNL A   1      42.631  27.361  30.196  1.00  0.00     0.049 A 
ATOM     50  C   UNL A   1      40.813  30.436  34.487  1.00  0.00     0.074 A 
ATOM     51  C   UNL A   1      43.859  26.739  30.346  1.00  0.00     0.029 A 
ATOM     52  N   UNL A   1      42.386  28.050  31.373  1.00  0.00    -0.354 N 
ATOM     53  N   UNL A   1      41.380  29.695  33.568  1.00  0.00    -0.248 NA
ATOM     54  C   UNL A   1      41.572  30.516  35.745  1.00  0.00     0.031 C 
ATOM     55  C   UNL A   1      44.344  27.029  31.627  1.00  0.00     0.029 A 
ATOM     56  C   UNL A   1      43.434  27.860  32.260  1.00  0.00     0.049 A 
ATOM     57  H   UNL A   1      41.585  28.595  31.554  1.00  0.00     0.167 HD
ATOM     58  C   UNL A   1      42.571  29.244  34.122  1.00  0.00     0.074 A 
ATOM     59  C   UNL A   1      42.652  29.805  35.455  1.00  0.00     0.031 C 
ATOM     60  C   UNL A   1      43.512  28.437  33.576  1.00  0.00     0.037 A 
BRANCH  47  61
ATOM     61  C   UNL A   1      42.151  26.522  27.870  1.00  0.00     0.064 A 
ATOM     62  C   UNL A   1      41.651  25.228  27.664  1.00  0.00     0.173 A 
ATOM     63  C   UNL A   1      43.010  27.058  26.899  1.00  0.00     0.173 A 
ATOM     64  F   UNL A   1      40.834  24.668  28.568  1.00  0.00    -0.203 F 
ATOM     65  C   UNL A   1      42.016  24.490  26.540  1.00  0.00     0.198 A 
ATOM     66  C   UNL A   1      43.351  26.328  25.764  1.00  0.00     0.198 A 
ATOM     67  F   UNL A   1      43.509  28.295  27.045  1.00  0.00    -0.203 F 
ATOM     68  F   UNL A   1      41.558  23.241  26.384  1.00  0.00    -0.200 F 
ATOM     69  C   UNL A   1      42.860  25.043  25.589  1.00  0.00     0.200 A 
ATOM     70  F   UNL A   1      44.158  26.866  24.838  1.00  0.00    -0.200 F 
ATOM     71  F   UNL A   1      43.203  24.335  24.504  1.00  0.00    -0.200 F 
ENDBRANCH  47  61
BRANCH  48  72
ATOM     72  C   UNL A   1      39.079  32.024  35.584  1.00  0.00     0.064 A 
ATOM     73  C   UNL A   1      39.447  33.373  35.692  1.00  0.00     0.173 A 
ATOM     74  C   UNL A   1      38.301  31.473  36.612  1.00  0.00     0.173 A 
ATOM     75  F   UNL A   1      40.211  33.936  34.746  1.00  0.00    -0.203 F 
ATOM     76  C   UNL A   1      39.072  34.133  36.797  1.00  0.00     0.198 A 
ATOM     77  C   UNL A   1      37.905  32.243  37.704  1.00  0.00     0.198 A 
ATOM     78  F   UNL A   1      37.922  30.189  36.555  1.00  0.00    -0.203 F 
ATOM     79  F   UNL A   1      39.477  35.407  36.900  1.00  0.00    -0.200 F 
ATOM     80  C   UNL A   1      38.297  33.570  37.800  1.00  0.00     0.200 A 
ATOM     81  F   UNL A   1      37.147  31.698  38.666  1.00  0.00    -0.200 F 
ATOM     82  F   UNL A   1      37.937  34.302  38.862  1.00  0.00    -0.200 F 
ENDBRANCH  48  72
BRANCH  60  83
ATOM     83  C   UNL A   1      44.730  28.143  34.400  1.00  0.00     0.064 A 
ATOM     84  C   UNL A   1      45.855  28.981  34.375  1.00  0.00     0.173 A 
ATOM     85  C   UNL A   1      44.758  27.029  35.252  1.00  0.00     0.173 A 
ATOM     86  F   UNL A   1      45.882  30.048  33.563  1.00  0.00    -0.203 F 
ATOM     87  C   UNL A   1      46.972  28.700  35.156  1.00  0.00     0.198 A 
ATOM     88  C   UNL A   1      45.867  26.766  36.051  1.00  0.00     0.198 A 
ATOM     89  F   UNL A   1      43.704  26.200  35.316  1.00  0.00    -0.203 F 
ATOM     90  F   UNL A   1      48.053  29.489  35.085  1.00  0.00    -0.200 F 
ATOM     91  C   UNL A   1      46.975  27.598  35.998  1.00  0.00     0.200 A 
ATOM     92  F   UNL A   1      45.864  25.704  36.870  1.00  0.00    -0.200 F 
ATOM     93  F   UNL A   1      48.049  27.331  36.752  1.00  0.00    -0.200 F 
ENDBRANCH  60  83
ENDBRANCH  34  35
ENDBRANCH  26  29
ENDBRANCH  24  25
ENDBRANCH   1  24
TORSDOF 12
ENDMDL
