MODEL 1
REMARK VINA RESULT:     -13.8      0.000      0.000
REMARK SMILES Cc1cc(F)cc(N[C@@](C)(C(=O)NCCCNC(=O)c2ccc(-c3c4nc(c(-c5c(F)c(F)c(F)c(F)c5F)c5ccc([nH]5)c(-c5c(F)c(F)c(F)c(F)c5F)c5nc(c(-c6c(F)c(F)c(F)c(F)c6F)c6ccc3[nH]6)C=C5)C=C4)cc2)c2ccc(O)cc2)c1
REMARK SMILES IDX 15 1 14 2 13 3 11 4 12 5 9 7 10 8 8 9 7 11 1 12 2 13 3 14
REMARK SMILES IDX 90 15 4 16 5 17 6 18 83 19 84 20 89 21 85 22 88 23 86 24
REMARK SMILES IDX 87 25 16 27 17 28 18 29 19 31 20 32 21 33 82 34 22 35 81 36
REMARK SMILES IDX 23 37 24 38 25 39 75 40 26 41 80 42 74 43 76 44 27 45 79 46
REMARK SMILES IDX 73 47 72 48 28 50 60 51 40 52 59 53 41 54 44 55 58 56 77 57
REMARK SMILES IDX 42 58 43 59 57 61 78 62 45 63 29 64 30 65 38 66 31 67 32 68
REMARK SMILES IDX 36 69 39 70 33 71 34 72 37 73 35 74 61 75 62 76 70 77 63 78
REMARK SMILES IDX 64 79 68 80 71 81 65 82 66 83 69 84 67 85 46 86 47 87 55 88
REMARK SMILES IDX 48 89 49 90 53 91 56 92 50 93 51 94 54 95 52 96
REMARK H PARENT 13 6 8 10 87 26 17 30 76 49 44 60
REMARK Flexibility Score: inf
ROOT
ATOM      1  C   UNL A   1      33.179  28.477  27.580  1.00  0.00     0.042 C 
ENDROOT
BRANCH   1   2
ATOM      2  C   UNL A   1      32.003  28.362  26.631  1.00  0.00     0.117 C 
BRANCH   2   3
ATOM      3  N   UNL A   1      31.204  27.184  26.896  1.00  0.00    -0.354 N 
ATOM      4  C   UNL A   1      30.737  26.225  26.038  1.00  0.00     0.250 C 
ATOM      5  O   UNL A   1      29.871  25.482  26.511  1.00  0.00    -0.272 OA
ATOM      6  H   UNL A   1      30.957  27.053  27.839  1.00  0.00     0.163 HD
BRANCH   4   7
ATOM      7  C   UNL A   1      31.278  26.152  24.555  1.00  0.00     0.139 C 
ATOM      8  C   UNL A   1      30.609  24.970  23.795  1.00  0.00     0.051 C 
BRANCH   7   9
ATOM      9  N   UNL A   1      32.757  25.925  24.657  1.00  0.00    -0.368 N 
ATOM     10  H   UNL A   1      33.298  26.725  24.470  1.00  0.00     0.161 HD
BRANCH   9  11
ATOM     11  C   UNL A   1      33.502  24.799  24.966  1.00  0.00     0.038 A 
ATOM     12  C   UNL A   1      36.541  23.037  23.408  1.00  0.00     0.044 C 
ATOM     13  C   UNL A   1      35.498  23.465  24.396  1.00  0.00    -0.046 A 
ATOM     14  C   UNL A   1      35.555  23.002  25.707  1.00  0.00     0.042 A 
ATOM     15  C   UNL A   1      34.491  24.386  24.049  1.00  0.00     0.029 A 
ATOM     16  C   UNL A   1      34.527  23.315  26.580  1.00  0.00     0.125 A 
ATOM     17  F   UNL A   1      34.574  22.859  27.838  1.00  0.00    -0.207 F 
ATOM     18  C   UNL A   1      33.469  24.134  26.189  1.00  0.00     0.065 A 
ENDBRANCH   9  11
ENDBRANCH   7   9
BRANCH   7  19
ATOM     19  C   UNL A   1      30.871  27.342  23.662  1.00  0.00    -0.013 A 
ATOM     20  C   UNL A   1      31.851  28.084  22.970  1.00  0.00     0.010 A 
ATOM     21  C   UNL A   1      29.524  27.672  23.427  1.00  0.00     0.010 A 
ATOM     22  C   UNL A   1      31.511  29.228  22.254  1.00  0.00     0.046 A 
ATOM     23  C   UNL A   1      29.177  28.797  22.680  1.00  0.00     0.046 A 
ATOM     24  C   UNL A   1      30.178  29.590  22.139  1.00  0.00     0.115 A 
BRANCH  24  25
ATOM     25  O   UNL A   1      29.883  30.745  21.479  1.00  0.00    -0.508 OA
ATOM     26  H   UNL A   1      29.785  31.545  21.957  1.00  0.00     0.293 HD
ENDBRANCH  24  25
ENDBRANCH   7  19
ENDBRANCH   4   7
ENDBRANCH   2   3
ENDBRANCH   1   2
BRANCH   1  27
ATOM     27  C   UNL A   1      34.389  28.937  26.825  1.00  0.00     0.118 C 
BRANCH  27  28
ATOM     28  N   UNL A   1      34.605  30.386  26.968  1.00  0.00    -0.352 N 
ATOM     29  C   UNL A   1      35.532  31.018  27.759  1.00  0.00     0.251 C 
ATOM     30  H   UNL A   1      34.016  30.969  26.437  1.00  0.00     0.163 HD
ATOM     31  O   UNL A   1      35.441  32.212  28.038  1.00  0.00    -0.269 OA
BRANCH  29  32
ATOM     32  C   UNL A   1      36.662  30.210  28.211  1.00  0.00     0.039 A 
ATOM     33  C   UNL A   1      36.659  29.455  29.384  1.00  0.00     0.014 A 
ATOM     34  C   UNL A   1      37.747  30.201  27.345  1.00  0.00     0.014 A 
ATOM     35  C   UNL A   1      37.782  28.685  29.664  1.00  0.00     0.010 A 
ATOM     36  C   UNL A   1      38.629  29.186  27.427  1.00  0.00     0.010 A 
ATOM     37  C   UNL A   1      38.758  28.586  28.673  1.00  0.00    -0.014 A 
BRANCH  37  38
ATOM     38  C   UNL A   1      40.090  28.048  28.829  1.00  0.00     0.031 A 
ATOM     39  C   UNL A   1      40.324  26.645  28.528  1.00  0.00     0.074 A 
ATOM     40  C   UNL A   1      41.038  29.005  28.973  1.00  0.00     0.049 A 
ATOM     41  N   UNL A   1      41.248  25.931  29.056  1.00  0.00    -0.248 NA
ATOM     42  C   UNL A   1      39.473  25.905  27.600  1.00  0.00     0.031 C 
ATOM     43  C   UNL A   1      42.474  28.985  28.780  1.00  0.00     0.029 A 
ATOM     44  N   UNL A   1      40.789  30.325  29.406  1.00  0.00    -0.354 N 
ATOM     45  C   UNL A   1      41.392  24.838  28.228  1.00  0.00     0.074 A 
ATOM     46  C   UNL A   1      40.143  24.752  27.510  1.00  0.00     0.031 C 
ATOM     47  C   UNL A   1      43.002  30.055  29.414  1.00  0.00     0.029 A 
ATOM     48  C   UNL A   1      41.916  30.722  30.126  1.00  0.00     0.049 A 
ATOM     49  H   UNL A   1      39.981  30.859  29.234  1.00  0.00     0.167 HD
ATOM     50  C   UNL A   1      42.650  24.335  28.048  1.00  0.00     0.037 A 
ATOM     51  C   UNL A   1      41.773  30.832  31.479  1.00  0.00     0.037 A 
ATOM     52  C   UNL A   1      43.611  25.123  28.839  1.00  0.00     0.049 A 
ATOM     53  C   UNL A   1      42.562  29.747  32.162  1.00  0.00     0.074 A 
ATOM     54  C   UNL A   1      44.510  26.113  28.473  1.00  0.00     0.029 A 
ATOM     55  N   UNL A   1      43.460  25.230  30.223  1.00  0.00    -0.354 N 
ATOM     56  N   UNL A   1      42.764  28.559  31.660  1.00  0.00    -0.248 NA
ATOM     57  C   UNL A   1      43.259  29.969  33.418  1.00  0.00     0.031 C 
ATOM     58  C   UNL A   1      44.846  26.856  29.635  1.00  0.00     0.029 A 
ATOM     59  C   UNL A   1      44.154  26.323  30.710  1.00  0.00     0.049 A 
ATOM     60  H   UNL A   1      42.933  24.610  30.778  1.00  0.00     0.167 HD
ATOM     61  C   UNL A   1      43.659  27.890  32.451  1.00  0.00     0.074 A 
ATOM     62  C   UNL A   1      43.925  28.810  33.545  1.00  0.00     0.031 C 
ATOM     63  C   UNL A   1      44.157  26.657  32.131  1.00  0.00     0.037 A 
BRANCH  50  64
ATOM     64  C   UNL A   1      43.077  23.437  26.893  1.00  0.00     0.064 A 
ATOM     65  C   UNL A   1      42.838  22.044  26.946  1.00  0.00     0.173 A 
ATOM     66  C   UNL A   1      43.750  23.858  25.729  1.00  0.00     0.173 A 
ATOM     67  F   UNL A   1      42.095  21.497  27.916  1.00  0.00    -0.203 F 
ATOM     68  C   UNL A   1      43.337  21.150  25.993  1.00  0.00     0.198 A 
ATOM     69  C   UNL A   1      44.277  22.962  24.790  1.00  0.00     0.198 A 
ATOM     70  F   UNL A   1      43.871  25.149  25.412  1.00  0.00    -0.203 F 
ATOM     71  F   UNL A   1      43.087  19.838  26.121  1.00  0.00    -0.200 F 
ATOM     72  C   UNL A   1      44.081  21.606  24.929  1.00  0.00     0.200 A 
ATOM     73  F   UNL A   1      44.967  23.432  23.740  1.00  0.00    -0.200 F 
ATOM     74  F   UNL A   1      44.575  20.749  24.025  1.00  0.00    -0.200 F 
ENDBRANCH  50  64
BRANCH  51  75
ATOM     75  C   UNL A   1      40.397  31.296  31.868  1.00  0.00     0.064 A 
ATOM     76  C   UNL A   1      39.509  30.340  32.414  1.00  0.00     0.173 A 
ATOM     77  C   UNL A   1      40.092  32.645  32.099  1.00  0.00     0.173 A 
ATOM     78  F   UNL A   1      39.746  29.030  32.233  1.00  0.00    -0.203 F 
ATOM     79  C   UNL A   1      38.461  30.707  33.257  1.00  0.00     0.198 A 
ATOM     80  C   UNL A   1      39.020  33.011  32.922  1.00  0.00     0.198 A 
ATOM     81  F   UNL A   1      40.883  33.613  31.615  1.00  0.00    -0.203 F 
ATOM     82  F   UNL A   1      37.733  29.762  33.871  1.00  0.00    -0.200 F 
ATOM     83  C   UNL A   1      38.229  32.043  33.526  1.00  0.00     0.200 A 
ATOM     84  F   UNL A   1      38.800  34.306  33.198  1.00  0.00    -0.200 F 
ATOM     85  F   UNL A   1      37.269  32.396  34.392  1.00  0.00    -0.200 F 
ENDBRANCH  51  75
BRANCH  63  86
ATOM     86  C   UNL A   1      44.859  25.728  33.094  1.00  0.00     0.064 A 
ATOM     87  C   UNL A   1      46.236  25.456  33.055  1.00  0.00     0.173 A 
ATOM     88  C   UNL A   1      44.166  25.159  34.193  1.00  0.00     0.173 A 
ATOM     89  F   UNL A   1      47.052  26.076  32.194  1.00  0.00    -0.203 F 
ATOM     90  C   UNL A   1      46.844  24.576  33.950  1.00  0.00     0.198 A 
ATOM     91  C   UNL A   1      44.794  24.349  35.135  1.00  0.00     0.198 A 
ATOM     92  F   UNL A   1      42.866  25.392  34.414  1.00  0.00    -0.203 F 
ATOM     93  F   UNL A   1      48.143  24.285  33.809  1.00  0.00    -0.200 F 
ATOM     94  C   UNL A   1      46.125  24.025  34.992  1.00  0.00     0.200 A 
ATOM     95  F   UNL A   1      44.099  23.896  36.188  1.00  0.00    -0.200 F 
ATOM     96  F   UNL A   1      46.719  23.210  35.872  1.00  0.00    -0.200 F 
ENDBRANCH  63  86
ENDBRANCH  37  38
ENDBRANCH  29  32
ENDBRANCH  27  28
ENDBRANCH   1  27
TORSDOF 14
ENDMDL
MODEL 2
REMARK VINA RESULT:     -13.4      1.757      3.882
REMARK SMILES Cc1cc(F)cc(N[C@@](C)(C(=O)NCCCNC(=O)c2ccc(-c3c4nc(c(-c5c(F)c(F)c(F)c(F)c5F)c5ccc([nH]5)c(-c5c(F)c(F)c(F)c(F)c5F)c5nc(c(-c6c(F)c(F)c(F)c(F)c6F)c6ccc3[nH]6)C=C5)C=C4)cc2)c2ccc(O)cc2)c1
REMARK SMILES IDX 15 1 14 2 13 3 11 4 12 5 9 7 10 8 8 9 7 11 1 12 2 13 3 14
REMARK SMILES IDX 90 15 4 16 5 17 6 18 83 19 84 20 89 21 85 22 88 23 86 24
REMARK SMILES IDX 87 25 16 27 17 28 18 29 19 31 20 32 21 33 82 34 22 35 81 36
REMARK SMILES IDX 23 37 24 38 25 39 75 40 26 41 80 42 74 43 76 44 27 45 79 46
REMARK SMILES IDX 73 47 72 48 28 50 60 51 40 52 59 53 41 54 44 55 58 56 77 57
REMARK SMILES IDX 42 58 43 59 57 61 78 62 45 63 29 64 30 65 38 66 31 67 32 68
REMARK SMILES IDX 36 69 39 70 33 71 34 72 37 73 35 74 61 75 62 76 70 77 63 78
REMARK SMILES IDX 64 79 68 80 71 81 65 82 66 83 69 84 67 85 46 86 47 87 55 88
REMARK SMILES IDX 48 89 49 90 53 91 56 92 50 93 51 94 54 95 52 96
REMARK H PARENT 13 6 8 10 87 26 17 30 76 49 44 60
REMARK Flexibility Score: inf
ROOT
ATOM      1  C   UNL A   1      33.101  28.801  26.903  1.00  0.00     0.042 C 
ENDROOT
BRANCH   1   2
ATOM      2  C   UNL A   1      32.279  29.708  26.011  1.00  0.00     0.117 C 
BRANCH   2   3
ATOM      3  N   UNL A   1      32.739  29.681  24.637  1.00  0.00    -0.354 N 
ATOM      4  C   UNL A   1      32.339  28.894  23.590  1.00  0.00     0.250 C 
ATOM      5  O   UNL A   1      33.086  28.922  22.606  1.00  0.00    -0.272 OA
ATOM      6  H   UNL A   1      33.448  30.328  24.424  1.00  0.00     0.163 HD
BRANCH   4   7
ATOM      7  C   UNL A   1      31.034  28.013  23.709  1.00  0.00     0.139 C 
ATOM      8  C   UNL A   1      30.711  27.341  22.343  1.00  0.00     0.051 C 
BRANCH   7   9
ATOM      9  N   UNL A   1      29.927  28.950  24.094  1.00  0.00    -0.368 N 
ATOM     10  H   UNL A   1      29.660  28.886  25.039  1.00  0.00     0.161 HD
BRANCH   9  11
ATOM     11  C   UNL A   1      29.212  29.886  23.367  1.00  0.00     0.038 A 
ATOM     12  C   UNL A   1      29.075  33.725  23.262  1.00  0.00     0.044 C 
ATOM     13  C   UNL A   1      28.924  32.286  22.871  1.00  0.00    -0.046 A 
ATOM     14  C   UNL A   1      28.422  31.960  21.614  1.00  0.00     0.042 A 
ATOM     15  C   UNL A   1      29.346  31.245  23.719  1.00  0.00     0.029 A 
ATOM     16  C   UNL A   1      28.184  30.631  21.306  1.00  0.00     0.125 A 
ATOM     17  F   UNL A   1      27.687  30.317  20.102  1.00  0.00    -0.207 F 
ATOM     18  C   UNL A   1      28.496  29.612  22.204  1.00  0.00     0.065 A 
ENDBRANCH   9  11
ENDBRANCH   7   9
BRANCH   7  19
ATOM     19  C   UNL A   1      31.172  26.776  24.620  1.00  0.00    -0.013 A 
ATOM     20  C   UNL A   1      30.041  26.226  25.258  1.00  0.00     0.010 A 
ATOM     21  C   UNL A   1      32.395  26.096  24.773  1.00  0.00     0.010 A 
ATOM     22  C   UNL A   1      30.168  25.183  26.170  1.00  0.00     0.046 A 
ATOM     23  C   UNL A   1      32.520  25.027  25.659  1.00  0.00     0.046 A 
ATOM     24  C   UNL A   1      31.412  24.611  26.384  1.00  0.00     0.115 A 
BRANCH  24  25
ATOM     25  O   UNL A   1      31.513  23.630  27.324  1.00  0.00    -0.508 OA
ATOM     26  H   UNL A   1      31.530  23.854  28.233  1.00  0.00     0.293 HD
ENDBRANCH  24  25
ENDBRANCH   7  19
ENDBRANCH   4   7
ENDBRANCH   2   3
ENDBRANCH   1   2
BRANCH   1  27
ATOM     27  C   UNL A   1      34.545  29.197  26.828  1.00  0.00     0.118 C 
BRANCH  27  28
ATOM     28  N   UNL A   1      34.736  30.624  27.135  1.00  0.00    -0.352 N 
ATOM     29  C   UNL A   1      35.625  31.175  28.024  1.00  0.00     0.251 C 
ATOM     30  H   UNL A   1      34.160  31.256  26.647  1.00  0.00     0.163 HD
ATOM     31  O   UNL A   1      35.509  32.331  28.426  1.00  0.00    -0.269 OA
BRANCH  29  32
ATOM     32  C   UNL A   1      36.747  30.332  28.430  1.00  0.00     0.039 A 
ATOM     33  C   UNL A   1      36.727  29.493  29.545  1.00  0.00     0.014 A 
ATOM     34  C   UNL A   1      37.843  30.383  27.580  1.00  0.00     0.014 A 
ATOM     35  C   UNL A   1      37.845  28.701  29.782  1.00  0.00     0.010 A 
ATOM     36  C   UNL A   1      38.722  29.362  27.598  1.00  0.00     0.010 A 
ATOM     37  C   UNL A   1      38.834  28.672  28.798  1.00  0.00    -0.014 A 
BRANCH  37  38
ATOM     38  C   UNL A   1      40.162  28.119  28.931  1.00  0.00     0.031 A 
ATOM     39  C   UNL A   1      40.374  26.712  28.633  1.00  0.00     0.074 A 
ATOM     40  C   UNL A   1      41.124  29.066  29.051  1.00  0.00     0.049 A 
ATOM     41  N   UNL A   1      41.301  25.991  29.148  1.00  0.00    -0.248 NA
ATOM     42  C   UNL A   1      39.497  25.977  27.726  1.00  0.00     0.031 C 
ATOM     43  C   UNL A   1      42.555  29.029  28.830  1.00  0.00     0.029 A 
ATOM     44  N   UNL A   1      40.898  30.391  29.482  1.00  0.00    -0.354 N 
ATOM     45  C   UNL A   1      41.416  24.891  28.323  1.00  0.00     0.074 A 
ATOM     46  C   UNL A   1      40.152  24.816  27.630  1.00  0.00     0.031 C 
ATOM     47  C   UNL A   1      43.107  30.096  29.448  1.00  0.00     0.029 A 
ATOM     48  C   UNL A   1      42.044  30.779  30.177  1.00  0.00     0.049 A 
ATOM     49  H   UNL A   1      40.093  30.933  29.323  1.00  0.00     0.167 HD
ATOM     50  C   UNL A   1      42.665  24.373  28.121  1.00  0.00     0.037 A 
ATOM     51  C   UNL A   1      41.928  30.898  31.533  1.00  0.00     0.037 A 
ATOM     52  C   UNL A   1      43.650  25.155  28.889  1.00  0.00     0.049 A 
ATOM     53  C   UNL A   1      42.718  29.808  32.206  1.00  0.00     0.074 A 
ATOM     54  C   UNL A   1      44.552  26.133  28.500  1.00  0.00     0.029 A 
ATOM     55  N   UNL A   1      43.527  25.271  30.275  1.00  0.00    -0.354 N 
ATOM     56  N   UNL A   1      42.896  28.615  31.707  1.00  0.00    -0.248 NA
ATOM     57  C   UNL A   1      43.442  30.029  33.447  1.00  0.00     0.031 C 
ATOM     58  C   UNL A   1      44.920  26.877  29.651  1.00  0.00     0.029 A 
ATOM     59  C   UNL A   1      44.242  26.359  30.742  1.00  0.00     0.049 A 
ATOM     60  H   UNL A   1      43.004  24.660  30.844  1.00  0.00     0.167 HD
ATOM     61  C   UNL A   1      43.799  27.940  32.483  1.00  0.00     0.074 A 
ATOM     62  C   UNL A   1      44.097  28.863  33.567  1.00  0.00     0.031 C 
ATOM     63  C   UNL A   1      44.277  26.700  32.161  1.00  0.00     0.037 A 
BRANCH  50  64
ATOM     64  C   UNL A   1      43.058  23.464  26.963  1.00  0.00     0.064 A 
ATOM     65  C   UNL A   1      42.794  22.076  27.024  1.00  0.00     0.173 A 
ATOM     66  C   UNL A   1      43.723  23.869  25.789  1.00  0.00     0.173 A 
ATOM     67  F   UNL A   1      42.054  21.546  28.006  1.00  0.00    -0.203 F 
ATOM     68  C   UNL A   1      43.262  21.170  26.066  1.00  0.00     0.198 A 
ATOM     69  C   UNL A   1      44.220  22.961  24.845  1.00  0.00     0.198 A 
ATOM     70  F   UNL A   1      43.864  25.157  25.466  1.00  0.00    -0.203 F 
ATOM     71  F   UNL A   1      42.991  19.864  26.202  1.00  0.00    -0.200 F 
ATOM     72  C   UNL A   1      44.001  21.609  24.991  1.00  0.00     0.200 A 
ATOM     73  F   UNL A   1      44.904  23.415  23.784  1.00  0.00    -0.200 F 
ATOM     74  F   UNL A   1      44.466  20.741  24.083  1.00  0.00    -0.200 F 
ENDBRANCH  50  64
BRANCH  51  75
ATOM     75  C   UNL A   1      40.565  31.380  31.946  1.00  0.00     0.064 A 
ATOM     76  C   UNL A   1      39.669  30.432  32.491  1.00  0.00     0.173 A 
ATOM     77  C   UNL A   1      40.286  32.731  32.197  1.00  0.00     0.173 A 
ATOM     78  F   UNL A   1      39.882  29.120  32.292  1.00  0.00    -0.203 F 
ATOM     79  C   UNL A   1      38.638  30.806  33.353  1.00  0.00     0.198 A 
ATOM     80  C   UNL A   1      39.231  33.104  33.038  1.00  0.00     0.198 A 
ATOM     81  F   UNL A   1      41.087  33.692  31.714  1.00  0.00    -0.203 F 
ATOM     82  F   UNL A   1      37.903  29.866  33.966  1.00  0.00    -0.200 F 
ATOM     83  C   UNL A   1      38.433  32.142  33.642  1.00  0.00     0.200 A 
ATOM     84  F   UNL A   1      39.037  34.399  33.333  1.00  0.00    -0.200 F 
ATOM     85  F   UNL A   1      37.490  32.500  34.525  1.00  0.00    -0.200 F 
ENDBRANCH  51  75
BRANCH  63  86
ATOM     86  C   UNL A   1      44.987  25.768  33.115  1.00  0.00     0.064 A 
ATOM     87  C   UNL A   1      44.325  24.948  34.045  1.00  0.00     0.173 A 
ATOM     88  C   UNL A   1      46.389  25.576  33.038  1.00  0.00     0.173 A 
ATOM     89  F   UNL A   1      42.990  24.877  34.095  1.00  0.00    -0.203 F 
ATOM     90  C   UNL A   1      45.017  24.115  34.923  1.00  0.00     0.198 A 
ATOM     91  C   UNL A   1      47.069  24.680  33.859  1.00  0.00     0.198 A 
ATOM     92  F   UNL A   1      47.150  26.223  32.145  1.00  0.00    -0.203 F 
ATOM     93  F   UNL A   1      44.339  23.425  35.849  1.00  0.00    -0.200 F 
ATOM     94  C   UNL A   1      46.388  23.977  34.828  1.00  0.00     0.200 A 
ATOM     95  F   UNL A   1      48.385  24.495  33.692  1.00  0.00    -0.200 F 
ATOM     96  F   UNL A   1      47.046  23.148  35.649  1.00  0.00    -0.200 F 
ENDBRANCH  63  86
ENDBRANCH  37  38
ENDBRANCH  29  32
ENDBRANCH  27  28
ENDBRANCH   1  27
TORSDOF 14
ENDMDL
MODEL 3
REMARK VINA RESULT:     -13.3      3.269      9.231
REMARK SMILES Cc1cc(F)cc(N[C@@](C)(C(=O)NCCCNC(=O)c2ccc(-c3c4nc(c(-c5c(F)c(F)c(F)c(F)c5F)c5ccc([nH]5)c(-c5c(F)c(F)c(F)c(F)c5F)c5nc(c(-c6c(F)c(F)c(F)c(F)c6F)c6ccc3[nH]6)C=C5)C=C4)cc2)c2ccc(O)cc2)c1
REMARK SMILES IDX 15 1 14 2 13 3 11 4 12 5 9 7 10 8 8 9 7 11 1 12 2 13 3 14
REMARK SMILES IDX 90 15 4 16 5 17 6 18 83 19 84 20 89 21 85 22 88 23 86 24
REMARK SMILES IDX 87 25 16 27 17 28 18 29 19 31 20 32 21 33 82 34 22 35 81 36
REMARK SMILES IDX 23 37 24 38 25 39 75 40 26 41 80 42 74 43 76 44 27 45 79 46
REMARK SMILES IDX 73 47 72 48 28 50 60 51 40 52 59 53 41 54 44 55 58 56 77 57
REMARK SMILES IDX 42 58 43 59 57 61 78 62 45 63 29 64 30 65 38 66 31 67 32 68
REMARK SMILES IDX 36 69 39 70 33 71 34 72 37 73 35 74 61 75 62 76 70 77 63 78
REMARK SMILES IDX 64 79 68 80 71 81 65 82 66 83 69 84 67 85 46 86 47 87 55 88
REMARK SMILES IDX 48 89 49 90 53 91 56 92 50 93 51 94 54 95 52 96
REMARK H PARENT 13 6 8 10 87 26 17 30 76 49 44 60
REMARK Flexibility Score: inf
ROOT
ATOM      1  C   UNL A   1      35.968  23.176  25.533  1.00  0.00     0.042 C 
ENDROOT
BRANCH   1   2
ATOM      2  C   UNL A   1      34.862  24.203  25.402  1.00  0.00     0.117 C 
BRANCH   2   3
ATOM      3  N   UNL A   1      34.699  24.655  24.036  1.00  0.00    -0.354 N 
ATOM      4  C   UNL A   1      33.624  25.243  23.425  1.00  0.00     0.250 C 
ATOM      5  O   UNL A   1      33.687  25.285  22.192  1.00  0.00    -0.272 OA
ATOM      6  H   UNL A   1      35.482  24.518  23.457  1.00  0.00     0.163 HD
BRANCH   4   7
ATOM      7  C   UNL A   1      32.410  25.773  24.286  1.00  0.00     0.139 C 
ATOM      8  C   UNL A   1      31.894  24.655  25.236  1.00  0.00     0.051 C 
BRANCH   7   9
ATOM      9  N   UNL A   1      31.337  26.155  23.310  1.00  0.00    -0.368 N 
ATOM     10  H   UNL A   1      31.397  25.688  22.447  1.00  0.00     0.161 HD
BRANCH   9  11
ATOM     11  C   UNL A   1      30.278  27.042  23.400  1.00  0.00     0.038 A 
ATOM     12  C   UNL A   1      29.354  30.357  21.688  1.00  0.00     0.044 C 
ATOM     13  C   UNL A   1      29.242  29.072  22.451  1.00  0.00    -0.046 A 
ATOM     14  C   UNL A   1      27.996  28.632  22.886  1.00  0.00     0.042 A 
ATOM     15  C   UNL A   1      30.364  28.255  22.683  1.00  0.00     0.029 A 
ATOM     16  C   UNL A   1      27.918  27.502  23.684  1.00  0.00     0.125 A 
ATOM     17  F   UNL A   1      26.721  27.085  24.115  1.00  0.00    -0.207 F 
ATOM     18  C   UNL A   1      29.055  26.765  24.008  1.00  0.00     0.065 A 
ENDBRANCH   9  11
ENDBRANCH   7   9
BRANCH   7  19
ATOM     19  C   UNL A   1      32.775  26.876  25.302  1.00  0.00    -0.013 A 
ATOM     20  C   UNL A   1      32.134  26.932  26.557  1.00  0.00     0.010 A 
ATOM     21  C   UNL A   1      33.811  27.796  25.063  1.00  0.00     0.010 A 
ATOM     22  C   UNL A   1      32.369  27.986  27.435  1.00  0.00     0.046 A 
ATOM     23  C   UNL A   1      34.075  28.833  25.957  1.00  0.00     0.046 A 
ATOM     24  C   UNL A   1      33.318  28.943  27.114  1.00  0.00     0.115 A 
BRANCH  24  25
ATOM     25  O   UNL A   1      33.485  29.991  27.968  1.00  0.00    -0.508 OA
ATOM     26  H   UNL A   1      32.737  30.440  28.311  1.00  0.00     0.293 HD
ENDBRANCH  24  25
ENDBRANCH   7  19
ENDBRANCH   4   7
ENDBRANCH   2   3
ENDBRANCH   1   2
BRANCH   1  27
ATOM     27  C   UNL A   1      37.260  23.868  25.844  1.00  0.00     0.118 C 
BRANCH  27  28
ATOM     28  N   UNL A   1      38.267  22.932  26.374  1.00  0.00    -0.352 N 
ATOM     29  C   UNL A   1      39.516  23.235  26.856  1.00  0.00     0.251 C 
ATOM     30  H   UNL A   1      38.016  21.981  26.382  1.00  0.00     0.163 HD
ATOM     31  O   UNL A   1      40.384  22.376  26.995  1.00  0.00    -0.269 OA
BRANCH  29  32
ATOM     32  C   UNL A   1      39.745  24.625  27.245  1.00  0.00     0.039 A 
ATOM     33  C   UNL A   1      40.302  25.588  26.402  1.00  0.00     0.014 A 
ATOM     34  C   UNL A   1      39.310  24.945  28.524  1.00  0.00     0.014 A 
ATOM     35  C   UNL A   1      40.409  26.887  26.882  1.00  0.00     0.010 A 
ATOM     36  C   UNL A   1      39.067  26.236  28.819  1.00  0.00     0.010 A 
ATOM     37  C   UNL A   1      39.797  27.176  28.103  1.00  0.00    -0.014 A 
BRANCH  37  38
ATOM     38  C   UNL A   1      39.978  28.372  28.893  1.00  0.00     0.031 A 
ATOM     39  C   UNL A   1      39.018  29.456  28.762  1.00  0.00     0.074 A 
ATOM     40  C   UNL A   1      40.886  28.221  29.888  1.00  0.00     0.049 A 
ATOM     41  N   UNL A   1      39.281  30.692  28.980  1.00  0.00    -0.248 NA
ATOM     42  C   UNL A   1      37.646  29.220  28.320  1.00  0.00     0.031 C 
ATOM     43  C   UNL A   1      41.113  28.959  31.113  1.00  0.00     0.029 A 
ATOM     44  N   UNL A   1      41.898  27.238  29.910  1.00  0.00    -0.354 N 
ATOM     45  C   UNL A   1      38.059  31.306  29.153  1.00  0.00     0.074 A 
ATOM     46  C   UNL A   1      37.111  30.429  28.509  1.00  0.00     0.031 C 
ATOM     47  C   UNL A   1      42.353  28.664  31.562  1.00  0.00     0.029 A 
ATOM     48  C   UNL A   1      42.989  27.812  30.563  1.00  0.00     0.049 A 
ATOM     49  H   UNL A   1      41.844  26.328  29.540  1.00  0.00     0.167 HD
ATOM     50  C   UNL A   1      37.977  32.316  30.071  1.00  0.00     0.037 A 
ATOM     51  C   UNL A   1      44.070  28.127  29.790  1.00  0.00     0.037 A 
ATOM     52  C   UNL A   1      39.299  32.528  30.686  1.00  0.00     0.049 A 
ATOM     53  C   UNL A   1      44.209  29.623  29.697  1.00  0.00     0.074 A 
ATOM     54  C   UNL A   1      39.812  32.145  31.915  1.00  0.00     0.029 A 
ATOM     55  N   UNL A   1      40.400  32.852  29.890  1.00  0.00    -0.354 N 
ATOM     56  N   UNL A   1      43.204  30.456  29.717  1.00  0.00    -0.248 NA
ATOM     57  C   UNL A   1      45.504  30.281  29.676  1.00  0.00     0.031 C 
ATOM     58  C   UNL A   1      41.229  32.179  31.832  1.00  0.00     0.029 A 
ATOM     59  C   UNL A   1      41.583  32.578  30.554  1.00  0.00     0.049 A 
ATOM     60  H   UNL A   1      40.342  33.226  28.981  1.00  0.00     0.167 HD
ATOM     61  C   UNL A   1      43.689  31.734  29.793  1.00  0.00     0.074 A 
ATOM     62  C   UNL A   1      45.133  31.570  29.748  1.00  0.00     0.031 C 
ATOM     63  C   UNL A   1      42.881  32.829  29.937  1.00  0.00     0.037 A 
BRANCH  50  64
ATOM     64  C   UNL A   1      36.686  32.823  30.700  1.00  0.00     0.064 A 
ATOM     65  C   UNL A   1      35.853  33.724  29.996  1.00  0.00     0.173 A 
ATOM     66  C   UNL A   1      36.219  32.504  31.991  1.00  0.00     0.173 A 
ATOM     67  F   UNL A   1      36.079  34.028  28.712  1.00  0.00    -0.203 F 
ATOM     68  C   UNL A   1      34.739  34.341  30.574  1.00  0.00     0.198 A 
ATOM     69  C   UNL A   1      35.122  33.144  32.583  1.00  0.00     0.198 A 
ATOM     70  F   UNL A   1      36.757  31.517  32.712  1.00  0.00    -0.203 F 
ATOM     71  F   UNL A   1      34.009  35.202  29.850  1.00  0.00    -0.200 F 
ATOM     72  C   UNL A   1      34.389  34.073  31.878  1.00  0.00     0.200 A 
ATOM     73  F   UNL A   1      34.775  32.838  33.842  1.00  0.00    -0.200 F 
ATOM     74  F   UNL A   1      33.332  34.676  32.438  1.00  0.00    -0.200 F 
ENDBRANCH  50  64
BRANCH  51  75
ATOM     75  C   UNL A   1      44.262  27.154  28.660  1.00  0.00     0.064 A 
ATOM     76  C   UNL A   1      43.940  27.592  27.354  1.00  0.00     0.173 A 
ATOM     77  C   UNL A   1      45.094  26.031  28.763  1.00  0.00     0.173 A 
ATOM     78  F   UNL A   1      43.150  28.665  27.185  1.00  0.00    -0.203 F 
ATOM     79  C   UNL A   1      44.529  27.026  26.223  1.00  0.00     0.198 A 
ATOM     80  C   UNL A   1      45.660  25.446  27.623  1.00  0.00     0.198 A 
ATOM     81  F   UNL A   1      45.445  25.553  29.965  1.00  0.00    -0.203 F 
ATOM     82  F   UNL A   1      44.311  27.564  25.014  1.00  0.00    -0.200 F 
ATOM     83  C   UNL A   1      45.405  25.965  26.361  1.00  0.00     0.200 A 
ATOM     84  F   UNL A   1      46.522  24.426  27.753  1.00  0.00    -0.200 F 
ATOM     85  F   UNL A   1      46.028  25.466  25.285  1.00  0.00    -0.200 F 
ENDBRANCH  51  75
BRANCH  63  86
ATOM     86  C   UNL A   1      43.302  34.257  29.684  1.00  0.00     0.064 A 
ATOM     87  C   UNL A   1      43.527  34.791  28.403  1.00  0.00     0.173 A 
ATOM     88  C   UNL A   1      43.377  35.194  30.745  1.00  0.00     0.173 A 
ATOM     89  F   UNL A   1      43.303  34.077  27.294  1.00  0.00    -0.203 F 
ATOM     90  C   UNL A   1      43.934  36.111  28.212  1.00  0.00     0.198 A 
ATOM     91  C   UNL A   1      43.701  36.533  30.541  1.00  0.00     0.198 A 
ATOM     92  F   UNL A   1      43.108  34.858  32.014  1.00  0.00    -0.203 F 
ATOM     93  F   UNL A   1      44.222  36.538  26.976  1.00  0.00    -0.200 F 
ATOM     94  C   UNL A   1      44.018  36.983  29.279  1.00  0.00     0.200 A 
ATOM     95  F   UNL A   1      43.690  37.383  31.577  1.00  0.00    -0.200 F 
ATOM     96  F   UNL A   1      44.373  38.259  29.087  1.00  0.00    -0.200 F 
ENDBRANCH  63  86
ENDBRANCH  37  38
ENDBRANCH  29  32
ENDBRANCH  27  28
ENDBRANCH   1  27
TORSDOF 14
ENDMDL
