MODEL 1
REMARK VINA RESULT:     -12.1      0.000      0.000
REMARK SMILES CC1(C)OC(=O)C(/C=N/[C@@H](CCC(N)=O)C(=O)NCCCNC(=O)c2ccc(-c3c4nc(c(-c5c(F)c(F)c(F)c(F)c5F)c5ccc([nH]5)c(-c5c(F)c(F)c(F)c(F)c5F)c5nc(c(-c6c(F)c(F)c(F)c(F)c6F)c6ccc3[nH]6)C=C5)C=C4)cc2)C(=O)O1
REMARK SMILES IDX 19 1 18 2 16 3 17 4 10 6 9 7 8 8 7 9 1 10 2 11 3 12 4 13
REMARK SMILES IDX 90 14 5 15 88 16 6 17 89 18 11 19 12 20 13 21 14 22 15 23
REMARK SMILES IDX 20 26 21 27 22 28 23 29 24 31 25 32 26 33 87 34 27 35 86 36
REMARK SMILES IDX 28 37 29 38 30 39 80 40 31 41 85 42 79 43 81 44 32 45 84 46
REMARK SMILES IDX 78 47 77 48 33 50 65 51 45 52 64 53 46 54 49 55 63 56 82 57
REMARK SMILES IDX 47 58 48 59 62 61 83 62 50 63 34 64 35 65 43 66 36 67 37 68
REMARK SMILES IDX 41 69 44 70 38 71 39 72 42 73 40 74 66 75 67 76 75 77 68 78
REMARK SMILES IDX 69 79 73 80 76 81 70 82 71 83 74 84 72 85 51 86 52 87 60 88
REMARK SMILES IDX 53 89 54 90 58 91 61 92 55 93 56 94 59 95 57 96
REMARK H PARENT 18 5 14 24 14 25 22 30 81 49 49 60
REMARK Flexibility Score: inf
ROOT
ATOM      1  C   UNL A   1      33.651  27.544  23.810  1.00  0.00     0.117 C 
ENDROOT
BRANCH   1   2
ATOM      2  N   UNL A   1      33.122  27.085  22.562  1.00  0.00    -0.354 N 
ATOM      3  C   UNL A   1      31.877  26.600  22.293  1.00  0.00     0.244 C 
ATOM      4  O   UNL A   1      31.587  26.423  21.106  1.00  0.00    -0.273 OA
ATOM      5  H   UNL A   1      33.738  27.124  21.795  1.00  0.00     0.163 HD
BRANCH   3   6
ATOM      6  C   UNL A   1      30.882  26.246  23.418  1.00  0.00     0.194 C 
BRANCH   6   7
ATOM      7  N   UNL A   1      31.477  25.277  24.367  1.00  0.00    -0.283 NA
ATOM      8  C   UNL A   1      31.456  25.352  25.638  1.00  0.00     0.105 C 
BRANCH   8   9
ATOM      9  C   UNL A   1      32.097  24.273  26.487  1.00  0.00     0.250 C 
ATOM     10  C   UNL A   1      32.550  21.366  23.827  1.00  0.00     0.106 C 
ATOM     11  C   UNL A   1      32.714  21.783  25.288  1.00  0.00     0.252 C 
ATOM     12  C   UNL A   1      33.278  20.620  26.102  1.00  0.00     0.106 C 
ATOM     13  O   UNL A   1      31.410  22.078  25.773  1.00  0.00    -0.422 OA
ATOM     14  O   UNL A   1      33.668  22.844  25.314  1.00  0.00    -0.422 OA
ATOM     15  C   UNL A   1      31.230  23.080  26.649  1.00  0.00     0.329 C 
ATOM     16  C   UNL A   1      33.462  23.984  25.986  1.00  0.00     0.329 C 
ATOM     17  O   UNL A   1      30.298  23.031  27.444  1.00  0.00    -0.251 OA
ATOM     18  O   UNL A   1      34.361  24.816  26.070  1.00  0.00    -0.251 OA
ENDBRANCH   8   9
ENDBRANCH   6   7
BRANCH   6  19
ATOM     19  C   UNL A   1      29.912  27.319  23.948  1.00  0.00     0.047 C 
BRANCH  19  20
ATOM     20  C   UNL A   1      29.215  28.349  23.051  1.00  0.00     0.102 C 
BRANCH  20  21
ATOM     21  C   UNL A   1      29.861  29.719  23.006  1.00  0.00     0.217 C 
ATOM     22  N   UNL A   1      30.594  29.959  21.878  1.00  0.00    -0.370 N 
ATOM     23  O   UNL A   1      29.752  30.571  23.876  1.00  0.00    -0.275 OA
ATOM     24  H   UNL A   1      30.674  29.265  21.185  1.00  0.00     0.159 HD
ATOM     25  H   UNL A   1      31.042  30.827  21.758  1.00  0.00     0.159 HD
ENDBRANCH  20  21
ENDBRANCH  19  20
ENDBRANCH   6  19
ENDBRANCH   3   6
ENDBRANCH   1   2
BRANCH   1  26
ATOM     26  C   UNL A   1      33.212  28.937  24.189  1.00  0.00     0.042 C 
BRANCH  26  27
ATOM     27  C   UNL A   1      32.955  29.093  25.670  1.00  0.00     0.118 C 
BRANCH  27  28
ATOM     28  N   UNL A   1      32.645  30.470  26.048  1.00  0.00    -0.352 N 
ATOM     29  C   UNL A   1      33.254  31.315  26.945  1.00  0.00     0.251 C 
ATOM     30  H   UNL A   1      31.870  30.857  25.581  1.00  0.00     0.163 HD
ATOM     31  O   UNL A   1      32.736  32.393  27.201  1.00  0.00    -0.269 OA
BRANCH  29  32
ATOM     32  C   UNL A   1      34.503  30.907  27.626  1.00  0.00     0.039 A 
ATOM     33  C   UNL A   1      35.510  31.856  27.820  1.00  0.00     0.014 A 
ATOM     34  C   UNL A   1      34.687  29.599  28.073  1.00  0.00     0.014 A 
ATOM     35  C   UNL A   1      36.668  31.501  28.513  1.00  0.00     0.010 A 
ATOM     36  C   UNL A   1      35.764  29.289  28.886  1.00  0.00     0.010 A 
ATOM     37  C   UNL A   1      36.787  30.223  29.080  1.00  0.00    -0.014 A 
BRANCH  37  38
ATOM     38  C   UNL A   1      38.003  29.800  29.814  1.00  0.00     0.031 A 
ATOM     39  C   UNL A   1      38.238  30.311  31.211  1.00  0.00     0.074 A 
ATOM     40  C   UNL A   1      38.922  29.029  29.201  1.00  0.00     0.049 A 
ATOM     41  N   UNL A   1      39.278  30.153  31.989  1.00  0.00    -0.248 NA
ATOM     42  C   UNL A   1      37.182  31.158  31.794  1.00  0.00     0.031 C 
ATOM     43  C   UNL A   1      38.835  28.533  27.827  1.00  0.00     0.029 A 
ATOM     44  N   UNL A   1      40.114  28.532  29.659  1.00  0.00    -0.354 N 
ATOM     45  C   UNL A   1      39.014  30.910  33.126  1.00  0.00     0.074 A 
ATOM     46  C   UNL A   1      37.756  31.584  32.907  1.00  0.00     0.031 C 
ATOM     47  C   UNL A   1      39.910  27.772  27.566  1.00  0.00     0.029 A 
ATOM     48  C   UNL A   1      40.775  27.754  28.741  1.00  0.00     0.049 A 
ATOM     49  H   UNL A   1      40.465  28.716  30.560  1.00  0.00     0.167 HD
ATOM     50  C   UNL A   1      39.736  31.002  34.266  1.00  0.00     0.037 A 
ATOM     51  C   UNL A   1      41.945  27.097  28.846  1.00  0.00     0.037 A 
ATOM     52  C   UNL A   1      40.954  30.274  34.499  1.00  0.00     0.049 A 
ATOM     53  C   UNL A   1      42.699  27.166  30.147  1.00  0.00     0.074 A 
ATOM     54  C   UNL A   1      41.736  30.236  35.638  1.00  0.00     0.029 A 
ATOM     55  N   UNL A   1      41.557  29.441  33.567  1.00  0.00    -0.354 N 
ATOM     56  N   UNL A   1      42.408  27.828  31.241  1.00  0.00    -0.248 NA
ATOM     57  C   UNL A   1      43.936  26.378  30.234  1.00  0.00     0.031 C 
ATOM     58  C   UNL A   1      42.829  29.400  35.387  1.00  0.00     0.029 A 
ATOM     59  C   UNL A   1      42.703  28.883  34.107  1.00  0.00     0.049 A 
ATOM     60  H   UNL A   1      41.221  29.272  32.658  1.00  0.00     0.167 HD
ATOM     61  C   UNL A   1      43.401  27.512  32.156  1.00  0.00     0.074 A 
ATOM     62  C   UNL A   1      44.297  26.586  31.493  1.00  0.00     0.031 C 
ATOM     63  C   UNL A   1      43.561  27.944  33.431  1.00  0.00     0.037 A 
BRANCH  50  64
ATOM     64  C   UNL A   1      39.212  31.901  35.349  1.00  0.00     0.064 A 
ATOM     65  C   UNL A   1      39.488  33.277  35.361  1.00  0.00     0.173 A 
ATOM     66  C   UNL A   1      38.417  31.385  36.383  1.00  0.00     0.173 A 
ATOM     67  F   UNL A   1      40.258  33.820  34.406  1.00  0.00    -0.203 F 
ATOM     68  C   UNL A   1      39.020  34.096  36.386  1.00  0.00     0.198 A 
ATOM     69  C   UNL A   1      37.921  32.213  37.388  1.00  0.00     0.198 A 
ATOM     70  F   UNL A   1      38.120  30.078  36.421  1.00  0.00    -0.203 F 
ATOM     71  F   UNL A   1      39.351  35.394  36.408  1.00  0.00    -0.200 F 
ATOM     72  C   UNL A   1      38.232  33.564  37.394  1.00  0.00     0.200 A 
ATOM     73  F   UNL A   1      37.149  31.699  38.356  1.00  0.00    -0.200 F 
ATOM     74  F   UNL A   1      37.779  34.353  38.378  1.00  0.00    -0.200 F 
ENDBRANCH  50  64
BRANCH  51  75
ATOM     75  C   UNL A   1      42.441  26.274  27.715  1.00  0.00     0.064 A 
ATOM     76  C   UNL A   1      41.978  24.964  27.524  1.00  0.00     0.173 A 
ATOM     77  C   UNL A   1      43.381  26.771  26.800  1.00  0.00     0.173 A 
ATOM     78  F   UNL A   1      41.086  24.439  28.379  1.00  0.00    -0.203 F 
ATOM     79  C   UNL A   1      42.455  24.174  26.481  1.00  0.00     0.198 A 
ATOM     80  C   UNL A   1      43.836  25.989  25.739  1.00  0.00     0.198 A 
ATOM     81  F   UNL A   1      43.843  28.023  26.927  1.00  0.00    -0.203 F 
ATOM     82  F   UNL A   1      42.026  22.911  26.350  1.00  0.00    -0.200 F 
ATOM     83  C   UNL A   1      43.380  24.689  25.586  1.00  0.00     0.200 A 
ATOM     84  F   UNL A   1      44.716  26.498  24.865  1.00  0.00    -0.200 F 
ATOM     85  F   UNL A   1      43.835  23.931  24.580  1.00  0.00    -0.200 F 
ENDBRANCH  51  75
BRANCH  63  86
ATOM     86  C   UNL A   1      44.710  27.375  34.208  1.00  0.00     0.064 A 
ATOM     87  C   UNL A   1      45.961  28.007  34.245  1.00  0.00     0.173 A 
ATOM     88  C   UNL A   1      44.540  26.202  34.959  1.00  0.00     0.173 A 
ATOM     89  F   UNL A   1      46.175  29.123  33.534  1.00  0.00    -0.203 F 
ATOM     90  C   UNL A   1      47.011  27.465  34.981  1.00  0.00     0.198 A 
ATOM     91  C   UNL A   1      45.582  25.681  35.717  1.00  0.00     0.198 A 
ATOM     92  F   UNL A   1      43.358  25.567  34.962  1.00  0.00    -0.203 F 
ATOM     93  F   UNL A   1      48.214  28.056  34.961  1.00  0.00    -0.200 F 
ATOM     94  C   UNL A   1      46.819  26.307  35.721  1.00  0.00     0.200 A 
ATOM     95  F   UNL A   1      45.391  24.570  36.444  1.00  0.00    -0.200 F 
ATOM     96  F   UNL A   1      47.830  25.791  36.433  1.00  0.00    -0.200 F 
ENDBRANCH  63  86
ENDBRANCH  37  38
ENDBRANCH  29  32
ENDBRANCH  27  28
ENDBRANCH  26  27
ENDBRANCH   1  26
TORSDOF 15
ENDMDL
MODEL 2
REMARK VINA RESULT:     -12.1      1.823      2.682
REMARK SMILES CC1(C)OC(=O)C(/C=N/[C@@H](CCC(N)=O)C(=O)NCCCNC(=O)c2ccc(-c3c4nc(c(-c5c(F)c(F)c(F)c(F)c5F)c5ccc([nH]5)c(-c5c(F)c(F)c(F)c(F)c5F)c5nc(c(-c6c(F)c(F)c(F)c(F)c6F)c6ccc3[nH]6)C=C5)C=C4)cc2)C(=O)O1
REMARK SMILES IDX 19 1 18 2 16 3 17 4 10 6 9 7 8 8 7 9 1 10 2 11 3 12 4 13
REMARK SMILES IDX 90 14 5 15 88 16 6 17 89 18 11 19 12 20 13 21 14 22 15 23
REMARK SMILES IDX 20 26 21 27 22 28 23 29 24 31 25 32 26 33 87 34 27 35 86 36
REMARK SMILES IDX 28 37 29 38 30 39 80 40 31 41 85 42 79 43 81 44 32 45 84 46
REMARK SMILES IDX 78 47 77 48 33 50 65 51 45 52 64 53 46 54 49 55 63 56 82 57
REMARK SMILES IDX 47 58 48 59 62 61 83 62 50 63 34 64 35 65 43 66 36 67 37 68
REMARK SMILES IDX 41 69 44 70 38 71 39 72 42 73 40 74 66 75 67 76 75 77 68 78
REMARK SMILES IDX 69 79 73 80 76 81 70 82 71 83 74 84 72 85 51 86 52 87 60 88
REMARK SMILES IDX 53 89 54 90 58 91 61 92 55 93 56 94 59 95 57 96
REMARK H PARENT 18 5 14 24 14 25 22 30 81 49 49 60
REMARK Flexibility Score: inf
ROOT
ATOM      1  C   UNL A   1      32.733  30.501  27.249  1.00  0.00     0.117 C 
ENDROOT
BRANCH   1   2
ATOM      2  N   UNL A   1      31.968  29.324  27.535  1.00  0.00    -0.354 N 
ATOM      3  C   UNL A   1      31.645  28.297  26.701  1.00  0.00     0.244 C 
ATOM      4  O   UNL A   1      31.120  27.302  27.211  1.00  0.00    -0.273 OA
ATOM      5  H   UNL A   1      31.630  29.248  28.456  1.00  0.00     0.163 HD
BRANCH   3   6
ATOM      6  C   UNL A   1      31.885  28.379  25.179  1.00  0.00     0.194 C 
BRANCH   6   7
ATOM      7  N   UNL A   1      32.478  27.122  24.667  1.00  0.00    -0.283 NA
ATOM      8  C   UNL A   1      33.622  26.992  24.123  1.00  0.00     0.105 C 
BRANCH   8   9
ATOM      9  C   UNL A   1      34.107  25.635  23.656  1.00  0.00     0.250 C 
ATOM     10  C   UNL A   1      30.733  23.549  23.714  1.00  0.00     0.106 C 
ATOM     11  C   UNL A   1      32.242  23.513  23.467  1.00  0.00     0.252 C 
ATOM     12  C   UNL A   1      32.674  22.097  23.091  1.00  0.00     0.106 C 
ATOM     13  O   UNL A   1      32.861  23.858  24.700  1.00  0.00    -0.422 OA
ATOM     14  O   UNL A   1      32.502  24.366  22.353  1.00  0.00    -0.422 OA
ATOM     15  C   UNL A   1      33.986  24.591  24.704  1.00  0.00     0.329 C 
ATOM     16  C   UNL A   1      33.470  25.291  22.363  1.00  0.00     0.329 C 
ATOM     17  O   UNL A   1      34.788  24.466  25.622  1.00  0.00    -0.251 OA
ATOM     18  O   UNL A   1      33.727  25.919  21.339  1.00  0.00    -0.251 OA
ENDBRANCH   8   9
ENDBRANCH   6   7
BRANCH   6  19
ATOM     19  C   UNL A   1      30.903  29.165  24.290  1.00  0.00     0.047 C 
BRANCH  19  20
ATOM     20  C   UNL A   1      30.055  28.521  23.187  1.00  0.00     0.102 C 
BRANCH  20  21
ATOM     21  C   UNL A   1      29.561  29.464  22.109  1.00  0.00     0.217 C 
ATOM     22  N   UNL A   1      30.552  30.140  21.456  1.00  0.00    -0.370 N 
ATOM     23  O   UNL A   1      28.387  29.627  21.809  1.00  0.00    -0.275 OA
ATOM     24  H   UNL A   1      31.493  30.000  21.707  1.00  0.00     0.159 HD
ATOM     25  H   UNL A   1      30.325  30.769  20.732  1.00  0.00     0.159 HD
ENDBRANCH  20  21
ENDBRANCH  19  20
ENDBRANCH   6  19
ENDBRANCH   3   6
ENDBRANCH   1   2
BRANCH   1  26
ATOM     26  C   UNL A   1      31.920  31.772  27.232  1.00  0.00     0.042 C 
BRANCH  26  27
ATOM     27  C   UNL A   1      32.713  32.973  26.770  1.00  0.00     0.118 C 
BRANCH  27  28
ATOM     28  N   UNL A   1      32.467  34.160  27.585  1.00  0.00    -0.352 N 
ATOM     29  C   UNL A   1      33.078  34.606  28.733  1.00  0.00     0.251 C 
ATOM     30  H   UNL A   1      31.741  34.738  27.256  1.00  0.00     0.163 HD
ATOM     31  O   UNL A   1      32.612  35.569  29.326  1.00  0.00    -0.269 OA
BRANCH  29  32
ATOM     32  C   UNL A   1      34.263  33.901  29.270  1.00  0.00     0.039 A 
ATOM     33  C   UNL A   1      35.537  34.387  28.962  1.00  0.00     0.014 A 
ATOM     34  C   UNL A   1      34.128  32.769  30.072  1.00  0.00     0.014 A 
ATOM     35  C   UNL A   1      36.662  33.769  29.509  1.00  0.00     0.010 A 
ATOM     36  C   UNL A   1      35.229  32.250  30.730  1.00  0.00     0.010 A 
ATOM     37  C   UNL A   1      36.513  32.716  30.425  1.00  0.00    -0.014 A 
BRANCH  37  38
ATOM     38  C   UNL A   1      37.679  32.023  31.021  1.00  0.00     0.031 A 
ATOM     39  C   UNL A   1      38.132  32.399  32.408  1.00  0.00     0.074 A 
ATOM     40  C   UNL A   1      38.368  31.123  30.294  1.00  0.00     0.049 A 
ATOM     41  N   UNL A   1      39.182  31.997  33.076  1.00  0.00    -0.248 NA
ATOM     42  C   UNL A   1      37.321  33.402  33.121  1.00  0.00     0.031 C 
ATOM     43  C   UNL A   1      38.065  30.732  28.917  1.00  0.00     0.029 A 
ATOM     44  N   UNL A   1      39.472  30.378  30.616  1.00  0.00    -0.354 N 
ATOM     45  C   UNL A   1      39.175  32.726  34.260  1.00  0.00     0.074 A 
ATOM     46  C   UNL A   1      38.063  33.644  34.189  1.00  0.00     0.031 C 
ATOM     47  C   UNL A   1      38.940  29.791  28.525  1.00  0.00     0.029 A 
ATOM     48  C   UNL A   1      39.882  29.539  29.610  1.00  0.00     0.049 A 
ATOM     49  H   UNL A   1      39.930  30.439  31.486  1.00  0.00     0.167 HD
ATOM     50  C   UNL A   1      39.997  32.611  35.328  1.00  0.00     0.037 A 
ATOM     51  C   UNL A   1      40.902  28.662  29.576  1.00  0.00     0.037 A 
ATOM     52  C   UNL A   1      41.061  31.648  35.414  1.00  0.00     0.049 A 
ATOM     53  C   UNL A   1      41.765  28.508  30.800  1.00  0.00     0.074 A 
ATOM     54  C   UNL A   1      41.916  31.393  36.471  1.00  0.00     0.029 A 
ATOM     55  N   UNL A   1      41.402  30.767  34.399  1.00  0.00    -0.354 N 
ATOM     56  N   UNL A   1      41.708  29.152  31.941  1.00  0.00    -0.248 NA
ATOM     57  C   UNL A   1      42.823  27.491  30.738  1.00  0.00     0.031 C 
ATOM     58  C   UNL A   1      42.794  30.376  36.084  1.00  0.00     0.029 A 
ATOM     59  C   UNL A   1      42.456  29.966  34.804  1.00  0.00     0.049 A 
ATOM     60  H   UNL A   1      40.961  30.718  33.520  1.00  0.00     0.167 HD
ATOM     61  C   UNL A   1      42.694  28.597  32.744  1.00  0.00     0.074 A 
ATOM     62  C   UNL A   1      43.326  27.553  31.963  1.00  0.00     0.031 C 
ATOM     63  C   UNL A   1      43.047  28.918  34.013  1.00  0.00     0.037 A 
BRANCH  50  64
ATOM     64  C   UNL A   1      39.759  33.532  36.490  1.00  0.00     0.064 A 
ATOM     65  C   UNL A   1      40.385  34.787  36.575  1.00  0.00     0.173 A 
ATOM     66  C   UNL A   1      38.889  33.165  37.527  1.00  0.00     0.173 A 
ATOM     67  F   UNL A   1      41.241  35.180  35.620  1.00  0.00    -0.203 F 
ATOM     68  C   UNL A   1      40.179  35.620  37.672  1.00  0.00     0.198 A 
ATOM     69  C   UNL A   1      38.658  34.017  38.605  1.00  0.00     0.198 A 
ATOM     70  F   UNL A   1      38.262  31.980  37.496  1.00  0.00    -0.203 F 
ATOM     71  F   UNL A   1      40.838  36.784  37.759  1.00  0.00    -0.200 F 
ATOM     72  C   UNL A   1      39.310  35.238  38.681  1.00  0.00     0.200 A 
ATOM     73  F   UNL A   1      37.808  33.650  39.575  1.00  0.00    -0.200 F 
ATOM     74  F   UNL A   1      39.109  36.042  39.733  1.00  0.00    -0.200 F 
ENDBRANCH  50  64
BRANCH  51  75
ATOM     75  C   UNL A   1      41.124  27.822  28.372  1.00  0.00     0.064 A 
ATOM     76  C   UNL A   1      40.500  26.573  28.244  1.00  0.00     0.173 A 
ATOM     77  C   UNL A   1      41.955  28.244  27.325  1.00  0.00     0.173 A 
ATOM     78  F   UNL A   1      39.704  26.120  29.225  1.00  0.00    -0.203 F 
ATOM     79  C   UNL A   1      40.720  25.765  27.131  1.00  0.00     0.198 A 
ATOM     80  C   UNL A   1      42.152  27.448  26.197  1.00  0.00     0.198 A 
ATOM     81  F   UNL A   1      42.562  29.438  27.388  1.00  0.00    -0.203 F 
ATOM     82  F   UNL A   1      40.145  24.558  27.057  1.00  0.00    -0.200 F 
ATOM     83  C   UNL A   1      41.542  26.206  26.105  1.00  0.00     0.200 A 
ATOM     84  F   UNL A   1      42.932  27.887  25.199  1.00  0.00    -0.200 F 
ATOM     85  F   UNL A   1      41.750  25.433  25.031  1.00  0.00    -0.200 F 
ENDBRANCH  51  75
BRANCH  63  86
ATOM     86  C   UNL A   1      44.123  28.092  34.654  1.00  0.00     0.064 A 
ATOM     87  C   UNL A   1      45.471  28.473  34.609  1.00  0.00     0.173 A 
ATOM     88  C   UNL A   1      43.789  26.925  35.357  1.00  0.00     0.173 A 
ATOM     89  F   UNL A   1      45.840  29.574  33.937  1.00  0.00    -0.203 F 
ATOM     90  C   UNL A   1      46.452  27.696  35.219  1.00  0.00     0.198 A 
ATOM     91  C   UNL A   1      44.768  26.168  35.991  1.00  0.00     0.198 A 
ATOM     92  F   UNL A   1      42.511  26.525  35.436  1.00  0.00    -0.203 F 
ATOM     93  F   UNL A   1      47.741  28.050  35.119  1.00  0.00    -0.200 F 
ATOM     94  C   UNL A   1      46.099  26.548  35.915  1.00  0.00     0.200 A 
ATOM     95  F   UNL A   1      44.425  25.067  36.676  1.00  0.00    -0.200 F 
ATOM     96  F   UNL A   1      47.044  25.805  36.506  1.00  0.00    -0.200 F 
ENDBRANCH  63  86
ENDBRANCH  37  38
ENDBRANCH  29  32
ENDBRANCH  27  28
ENDBRANCH  26  27
ENDBRANCH   1  26
TORSDOF 15
ENDMDL
MODEL 3
REMARK VINA RESULT:     -12.0      1.086      2.551
REMARK SMILES CC1(C)OC(=O)C(/C=N/[C@@H](CCC(N)=O)C(=O)NCCCNC(=O)c2ccc(-c3c4nc(c(-c5c(F)c(F)c(F)c(F)c5F)c5ccc([nH]5)c(-c5c(F)c(F)c(F)c(F)c5F)c5nc(c(-c6c(F)c(F)c(F)c(F)c6F)c6ccc3[nH]6)C=C5)C=C4)cc2)C(=O)O1
REMARK SMILES IDX 19 1 18 2 16 3 17 4 10 6 9 7 8 8 7 9 1 10 2 11 3 12 4 13
REMARK SMILES IDX 90 14 5 15 88 16 6 17 89 18 11 19 12 20 13 21 14 22 15 23
REMARK SMILES IDX 20 26 21 27 22 28 23 29 24 31 25 32 26 33 87 34 27 35 86 36
REMARK SMILES IDX 28 37 29 38 30 39 80 40 31 41 85 42 79 43 81 44 32 45 84 46
REMARK SMILES IDX 78 47 77 48 33 50 65 51 45 52 64 53 46 54 49 55 63 56 82 57
REMARK SMILES IDX 47 58 48 59 62 61 83 62 50 63 34 64 35 65 43 66 36 67 37 68
REMARK SMILES IDX 41 69 44 70 38 71 39 72 42 73 40 74 66 75 67 76 75 77 68 78
REMARK SMILES IDX 69 79 73 80 76 81 70 82 71 83 74 84 72 85 51 86 52 87 60 88
REMARK SMILES IDX 53 89 54 90 58 91 61 92 55 93 56 94 59 95 57 96
REMARK H PARENT 18 5 14 24 14 25 22 30 81 49 49 60
REMARK Flexibility Score: inf
ROOT
ATOM      1  C   UNL A   1      32.273  27.825  27.075  1.00  0.00     0.117 C 
ENDROOT
BRANCH   1   2
ATOM      2  N   UNL A   1      31.176  26.907  27.114  1.00  0.00    -0.354 N 
ATOM      3  C   UNL A   1      30.733  26.070  26.135  1.00  0.00     0.244 C 
ATOM      4  O   UNL A   1      29.872  25.241  26.450  1.00  0.00    -0.273 OA
ATOM      5  H   UNL A   1      30.674  26.876  27.961  1.00  0.00     0.163 HD
BRANCH   3   6
ATOM      6  C   UNL A   1      31.248  26.171  24.684  1.00  0.00     0.194 C 
BRANCH   6   7
ATOM      7  N   UNL A   1      32.275  25.139  24.413  1.00  0.00    -0.283 NA
ATOM      8  C   UNL A   1      33.493  25.346  24.108  1.00  0.00     0.105 C 
BRANCH   8   9
ATOM      9  C   UNL A   1      34.439  24.187  23.870  1.00  0.00     0.250 C 
ATOM     10  C   UNL A   1      32.363  21.173  25.400  1.00  0.00     0.106 C 
ATOM     11  C   UNL A   1      33.677  21.605  24.749  1.00  0.00     0.252 C 
ATOM     12  C   UNL A   1      34.616  20.407  24.624  1.00  0.00     0.106 C 
ATOM     13  O   UNL A   1      34.272  22.550  25.629  1.00  0.00    -0.422 OA
ATOM     14  O   UNL A   1      33.361  22.058  23.434  1.00  0.00    -0.422 OA
ATOM     15  C   UNL A   1      34.951  23.596  25.132  1.00  0.00     0.329 C 
ATOM     16  C   UNL A   1      33.819  23.216  22.939  1.00  0.00     0.329 C 
ATOM     17  O   UNL A   1      35.863  24.094  25.783  1.00  0.00    -0.251 OA
ATOM     18  O   UNL A   1      33.611  23.503  21.763  1.00  0.00    -0.251 OA
ENDBRANCH   8   9
ENDBRANCH   6   7
BRANCH   6  19
ATOM     19  C   UNL A   1      30.285  26.591  23.557  1.00  0.00     0.047 C 
BRANCH  19  20
ATOM     20  C   UNL A   1      30.686  27.511  22.398  1.00  0.00     0.102 C 
BRANCH  20  21
ATOM     21  C   UNL A   1      30.622  28.996  22.691  1.00  0.00     0.217 C 
ATOM     22  N   UNL A   1      31.032  29.792  21.658  1.00  0.00    -0.370 N 
ATOM     23  O   UNL A   1      30.234  29.484  23.742  1.00  0.00    -0.275 OA
ATOM     24  H   UNL A   1      31.342  29.386  20.816  1.00  0.00     0.159 HD
ATOM     25  H   UNL A   1      31.015  30.771  21.755  1.00  0.00     0.159 HD
ENDBRANCH  20  21
ENDBRANCH  19  20
ENDBRANCH   6  19
ENDBRANCH   3   6
ENDBRANCH   1   2
BRANCH   1  26
ATOM     26  C   UNL A   1      31.862  29.266  26.896  1.00  0.00     0.042 C 
BRANCH  26  27
ATOM     27  C   UNL A   1      32.925  30.103  26.221  1.00  0.00     0.118 C 
BRANCH  27  28
ATOM     28  N   UNL A   1      32.824  31.522  26.556  1.00  0.00    -0.352 N 
ATOM     29  C   UNL A   1      33.579  32.303  27.398  1.00  0.00     0.251 C 
ATOM     30  H   UNL A   1      32.092  31.998  26.102  1.00  0.00     0.163 HD
ATOM     31  O   UNL A   1      33.226  33.451  27.629  1.00  0.00    -0.269 OA
BRANCH  29  32
ATOM     32  C   UNL A   1      34.785  31.747  28.050  1.00  0.00     0.039 A 
ATOM     33  C   UNL A   1      35.918  32.555  28.179  1.00  0.00     0.014 A 
ATOM     34  C   UNL A   1      34.807  30.440  28.534  1.00  0.00     0.014 A 
ATOM     35  C   UNL A   1      37.043  32.065  28.846  1.00  0.00     0.010 A 
ATOM     36  C   UNL A   1      35.861  30.009  29.321  1.00  0.00     0.010 A 
ATOM     37  C   UNL A   1      37.008  30.800  29.451  1.00  0.00    -0.014 A 
BRANCH  37  38
ATOM     38  C   UNL A   1      38.182  30.235  30.157  1.00  0.00     0.031 A 
ATOM     39  C   UNL A   1      38.449  30.638  31.584  1.00  0.00     0.074 A 
ATOM     40  C   UNL A   1      39.039  29.432  29.499  1.00  0.00     0.049 A 
ATOM     41  N   UNL A   1      39.468  30.348  32.352  1.00  0.00    -0.248 NA
ATOM     42  C   UNL A   1      37.461  31.529  32.218  1.00  0.00     0.031 C 
ATOM     43  C   UNL A   1      38.921  29.031  28.096  1.00  0.00     0.029 A 
ATOM     44  N   UNL A   1      40.185  28.813  29.926  1.00  0.00    -0.354 N 
ATOM     45  C   UNL A   1      39.260  31.051  33.533  1.00  0.00     0.074 A 
ATOM     46  C   UNL A   1      38.061  31.838  33.356  1.00  0.00     0.031 C 
ATOM     47  C   UNL A   1      39.933  28.203  27.789  1.00  0.00     0.029 A 
ATOM     48  C   UNL A   1      40.786  28.043  28.962  1.00  0.00     0.049 A 
ATOM     49  H   UNL A   1      40.544  28.912  30.837  1.00  0.00     0.167 HD
ATOM     50  C   UNL A   1      39.979  31.014  34.678  1.00  0.00     0.037 A 
ATOM     51  C   UNL A   1      41.899  27.288  29.026  1.00  0.00     0.037 A 
ATOM     52  C   UNL A   1      41.133  30.178  34.865  1.00  0.00     0.049 A 
ATOM     53  C   UNL A   1      42.649  27.215  30.330  1.00  0.00     0.074 A 
ATOM     54  C   UNL A   1      41.903  30.006  36.001  1.00  0.00     0.029 A 
ATOM     55  N   UNL A   1      41.673  29.358  33.884  1.00  0.00    -0.354 N 
ATOM     56  N   UNL A   1      42.405  27.830  31.462  1.00  0.00    -0.248 NA
ATOM     57  C   UNL A   1      43.818  26.326  30.369  1.00  0.00     0.031 C 
ATOM     58  C   UNL A   1      42.927  29.102  35.699  1.00  0.00     0.029 A 
ATOM     59  C   UNL A   1      42.767  28.678  34.389  1.00  0.00     0.049 A 
ATOM     60  H   UNL A   1      41.330  29.274  32.965  1.00  0.00     0.167 HD
ATOM     61  C   UNL A   1      43.364  27.378  32.357  1.00  0.00     0.074 A 
ATOM     62  C   UNL A   1      44.186  26.426  31.638  1.00  0.00     0.031 C 
ATOM     63  C   UNL A   1      43.551  27.716  33.657  1.00  0.00     0.037 A 
BRANCH  50  64
ATOM     64  C   UNL A   1      39.523  31.883  35.814  1.00  0.00     0.064 A 
ATOM     65  C   UNL A   1      38.473  31.496  36.662  1.00  0.00     0.173 A 
ATOM     66  C   UNL A   1      40.147  33.114  36.067  1.00  0.00     0.173 A 
ATOM     67  F   UNL A   1      37.830  30.336  36.454  1.00  0.00    -0.203 F 
ATOM     68  C   UNL A   1      38.040  32.323  37.695  1.00  0.00     0.198 A 
ATOM     69  C   UNL A   1      39.735  33.923  37.124  1.00  0.00     0.198 A 
ATOM     70  F   UNL A   1      41.157  33.533  35.291  1.00  0.00    -0.203 F 
ATOM     71  F   UNL A   1      36.995  31.958  38.450  1.00  0.00    -0.200 F 
ATOM     72  C   UNL A   1      38.676  33.532  37.929  1.00  0.00     0.200 A 
ATOM     73  F   UNL A   1      40.358  35.087  37.355  1.00  0.00    -0.200 F 
ATOM     74  F   UNL A   1      38.262  34.326  38.926  1.00  0.00    -0.200 F 
ENDBRANCH  50  64
BRANCH  51  75
ATOM     75  C   UNL A   1      42.334  26.499  27.846  1.00  0.00     0.064 A 
ATOM     76  C   UNL A   1      43.290  27.009  26.955  1.00  0.00     0.173 A 
ATOM     77  C   UNL A   1      41.814  25.224  27.582  1.00  0.00     0.173 A 
ATOM     78  F   UNL A   1      43.809  28.229  27.159  1.00  0.00    -0.203 F 
ATOM     79  C   UNL A   1      43.686  26.288  25.832  1.00  0.00     0.198 A 
ATOM     80  C   UNL A   1      42.233  24.491  26.473  1.00  0.00     0.198 A 
ATOM     81  F   UNL A   1      40.910  24.683  28.412  1.00  0.00    -0.203 F 
ATOM     82  F   UNL A   1      44.569  26.820  24.974  1.00  0.00    -0.200 F 
ATOM     83  C   UNL A   1      43.161  25.027  25.594  1.00  0.00     0.200 A 
ATOM     84  F   UNL A   1      41.738  23.264  26.258  1.00  0.00    -0.200 F 
ATOM     85  F   UNL A   1      43.547  24.331  24.516  1.00  0.00    -0.200 F 
ENDBRANCH  51  75
BRANCH  63  86
ATOM     86  C   UNL A   1      44.646  27.009  34.398  1.00  0.00     0.064 A 
ATOM     87  C   UNL A   1      44.425  25.793  35.060  1.00  0.00     0.173 A 
ATOM     88  C   UNL A   1      45.945  27.540  34.408  1.00  0.00     0.173 A 
ATOM     89  F   UNL A   1      43.197  25.254  35.088  1.00  0.00    -0.203 F 
ATOM     90  C   UNL A   1      45.460  25.150  35.734  1.00  0.00     0.198 A 
ATOM     91  C   UNL A   1      46.982  26.879  35.056  1.00  0.00     0.198 A 
ATOM     92  F   UNL A   1      46.208  28.697  33.781  1.00  0.00    -0.203 F 
ATOM     93  F   UNL A   1      45.215  24.016  36.404  1.00  0.00    -0.200 F 
ATOM     94  C   UNL A   1      46.738  25.690  35.726  1.00  0.00     0.200 A 
ATOM     95  F   UNL A   1      48.220  27.394  35.035  1.00  0.00    -0.200 F 
ATOM     96  F   UNL A   1      47.733  25.066  36.370  1.00  0.00    -0.200 F 
ENDBRANCH  63  86
ENDBRANCH  37  38
ENDBRANCH  29  32
ENDBRANCH  27  28
ENDBRANCH  26  27
ENDBRANCH   1  26
TORSDOF 15
ENDMDL
