MODEL 1
REMARK VINA RESULT:     -13.4      0.000      0.000
REMARK SMILES CCn1ccc2cc(S(=O)(=O)N3CCC[C@@H](C(=O)NCCCNC(=O)c4ccc(-c5c6nc(c(-c7c(F)c(F)c(F)c(F)c7F)c7ccc([nH]7)c(-c7c(F)c(F)c(F)c(F)c7F)c7nc(c(-c8c(F)c(F)c(F)c(F)c8F)c8ccc5[nH]8)C=C7)C=C6)cc4)C3)ccc21
REMARK SMILES IDX 20 1 19 2 17 3 18 4 16 6 12 7 13 8 89 9 14 10 15 11 9 12
REMARK SMILES IDX 10 13 11 14 8 15 3 16 4 17 92 18 5 19 6 20 91 21 7 22 90 23
REMARK SMILES IDX 2 24 1 25 21 26 22 27 23 28 24 29 25 31 26 32 27 33 88 34
REMARK SMILES IDX 28 35 87 36 29 37 30 38 31 39 81 40 32 41 86 42 80 43 82 44
REMARK SMILES IDX 33 45 85 46 79 47 78 48 34 50 66 51 46 52 65 53 47 54 50 55
REMARK SMILES IDX 64 56 83 57 48 58 49 59 63 61 84 62 51 63 35 64 36 65 44 66
REMARK SMILES IDX 37 67 38 68 42 69 45 70 39 71 40 72 43 73 41 74 67 75 68 76
REMARK SMILES IDX 76 77 69 78 70 79 74 80 77 81 71 82 72 83 75 84 73 85 52 86
REMARK SMILES IDX 53 87 61 88 54 89 55 90 59 91 62 92 56 93 57 94 60 95 58 96
REMARK H PARENT 19 5 23 30 82 49 50 60
REMARK Flexibility Score: inf
ROOT
ATOM      1  C   UNL A   1      37.987  22.872  25.661  1.00  0.00     0.117 C 
ENDROOT
BRANCH   1   2
ATOM      2  N   UNL A   1      37.405  23.137  24.359  1.00  0.00    -0.356 N 
ATOM      3  C   UNL A   1      36.124  23.032  23.926  1.00  0.00     0.224 C 
ATOM      4  O   UNL A   1      35.893  23.332  22.753  1.00  0.00    -0.275 OA
ATOM      5  H   UNL A   1      38.045  23.446  23.678  1.00  0.00     0.163 HD
BRANCH   3   6
ATOM      6  C   UNL A   1      35.043  22.495  24.846  1.00  0.00     0.093 C 
ATOM      7  N   UNL A   1      32.553  22.555  25.155  1.00  0.00    -0.197 NA
ATOM      8  C   UNL A   1      32.475  21.074  25.145  1.00  0.00     0.102 C 
ATOM      9  C   UNL A   1      33.729  23.196  24.508  1.00  0.00     0.116 C 
ATOM     10  C   UNL A   1      33.807  20.438  25.517  1.00  0.00     0.018 C 
ATOM     11  C   UNL A   1      34.939  20.982  24.661  1.00  0.00     0.016 C 
BRANCH   7  12
ATOM     12  S   UNL A   1      31.065  23.385  24.956  1.00  0.00     0.243 S 
ATOM     13  O   UNL A   1      30.161  22.889  25.971  1.00  0.00    -0.207 OA
ATOM     14  O   UNL A   1      30.722  23.326  23.549  1.00  0.00    -0.207 OA
BRANCH  12  15
ATOM     15  C   UNL A   1      31.345  25.109  25.333  1.00  0.00     0.083 A 
ATOM     16  N   UNL A   1      31.735  29.201  25.797  1.00  0.00    -0.348 N 
ATOM     17  C   UNL A   1      31.202  29.674  24.626  1.00  0.00     0.087 A 
ATOM     18  C   UNL A   1      31.676  27.823  25.817  1.00  0.00     0.048 A 
ATOM     19  C   UNL A   1      30.792  28.592  23.878  1.00  0.00     0.028 A 
ATOM     20  C   UNL A   1      31.092  27.415  24.616  1.00  0.00     0.001 A 
ATOM     21  C   UNL A   1      32.092  26.904  26.787  1.00  0.00     0.028 A 
ATOM     22  C   UNL A   1      30.911  26.039  24.373  1.00  0.00     0.032 A 
ATOM     23  C   UNL A   1      31.939  25.545  26.515  1.00  0.00     0.024 A 
BRANCH  16  24
ATOM     24  C   UNL A   1      32.235  30.041  26.874  1.00  0.00     0.119 C 
ATOM     25  C   UNL A   1      33.753  30.126  26.926  1.00  0.00     0.027 C 
ENDBRANCH  16  24
ENDBRANCH  12  15
ENDBRANCH   7  12
ENDBRANCH   3   6
ENDBRANCH   1   2
BRANCH   1  26
ATOM     26  C   UNL A   1      38.657  21.501  25.722  1.00  0.00     0.042 C 
BRANCH  26  27
ATOM     27  C   UNL A   1      39.952  21.461  26.538  1.00  0.00     0.118 C 
BRANCH  27  28
ATOM     28  N   UNL A   1      41.127  21.896  25.809  1.00  0.00    -0.352 N 
ATOM     29  C   UNL A   1      41.879  23.035  25.774  1.00  0.00     0.251 C 
ATOM     30  H   UNL A   1      41.462  21.207  25.192  1.00  0.00     0.163 HD
ATOM     31  O   UNL A   1      42.893  22.988  25.072  1.00  0.00    -0.269 OA
BRANCH  29  32
ATOM     32  C   UNL A   1      41.548  24.312  26.462  1.00  0.00     0.039 A 
ATOM     33  C   UNL A   1      40.851  25.384  25.905  1.00  0.00     0.014 A 
ATOM     34  C   UNL A   1      42.049  24.450  27.771  1.00  0.00     0.014 A 
ATOM     35  C   UNL A   1      40.743  26.593  26.589  1.00  0.00     0.010 A 
ATOM     36  C   UNL A   1      41.924  25.647  28.469  1.00  0.00     0.010 A 
ATOM     37  C   UNL A   1      41.316  26.738  27.854  1.00  0.00    -0.014 A 
BRANCH  37  38
ATOM     38  C   UNL A   1      41.260  28.052  28.485  1.00  0.00     0.031 A 
ATOM     39  C   UNL A   1      42.374  29.002  28.200  1.00  0.00     0.074 A 
ATOM     40  C   UNL A   1      40.201  28.459  29.214  1.00  0.00     0.049 A 
ATOM     41  N   UNL A   1      43.144  29.623  29.039  1.00  0.00    -0.248 NA
ATOM     42  C   UNL A   1      42.682  29.281  26.789  1.00  0.00     0.031 C 
ATOM     43  C   UNL A   1      38.901  27.801  29.367  1.00  0.00     0.029 A 
ATOM     44  N   UNL A   1      40.041  29.630  29.894  1.00  0.00    -0.354 N 
ATOM     45  C   UNL A   1      43.948  30.472  28.279  1.00  0.00     0.074 A 
ATOM     46  C   UNL A   1      43.672  30.168  26.896  1.00  0.00     0.031 C 
ATOM     47  C   UNL A   1      38.022  28.678  29.902  1.00  0.00     0.029 A 
ATOM     48  C   UNL A   1      38.731  29.899  30.247  1.00  0.00     0.049 A 
ATOM     49  H   UNL A   1      40.791  30.229  30.113  1.00  0.00     0.167 HD
ATOM     50  C   UNL A   1      44.692  31.474  28.828  1.00  0.00     0.037 A 
ATOM     51  C   UNL A   1      38.247  31.074  30.711  1.00  0.00     0.037 A 
ATOM     52  C   UNL A   1      44.901  31.289  30.236  1.00  0.00     0.049 A 
ATOM     53  C   UNL A   1      39.382  31.853  31.262  1.00  0.00     0.074 A 
ATOM     54  C   UNL A   1      45.523  30.325  31.005  1.00  0.00     0.029 A 
ATOM     55  N   UNL A   1      44.182  32.049  31.122  1.00  0.00    -0.354 N 
ATOM     56  N   UNL A   1      40.042  31.531  32.340  1.00  0.00    -0.248 NA
ATOM     57  C   UNL A   1      40.050  32.800  30.381  1.00  0.00     0.031 C 
ATOM     58  C   UNL A   1      44.749  30.249  32.200  1.00  0.00     0.029 A 
ATOM     59  C   UNL A   1      43.724  31.187  32.084  1.00  0.00     0.049 A 
ATOM     60  H   UNL A   1      44.026  33.021  31.076  1.00  0.00     0.167 HD
ATOM     61  C   UNL A   1      41.352  31.902  32.077  1.00  0.00     0.074 A 
ATOM     62  C   UNL A   1      41.275  32.770  30.908  1.00  0.00     0.031 C 
ATOM     63  C   UNL A   1      42.402  31.253  32.660  1.00  0.00     0.037 A 
BRANCH  50  64
ATOM     64  C   UNL A   1      45.034  32.764  28.134  1.00  0.00     0.064 A 
ATOM     65  C   UNL A   1      44.026  33.710  27.860  1.00  0.00     0.173 A 
ATOM     66  C   UNL A   1      46.266  32.975  27.482  1.00  0.00     0.173 A 
ATOM     67  F   UNL A   1      42.804  33.584  28.399  1.00  0.00    -0.203 F 
ATOM     68  C   UNL A   1      44.228  34.764  26.964  1.00  0.00     0.198 A 
ATOM     69  C   UNL A   1      46.480  34.056  26.628  1.00  0.00     0.198 A 
ATOM     70  F   UNL A   1      47.265  32.086  27.568  1.00  0.00    -0.203 F 
ATOM     71  F   UNL A   1      43.210  35.580  26.653  1.00  0.00    -0.200 F 
ATOM     72  C   UNL A   1      45.455  34.936  26.348  1.00  0.00     0.200 A 
ATOM     73  F   UNL A   1      47.668  34.194  26.022  1.00  0.00    -0.200 F 
ATOM     74  F   UNL A   1      45.635  35.915  25.453  1.00  0.00    -0.200 F 
ENDBRANCH  50  64
BRANCH  51  75
ATOM     75  C   UNL A   1      36.926  31.672  30.411  1.00  0.00     0.064 A 
ATOM     76  C   UNL A   1      36.009  31.965  31.429  1.00  0.00     0.173 A 
ATOM     77  C   UNL A   1      36.638  32.199  29.134  1.00  0.00     0.173 A 
ATOM     78  F   UNL A   1      36.238  31.551  32.684  1.00  0.00    -0.203 F 
ATOM     79  C   UNL A   1      34.874  32.747  31.187  1.00  0.00     0.198 A 
ATOM     80  C   UNL A   1      35.500  32.965  28.891  1.00  0.00     0.198 A 
ATOM     81  F   UNL A   1      37.502  32.058  28.119  1.00  0.00    -0.203 F 
ATOM     82  F   UNL A   1      34.048  33.056  32.196  1.00  0.00    -0.200 F 
ATOM     83  C   UNL A   1      34.623  33.249  29.920  1.00  0.00     0.200 A 
ATOM     84  F   UNL A   1      35.292  33.476  27.669  1.00  0.00    -0.200 F 
ATOM     85  F   UNL A   1      33.564  34.039  29.699  1.00  0.00    -0.200 F 
ENDBRANCH  51  75
BRANCH  63  86
ATOM     86  C   UNL A   1      42.114  30.304  33.787  1.00  0.00     0.064 A 
ATOM     87  C   UNL A   1      41.684  28.981  33.591  1.00  0.00     0.173 A 
ATOM     88  C   UNL A   1      42.455  30.686  35.092  1.00  0.00     0.173 A 
ATOM     89  F   UNL A   1      41.449  28.509  32.361  1.00  0.00    -0.203 F 
ATOM     90  C   UNL A   1      41.564  28.094  34.659  1.00  0.00     0.198 A 
ATOM     91  C   UNL A   1      42.369  29.787  36.152  1.00  0.00     0.198 A 
ATOM     92  F   UNL A   1      42.935  31.917  35.330  1.00  0.00    -0.203 F 
ATOM     93  F   UNL A   1      41.153  26.836  34.443  1.00  0.00    -0.200 F 
ATOM     94  C   UNL A   1      41.914  28.495  35.937  1.00  0.00     0.200 A 
ATOM     95  F   UNL A   1      42.762  30.161  37.377  1.00  0.00    -0.200 F 
ATOM     96  F   UNL A   1      41.850  27.626  36.955  1.00  0.00    -0.200 F 
ENDBRANCH  63  86
ENDBRANCH  37  38
ENDBRANCH  29  32
ENDBRANCH  27  28
ENDBRANCH  26  27
ENDBRANCH   1  26
TORSDOF 13
ENDMDL
MODEL 2
REMARK VINA RESULT:     -13.3      3.199      8.895
REMARK SMILES CCn1ccc2cc(S(=O)(=O)N3CCC[C@@H](C(=O)NCCCNC(=O)c4ccc(-c5c6nc(c(-c7c(F)c(F)c(F)c(F)c7F)c7ccc([nH]7)c(-c7c(F)c(F)c(F)c(F)c7F)c7nc(c(-c8c(F)c(F)c(F)c(F)c8F)c8ccc5[nH]8)C=C7)C=C6)cc4)C3)ccc21
REMARK SMILES IDX 20 1 19 2 17 3 18 4 16 6 12 7 13 8 89 9 14 10 15 11 9 12
REMARK SMILES IDX 10 13 11 14 8 15 3 16 4 17 92 18 5 19 6 20 91 21 7 22 90 23
REMARK SMILES IDX 2 24 1 25 21 26 22 27 23 28 24 29 25 31 26 32 27 33 88 34
REMARK SMILES IDX 28 35 87 36 29 37 30 38 31 39 81 40 32 41 86 42 80 43 82 44
REMARK SMILES IDX 33 45 85 46 79 47 78 48 34 50 66 51 46 52 65 53 47 54 50 55
REMARK SMILES IDX 64 56 83 57 48 58 49 59 63 61 84 62 51 63 35 64 36 65 44 66
REMARK SMILES IDX 37 67 38 68 42 69 45 70 39 71 40 72 43 73 41 74 67 75 68 76
REMARK SMILES IDX 76 77 69 78 70 79 74 80 77 81 71 82 72 83 75 84 73 85 52 86
REMARK SMILES IDX 53 87 61 88 54 89 55 90 59 91 62 92 56 93 57 94 60 95 58 96
REMARK H PARENT 19 5 23 30 82 49 50 60
REMARK Flexibility Score: inf
ROOT
ATOM      1  C   UNL A   1      31.962  28.821  27.527  1.00  0.00     0.117 C 
ENDROOT
BRANCH   1   2
ATOM      2  N   UNL A   1      31.303  27.530  27.468  1.00  0.00    -0.356 N 
ATOM      3  C   UNL A   1      30.931  26.777  26.404  1.00  0.00     0.224 C 
ATOM      4  O   UNL A   1      30.385  25.696  26.635  1.00  0.00    -0.275 OA
ATOM      5  H   UNL A   1      31.092  27.137  28.345  1.00  0.00     0.163 HD
BRANCH   3   6
ATOM      6  C   UNL A   1      31.126  27.293  24.991  1.00  0.00     0.093 C 
ATOM      7  N   UNL A   1      32.181  26.631  22.811  1.00  0.00    -0.197 NA
ATOM      8  C   UNL A   1      30.901  26.817  22.087  1.00  0.00     0.102 C 
ATOM      9  C   UNL A   1      32.125  26.385  24.278  1.00  0.00     0.116 C 
ATOM     10  C   UNL A   1      29.962  27.753  22.836  1.00  0.00     0.018 C 
ATOM     11  C   UNL A   1      29.774  27.313  24.279  1.00  0.00     0.016 C 
BRANCH   7  12
ATOM     12  S   UNL A   1      33.400  25.766  21.970  1.00  0.00     0.243 S 
ATOM     13  O   UNL A   1      34.653  26.447  22.216  1.00  0.00    -0.207 OA
ATOM     14  O   UNL A   1      32.918  25.541  20.622  1.00  0.00    -0.207 OA
BRANCH  12  15
ATOM     15  C   UNL A   1      33.548  24.154  22.725  1.00  0.00     0.083 A 
ATOM     16  N   UNL A   1      34.306  20.590  24.683  1.00  0.00    -0.348 N 
ATOM     17  C   UNL A   1      35.551  20.814  25.213  1.00  0.00     0.087 A 
ATOM     18  C   UNL A   1      33.884  21.704  23.989  1.00  0.00     0.048 A 
ATOM     19  C   UNL A   1      35.941  22.086  24.860  1.00  0.00     0.028 A 
ATOM     20  C   UNL A   1      34.900  22.659  24.081  1.00  0.00     0.001 A 
ATOM     21  C   UNL A   1      32.699  21.949  23.287  1.00  0.00     0.028 A 
ATOM     22  C   UNL A   1      34.727  23.908  23.451  1.00  0.00     0.032 A 
ATOM     23  C   UNL A   1      32.560  23.176  22.639  1.00  0.00     0.024 A 
BRANCH  16  24
ATOM     24  C   UNL A   1      33.534  19.373  24.878  1.00  0.00     0.119 C 
ATOM     25  C   UNL A   1      34.228  18.121  24.362  1.00  0.00     0.027 C 
ENDBRANCH  16  24
ENDBRANCH  12  15
ENDBRANCH   7  12
ENDBRANCH   3   6
ENDBRANCH   1   2
BRANCH   1  26
ATOM     26  C   UNL A   1      33.474  28.703  27.349  1.00  0.00     0.042 C 
BRANCH  26  27
ATOM     27  C   UNL A   1      34.181  30.019  27.013  1.00  0.00     0.118 C 
BRANCH  27  28
ATOM     28  N   UNL A   1      34.082  31.027  28.049  1.00  0.00    -0.352 N 
ATOM     29  C   UNL A   1      34.923  31.519  29.006  1.00  0.00     0.251 C 
ATOM     30  H   UNL A   1      33.199  31.461  28.067  1.00  0.00     0.163 HD
ATOM     31  O   UNL A   1      34.492  32.473  29.659  1.00  0.00    -0.269 OA
BRANCH  29  32
ATOM     32  C   UNL A   1      36.264  30.970  29.344  1.00  0.00     0.039 A 
ATOM     33  C   UNL A   1      37.482  31.628  29.177  1.00  0.00     0.014 A 
ATOM     34  C   UNL A   1      36.281  29.642  29.814  1.00  0.00     0.014 A 
ATOM     35  C   UNL A   1      38.685  30.954  29.375  1.00  0.00     0.010 A 
ATOM     36  C   UNL A   1      37.480  28.971  30.035  1.00  0.00     0.010 A 
ATOM     37  C   UNL A   1      38.684  29.614  29.763  1.00  0.00    -0.014 A 
BRANCH  37  38
ATOM     38  C   UNL A   1      39.968  28.926  29.860  1.00  0.00     0.031 A 
ATOM     39  C   UNL A   1      40.587  28.810  31.213  1.00  0.00     0.074 A 
ATOM     40  C   UNL A   1      40.542  28.316  28.804  1.00  0.00     0.049 A 
ATOM     41  N   UNL A   1      41.770  29.178  31.595  1.00  0.00    -0.248 NA
ATOM     42  C   UNL A   1      39.770  28.221  32.283  1.00  0.00     0.031 C 
ATOM     43  C   UNL A   1      39.967  28.065  27.480  1.00  0.00     0.029 A 
ATOM     44  N   UNL A   1      41.750  27.686  28.744  1.00  0.00    -0.354 N 
ATOM     45  C   UNL A   1      41.903  28.754  32.918  1.00  0.00     0.074 A 
ATOM     46  C   UNL A   1      40.617  28.235  33.313  1.00  0.00     0.031 C 
ATOM     47  C   UNL A   1      40.727  27.155  26.833  1.00  0.00     0.029 A 
ATOM     48  C   UNL A   1      41.902  26.868  27.639  1.00  0.00     0.049 A 
ATOM     49  H   UNL A   1      42.450  27.804  29.426  1.00  0.00     0.167 HD
ATOM     50  C   UNL A   1      43.101  28.724  33.567  1.00  0.00     0.037 A 
ATOM     51  C   UNL A   1      42.882  25.956  27.441  1.00  0.00     0.037 A 
ATOM     52  C   UNL A   1      44.087  29.552  32.933  1.00  0.00     0.049 A 
ATOM     53  C   UNL A   1      44.025  26.313  28.314  1.00  0.00     0.074 A 
ATOM     54  C   UNL A   1      44.195  30.904  32.673  1.00  0.00     0.029 A 
ATOM     55  N   UNL A   1      45.073  28.961  32.185  1.00  0.00    -0.354 N 
ATOM     56  N   UNL A   1      44.775  27.368  28.152  1.00  0.00    -0.248 NA
ATOM     57  C   UNL A   1      44.100  25.691  29.628  1.00  0.00     0.031 C 
ATOM     58  C   UNL A   1      44.877  30.988  31.425  1.00  0.00     0.029 A 
ATOM     59  C   UNL A   1      45.157  29.682  31.023  1.00  0.00     0.049 A 
ATOM     60  H   UNL A   1      45.613  28.175  32.434  1.00  0.00     0.167 HD
ATOM     61  C   UNL A   1      45.090  27.778  29.439  1.00  0.00     0.074 A 
ATOM     62  C   UNL A   1      44.739  26.652  30.296  1.00  0.00     0.031 C 
ATOM     63  C   UNL A   1      45.347  29.089  29.721  1.00  0.00     0.037 A 
BRANCH  50  64
ATOM     64  C   UNL A   1      43.460  27.746  34.653  1.00  0.00     0.064 A 
ATOM     65  C   UNL A   1      43.792  28.209  35.942  1.00  0.00     0.173 A 
ATOM     66  C   UNL A   1      43.758  26.393  34.392  1.00  0.00     0.173 A 
ATOM     67  F   UNL A   1      43.585  29.489  36.285  1.00  0.00    -0.203 F 
ATOM     68  C   UNL A   1      44.418  27.384  36.883  1.00  0.00     0.198 A 
ATOM     69  C   UNL A   1      44.336  25.560  35.349  1.00  0.00     0.198 A 
ATOM     70  F   UNL A   1      43.597  25.863  33.172  1.00  0.00    -0.203 F 
ATOM     71  F   UNL A   1      44.811  27.894  38.059  1.00  0.00    -0.200 F 
ATOM     72  C   UNL A   1      44.690  26.061  36.585  1.00  0.00     0.200 A 
ATOM     73  F   UNL A   1      44.613  24.286  35.036  1.00  0.00    -0.200 F 
ATOM     74  F   UNL A   1      45.333  25.285  37.466  1.00  0.00    -0.200 F 
ENDBRANCH  50  64
BRANCH  51  75
ATOM     75  C   UNL A   1      42.746  24.636  26.784  1.00  0.00     0.064 A 
ATOM     76  C   UNL A   1      43.371  24.363  25.559  1.00  0.00     0.173 A 
ATOM     77  C   UNL A   1      42.203  23.531  27.472  1.00  0.00     0.173 A 
ATOM     78  F   UNL A   1      43.963  25.348  24.869  1.00  0.00    -0.203 F 
ATOM     79  C   UNL A   1      43.454  23.060  25.056  1.00  0.00     0.198 A 
ATOM     80  C   UNL A   1      42.274  22.236  26.964  1.00  0.00     0.198 A 
ATOM     81  F   UNL A   1      41.674  23.674  28.696  1.00  0.00    -0.203 F 
ATOM     82  F   UNL A   1      44.108  22.826  23.910  1.00  0.00    -0.200 F 
ATOM     83  C   UNL A   1      42.910  21.998  25.761  1.00  0.00     0.200 A 
ATOM     84  F   UNL A   1      41.776  21.215  27.676  1.00  0.00    -0.200 F 
ATOM     85  F   UNL A   1      43.034  20.745  25.305  1.00  0.00    -0.200 F 
ENDBRANCH  51  75
BRANCH  63  86
ATOM     86  C   UNL A   1      45.538  30.039  28.573  1.00  0.00     0.064 A 
ATOM     87  C   UNL A   1      44.474  30.685  27.922  1.00  0.00     0.173 A 
ATOM     88  C   UNL A   1      46.838  30.443  28.244  1.00  0.00     0.173 A 
ATOM     89  F   UNL A   1      43.204  30.435  28.263  1.00  0.00    -0.203 F 
ATOM     90  C   UNL A   1      44.704  31.664  26.957  1.00  0.00     0.198 A 
ATOM     91  C   UNL A   1      47.065  31.447  27.305  1.00  0.00     0.198 A 
ATOM     92  F   UNL A   1      47.892  29.908  28.881  1.00  0.00    -0.203 F 
ATOM     93  F   UNL A   1      43.670  32.266  26.352  1.00  0.00    -0.200 F 
ATOM     94  C   UNL A   1      45.999  32.049  26.656  1.00  0.00     0.200 A 
ATOM     95  F   UNL A   1      48.316  31.857  27.057  1.00  0.00    -0.200 F 
ATOM     96  F   UNL A   1      46.219  33.028  25.767  1.00  0.00    -0.200 F 
ENDBRANCH  63  86
ENDBRANCH  37  38
ENDBRANCH  29  32
ENDBRANCH  27  28
ENDBRANCH  26  27
ENDBRANCH   1  26
TORSDOF 13
ENDMDL
MODEL 3
REMARK VINA RESULT:     -13.2      3.173      8.935
REMARK SMILES CCn1ccc2cc(S(=O)(=O)N3CCC[C@@H](C(=O)NCCCNC(=O)c4ccc(-c5c6nc(c(-c7c(F)c(F)c(F)c(F)c7F)c7ccc([nH]7)c(-c7c(F)c(F)c(F)c(F)c7F)c7nc(c(-c8c(F)c(F)c(F)c(F)c8F)c8ccc5[nH]8)C=C7)C=C6)cc4)C3)ccc21
REMARK SMILES IDX 20 1 19 2 17 3 18 4 16 6 12 7 13 8 89 9 14 10 15 11 9 12
REMARK SMILES IDX 10 13 11 14 8 15 3 16 4 17 92 18 5 19 6 20 91 21 7 22 90 23
REMARK SMILES IDX 2 24 1 25 21 26 22 27 23 28 24 29 25 31 26 32 27 33 88 34
REMARK SMILES IDX 28 35 87 36 29 37 30 38 31 39 81 40 32 41 86 42 80 43 82 44
REMARK SMILES IDX 33 45 85 46 79 47 78 48 34 50 66 51 46 52 65 53 47 54 50 55
REMARK SMILES IDX 64 56 83 57 48 58 49 59 63 61 84 62 51 63 35 64 36 65 44 66
REMARK SMILES IDX 37 67 38 68 42 69 45 70 39 71 40 72 43 73 41 74 67 75 68 76
REMARK SMILES IDX 76 77 69 78 70 79 74 80 77 81 71 82 72 83 75 84 73 85 52 86
REMARK SMILES IDX 53 87 61 88 54 89 55 90 59 91 62 92 56 93 57 94 60 95 58 96
REMARK H PARENT 19 5 23 30 82 49 50 60
REMARK Flexibility Score: inf
ROOT
ATOM      1  C   UNL A   1      34.181  29.333  27.597  1.00  0.00     0.117 C 
ENDROOT
BRANCH   1   2
ATOM      2  N   UNL A   1      32.966  28.601  27.896  1.00  0.00    -0.356 N 
ATOM      3  C   UNL A   1      32.084  27.979  27.075  1.00  0.00     0.224 C 
ATOM      4  O   UNL A   1      31.121  27.414  27.596  1.00  0.00    -0.275 OA
ATOM      5  H   UNL A   1      32.745  28.547  28.853  1.00  0.00     0.163 HD
BRANCH   3   6
ATOM      6  C   UNL A   1      32.258  28.046  25.569  1.00  0.00     0.093 C 
ATOM      7  N   UNL A   1      31.807  26.695  23.502  1.00  0.00    -0.197 NA
ATOM      8  C   UNL A   1      31.051  27.812  22.886  1.00  0.00     0.102 C 
ATOM      9  C   UNL A   1      31.937  26.673  24.984  1.00  0.00     0.116 C 
ATOM     10  C   UNL A   1      31.436  29.154  23.494  1.00  0.00     0.018 C 
ATOM     11  C   UNL A   1      31.333  29.127  25.010  1.00  0.00     0.016 C 
BRANCH   7  12
ATOM     12  S   UNL A   1      31.613  25.161  22.760  1.00  0.00     0.243 S 
ATOM     13  O   UNL A   1      31.812  25.346  21.339  1.00  0.00    -0.207 OA
ATOM     14  O   UNL A   1      30.391  24.581  23.279  1.00  0.00    -0.207 OA
BRANCH  12  15
ATOM     15  C   UNL A   1      32.945  24.110  23.320  1.00  0.00     0.083 A 
ATOM     16  N   UNL A   1      35.694  21.313  24.637  1.00  0.00    -0.348 N 
ATOM     17  C   UNL A   1      34.893  20.238  24.923  1.00  0.00     0.087 A 
ATOM     18  C   UNL A   1      34.927  22.358  24.166  1.00  0.00     0.048 A 
ATOM     19  C   UNL A   1      33.593  20.587  24.633  1.00  0.00     0.028 A 
ATOM     20  C   UNL A   1      33.598  21.926  24.160  1.00  0.00     0.001 A 
ATOM     21  C   UNL A   1      35.289  23.644  23.750  1.00  0.00     0.028 A 
ATOM     22  C   UNL A   1      32.592  22.809  23.719  1.00  0.00     0.032 A 
ATOM     23  C   UNL A   1      34.277  24.516  23.351  1.00  0.00     0.024 A 
BRANCH  16  24
ATOM     24  C   UNL A   1      37.143  21.320  24.765  1.00  0.00     0.119 C 
ATOM     25  C   UNL A   1      37.752  19.931  24.878  1.00  0.00     0.027 C 
ENDBRANCH  16  24
ENDBRANCH  12  15
ENDBRANCH   7  12
ENDBRANCH   3   6
ENDBRANCH   1   2
BRANCH   1  26
ATOM     26  C   UNL A   1      33.893  30.753  27.115  1.00  0.00     0.042 C 
BRANCH  26  27
ATOM     27  C   UNL A   1      34.760  31.835  27.765  1.00  0.00     0.118 C 
BRANCH  27  28
ATOM     28  N   UNL A   1      34.463  32.070  29.164  1.00  0.00    -0.352 N 
ATOM     29  C   UNL A   1      35.150  31.935  30.337  1.00  0.00     0.251 C 
ATOM     30  H   UNL A   1      33.549  32.408  29.303  1.00  0.00     0.163 HD
ATOM     31  O   UNL A   1      34.572  32.342  31.348  1.00  0.00    -0.269 OA
BRANCH  29  32
ATOM     32  C   UNL A   1      36.489  31.302  30.487  1.00  0.00     0.039 A 
ATOM     33  C   UNL A   1      37.711  31.891  30.165  1.00  0.00     0.014 A 
ATOM     34  C   UNL A   1      36.488  29.966  30.935  1.00  0.00     0.014 A 
ATOM     35  C   UNL A   1      38.887  31.145  30.193  1.00  0.00     0.010 A 
ATOM     36  C   UNL A   1      37.663  29.223  30.986  1.00  0.00     0.010 A 
ATOM     37  C   UNL A   1      38.857  29.799  30.562  1.00  0.00    -0.014 A 
BRANCH  37  38
ATOM     38  C   UNL A   1      40.099  29.037  30.479  1.00  0.00     0.031 A 
ATOM     39  C   UNL A   1      40.861  28.822  31.744  1.00  0.00     0.074 A 
ATOM     40  C   UNL A   1      40.508  28.445  29.340  1.00  0.00     0.049 A 
ATOM     41  N   UNL A   1      42.101  29.104  31.998  1.00  0.00    -0.248 NA
ATOM     42  C   UNL A   1      40.139  28.230  32.879  1.00  0.00     0.031 C 
ATOM     43  C   UNL A   1      39.769  28.290  28.084  1.00  0.00     0.029 A 
ATOM     44  N   UNL A   1      41.659  27.752  29.112  1.00  0.00    -0.354 N 
ATOM     45  C   UNL A   1      42.360  28.611  33.278  1.00  0.00     0.074 A 
ATOM     46  C   UNL A   1      41.099  28.148  33.801  1.00  0.00     0.031 C 
ATOM     47  C   UNL A   1      40.392  27.370  27.315  1.00  0.00     0.029 A 
ATOM     48  C   UNL A   1      41.632  26.979  27.965  1.00  0.00     0.049 A 
ATOM     49  H   UNL A   1      42.440  27.797  29.710  1.00  0.00     0.167 HD
ATOM     50  C   UNL A   1      43.621  28.483  33.779  1.00  0.00     0.037 A 
ATOM     51  C   UNL A   1      42.524  26.023  27.615  1.00  0.00     0.037 A 
ATOM     52  C   UNL A   1      44.576  29.282  33.066  1.00  0.00     0.049 A 
ATOM     53  C   UNL A   1      43.781  26.273  28.361  1.00  0.00     0.074 A 
ATOM     54  C   UNL A   1      44.736  30.637  32.850  1.00  0.00     0.029 A 
ATOM     55  N   UNL A   1      45.430  28.673  32.184  1.00  0.00    -0.354 N 
ATOM     56  N   UNL A   1      44.570  27.291  28.154  1.00  0.00    -0.248 NA
ATOM     57  C   UNL A   1      43.968  25.587  29.631  1.00  0.00     0.031 C 
ATOM     58  C   UNL A   1      45.273  30.741  31.535  1.00  0.00     0.029 A 
ATOM     59  C   UNL A   1      45.424  29.442  31.050  1.00  0.00     0.049 A 
ATOM     60  H   UNL A   1      45.946  27.847  32.336  1.00  0.00     0.167 HD
ATOM     61  C   UNL A   1      45.057  27.622  29.410  1.00  0.00     0.074 A 
ATOM     62  C   UNL A   1      44.738  26.478  30.256  1.00  0.00     0.031 C 
ATOM     63  C   UNL A   1      45.425  28.901  29.712  1.00  0.00     0.037 A 
BRANCH  50  64
ATOM     64  C   UNL A   1      44.042  27.436  34.775  1.00  0.00     0.064 A 
ATOM     65  C   UNL A   1      44.005  26.071  34.427  1.00  0.00     0.173 A 
ATOM     66  C   UNL A   1      44.214  27.715  36.147  1.00  0.00     0.173 A 
ATOM     67  F   UNL A   1      43.809  25.694  33.155  1.00  0.00    -0.203 F 
ATOM     68  C   UNL A   1      44.090  25.062  35.392  1.00  0.00     0.198 A 
ATOM     69  C   UNL A   1      44.349  26.706  37.099  1.00  0.00     0.198 A 
ATOM     70  F   UNL A   1      44.152  28.967  36.620  1.00  0.00    -0.203 F 
ATOM     71  F   UNL A   1      43.944  23.780  35.029  1.00  0.00    -0.200 F 
ATOM     72  C   UNL A   1      44.260  25.381  36.727  1.00  0.00     0.200 A 
ATOM     73  F   UNL A   1      44.491  27.033  38.392  1.00  0.00    -0.200 F 
ATOM     74  F   UNL A   1      44.292  24.417  37.657  1.00  0.00    -0.200 F 
ENDBRANCH  50  64
BRANCH  51  75
ATOM     75  C   UNL A   1      42.232  24.746  26.927  1.00  0.00     0.064 A 
ATOM     76  C   UNL A   1      42.985  24.323  25.822  1.00  0.00     0.173 A 
ATOM     77  C   UNL A   1      41.364  23.792  27.497  1.00  0.00     0.173 A 
ATOM     78  F   UNL A   1      43.876  25.150  25.257  1.00  0.00    -0.203 F 
ATOM     79  C   UNL A   1      42.881  23.020  25.323  1.00  0.00     0.198 A 
ATOM     80  C   UNL A   1      41.251  22.499  26.990  1.00  0.00     0.198 A 
ATOM     81  F   UNL A   1      40.676  24.067  28.614  1.00  0.00    -0.203 F 
ATOM     82  F   UNL A   1      43.658  22.632  24.302  1.00  0.00    -0.200 F 
ATOM     83  C   UNL A   1      42.019  22.109  25.910  1.00  0.00     0.200 A 
ATOM     84  F   UNL A   1      40.440  21.617  27.593  1.00  0.00    -0.200 F 
ATOM     85  F   UNL A   1      41.956  20.847  25.464  1.00  0.00    -0.200 F 
ENDBRANCH  51  75
BRANCH  63  86
ATOM     86  C   UNL A   1      45.540  29.891  28.589  1.00  0.00     0.064 A 
ATOM     87  C   UNL A   1      44.445  30.604  28.074  1.00  0.00     0.173 A 
ATOM     88  C   UNL A   1      46.817  30.261  28.146  1.00  0.00     0.173 A 
ATOM     89  F   UNL A   1      43.205  30.387  28.531  1.00  0.00    -0.203 F 
ATOM     90  C   UNL A   1      44.618  31.614  27.130  1.00  0.00     0.198 A 
ATOM     91  C   UNL A   1      46.991  31.295  27.229  1.00  0.00     0.198 A 
ATOM     92  F   UNL A   1      47.905  29.661  28.652  1.00  0.00    -0.203 F 
ATOM     93  F   UNL A   1      43.555  32.280  26.655  1.00  0.00    -0.200 F 
ATOM     94  C   UNL A   1      45.892  31.964  26.714  1.00  0.00     0.200 A 
ATOM     95  F   UNL A   1      48.227  31.669  26.873  1.00  0.00    -0.200 F 
ATOM     96  F   UNL A   1      46.062  32.971  25.846  1.00  0.00    -0.200 F 
ENDBRANCH  63  86
ENDBRANCH  37  38
ENDBRANCH  29  32
ENDBRANCH  27  28
ENDBRANCH  26  27
ENDBRANCH   1  26
TORSDOF 13
ENDMDL
