MODEL 1
REMARK VINA RESULT:     -12.7      0.000      0.000
REMARK SMILES O=C(NCCCNC(=O)[C@@H]1CCCN(C(=O)[C@H]2CC=CCC2)C1)c1ccc(-c2c3nc(c(-c4c(F)c(F)c(F)c(F)c4F)c4ccc([nH]4)c(-c4c(F)c(F)c(F)c(F)c4F)c4nc(c(-c5c(F)c(F)c(F)c(F)c5F)c5ccc2[nH]5)C=C4)C=C3)cc1
REMARK SMILES IDX 5 1 4 2 3 3 1 4 2 5 24 7 25 8 86 9 26 10 85 11 27 12 28 13
REMARK SMILES IDX 29 14 79 15 30 16 84 17 78 18 80 19 31 20 83 21 77 22 76 23
REMARK SMILES IDX 32 25 64 26 44 27 63 28 45 29 48 30 62 31 81 32 46 33 47 34
REMARK SMILES IDX 61 36 82 37 49 38 33 39 34 40 42 41 35 42 36 43 40 44 43 45
REMARK SMILES IDX 37 46 38 47 41 48 39 49 65 50 66 51 74 52 67 53 68 54 72 55
REMARK SMILES IDX 75 56 69 57 70 58 73 59 71 60 50 61 51 62 59 63 52 64 53 65
REMARK SMILES IDX 57 66 60 67 54 68 55 69 58 70 56 71 6 72 7 73 8 74 9 76
REMARK SMILES IDX 10 77 11 78 23 79 12 80 14 81 13 82 15 83 16 84 17 85 18 86
REMARK SMILES IDX 22 87 19 88 21 89 20 90
REMARK H PARENT 3 6 80 24 48 35 7 75
REMARK Flexibility Score: inf
ROOT
ATOM      1  C   UNL A   1      31.439  32.043  26.526  1.00  0.00     0.042 C 
ENDROOT
BRANCH   1   2
ATOM      2  C   UNL A   1      32.638  32.713  27.182  1.00  0.00     0.118 C 
BRANCH   2   3
ATOM      3  N   UNL A   1      32.378  34.081  27.608  1.00  0.00    -0.352 N 
ATOM      4  O   UNL A   1      32.493  35.945  28.870  1.00  0.00    -0.269 OA
ATOM      5  C   UNL A   1      32.971  34.855  28.580  1.00  0.00     0.251 C 
ATOM      6  H   UNL A   1      31.652  34.529  27.118  1.00  0.00     0.163 HD
BRANCH   5   7
ATOM      7  C   UNL A   1      34.158  34.359  29.312  1.00  0.00     0.039 A 
ATOM      8  C   UNL A   1      35.446  34.619  28.855  1.00  0.00     0.014 A 
ATOM      9  C   UNL A   1      33.977  33.622  30.487  1.00  0.00     0.014 A 
ATOM     10  C   UNL A   1      36.526  33.956  29.421  1.00  0.00     0.010 A 
ATOM     11  C   UNL A   1      35.083  33.069  31.141  1.00  0.00     0.010 A 
ATOM     12  C   UNL A   1      36.363  33.182  30.581  1.00  0.00    -0.014 A 
BRANCH  12  13
ATOM     13  C   UNL A   1      37.559  32.535  31.186  1.00  0.00     0.031 A 
ATOM     14  C   UNL A   1      37.999  32.864  32.588  1.00  0.00     0.074 A 
ATOM     15  C   UNL A   1      38.215  31.595  30.477  1.00  0.00     0.049 A 
ATOM     16  N   UNL A   1      38.990  32.359  33.281  1.00  0.00    -0.248 NA
ATOM     17  C   UNL A   1      37.240  33.900  33.304  1.00  0.00     0.031 C 
ATOM     18  C   UNL A   1      37.891  31.197  29.105  1.00  0.00     0.029 A 
ATOM     19  N   UNL A   1      39.259  30.774  30.820  1.00  0.00    -0.354 N 
ATOM     20  C   UNL A   1      38.998  33.042  34.490  1.00  0.00     0.074 A 
ATOM     21  C   UNL A   1      37.924  34.009  34.435  1.00  0.00     0.031 C 
ATOM     22  C   UNL A   1      38.660  30.158  28.753  1.00  0.00     0.029 A 
ATOM     23  C   UNL A   1      39.583  29.866  29.842  1.00  0.00     0.049 A 
ATOM     24  H   UNL A   1      39.730  30.832  31.683  1.00  0.00     0.167 HD
ATOM     25  C   UNL A   1      39.825  32.871  35.550  1.00  0.00     0.037 A 
ATOM     26  C   UNL A   1      40.526  28.906  29.819  1.00  0.00     0.037 A 
ATOM     27  C   UNL A   1      40.866  31.878  35.618  1.00  0.00     0.049 A 
ATOM     28  C   UNL A   1      41.415  28.730  31.015  1.00  0.00     0.074 A 
ATOM     29  C   UNL A   1      41.728  31.600  36.666  1.00  0.00     0.029 A 
ATOM     30  N   UNL A   1      41.182  30.994  34.597  1.00  0.00    -0.354 N 
ATOM     31  N   UNL A   1      41.398  29.370  32.159  1.00  0.00    -0.248 NA
ATOM     32  C   UNL A   1      42.459  27.703  30.913  1.00  0.00     0.031 C 
ATOM     33  C   UNL A   1      42.591  30.575  36.263  1.00  0.00     0.029 A 
ATOM     34  C   UNL A   1      42.236  30.181  34.982  1.00  0.00     0.049 A 
ATOM     35  H   UNL A   1      40.724  30.951  33.726  1.00  0.00     0.167 HD
ATOM     36  C   UNL A   1      42.413  28.813  32.921  1.00  0.00     0.074 A 
ATOM     37  C   UNL A   1      43.014  27.769  32.115  1.00  0.00     0.031 C 
ATOM     38  C   UNL A   1      42.814  29.140  34.172  1.00  0.00     0.037 A 
BRANCH  25  39
ATOM     39  C   UNL A   1      39.657  33.799  36.721  1.00  0.00     0.064 A 
ATOM     40  C   UNL A   1      38.866  33.460  37.829  1.00  0.00     0.173 A 
ATOM     41  C   UNL A   1      40.332  35.029  36.750  1.00  0.00     0.173 A 
ATOM     42  F   UNL A   1      38.190  32.302  37.847  1.00  0.00    -0.203 F 
ATOM     43  C   UNL A   1      38.737  34.330  38.910  1.00  0.00     0.198 A 
ATOM     44  C   UNL A   1      40.223  35.884  37.844  1.00  0.00     0.198 A 
ATOM     45  F   UNL A   1      41.107  35.399  35.719  1.00  0.00    -0.203 F 
ATOM     46  F   UNL A   1      37.941  34.005  39.938  1.00  0.00    -0.200 F 
ATOM     47  C   UNL A   1      39.420  35.538  38.919  1.00  0.00     0.200 A 
ATOM     48  F   UNL A   1      40.894  37.045  37.855  1.00  0.00    -0.200 F 
ATOM     49  F   UNL A   1      39.299  36.370  39.963  1.00  0.00    -0.200 F 
ENDBRANCH  25  39
BRANCH  26  50
ATOM     50  C   UNL A   1      40.660  28.034  28.624  1.00  0.00     0.064 A 
ATOM     51  C   UNL A   1      39.987  26.806  28.551  1.00  0.00     0.173 A 
ATOM     52  C   UNL A   1      41.444  28.416  27.526  1.00  0.00     0.173 A 
ATOM     53  F   UNL A   1      39.240  26.389  29.584  1.00  0.00    -0.203 F 
ATOM     54  C   UNL A   1      40.102  25.990  27.428  1.00  0.00     0.198 A 
ATOM     55  C   UNL A   1      41.533  27.614  26.391  1.00  0.00     0.198 A 
ATOM     56  F   UNL A   1      42.102  29.584  27.545  1.00  0.00    -0.203 F 
ATOM     57  F   UNL A   1      39.477  24.805  27.398  1.00  0.00    -0.200 F 
ATOM     58  C   UNL A   1      40.868  26.398  26.346  1.00  0.00     0.200 A 
ATOM     59  F   UNL A   1      42.260  28.020  25.342  1.00  0.00    -0.200 F 
ATOM     60  F   UNL A   1      40.969  25.618  25.261  1.00  0.00    -0.200 F 
ENDBRANCH  26  50
BRANCH  38  61
ATOM     61  C   UNL A   1      43.930  28.329  34.761  1.00  0.00     0.064 A 
ATOM     62  C   UNL A   1      45.270  28.720  34.634  1.00  0.00     0.173 A 
ATOM     63  C   UNL A   1      43.650  27.152  35.472  1.00  0.00     0.173 A 
ATOM     64  F   UNL A   1      45.588  29.829  33.947  1.00  0.00    -0.203 F 
ATOM     65  C   UNL A   1      46.295  27.946  35.172  1.00  0.00     0.198 A 
ATOM     66  C   UNL A   1      44.675  26.396  36.033  1.00  0.00     0.198 A 
ATOM     67  F   UNL A   1      42.384  26.739  35.624  1.00  0.00    -0.203 F 
ATOM     68  F   UNL A   1      47.572  28.310  34.993  1.00  0.00    -0.200 F 
ATOM     69  C   UNL A   1      45.995  26.788  35.875  1.00  0.00     0.200 A 
ATOM     70  F   UNL A   1      44.384  25.282  36.720  1.00  0.00    -0.200 F 
ATOM     71  F   UNL A   1      46.982  26.043  36.392  1.00  0.00    -0.200 F 
ENDBRANCH  38  61
ENDBRANCH  12  13
ENDBRANCH   5   7
ENDBRANCH   2   3
ENDBRANCH   1   2
BRANCH   1  72
ATOM     72  C   UNL A   1      31.561  30.532  26.412  1.00  0.00     0.117 C 
BRANCH  72  73
ATOM     73  N   UNL A   1      32.506  30.143  25.383  1.00  0.00    -0.356 N 
ATOM     74  C   UNL A   1      32.716  28.969  24.745  1.00  0.00     0.224 C 
ATOM     75  H   UNL A   1      33.107  30.868  25.096  1.00  0.00     0.163 HD
ATOM     76  O   UNL A   1      33.686  28.940  23.981  1.00  0.00    -0.275 OA
BRANCH  74  77
ATOM     77  C   UNL A   1      31.844  27.739  25.003  1.00  0.00     0.098 C 
ATOM     78  C   UNL A   1      32.528  26.478  24.428  1.00  0.00     0.017 C 
ATOM     79  C   UNL A   1      30.444  27.825  24.384  1.00  0.00     0.133 C 
ATOM     80  C   UNL A   1      32.512  26.459  22.888  1.00  0.00     0.022 C 
ATOM     81  N   UNL A   1      30.532  27.936  22.932  1.00  0.00    -0.342 N 
ATOM     82  C   UNL A   1      31.127  26.760  22.313  1.00  0.00     0.119 C 
BRANCH  81  83
ATOM     83  C   UNL A   1      30.155  29.133  22.351  1.00  0.00     0.226 C 
ATOM     84  O   UNL A   1      30.875  29.651  21.483  1.00  0.00    -0.275 OA
BRANCH  83  85
ATOM     85  C   UNL A   1      28.883  29.897  22.731  1.00  0.00     0.083 C 
ATOM     86  C   UNL A   1      29.065  31.075  23.694  1.00  0.00     0.040 C 
ATOM     87  C   UNL A   1      27.935  30.134  21.553  1.00  0.00     0.018 C 
ATOM     88  C   UNL A   1      28.686  32.421  23.146  1.00  0.00    -0.030 C 
ATOM     89  C   UNL A   1      28.021  31.514  20.913  1.00  0.00     0.028 C 
ATOM     90  C   UNL A   1      28.227  32.619  21.902  1.00  0.00    -0.031 C 
ENDBRANCH  83  85
ENDBRANCH  81  83
ENDBRANCH  74  77
ENDBRANCH  72  73
ENDBRANCH   1  72
TORSDOF 12
ENDMDL
MODEL 2
REMARK VINA RESULT:     -12.7      0.073      1.622
REMARK SMILES O=C(NCCCNC(=O)[C@@H]1CCCN(C(=O)[C@H]2CC=CCC2)C1)c1ccc(-c2c3nc(c(-c4c(F)c(F)c(F)c(F)c4F)c4ccc([nH]4)c(-c4c(F)c(F)c(F)c(F)c4F)c4nc(c(-c5c(F)c(F)c(F)c(F)c5F)c5ccc2[nH]5)C=C4)C=C3)cc1
REMARK SMILES IDX 5 1 4 2 3 3 1 4 2 5 24 7 25 8 86 9 26 10 85 11 27 12 28 13
REMARK SMILES IDX 29 14 79 15 30 16 84 17 78 18 80 19 31 20 83 21 77 22 76 23
REMARK SMILES IDX 32 25 64 26 44 27 63 28 45 29 48 30 62 31 81 32 46 33 47 34
REMARK SMILES IDX 61 36 82 37 49 38 33 39 34 40 42 41 35 42 36 43 40 44 43 45
REMARK SMILES IDX 37 46 38 47 41 48 39 49 65 50 66 51 74 52 67 53 68 54 72 55
REMARK SMILES IDX 75 56 69 57 70 58 73 59 71 60 50 61 51 62 59 63 52 64 53 65
REMARK SMILES IDX 57 66 60 67 54 68 55 69 58 70 56 71 6 72 7 73 8 74 9 76
REMARK SMILES IDX 10 77 11 78 23 79 12 80 14 81 13 82 15 83 16 84 17 85 18 86
REMARK SMILES IDX 22 87 19 88 21 89 20 90
REMARK H PARENT 3 6 80 24 48 35 7 75
REMARK Flexibility Score: inf
ROOT
ATOM      1  C   UNL A   1      31.443  32.064  26.486  1.00  0.00     0.042 C 
ENDROOT
BRANCH   1   2
ATOM      2  C   UNL A   1      32.620  32.695  27.216  1.00  0.00     0.118 C 
BRANCH   2   3
ATOM      3  N   UNL A   1      32.384  34.077  27.613  1.00  0.00    -0.352 N 
ATOM      4  O   UNL A   1      32.544  35.970  28.826  1.00  0.00    -0.269 OA
ATOM      5  C   UNL A   1      33.003  34.867  28.555  1.00  0.00     0.251 C 
ATOM      6  H   UNL A   1      31.656  34.523  27.123  1.00  0.00     0.163 HD
BRANCH   5   7
ATOM      7  C   UNL A   1      34.195  34.374  29.280  1.00  0.00     0.039 A 
ATOM      8  C   UNL A   1      35.478  34.584  28.784  1.00  0.00     0.014 A 
ATOM      9  C   UNL A   1      34.026  33.690  30.489  1.00  0.00     0.014 A 
ATOM     10  C   UNL A   1      36.556  33.920  29.352  1.00  0.00     0.010 A 
ATOM     11  C   UNL A   1      35.135  33.139  31.140  1.00  0.00     0.010 A 
ATOM     12  C   UNL A   1      36.403  33.199  30.547  1.00  0.00    -0.014 A 
BRANCH  12  13
ATOM     13  C   UNL A   1      37.598  32.549  31.150  1.00  0.00     0.031 A 
ATOM     14  C   UNL A   1      38.038  32.875  32.553  1.00  0.00     0.074 A 
ATOM     15  C   UNL A   1      38.253  31.609  30.441  1.00  0.00     0.049 A 
ATOM     16  N   UNL A   1      39.028  32.368  33.245  1.00  0.00    -0.248 NA
ATOM     17  C   UNL A   1      37.280  33.911  33.271  1.00  0.00     0.031 C 
ATOM     18  C   UNL A   1      37.929  31.215  29.067  1.00  0.00     0.029 A 
ATOM     19  N   UNL A   1      39.297  30.787  30.782  1.00  0.00    -0.354 N 
ATOM     20  C   UNL A   1      39.037  33.048  34.456  1.00  0.00     0.074 A 
ATOM     21  C   UNL A   1      37.963  34.016  34.402  1.00  0.00     0.031 C 
ATOM     22  C   UNL A   1      38.697  30.176  28.713  1.00  0.00     0.029 A 
ATOM     23  C   UNL A   1      39.620  29.880  29.803  1.00  0.00     0.049 A 
ATOM     24  H   UNL A   1      39.768  30.842  31.645  1.00  0.00     0.167 HD
ATOM     25  C   UNL A   1      39.863  32.875  35.516  1.00  0.00     0.037 A 
ATOM     26  C   UNL A   1      40.561  28.920  29.778  1.00  0.00     0.037 A 
ATOM     27  C   UNL A   1      40.903  31.880  35.583  1.00  0.00     0.049 A 
ATOM     28  C   UNL A   1      41.450  28.741  30.973  1.00  0.00     0.074 A 
ATOM     29  C   UNL A   1      41.764  31.599  36.630  1.00  0.00     0.029 A 
ATOM     30  N   UNL A   1      41.218  30.998  34.560  1.00  0.00    -0.354 N 
ATOM     31  N   UNL A   1      41.433  29.378  32.118  1.00  0.00    -0.248 NA
ATOM     32  C   UNL A   1      42.493  27.712  30.870  1.00  0.00     0.031 C 
ATOM     33  C   UNL A   1      42.626  30.574  36.225  1.00  0.00     0.029 A 
ATOM     34  C   UNL A   1      42.271  30.182  34.944  1.00  0.00     0.049 A 
ATOM     35  H   UNL A   1      40.761  30.957  33.689  1.00  0.00     0.167 HD
ATOM     36  C   UNL A   1      42.448  28.818  32.880  1.00  0.00     0.074 A 
ATOM     37  C   UNL A   1      43.047  27.775  32.072  1.00  0.00     0.031 C 
ATOM     38  C   UNL A   1      42.849  29.143  34.132  1.00  0.00     0.037 A 
BRANCH  25  39
ATOM     39  C   UNL A   1      39.695  33.800  36.689  1.00  0.00     0.064 A 
ATOM     40  C   UNL A   1      40.317  35.057  36.738  1.00  0.00     0.173 A 
ATOM     41  C   UNL A   1      38.865  33.438  37.762  1.00  0.00     0.173 A 
ATOM     42  F   UNL A   1      41.129  35.447  35.745  1.00  0.00    -0.203 F 
ATOM     43  C   UNL A   1      40.134  35.904  37.829  1.00  0.00     0.198 A 
ATOM     44  C   UNL A   1      38.663  34.298  38.837  1.00  0.00     0.198 A 
ATOM     45  F   UNL A   1      38.241  32.250  37.762  1.00  0.00    -0.203 F 
ATOM     46  F   UNL A   1      40.773  37.082  37.875  1.00  0.00    -0.200 F 
ATOM     47  C   UNL A   1      39.303  35.527  38.874  1.00  0.00     0.200 A 
ATOM     48  F   UNL A   1      37.850  33.936  39.840  1.00  0.00    -0.200 F 
ATOM     49  F   UNL A   1      39.124  36.347  39.919  1.00  0.00    -0.200 F 
ENDBRANCH  25  39
BRANCH  26  50
ATOM     50  C   UNL A   1      40.695  28.049  28.581  1.00  0.00     0.064 A 
ATOM     51  C   UNL A   1      40.027  26.819  28.509  1.00  0.00     0.173 A 
ATOM     52  C   UNL A   1      41.472  28.437  27.481  1.00  0.00     0.173 A 
ATOM     53  F   UNL A   1      39.287  26.397  29.544  1.00  0.00    -0.203 F 
ATOM     54  C   UNL A   1      40.142  26.005  27.385  1.00  0.00     0.198 A 
ATOM     55  C   UNL A   1      41.561  27.636  26.344  1.00  0.00     0.198 A 
ATOM     56  F   UNL A   1      42.125  29.608  27.498  1.00  0.00    -0.203 F 
ATOM     57  F   UNL A   1      39.523  24.817  27.356  1.00  0.00    -0.200 F 
ATOM     58  C   UNL A   1      40.902  26.417  26.300  1.00  0.00     0.200 A 
ATOM     59  F   UNL A   1      42.282  28.047  25.293  1.00  0.00    -0.200 F 
ATOM     60  F   UNL A   1      41.002  25.639  25.214  1.00  0.00    -0.200 F 
ENDBRANCH  26  50
BRANCH  38  61
ATOM     61  C   UNL A   1      43.964  28.329  34.719  1.00  0.00     0.064 A 
ATOM     62  C   UNL A   1      43.717  27.142  35.423  1.00  0.00     0.173 A 
ATOM     63  C   UNL A   1      45.296  28.738  34.561  1.00  0.00     0.173 A 
ATOM     64  F   UNL A   1      42.457  26.720  35.614  1.00  0.00    -0.203 F 
ATOM     65  C   UNL A   1      44.763  26.407  35.974  1.00  0.00     0.198 A 
ATOM     66  C   UNL A   1      46.341  27.986  35.090  1.00  0.00     0.198 A 
ATOM     67  F   UNL A   1      45.583  29.864  33.892  1.00  0.00    -0.203 F 
ATOM     68  F   UNL A   1      44.501  25.305  36.689  1.00  0.00    -0.200 F 
ATOM     69  C   UNL A   1      46.074  26.828  35.803  1.00  0.00     0.200 A 
ATOM     70  F   UNL A   1      47.609  28.388  34.916  1.00  0.00    -0.200 F 
ATOM     71  F   UNL A   1      47.080  26.121  36.336  1.00  0.00    -0.200 F 
ENDBRANCH  38  61
ENDBRANCH  12  13
ENDBRANCH   5   7
ENDBRANCH   2   3
ENDBRANCH   1   2
BRANCH   1  72
ATOM     72  C   UNL A   1      31.541  30.554  26.347  1.00  0.00     0.117 C 
BRANCH  72  73
ATOM     73  N   UNL A   1      32.517  30.166  25.347  1.00  0.00    -0.356 N 
ATOM     74  C   UNL A   1      32.758  28.987  24.728  1.00  0.00     0.224 C 
ATOM     75  H   UNL A   1      33.116  30.895  25.069  1.00  0.00     0.163 HD
ATOM     76  O   UNL A   1      33.747  28.962  23.990  1.00  0.00    -0.275 OA
BRANCH  74  77
ATOM     77  C   UNL A   1      31.893  27.750  24.976  1.00  0.00     0.098 C 
ATOM     78  C   UNL A   1      32.583  26.498  24.385  1.00  0.00     0.017 C 
ATOM     79  C   UNL A   1      30.491  27.834  24.364  1.00  0.00     0.133 C 
ATOM     80  C   UNL A   1      32.561  26.496  22.846  1.00  0.00     0.022 C 
ATOM     81  N   UNL A   1      30.573  27.961  22.913  1.00  0.00    -0.342 N 
ATOM     82  C   UNL A   1      31.172  26.794  22.279  1.00  0.00     0.119 C 
BRANCH  81  83
ATOM     83  C   UNL A   1      30.186  29.161  22.346  1.00  0.00     0.226 C 
ATOM     84  O   UNL A   1      30.907  29.699  21.489  1.00  0.00    -0.275 OA
BRANCH  83  85
ATOM     85  C   UNL A   1      28.904  29.907  22.728  1.00  0.00     0.083 C 
ATOM     86  C   UNL A   1      29.074  31.110  23.661  1.00  0.00     0.040 C 
ATOM     87  C   UNL A   1      27.933  30.095  21.560  1.00  0.00     0.018 C 
ATOM     88  C   UNL A   1      28.658  32.435  23.088  1.00  0.00    -0.030 C 
ATOM     89  C   UNL A   1      27.979  31.462  20.887  1.00  0.00     0.028 C 
ATOM     90  C   UNL A   1      28.176  32.594  21.848  1.00  0.00    -0.031 C 
ENDBRANCH  83  85
ENDBRANCH  81  83
ENDBRANCH  74  77
ENDBRANCH  72  73
ENDBRANCH   1  72
TORSDOF 12
ENDMDL
MODEL 3
REMARK VINA RESULT:     -12.6      6.574     11.572
REMARK SMILES O=C(NCCCNC(=O)[C@@H]1CCCN(C(=O)[C@H]2CC=CCC2)C1)c1ccc(-c2c3nc(c(-c4c(F)c(F)c(F)c(F)c4F)c4ccc([nH]4)c(-c4c(F)c(F)c(F)c(F)c4F)c4nc(c(-c5c(F)c(F)c(F)c(F)c5F)c5ccc2[nH]5)C=C4)C=C3)cc1
REMARK SMILES IDX 5 1 4 2 3 3 1 4 2 5 24 7 25 8 86 9 26 10 85 11 27 12 28 13
REMARK SMILES IDX 29 14 79 15 30 16 84 17 78 18 80 19 31 20 83 21 77 22 76 23
REMARK SMILES IDX 32 25 64 26 44 27 63 28 45 29 48 30 62 31 81 32 46 33 47 34
REMARK SMILES IDX 61 36 82 37 49 38 33 39 34 40 42 41 35 42 36 43 40 44 43 45
REMARK SMILES IDX 37 46 38 47 41 48 39 49 65 50 66 51 74 52 67 53 68 54 72 55
REMARK SMILES IDX 75 56 69 57 70 58 73 59 71 60 50 61 51 62 59 63 52 64 53 65
REMARK SMILES IDX 57 66 60 67 54 68 55 69 58 70 56 71 6 72 7 73 8 74 9 76
REMARK SMILES IDX 10 77 11 78 23 79 12 80 14 81 13 82 15 83 16 84 17 85 18 86
REMARK SMILES IDX 22 87 19 88 21 89 20 90
REMARK H PARENT 3 6 80 24 48 35 7 75
REMARK Flexibility Score: inf
ROOT
ATOM      1  C   UNL A   1      38.068  19.996  24.800  1.00  0.00     0.042 C 
ENDROOT
BRANCH   1   2
ATOM      2  C   UNL A   1      39.117  20.228  25.878  1.00  0.00     0.118 C 
BRANCH   2   3
ATOM      3  N   UNL A   1      40.173  19.225  25.887  1.00  0.00    -0.352 N 
ATOM      4  O   UNL A   1      42.259  18.373  25.913  1.00  0.00    -0.269 OA
ATOM      5  C   UNL A   1      41.529  19.340  26.094  1.00  0.00     0.251 C 
ATOM      6  H   UNL A   1      39.864  18.307  25.716  1.00  0.00     0.163 HD
BRANCH   5   7
ATOM      7  C   UNL A   1      42.120  20.639  26.486  1.00  0.00     0.039 A 
ATOM      8  C   UNL A   1      42.308  20.969  27.824  1.00  0.00     0.014 A 
ATOM      9  C   UNL A   1      42.501  21.545  25.491  1.00  0.00     0.014 A 
ATOM     10  C   UNL A   1      42.644  22.269  28.174  1.00  0.00     0.010 A 
ATOM     11  C   UNL A   1      42.977  22.812  25.846  1.00  0.00     0.010 A 
ATOM     12  C   UNL A   1      42.997  23.207  27.191  1.00  0.00    -0.014 A 
BRANCH  12  13
ATOM     13  C   UNL A   1      43.405  24.573  27.615  1.00  0.00     0.031 A 
ATOM     14  C   UNL A   1      44.843  25.013  27.551  1.00  0.00     0.074 A 
ATOM     15  C   UNL A   1      42.451  25.443  28.004  1.00  0.00     0.049 A 
ATOM     16  N   UNL A   1      45.362  26.181  27.840  1.00  0.00    -0.248 NA
ATOM     17  C   UNL A   1      45.832  24.014  27.120  1.00  0.00     0.031 C 
ATOM     18  C   UNL A   1      41.025  25.130  28.118  1.00  0.00     0.029 A 
ATOM     19  N   UNL A   1      42.526  26.772  28.335  1.00  0.00    -0.354 N 
ATOM     20  C   UNL A   1      46.733  26.046  27.666  1.00  0.00     0.074 A 
ATOM     21  C   UNL A   1      46.972  24.678  27.261  1.00  0.00     0.031 C 
ATOM     22  C   UNL A   1      40.349  26.250  28.411  1.00  0.00     0.029 A 
ATOM     23  C   UNL A   1      41.300  27.342  28.581  1.00  0.00     0.049 A 
ATOM     24  H   UNL A   1      43.374  27.268  28.392  1.00  0.00     0.167 HD
ATOM     25  C   UNL A   1      47.701  26.980  27.826  1.00  0.00     0.037 A 
ATOM     26  C   UNL A   1      40.976  28.604  28.916  1.00  0.00     0.037 A 
ATOM     27  C   UNL A   1      47.455  28.353  28.187  1.00  0.00     0.049 A 
ATOM     28  C   UNL A   1      42.068  29.620  29.068  1.00  0.00     0.074 A 
ATOM     29  C   UNL A   1      48.367  29.385  28.332  1.00  0.00     0.029 A 
ATOM     30  N   UNL A   1      46.203  28.886  28.455  1.00  0.00    -0.354 N 
ATOM     31  N   UNL A   1      43.358  29.482  28.881  1.00  0.00    -0.248 NA
ATOM     32  C   UNL A   1      41.660  30.968  29.486  1.00  0.00     0.031 C 
ATOM     33  C   UNL A   1      47.669  30.533  28.726  1.00  0.00     0.029 A 
ATOM     34  C   UNL A   1      46.318  30.229  28.780  1.00  0.00     0.049 A 
ATOM     35  H   UNL A   1      45.356  28.385  28.420  1.00  0.00     0.167 HD
ATOM     36  C   UNL A   1      43.915  30.725  29.139  1.00  0.00     0.074 A 
ATOM     37  C   UNL A   1      42.819  31.611  29.476  1.00  0.00     0.031 C 
ATOM     38  C   UNL A   1      45.217  31.098  29.103  1.00  0.00     0.037 A 
BRANCH  25  39
ATOM     39  C   UNL A   1      49.128  26.545  27.635  1.00  0.00     0.064 A 
ATOM     40  C   UNL A   1      49.697  26.404  26.361  1.00  0.00     0.173 A 
ATOM     41  C   UNL A   1      49.948  26.306  28.749  1.00  0.00     0.173 A 
ATOM     42  F   UNL A   1      48.954  26.609  25.263  1.00  0.00    -0.203 F 
ATOM     43  C   UNL A   1      51.026  26.014  26.210  1.00  0.00     0.198 A 
ATOM     44  C   UNL A   1      51.283  25.944  28.595  1.00  0.00     0.198 A 
ATOM     45  F   UNL A   1      49.455  26.434  29.991  1.00  0.00    -0.203 F 
ATOM     46  F   UNL A   1      51.537  25.843  24.982  1.00  0.00    -0.200 F 
ATOM     47  C   UNL A   1      51.819  25.791  27.326  1.00  0.00     0.200 A 
ATOM     48  F   UNL A   1      52.050  25.740  29.675  1.00  0.00    -0.200 F 
ATOM     49  F   UNL A   1      53.099  25.422  27.178  1.00  0.00    -0.200 F 
ENDBRANCH  25  39
BRANCH  26  50
ATOM     50  C   UNL A   1      39.549  28.970  29.113  1.00  0.00     0.064 A 
ATOM     51  C   UNL A   1      38.760  29.394  28.035  1.00  0.00     0.173 A 
ATOM     52  C   UNL A   1      38.942  28.885  30.374  1.00  0.00     0.173 A 
ATOM     53  F   UNL A   1      39.301  29.509  26.813  1.00  0.00    -0.203 F 
ATOM     54  C   UNL A   1      37.419  29.728  28.214  1.00  0.00     0.198 A 
ATOM     55  C   UNL A   1      37.594  29.190  30.546  1.00  0.00     0.198 A 
ATOM     56  F   UNL A   1      39.653  28.479  31.436  1.00  0.00    -0.203 F 
ATOM     57  F   UNL A   1      36.696  30.165  27.174  1.00  0.00    -0.200 F 
ATOM     58  C   UNL A   1      36.836  29.618  29.467  1.00  0.00     0.200 A 
ATOM     59  F   UNL A   1      37.030  29.065  31.755  1.00  0.00    -0.200 F 
ATOM     60  F   UNL A   1      35.543  29.929  29.636  1.00  0.00    -0.200 F 
ENDBRANCH  26  50
BRANCH  38  61
ATOM     61  C   UNL A   1      45.518  32.537  29.397  1.00  0.00     0.064 A 
ATOM     62  C   UNL A   1      45.810  32.978  30.696  1.00  0.00     0.173 A 
ATOM     63  C   UNL A   1      45.529  33.483  28.361  1.00  0.00     0.173 A 
ATOM     64  F   UNL A   1      45.795  32.112  31.722  1.00  0.00    -0.203 F 
ATOM     65  C   UNL A   1      46.072  34.321  30.953  1.00  0.00     0.198 A 
ATOM     66  C   UNL A   1      45.819  34.820  28.618  1.00  0.00     0.198 A 
ATOM     67  F   UNL A   1      45.261  33.110  27.102  1.00  0.00    -0.203 F 
ATOM     68  F   UNL A   1      46.295  34.729  32.209  1.00  0.00    -0.200 F 
ATOM     69  C   UNL A   1      46.081  35.239  29.913  1.00  0.00     0.200 A 
ATOM     70  F   UNL A   1      45.837  35.705  27.610  1.00  0.00    -0.200 F 
ATOM     71  F   UNL A   1      46.332  36.531  30.162  1.00  0.00    -0.200 F 
ENDBRANCH  38  61
ENDBRANCH  12  13
ENDBRANCH   5   7
ENDBRANCH   2   3
ENDBRANCH   1   2
BRANCH   1  72
ATOM     72  C   UNL A   1      36.976  21.052  24.762  1.00  0.00     0.117 C 
BRANCH  72  73
ATOM     73  N   UNL A   1      36.052  20.912  25.871  1.00  0.00    -0.356 N 
ATOM     74  C   UNL A   1      34.918  21.577  26.194  1.00  0.00     0.224 C 
ATOM     75  H   UNL A   1      36.295  20.202  26.508  1.00  0.00     0.163 HD
ATOM     76  O   UNL A   1      34.412  21.278  27.280  1.00  0.00    -0.275 OA
BRANCH  74  77
ATOM     77  C   UNL A   1      34.338  22.672  25.297  1.00  0.00     0.098 C 
ATOM     78  C   UNL A   1      33.254  23.463  26.065  1.00  0.00     0.017 C 
ATOM     79  C   UNL A   1      33.697  22.149  24.007  1.00  0.00     0.133 C 
ATOM     80  C   UNL A   1      31.975  22.635  26.282  1.00  0.00     0.022 C 
ATOM     81  N   UNL A   1      32.575  21.269  24.313  1.00  0.00    -0.342 N 
ATOM     82  C   UNL A   1      31.491  21.958  24.999  1.00  0.00     0.119 C 
BRANCH  81  83
ATOM     83  C   UNL A   1      32.711  19.924  24.024  1.00  0.00     0.226 C 
ATOM     84  O   UNL A   1      32.218  19.465  22.980  1.00  0.00    -0.275 OA
BRANCH  83  85
ATOM     85  C   UNL A   1      33.430  18.926  24.937  1.00  0.00     0.083 C 
ATOM     86  C   UNL A   1      32.535  18.068  25.838  1.00  0.00     0.040 C 
ATOM     87  C   UNL A   1      34.592  18.199  24.257  1.00  0.00     0.018 C 
ATOM     88  C   UNL A   1      32.604  16.588  25.593  1.00  0.00    -0.030 C 
ATOM     89  C   UNL A   1      34.277  16.799  23.746  1.00  0.00     0.028 C 
ATOM     90  C   UNL A   1      33.376  16.021  24.655  1.00  0.00    -0.031 C 
ENDBRANCH  83  85
ENDBRANCH  81  83
ENDBRANCH  74  77
ENDBRANCH  72  73
ENDBRANCH   1  72
TORSDOF 12
ENDMDL
