MODEL 1
REMARK VINA RESULT:     -13.0      0.000      0.000
REMARK SMILES O=C(NCCCNC(=O)[C@H](CO)NC(=O)[C@H](Cc1c[nH]c2ccccc12)NC(=O)[C@H](Cc1ccc(O)cc1)NC(=O)c1ccc(F)cc1)c1ccc(-c2c3nc(c(-c4c(F)c(F)c(F)c(F)c4F)c4ccc([nH]4)c(-c4c(F)c(F)c(F)c(F)c4F)c4nc(c(-c5c(F)c(F)c(F)c(F)c5F)c5ccc2[nH]5)C=C4)C=C3)cc1
REMARK SMILES IDX 7 1 8 2 9 3 6 5 5 6 4 7 3 8 1 9 2 10 49 12 50 13 111 14
REMARK SMILES IDX 51 15 110 16 52 17 53 18 54 19 104 20 55 21 109 22 103 23
REMARK SMILES IDX 105 24 56 25 108 26 102 27 101 28 57 30 89 31 69 32 88 33
REMARK SMILES IDX 70 34 73 35 87 36 106 37 71 38 72 39 86 41 107 42 74 43
REMARK SMILES IDX 58 44 59 45 67 46 60 47 61 48 65 49 68 50 62 51 63 52 66 53
REMARK SMILES IDX 64 54 90 55 91 56 99 57 92 58 93 59 97 60 100 61 94 62 95 63
REMARK SMILES IDX 98 64 96 65 75 66 76 67 84 68 77 69 78 70 82 71 85 72 79 73
REMARK SMILES IDX 80 74 83 75 81 76 10 77 13 78 14 79 15 81 16 82 27 83 28 84
REMARK SMILES IDX 29 86 30 87 39 88 40 89 41 91 42 92 43 93 48 94 44 95 47 96
REMARK SMILES IDX 45 97 46 98 31 99 32 100 33 101 38 102 34 103 37 104 35 105
REMARK SMILES IDX 36 106 17 108 18 109 19 110 26 111 20 112 21 113 25 114
REMARK SMILES IDX 22 116 24 117 23 118 11 119 12 120
REMARK H PARENT 7 4 3 11 105 29 73 40 13 80 27 85 39 90 36 107 20 115 12 121
REMARK Flexibility Score: inf
ROOT
ATOM      1  N   UNL A   1      38.000  21.625  25.489  1.00  0.00    -0.354 N 
ATOM      2  C   UNL A   1      37.344  22.815  25.472  1.00  0.00     0.244 C 
ATOM      3  O   UNL A   1      37.957  23.799  25.901  1.00  0.00    -0.273 OA
ATOM      4  H   UNL A   1      38.782  21.581  26.085  1.00  0.00     0.163 HD
ENDROOT
BRANCH   1   5
ATOM      5  C   UNL A   1      37.712  20.411  24.752  1.00  0.00     0.117 C 
BRANCH   5   6
ATOM      6  C   UNL A   1      38.562  19.284  25.314  1.00  0.00     0.042 C 
BRANCH   6   7
ATOM      7  C   UNL A   1      39.725  19.849  26.112  1.00  0.00     0.118 C 
BRANCH   7   8
ATOM      8  N   UNL A   1      40.920  19.025  25.951  1.00  0.00    -0.352 N 
ATOM      9  O   UNL A   1      43.087  18.701  25.391  1.00  0.00    -0.269 OA
ATOM     10  C   UNL A   1      42.220  19.435  25.858  1.00  0.00     0.251 C 
ATOM     11  H   UNL A   1      40.770  18.053  25.905  1.00  0.00     0.163 HD
BRANCH  10  12
ATOM     12  C   UNL A   1      42.553  20.776  26.355  1.00  0.00     0.039 A 
ATOM     13  C   UNL A   1      42.963  21.746  25.436  1.00  0.00     0.014 A 
ATOM     14  C   UNL A   1      42.481  21.058  27.718  1.00  0.00     0.014 A 
ATOM     15  C   UNL A   1      43.453  22.951  25.894  1.00  0.00     0.010 A 
ATOM     16  C   UNL A   1      42.846  22.326  28.163  1.00  0.00     0.010 A 
ATOM     17  C   UNL A   1      43.345  23.273  27.254  1.00  0.00    -0.014 A 
BRANCH  17  18
ATOM     18  C   UNL A   1      43.657  24.656  27.669  1.00  0.00     0.031 A 
ATOM     19  C   UNL A   1      42.572  25.626  28.010  1.00  0.00     0.074 A 
ATOM     20  C   UNL A   1      44.957  24.999  27.762  1.00  0.00     0.049 A 
ATOM     21  N   UNL A   1      42.681  26.878  28.373  1.00  0.00    -0.248 NA
ATOM     22  C   UNL A   1      41.185  25.142  27.926  1.00  0.00     0.031 C 
ATOM     23  C   UNL A   1      46.084  24.111  27.455  1.00  0.00     0.029 A 
ATOM     24  N   UNL A   1      45.555  26.163  28.162  1.00  0.00    -0.354 N 
ATOM     25  C   UNL A   1      41.383  27.337  28.543  1.00  0.00     0.074 A 
ATOM     26  C   UNL A   1      40.498  26.239  28.219  1.00  0.00     0.031 C 
ATOM     27  C   UNL A   1      47.231  24.737  27.740  1.00  0.00     0.029 A 
ATOM     28  C   UNL A   1      46.928  26.100  28.154  1.00  0.00     0.049 A 
ATOM     29  H   UNL A   1      45.053  26.966  28.430  1.00  0.00     0.167 HD
ATOM     30  C   UNL A   1      40.983  28.567  28.940  1.00  0.00     0.037 A 
ATOM     31  C   UNL A   1      47.844  27.046  28.419  1.00  0.00     0.037 A 
ATOM     32  C   UNL A   1      41.888  29.638  29.269  1.00  0.00     0.049 A 
ATOM     33  C   UNL A   1      47.366  28.412  28.808  1.00  0.00     0.074 A 
ATOM     34  C   UNL A   1      41.586  30.917  29.701  1.00  0.00     0.029 A 
ATOM     35  N   UNL A   1      43.272  29.557  29.199  1.00  0.00    -0.354 N 
ATOM     36  N   UNL A   1      46.136  28.836  28.972  1.00  0.00    -0.248 NA
ATOM     37  C   UNL A   1      48.394  29.432  29.039  1.00  0.00     0.031 C 
ATOM     38  C   UNL A   1      42.782  31.627  29.835  1.00  0.00     0.029 A 
ATOM     39  C   UNL A   1      43.837  30.772  29.555  1.00  0.00     0.049 A 
ATOM     40  H   UNL A   1      43.780  28.754  28.936  1.00  0.00     0.167 HD
ATOM     41  C   UNL A   1      46.240  30.167  29.341  1.00  0.00     0.074 A 
ATOM     42  C   UNL A   1      47.655  30.474  29.395  1.00  0.00     0.031 C 
ATOM     43  C   UNL A   1      45.250  31.054  29.607  1.00  0.00     0.037 A 
BRANCH  30  44
ATOM     44  C   UNL A   1      39.508  28.835  29.029  1.00  0.00     0.064 A 
ATOM     45  C   UNL A   1      38.797  29.261  27.895  1.00  0.00     0.173 A 
ATOM     46  C   UNL A   1      38.813  28.754  30.244  1.00  0.00     0.173 A 
ATOM     47  F   UNL A   1      39.414  29.359  26.708  1.00  0.00    -0.203 F 
ATOM     48  C   UNL A   1      37.454  29.615  27.980  1.00  0.00     0.198 A 
ATOM     49  C   UNL A   1      37.460  29.080  30.320  1.00  0.00     0.198 A 
ATOM     50  F   UNL A   1      39.442  28.344  31.356  1.00  0.00    -0.203 F 
ATOM     51  F   UNL A   1      36.809  30.059  26.892  1.00  0.00    -0.200 F 
ATOM     52  C   UNL A   1      36.786  29.522  29.192  1.00  0.00     0.200 A 
ATOM     53  F   UNL A   1      36.811  28.968  31.487  1.00  0.00    -0.200 F 
ATOM     54  F   UNL A   1      35.492  29.861  29.273  1.00  0.00    -0.200 F 
ENDBRANCH  30  44
BRANCH  31  55
ATOM     55  C   UNL A   1      49.287  26.714  28.312  1.00  0.00     0.064 A 
ATOM     56  C   UNL A   1      50.046  26.384  29.447  1.00  0.00     0.173 A 
ATOM     57  C   UNL A   1      49.953  26.784  27.082  1.00  0.00     0.173 A 
ATOM     58  F   UNL A   1      49.459  26.317  30.651  1.00  0.00    -0.203 F 
ATOM     59  C   UNL A   1      51.418  26.165  29.358  1.00  0.00     0.198 A 
ATOM     60  C   UNL A   1      51.319  26.531  26.988  1.00  0.00     0.198 A 
ATOM     61  F   UNL A   1      49.269  27.085  25.967  1.00  0.00    -0.203 F 
ATOM     62  F   UNL A   1      52.126  25.905  30.465  1.00  0.00    -0.200 F 
ATOM     63  C   UNL A   1      52.053  26.233  28.128  1.00  0.00     0.200 A 
ATOM     64  F   UNL A   1      51.927  26.576  25.795  1.00  0.00    -0.200 F 
ATOM     65  F   UNL A   1      53.372  26.013  28.040  1.00  0.00    -0.200 F 
ENDBRANCH  31  55
BRANCH  43  66
ATOM     66  C   UNL A   1      45.659  32.440  30.009  1.00  0.00     0.064 A 
ATOM     67  C   UNL A   1      45.867  33.427  29.032  1.00  0.00     0.173 A 
ATOM     68  C   UNL A   1      45.924  32.769  31.346  1.00  0.00     0.173 A 
ATOM     69  F   UNL A   1      45.634  33.159  27.739  1.00  0.00    -0.203 F 
ATOM     70  C   UNL A   1      46.345  34.686  29.380  1.00  0.00     0.198 A 
ATOM     71  C   UNL A   1      46.370  34.041  31.693  1.00  0.00     0.198 A 
ATOM     72  F   UNL A   1      45.724  31.865  32.316  1.00  0.00    -0.203 F 
ATOM     73  F   UNL A   1      46.577  35.599  28.426  1.00  0.00    -0.200 F 
ATOM     74  C   UNL A   1      46.593  34.993  30.709  1.00  0.00     0.200 A 
ATOM     75  F   UNL A   1      46.582  34.346  32.980  1.00  0.00    -0.200 F 
ATOM     76  F   UNL A   1      47.045  36.209  31.043  1.00  0.00    -0.200 F 
ENDBRANCH  43  66
ENDBRANCH  17  18
ENDBRANCH  10  12
ENDBRANCH   7   8
ENDBRANCH   6   7
ENDBRANCH   5   6
ENDBRANCH   1   5
BRANCH   2  77
ATOM     77  C   UNL A   1      35.837  22.893  25.205  1.00  0.00     0.197 C 
BRANCH  77  78
ATOM     78  N   UNL A   1      34.935  23.229  26.306  1.00  0.00    -0.340 N 
ATOM     79  C   UNL A   1      33.807  22.722  26.836  1.00  0.00     0.243 C 
ATOM     80  H   UNL A   1      35.229  24.039  26.782  1.00  0.00     0.164 HD
ATOM     81  O   UNL A   1      33.635  23.026  28.024  1.00  0.00    -0.273 OA
BRANCH  79  82
ATOM     82  C   UNL A   1      32.718  21.972  26.033  1.00  0.00     0.175 C 
BRANCH  82  83
ATOM     83  N   UNL A   1      31.363  22.038  26.603  1.00  0.00    -0.342 N 
ATOM     84  C   UNL A   1      30.376  22.982  26.507  1.00  0.00     0.243 C 
ATOM     85  H   UNL A   1      31.123  21.260  27.155  1.00  0.00     0.164 HD
ATOM     86  O   UNL A   1      29.256  22.622  26.894  1.00  0.00    -0.273 OA
BRANCH  84  87
ATOM     87  C   UNL A   1      30.595  24.466  26.089  1.00  0.00     0.176 C 
BRANCH  87  88
ATOM     88  N   UNL A   1      29.477  25.191  25.503  1.00  0.00    -0.340 N 
ATOM     89  C   UNL A   1      29.434  26.023  24.409  1.00  0.00     0.251 C 
ATOM     90  H   UNL A   1      28.615  25.066  25.962  1.00  0.00     0.164 HD
ATOM     91  O   UNL A   1      28.367  26.559  24.120  1.00  0.00    -0.269 OA
BRANCH  89  92
ATOM     92  C   UNL A   1      30.648  26.326  23.610  1.00  0.00     0.040 A 
ATOM     93  C   UNL A   1      31.450  25.338  23.021  1.00  0.00     0.017 A 
ATOM     94  C   UNL A   1      30.981  27.677  23.441  1.00  0.00     0.017 A 
ATOM     95  C   UNL A   1      32.633  25.694  22.370  1.00  0.00     0.040 A 
ATOM     96  C   UNL A   1      32.151  28.031  22.767  1.00  0.00     0.040 A 
ATOM     97  C   UNL A   1      32.979  27.036  22.260  1.00  0.00     0.123 A 
ATOM     98  F   UNL A   1      34.121  27.375  21.650  1.00  0.00    -0.207 F 
ENDBRANCH  89  92
ENDBRANCH  87  88
BRANCH  87  99
ATOM     99  C   UNL A   1      31.345  25.297  27.164  1.00  0.00     0.070 C 
BRANCH  99 100
ATOM    100  C   UNL A   1      32.041  26.584  26.770  1.00  0.00    -0.045 A 
ATOM    101  C   UNL A   1      33.299  26.586  26.150  1.00  0.00     0.007 A 
ATOM    102  C   UNL A   1      31.469  27.818  27.125  1.00  0.00     0.007 A 
ATOM    103  C   UNL A   1      33.942  27.790  25.832  1.00  0.00     0.046 A 
ATOM    104  C   UNL A   1      32.124  29.022  26.840  1.00  0.00     0.046 A 
ATOM    105  C   UNL A   1      33.341  29.000  26.166  1.00  0.00     0.115 A 
BRANCH 105 106
ATOM    106  O   UNL A   1      33.863  30.191  25.753  1.00  0.00    -0.508 OA
ATOM    107  H   UNL A   1      34.789  30.282  25.639  1.00  0.00     0.293 HD
ENDBRANCH 105 106
ENDBRANCH  99 100
ENDBRANCH  87  99
ENDBRANCH  84  87
ENDBRANCH  82  83
BRANCH  82 108
ATOM    108  C   UNL A   1      32.760  22.387  24.541  1.00  0.00     0.072 C 
BRANCH 108 109
ATOM    109  C   UNL A   1      32.505  21.270  23.547  1.00  0.00    -0.020 A 
ATOM    110  C   UNL A   1      31.871  21.355  22.320  1.00  0.00     0.087 A 
ATOM    111  C   UNL A   1      32.871  19.886  23.701  1.00  0.00     0.003 A 
ATOM    112  N   UNL A   1      31.811  20.113  21.754  1.00  0.00    -0.361 N 
ATOM    113  C   UNL A   1      32.411  19.194  22.577  1.00  0.00     0.046 A 
ATOM    114  C   UNL A   1      33.547  19.149  24.695  1.00  0.00     0.010 A 
ATOM    115  H   UNL A   1      31.400  19.909  20.884  1.00  0.00     0.166 HD
ATOM    116  C   UNL A   1      32.577  17.815  22.400  1.00  0.00     0.026 A 
ATOM    117  C   UNL A   1      33.735  17.769  24.530  1.00  0.00     0.001 A 
ATOM    118  C   UNL A   1      33.252  17.113  23.400  1.00  0.00     0.002 A 
ENDBRANCH 108 109
ENDBRANCH  82 108
ENDBRANCH  79  82
ENDBRANCH  77  78
BRANCH  77 119
ATOM    119  C   UNL A   1      35.694  24.001  24.163  1.00  0.00     0.191 C 
BRANCH 119 120
ATOM    120  O   UNL A   1      35.744  23.491  22.825  1.00  0.00    -0.394 OA
ATOM    121  H   UNL A   1      36.599  23.057  22.676  1.00  0.00     0.210 HD
ENDBRANCH 119 120
ENDBRANCH  77 119
ENDBRANCH   2  77
TORSDOF 23
ENDMDL
MODEL 2
REMARK VINA RESULT:     -12.9      0.845      6.647
REMARK SMILES O=C(NCCCNC(=O)[C@H](CO)NC(=O)[C@H](Cc1c[nH]c2ccccc12)NC(=O)[C@H](Cc1ccc(O)cc1)NC(=O)c1ccc(F)cc1)c1ccc(-c2c3nc(c(-c4c(F)c(F)c(F)c(F)c4F)c4ccc([nH]4)c(-c4c(F)c(F)c(F)c(F)c4F)c4nc(c(-c5c(F)c(F)c(F)c(F)c5F)c5ccc2[nH]5)C=C4)C=C3)cc1
REMARK SMILES IDX 7 1 8 2 9 3 6 5 5 6 4 7 3 8 1 9 2 10 49 12 50 13 111 14
REMARK SMILES IDX 51 15 110 16 52 17 53 18 54 19 104 20 55 21 109 22 103 23
REMARK SMILES IDX 105 24 56 25 108 26 102 27 101 28 57 30 89 31 69 32 88 33
REMARK SMILES IDX 70 34 73 35 87 36 106 37 71 38 72 39 86 41 107 42 74 43
REMARK SMILES IDX 58 44 59 45 67 46 60 47 61 48 65 49 68 50 62 51 63 52 66 53
REMARK SMILES IDX 64 54 90 55 91 56 99 57 92 58 93 59 97 60 100 61 94 62 95 63
REMARK SMILES IDX 98 64 96 65 75 66 76 67 84 68 77 69 78 70 82 71 85 72 79 73
REMARK SMILES IDX 80 74 83 75 81 76 10 77 13 78 14 79 15 81 16 82 27 83 28 84
REMARK SMILES IDX 29 86 30 87 39 88 40 89 41 91 42 92 43 93 48 94 44 95 47 96
REMARK SMILES IDX 45 97 46 98 31 99 32 100 33 101 38 102 34 103 37 104 35 105
REMARK SMILES IDX 36 106 17 108 18 109 19 110 26 111 20 112 21 113 25 114
REMARK SMILES IDX 22 116 24 117 23 118 11 119 12 120
REMARK H PARENT 7 4 3 11 105 29 73 40 13 80 27 85 39 90 36 107 20 115 12 121
REMARK Flexibility Score: inf
ROOT
ATOM      1  N   UNL A   1      38.072  21.415  25.447  1.00  0.00    -0.354 N 
ATOM      2  C   UNL A   1      37.452  22.617  25.321  1.00  0.00     0.244 C 
ATOM      3  O   UNL A   1      38.067  23.610  25.728  1.00  0.00    -0.273 OA
ATOM      4  H   UNL A   1      38.818  21.387  26.089  1.00  0.00     0.163 HD
ENDROOT
BRANCH   1   5
ATOM      5  C   UNL A   1      37.793  20.166  24.767  1.00  0.00     0.117 C 
BRANCH   5   6
ATOM      6  C   UNL A   1      38.691  19.084  25.342  1.00  0.00     0.042 C 
BRANCH   6   7
ATOM      7  C   UNL A   1      39.829  19.708  26.132  1.00  0.00     0.118 C 
BRANCH   7   8
ATOM      8  N   UNL A   1      41.014  18.855  26.107  1.00  0.00    -0.352 N 
ATOM      9  O   UNL A   1      43.175  18.419  25.605  1.00  0.00    -0.269 OA
ATOM     10  C   UNL A   1      42.319  19.230  25.946  1.00  0.00     0.251 C 
ATOM     11  H   UNL A   1      40.853  17.891  26.222  1.00  0.00     0.163 HD
BRANCH  10  12
ATOM     12  C   UNL A   1      42.667  20.630  26.215  1.00  0.00     0.039 A 
ATOM     13  C   UNL A   1      42.748  21.055  27.545  1.00  0.00     0.014 A 
ATOM     14  C   UNL A   1      42.889  21.514  25.161  1.00  0.00     0.014 A 
ATOM     15  C   UNL A   1      42.893  22.398  27.821  1.00  0.00     0.010 A 
ATOM     16  C   UNL A   1      43.174  22.847  25.448  1.00  0.00     0.010 A 
ATOM     17  C   UNL A   1      43.165  23.296  26.779  1.00  0.00    -0.014 A 
BRANCH  17  18
ATOM     18  C   UNL A   1      43.550  24.678  27.133  1.00  0.00     0.031 A 
ATOM     19  C   UNL A   1      44.943  25.174  26.914  1.00  0.00     0.074 A 
ATOM     20  C   UNL A   1      42.590  25.483  27.629  1.00  0.00     0.049 A 
ATOM     21  N   UNL A   1      45.442  26.351  27.188  1.00  0.00    -0.248 NA
ATOM     22  C   UNL A   1      45.907  24.234  26.320  1.00  0.00     0.031 C 
ATOM     23  C   UNL A   1      41.199  25.083  27.869  1.00  0.00     0.029 A 
ATOM     24  N   UNL A   1      42.620  26.801  27.994  1.00  0.00    -0.354 N 
ATOM     25  C   UNL A   1      46.778  26.290  26.820  1.00  0.00     0.074 A 
ATOM     26  C   UNL A   1      47.023  24.952  26.326  1.00  0.00     0.031 C 
ATOM     27  C   UNL A   1      40.497  26.146  28.277  1.00  0.00     0.029 A 
ATOM     28  C   UNL A   1      41.404  27.275  28.422  1.00  0.00     0.049 A 
ATOM     29  H   UNL A   1      43.433  27.356  27.954  1.00  0.00     0.167 HD
ATOM     30  C   UNL A   1      47.704  27.274  26.889  1.00  0.00     0.037 A 
ATOM     31  C   UNL A   1      41.062  28.480  28.910  1.00  0.00     0.037 A 
ATOM     32  C   UNL A   1      47.430  28.602  27.375  1.00  0.00     0.049 A 
ATOM     33  C   UNL A   1      42.123  29.532  29.020  1.00  0.00     0.074 A 
ATOM     34  C   UNL A   1      48.292  29.679  27.468  1.00  0.00     0.029 A 
ATOM     35  N   UNL A   1      46.198  29.033  27.851  1.00  0.00    -0.354 N 
ATOM     36  N   UNL A   1      43.384  29.467  28.665  1.00  0.00    -0.248 NA
ATOM     37  C   UNL A   1      41.725  30.816  29.605  1.00  0.00     0.031 C 
ATOM     38  C   UNL A   1      47.601  30.742  28.055  1.00  0.00     0.029 A 
ATOM     39  C   UNL A   1      46.287  30.354  28.264  1.00  0.00     0.049 A 
ATOM     40  H   UNL A   1      45.382  28.484  27.889  1.00  0.00     0.167 HD
ATOM     41  C   UNL A   1      43.927  30.705  28.967  1.00  0.00     0.074 A 
ATOM     42  C   UNL A   1      42.853  31.507  29.517  1.00  0.00     0.031 C 
ATOM     43  C   UNL A   1      45.202  31.135  28.805  1.00  0.00     0.037 A 
BRANCH  30  44
ATOM     44  C   UNL A   1      49.104  26.958  26.450  1.00  0.00     0.064 A 
ATOM     45  C   UNL A   1      49.471  27.098  25.101  1.00  0.00     0.173 A 
ATOM     46  C   UNL A   1      50.059  26.439  27.337  1.00  0.00     0.173 A 
ATOM     47  F   UNL A   1      48.596  27.586  24.210  1.00  0.00    -0.203 F 
ATOM     48  C   UNL A   1      50.732  26.710  24.655  1.00  0.00     0.198 A 
ATOM     49  C   UNL A   1      51.331  26.080  26.893  1.00  0.00     0.198 A 
ATOM     50  F   UNL A   1      49.764  26.293  28.638  1.00  0.00    -0.203 F 
ATOM     51  F   UNL A   1      51.042  26.814  23.356  1.00  0.00    -0.200 F 
ATOM     52  C   UNL A   1      51.661  26.204  25.552  1.00  0.00     0.200 A 
ATOM     53  F   UNL A   1      52.235  25.613  27.765  1.00  0.00    -0.200 F 
ATOM     54  F   UNL A   1      52.876  25.834  25.123  1.00  0.00    -0.200 F 
ENDBRANCH  30  44
BRANCH  31  55
ATOM     55  C   UNL A   1      39.658  28.726  29.328  1.00  0.00     0.064 A 
ATOM     56  C   UNL A   1      38.718  29.273  28.440  1.00  0.00     0.173 A 
ATOM     57  C   UNL A   1      39.245  28.480  30.643  1.00  0.00     0.173 A 
ATOM     58  F   UNL A   1      39.067  29.539  27.172  1.00  0.00    -0.203 F 
ATOM     59  C   UNL A   1      37.430  29.590  28.859  1.00  0.00     0.198 A 
ATOM     60  C   UNL A   1      37.945  28.766  31.053  1.00  0.00     0.198 A 
ATOM     61  F   UNL A   1      40.104  27.949  31.526  1.00  0.00    -0.203 F 
ATOM     62  F   UNL A   1      36.569  30.160  28.004  1.00  0.00    -0.200 F 
ATOM     63  C   UNL A   1      37.042  29.331  30.164  1.00  0.00     0.200 A 
ATOM     64  F   UNL A   1      37.567  28.495  32.310  1.00  0.00    -0.200 F 
ATOM     65  F   UNL A   1      35.798  29.627  30.567  1.00  0.00    -0.200 F 
ENDBRANCH  31  55
BRANCH  43  66
ATOM     66  C   UNL A   1      45.506  32.549  29.203  1.00  0.00     0.064 A 
ATOM     67  C   UNL A   1      45.918  32.842  30.513  1.00  0.00     0.173 A 
ATOM     68  C   UNL A   1      45.313  33.619  28.317  1.00  0.00     0.173 A 
ATOM     69  F   UNL A   1      46.110  31.854  31.398  1.00  0.00    -0.203 F 
ATOM     70  C   UNL A   1      46.104  34.157  30.925  1.00  0.00     0.198 A 
ATOM     71  C   UNL A   1      45.534  34.932  28.725  1.00  0.00     0.198 A 
ATOM     72  F   UNL A   1      44.937  33.388  27.050  1.00  0.00    -0.203 F 
ATOM     73  F   UNL A   1      46.454  34.415  32.193  1.00  0.00    -0.200 F 
ATOM     74  C   UNL A   1      45.915  35.200  30.032  1.00  0.00     0.200 A 
ATOM     75  F   UNL A   1      45.380  35.937  27.853  1.00  0.00    -0.200 F 
ATOM     76  F   UNL A   1      46.104  36.466  30.428  1.00  0.00    -0.200 F 
ENDBRANCH  43  66
ENDBRANCH  17  18
ENDBRANCH  10  12
ENDBRANCH   7   8
ENDBRANCH   6   7
ENDBRANCH   5   6
ENDBRANCH   1   5
BRANCH   2  77
ATOM     77  C   UNL A   1      35.965  22.716  24.963  1.00  0.00     0.197 C 
BRANCH  77  78
ATOM     78  N   UNL A   1      35.043  23.340  25.911  1.00  0.00    -0.340 N 
ATOM     79  C   UNL A   1      33.855  23.037  26.464  1.00  0.00     0.243 C 
ATOM     80  H   UNL A   1      35.381  24.210  26.226  1.00  0.00     0.164 HD
ATOM     81  O   UNL A   1      33.653  23.597  27.549  1.00  0.00    -0.273 OA
BRANCH  79  82
ATOM     82  C   UNL A   1      32.747  22.212  25.768  1.00  0.00     0.175 C 
BRANCH  82  83
ATOM     83  N   UNL A   1      31.442  22.218  26.446  1.00  0.00    -0.342 N 
ATOM     84  C   UNL A   1      30.420  23.130  26.455  1.00  0.00     0.243 C 
ATOM     85  H   UNL A   1      31.272  21.420  26.996  1.00  0.00     0.164 HD
ATOM     86  O   UNL A   1      29.348  22.723  26.921  1.00  0.00    -0.273 OA
BRANCH  84  87
ATOM     87  C   UNL A   1      30.557  24.629  26.058  1.00  0.00     0.176 C 
BRANCH  87  88
ATOM     88  N   UNL A   1      29.437  25.271  25.384  1.00  0.00    -0.340 N 
ATOM     89  C   UNL A   1      29.417  26.099  24.286  1.00  0.00     0.251 C 
ATOM     90  H   UNL A   1      28.554  25.082  25.775  1.00  0.00     0.164 HD
ATOM     91  O   UNL A   1      28.340  26.555  23.913  1.00  0.00    -0.269 OA
BRANCH  89  92
ATOM     92  C   UNL A   1      30.665  26.492  23.583  1.00  0.00     0.040 A 
ATOM     93  C   UNL A   1      31.542  25.570  22.994  1.00  0.00     0.017 A 
ATOM     94  C   UNL A   1      30.950  27.862  23.507  1.00  0.00     0.017 A 
ATOM     95  C   UNL A   1      32.746  26.007  22.439  1.00  0.00     0.040 A 
ATOM     96  C   UNL A   1      32.144  28.299  22.929  1.00  0.00     0.040 A 
ATOM     97  C   UNL A   1      33.041  27.366  22.422  1.00  0.00     0.123 A 
ATOM     98  F   UNL A   1      34.203  27.781  21.905  1.00  0.00    -0.207 F 
ENDBRANCH  89  92
ENDBRANCH  87  88
BRANCH  87  99
ATOM     99  C   UNL A   1      31.149  25.507  27.192  1.00  0.00     0.070 C 
BRANCH  99 100
ATOM    100  C   UNL A   1      31.953  26.744  26.844  1.00  0.00    -0.045 A 
ATOM    101  C   UNL A   1      33.208  26.662  26.222  1.00  0.00     0.007 A 
ATOM    102  C   UNL A   1      31.487  28.009  27.245  1.00  0.00     0.007 A 
ATOM    103  C   UNL A   1      33.951  27.818  25.948  1.00  0.00     0.046 A 
ATOM    104  C   UNL A   1      32.243  29.163  27.004  1.00  0.00     0.046 A 
ATOM    105  C   UNL A   1      33.454  29.062  26.327  1.00  0.00     0.115 A 
BRANCH 105 106
ATOM    106  O   UNL A   1      34.076  30.218  25.957  1.00  0.00    -0.508 OA
ATOM    107  H   UNL A   1      33.598  31.024  25.942  1.00  0.00     0.293 HD
ENDBRANCH 105 106
ENDBRANCH  99 100
ENDBRANCH  87  99
ENDBRANCH  84  87
ENDBRANCH  82  83
BRANCH  82 108
ATOM    108  C   UNL A   1      32.644  22.594  24.270  1.00  0.00     0.072 C 
BRANCH 108 109
ATOM    109  C   UNL A   1      32.414  21.436  23.317  1.00  0.00    -0.020 A 
ATOM    110  C   UNL A   1      31.815  21.471  22.070  1.00  0.00     0.087 A 
ATOM    111  C   UNL A   1      32.770  20.058  23.539  1.00  0.00     0.003 A 
ATOM    112  N   UNL A   1      31.767  20.206  21.556  1.00  0.00    -0.361 N 
ATOM    113  C   UNL A   1      32.340  19.321  22.433  1.00  0.00     0.046 A 
ATOM    114  C   UNL A   1      33.416  19.363  24.582  1.00  0.00     0.010 A 
ATOM    115  H   UNL A   1      31.379  19.966  20.683  1.00  0.00     0.166 HD
ATOM    116  C   UNL A   1      32.507  17.936  22.319  1.00  0.00     0.026 A 
ATOM    117  C   UNL A   1      33.604  17.977  24.481  1.00  0.00     0.001 A 
ATOM    118  C   UNL A   1      33.150  17.275  23.367  1.00  0.00     0.002 A 
ENDBRANCH 108 109
ENDBRANCH  82 108
ENDBRANCH  79  82
ENDBRANCH  77  78
BRANCH  77 119
ATOM    119  C   UNL A   1      35.937  23.568  23.695  1.00  0.00     0.191 C 
BRANCH 119 120
ATOM    120  O   UNL A   1      37.012  23.241  22.805  1.00  0.00    -0.394 OA
ATOM    121  H   UNL A   1      36.686  22.653  22.106  1.00  0.00     0.210 HD
ENDBRANCH 119 120
ENDBRANCH  77 119
ENDBRANCH   2  77
TORSDOF 23
ENDMDL
MODEL 3
REMARK VINA RESULT:     -12.4      1.576      6.905
REMARK SMILES O=C(NCCCNC(=O)[C@H](CO)NC(=O)[C@H](Cc1c[nH]c2ccccc12)NC(=O)[C@H](Cc1ccc(O)cc1)NC(=O)c1ccc(F)cc1)c1ccc(-c2c3nc(c(-c4c(F)c(F)c(F)c(F)c4F)c4ccc([nH]4)c(-c4c(F)c(F)c(F)c(F)c4F)c4nc(c(-c5c(F)c(F)c(F)c(F)c5F)c5ccc2[nH]5)C=C4)C=C3)cc1
REMARK SMILES IDX 7 1 8 2 9 3 6 5 5 6 4 7 3 8 1 9 2 10 49 12 50 13 111 14
REMARK SMILES IDX 51 15 110 16 52 17 53 18 54 19 104 20 55 21 109 22 103 23
REMARK SMILES IDX 105 24 56 25 108 26 102 27 101 28 57 30 89 31 69 32 88 33
REMARK SMILES IDX 70 34 73 35 87 36 106 37 71 38 72 39 86 41 107 42 74 43
REMARK SMILES IDX 58 44 59 45 67 46 60 47 61 48 65 49 68 50 62 51 63 52 66 53
REMARK SMILES IDX 64 54 90 55 91 56 99 57 92 58 93 59 97 60 100 61 94 62 95 63
REMARK SMILES IDX 98 64 96 65 75 66 76 67 84 68 77 69 78 70 82 71 85 72 79 73
REMARK SMILES IDX 80 74 83 75 81 76 10 77 13 78 14 79 15 81 16 82 27 83 28 84
REMARK SMILES IDX 29 86 30 87 39 88 40 89 41 91 42 92 43 93 48 94 44 95 47 96
REMARK SMILES IDX 45 97 46 98 31 99 32 100 33 101 38 102 34 103 37 104 35 105
REMARK SMILES IDX 36 106 17 108 18 109 19 110 26 111 20 112 21 113 25 114
REMARK SMILES IDX 22 116 24 117 23 118 11 119 12 120
REMARK H PARENT 7 4 3 11 105 29 73 40 13 80 27 85 39 90 36 107 20 115 12 121
REMARK Flexibility Score: inf
ROOT
ATOM      1  N   UNL A   1      37.471  21.665  25.477  1.00  0.00    -0.354 N 
ATOM      2  C   UNL A   1      37.046  22.910  25.135  1.00  0.00     0.244 C 
ATOM      3  O   UNL A   1      37.792  23.854  25.418  1.00  0.00    -0.273 OA
ATOM      4  H   UNL A   1      38.183  21.632  26.157  1.00  0.00     0.163 HD
ENDROOT
BRANCH   1   5
ATOM      5  C   UNL A   1      37.026  20.378  24.982  1.00  0.00     0.117 C 
BRANCH   5   6
ATOM      6  C   UNL A   1      38.202  19.416  24.992  1.00  0.00     0.042 C 
BRANCH   6   7
ATOM      7  C   UNL A   1      39.386  20.039  25.712  1.00  0.00     0.118 C 
BRANCH   7   8
ATOM      8  N   UNL A   1      40.431  19.049  25.955  1.00  0.00    -0.352 N 
ATOM      9  O   UNL A   1      42.581  18.348  25.973  1.00  0.00    -0.269 OA
ATOM     10  C   UNL A   1      41.772  19.261  26.114  1.00  0.00     0.251 C 
ATOM     11  H   UNL A   1      40.133  18.113  26.012  1.00  0.00     0.163 HD
BRANCH  10  12
ATOM     12  C   UNL A   1      42.213  20.612  26.481  1.00  0.00     0.039 A 
ATOM     13  C   UNL A   1      42.607  21.486  25.463  1.00  0.00     0.014 A 
ATOM     14  C   UNL A   1      42.258  20.998  27.819  1.00  0.00     0.014 A 
ATOM     15  C   UNL A   1      43.195  22.689  25.790  1.00  0.00     0.010 A 
ATOM     16  C   UNL A   1      42.724  22.271  28.138  1.00  0.00     0.010 A 
ATOM     17  C   UNL A   1      43.206  23.117  27.126  1.00  0.00    -0.014 A 
BRANCH  17  18
ATOM     18  C   UNL A   1      43.623  24.505  27.409  1.00  0.00     0.031 A 
ATOM     19  C   UNL A   1      45.044  24.937  27.238  1.00  0.00     0.074 A 
ATOM     20  C   UNL A   1      42.668  25.375  27.794  1.00  0.00     0.049 A 
ATOM     21  N   UNL A   1      45.571  26.113  27.462  1.00  0.00    -0.248 NA
ATOM     22  C   UNL A   1      46.002  23.927  26.765  1.00  0.00     0.031 C 
ATOM     23  C   UNL A   1      41.252  25.040  27.979  1.00  0.00     0.029 A 
ATOM     24  N   UNL A   1      42.728  26.714  28.072  1.00  0.00    -0.354 N 
ATOM     25  C   UNL A   1      46.922  25.981  27.177  1.00  0.00     0.074 A 
ATOM     26  C   UNL A   1      47.143  24.605  26.788  1.00  0.00     0.031 C 
ATOM     27  C   UNL A   1      40.569  26.152  28.275  1.00  0.00     0.029 A 
ATOM     28  C   UNL A   1      41.509  27.257  28.397  1.00  0.00     0.049 A 
ATOM     29  H   UNL A   1      43.562  27.236  28.042  1.00  0.00     0.167 HD
ATOM     30  C   UNL A   1      47.880  26.935  27.234  1.00  0.00     0.037 A 
ATOM     31  C   UNL A   1      41.186  28.503  28.783  1.00  0.00     0.037 A 
ATOM     32  C   UNL A   1      47.630  28.302  27.614  1.00  0.00     0.049 A 
ATOM     33  C   UNL A   1      42.279  29.523  28.883  1.00  0.00     0.074 A 
ATOM     34  C   UNL A   1      48.525  29.353  27.685  1.00  0.00     0.029 A 
ATOM     35  N   UNL A   1      46.391  28.807  27.988  1.00  0.00    -0.354 N 
ATOM     36  N   UNL A   1      43.555  29.391  28.607  1.00  0.00    -0.248 NA
ATOM     37  C   UNL A   1      41.898  30.857  29.359  1.00  0.00     0.031 C 
ATOM     38  C   UNL A   1      47.844  30.477  28.159  1.00  0.00     0.029 A 
ATOM     39  C   UNL A   1      46.506  30.149  28.317  1.00  0.00     0.049 A 
ATOM     40  H   UNL A   1      45.553  28.289  28.015  1.00  0.00     0.167 HD
ATOM     41  C   UNL A   1      44.127  30.628  28.857  1.00  0.00     0.074 A 
ATOM     42  C   UNL A   1      43.055  31.502  29.290  1.00  0.00     0.031 C 
ATOM     43  C   UNL A   1      45.424  31.002  28.741  1.00  0.00     0.037 A 
BRANCH  30  44
ATOM     44  C   UNL A   1      49.289  26.542  26.898  1.00  0.00     0.064 A 
ATOM     45  C   UNL A   1      50.178  26.156  27.915  1.00  0.00     0.173 A 
ATOM     46  C   UNL A   1      49.789  26.626  25.590  1.00  0.00     0.173 A 
ATOM     47  F   UNL A   1      49.754  26.063  29.183  1.00  0.00    -0.203 F 
ATOM     48  C   UNL A   1      51.516  25.890  27.637  1.00  0.00     0.198 A 
ATOM     49  C   UNL A   1      51.122  26.329  25.310  1.00  0.00     0.198 A 
ATOM     50  F   UNL A   1      48.980  26.981  24.579  1.00  0.00    -0.203 F 
ATOM     51  F   UNL A   1      52.353  25.565  28.632  1.00  0.00    -0.200 F 
ATOM     52  C   UNL A   1      51.985  25.974  26.335  1.00  0.00     0.200 A 
ATOM     53  F   UNL A   1      51.569  26.389  24.048  1.00  0.00    -0.200 F 
ATOM     54  F   UNL A   1      53.273  25.715  26.068  1.00  0.00    -0.200 F 
ENDBRANCH  30  44
BRANCH  31  55
ATOM     55  C   UNL A   1      39.772  28.825  29.101  1.00  0.00     0.064 A 
ATOM     56  C   UNL A   1      39.239  28.586  30.378  1.00  0.00     0.173 A 
ATOM     57  C   UNL A   1      38.907  29.318  28.116  1.00  0.00     0.173 A 
ATOM     58  F   UNL A   1      40.023  28.102  31.353  1.00  0.00    -0.203 F 
ATOM     59  C   UNL A   1      37.891  28.801  30.648  1.00  0.00     0.198 A 
ATOM     60  C   UNL A   1      37.566  29.565  28.396  1.00  0.00     0.198 A 
ATOM     61  F   UNL A   1      39.372  29.573  26.884  1.00  0.00    -0.203 F 
ATOM     62  F   UNL A   1      37.397  28.514  31.860  1.00  0.00    -0.200 F 
ATOM     63  C   UNL A   1      37.055  29.296  29.659  1.00  0.00     0.200 A 
ATOM     64  F   UNL A   1      36.765  30.064  27.444  1.00  0.00    -0.200 F 
ATOM     65  F   UNL A   1      35.759  29.512  29.920  1.00  0.00    -0.200 F 
ENDBRANCH  31  55
BRANCH  43  66
ATOM     66  C   UNL A   1      45.759  32.429  29.061  1.00  0.00     0.064 A 
ATOM     67  C   UNL A   1      46.081  32.802  30.376  1.00  0.00     0.173 A 
ATOM     68  C   UNL A   1      45.683  33.437  28.089  1.00  0.00     0.173 A 
ATOM     69  F   UNL A   1      46.159  31.875  31.342  1.00  0.00    -0.203 F 
ATOM     70  C   UNL A   1      46.293  34.135  30.708  1.00  0.00     0.198 A 
ATOM     71  C   UNL A   1      45.930  34.766  28.420  1.00  0.00     0.198 A 
ATOM     72  F   UNL A   1      45.396  33.127  26.816  1.00  0.00    -0.203 F 
ATOM     73  F   UNL A   1      46.555  34.472  31.979  1.00  0.00    -0.200 F 
ATOM     74  C   UNL A   1      46.220  35.116  29.731  1.00  0.00     0.200 A 
ATOM     75  F   UNL A   1      45.888  35.709  27.469  1.00  0.00    -0.200 F 
ATOM     76  F   UNL A   1      46.434  36.399  30.051  1.00  0.00    -0.200 F 
ENDBRANCH  43  66
ENDBRANCH  17  18
ENDBRANCH  10  12
ENDBRANCH   7   8
ENDBRANCH   6   7
ENDBRANCH   5   6
ENDBRANCH   1   5
BRANCH   2  77
ATOM     77  C   UNL A   1      35.604  23.165  24.683  1.00  0.00     0.197 C 
BRANCH  77  78
ATOM     78  N   UNL A   1      34.926  24.385  25.120  1.00  0.00    -0.340 N 
ATOM     79  C   UNL A   1      33.896  24.696  25.927  1.00  0.00     0.243 C 
ATOM     80  H   UNL A   1      35.329  25.189  24.718  1.00  0.00     0.164 HD
ATOM     81  O   UNL A   1      33.950  25.845  26.384  1.00  0.00    -0.273 OA
BRANCH  79  82
ATOM     82  C   UNL A   1      32.655  23.800  26.153  1.00  0.00     0.175 C 
BRANCH  82  83
ATOM     83  N   UNL A   1      31.424  24.516  26.523  1.00  0.00    -0.342 N 
ATOM     84  C   UNL A   1      30.803  25.609  25.979  1.00  0.00     0.243 C 
ATOM     85  H   UNL A   1      30.963  24.141  27.307  1.00  0.00     0.164 HD
ATOM     86  O   UNL A   1      29.645  25.810  26.367  1.00  0.00    -0.273 OA
BRANCH  84  87
ATOM     87  C   UNL A   1      31.484  26.651  25.044  1.00  0.00     0.176 C 
BRANCH  87  88
ATOM     88  N   UNL A   1      31.606  26.334  23.628  1.00  0.00    -0.340 N 
ATOM     89  C   UNL A   1      30.966  26.877  22.538  1.00  0.00     0.251 C 
ATOM     90  H   UNL A   1      32.247  25.617  23.418  1.00  0.00     0.164 HD
ATOM     91  O   UNL A   1      31.209  26.417  21.425  1.00  0.00    -0.269 OA
BRANCH  89  92
ATOM     92  C   UNL A   1      29.961  27.960  22.682  1.00  0.00     0.040 A 
ATOM     93  C   UNL A   1      28.659  27.746  23.157  1.00  0.00     0.017 A 
ATOM     94  C   UNL A   1      30.365  29.256  22.331  1.00  0.00     0.017 A 
ATOM     95  C   UNL A   1      27.739  28.796  23.169  1.00  0.00     0.040 A 
ATOM     96  C   UNL A   1      29.449  30.309  22.368  1.00  0.00     0.040 A 
ATOM     97  C   UNL A   1      28.139  30.065  22.763  1.00  0.00     0.123 A 
ATOM     98  F   UNL A   1      27.251  31.066  22.760  1.00  0.00    -0.207 F 
ENDBRANCH  89  92
ENDBRANCH  87  88
BRANCH  87  99
ATOM     99  C   UNL A   1      30.989  28.101  25.288  1.00  0.00     0.070 C 
BRANCH  99 100
ATOM    100  C   UNL A   1      31.885  29.092  26.003  1.00  0.00    -0.045 A 
ATOM    101  C   UNL A   1      32.952  28.675  26.813  1.00  0.00     0.007 A 
ATOM    102  C   UNL A   1      31.585  30.465  25.947  1.00  0.00     0.007 A 
ATOM    103  C   UNL A   1      33.742  29.609  27.498  1.00  0.00     0.046 A 
ATOM    104  C   UNL A   1      32.351  31.397  26.658  1.00  0.00     0.046 A 
ATOM    105  C   UNL A   1      33.444  30.965  27.402  1.00  0.00     0.115 A 
BRANCH 105 106
ATOM    106  O   UNL A   1      34.266  31.912  27.937  1.00  0.00    -0.508 OA
ATOM    107  H   UNL A   1      34.579  31.820  28.816  1.00  0.00     0.293 HD
ENDBRANCH 105 106
ENDBRANCH  99 100
ENDBRANCH  87  99
ENDBRANCH  84  87
ENDBRANCH  82  83
BRANCH  82 108
ATOM    108  C   UNL A   1      32.450  22.842  24.953  1.00  0.00     0.072 C 
BRANCH 108 109
ATOM    109  C   UNL A   1      32.730  21.377  25.233  1.00  0.00    -0.020 A 
ATOM    110  C   UNL A   1      33.138  20.805  26.425  1.00  0.00     0.087 A 
ATOM    111  C   UNL A   1      32.635  20.291  24.292  1.00  0.00     0.003 A 
ATOM    112  N   UNL A   1      33.318  19.463  26.244  1.00  0.00    -0.361 N 
ATOM    113  C   UNL A   1      33.022  19.120  24.950  1.00  0.00     0.046 A 
ATOM    114  C   UNL A   1      32.261  20.191  22.936  1.00  0.00     0.010 A 
ATOM    115  H   UNL A   1      33.616  18.835  26.941  1.00  0.00     0.166 HD
ATOM    116  C   UNL A   1      33.068  17.867  24.328  1.00  0.00     0.026 A 
ATOM    117  C   UNL A   1      32.287  18.941  22.299  1.00  0.00     0.001 A 
ATOM    118  C   UNL A   1      32.690  17.799  22.986  1.00  0.00     0.002 A 
ENDBRANCH 108 109
ENDBRANCH  82 108
ENDBRANCH  79  82
ENDBRANCH  77  78
BRANCH  77 119
ATOM    119  C   UNL A   1      35.691  23.231  23.159  1.00  0.00     0.191 C 
BRANCH 119 120
ATOM    120  O   UNL A   1      37.035  23.067  22.691  1.00  0.00    -0.394 OA
ATOM    121  H   UNL A   1      37.436  23.939  22.546  1.00  0.00     0.210 HD
ENDBRANCH 119 120
ENDBRANCH  77 119
ENDBRANCH   2  77
TORSDOF 23
ENDMDL
