MODEL 1
REMARK VINA RESULT:     -12.4      0.000      0.000
REMARK SMILES CCn1cc(C(=O)/C=C/c2cccc(O[C@H](C)C(=O)NCCCNC(=O)c3ccc(-c4c5nc(c(-c6c(F)c(F)c(F)c(F)c6F)c6ccc([nH]6)c(-c6c(F)c(F)c(F)c(F)c6F)c6nc(c(-c7c(F)c(F)c(F)c(F)c7F)c7ccc4[nH]7)C=C6)C=C5)cc3)c2)cn1
REMARK SMILES IDX 18 1 19 2 20 3 16 5 17 6 15 7 14 8 10 9 11 10 90 11 12 12
REMARK SMILES IDX 13 13 9 14 8 15 6 16 7 17 5 18 3 19 4 20 92 21 91 22 2 23
REMARK SMILES IDX 1 24 21 25 22 26 23 27 24 28 25 29 26 31 27 32 28 33 89 34
REMARK SMILES IDX 29 35 88 36 30 37 31 38 32 39 82 40 33 41 87 42 81 43 83 44
REMARK SMILES IDX 34 45 86 46 80 47 79 48 35 50 67 51 47 52 66 53 48 54 51 55
REMARK SMILES IDX 65 56 84 57 49 58 50 59 64 61 85 62 52 63 36 64 37 65 45 66
REMARK SMILES IDX 38 67 39 68 43 69 46 70 40 71 41 72 44 73 42 74 68 75 69 76
REMARK SMILES IDX 77 77 70 78 71 79 75 80 78 81 72 82 73 83 76 84 74 85 53 86
REMARK SMILES IDX 54 87 62 88 55 89 56 90 60 91 63 92 57 93 58 94 61 95 59 96
REMARK H PARENT 20 4 24 30 83 49 51 60
REMARK Flexibility Score: inf
ROOT
ATOM      1  C   UNL A   1      36.546  22.699  24.060  1.00  0.00     0.260 C 
ATOM      2  O   UNL A   1      36.422  23.240  22.957  1.00  0.00    -0.271 OA
ATOM      3  N   UNL A   1      36.907  21.380  24.078  1.00  0.00    -0.353 N 
ATOM      4  H   UNL A   1      37.058  20.981  23.191  1.00  0.00     0.163 HD
ENDROOT
BRANCH   1   5
ATOM      5  C   UNL A   1      36.270  23.478  25.352  1.00  0.00     0.258 C 
ATOM      6  C   UNL A   1      37.570  24.013  25.945  1.00  0.00     0.064 C 
BRANCH   5   7
ATOM      7  O   UNL A   1      35.358  24.522  25.023  1.00  0.00    -0.481 OA
BRANCH   7   8
ATOM      8  C   UNL A   1      34.097  24.525  25.534  1.00  0.00     0.121 A 
ATOM      9  C   UNL A   1      32.096  25.873  25.772  1.00  0.00    -0.022 A 
ATOM     10  C   UNL A   1      31.506  24.850  26.520  1.00  0.00     0.008 A 
ATOM     11  C   UNL A   1      33.381  25.695  25.262  1.00  0.00     0.054 A 
ATOM     12  C   UNL A   1      32.210  23.674  26.778  1.00  0.00     0.004 A 
ATOM     13  C   UNL A   1      33.510  23.515  26.295  1.00  0.00     0.046 A 
BRANCH   9  14
ATOM     14  C   UNL A   1      31.402  27.153  25.644  1.00  0.00     0.012 C 
ATOM     15  C   UNL A   1      31.925  28.246  25.071  1.00  0.00     0.053 C 
BRANCH  15  16
ATOM     16  C   UNL A   1      31.228  29.550  24.862  1.00  0.00     0.189 C 
ATOM     17  O   UNL A   1      31.425  30.457  25.667  1.00  0.00    -0.289 OA
BRANCH  16  18
ATOM     18  C   UNL A   1      30.366  29.722  23.701  1.00  0.00     0.060 A 
ATOM     19  N   UNL A   1      28.913  30.383  22.173  1.00  0.00    -0.272 N 
ATOM     20  C   UNL A   1      29.303  30.575  23.468  1.00  0.00     0.120 A 
ATOM     21  N   UNL A   1      29.543  29.357  21.582  1.00  0.00    -0.181 NA
ATOM     22  C   UNL A   1      30.417  28.952  22.510  1.00  0.00     0.147 A 
BRANCH  19  23
ATOM     23  C   UNL A   1      27.920  31.156  21.451  1.00  0.00     0.141 C 
ATOM     24  C   UNL A   1      28.172  32.655  21.539  1.00  0.00     0.029 C 
ENDBRANCH  19  23
ENDBRANCH  16  18
ENDBRANCH  15  16
ENDBRANCH   9  14
ENDBRANCH   7   8
ENDBRANCH   5   7
ENDBRANCH   1   5
BRANCH   3  25
ATOM     25  C   UNL A   1      37.104  20.470  25.200  1.00  0.00     0.118 C 
BRANCH  25  26
ATOM     26  C   UNL A   1      38.330  19.573  25.015  1.00  0.00     0.042 C 
BRANCH  26  27
ATOM     27  C   UNL A   1      39.507  19.998  25.874  1.00  0.00     0.118 C 
BRANCH  27  28
ATOM     28  N   UNL A   1      40.669  19.118  25.731  1.00  0.00    -0.352 N 
ATOM     29  C   UNL A   1      42.001  19.469  25.816  1.00  0.00     0.251 C 
ATOM     30  H   UNL A   1      40.479  18.169  25.555  1.00  0.00     0.163 HD
ATOM     31  O   UNL A   1      42.882  18.753  25.351  1.00  0.00    -0.269 OA
BRANCH  29  32
ATOM     32  C   UNL A   1      42.344  20.739  26.475  1.00  0.00     0.039 A 
ATOM     33  C   UNL A   1      42.688  21.871  25.734  1.00  0.00     0.014 A 
ATOM     34  C   UNL A   1      42.233  20.792  27.861  1.00  0.00     0.014 A 
ATOM     35  C   UNL A   1      42.824  23.090  26.396  1.00  0.00     0.010 A 
ATOM     36  C   UNL A   1      42.212  22.012  28.485  1.00  0.00     0.010 A 
ATOM     37  C   UNL A   1      42.556  23.158  27.772  1.00  0.00    -0.014 A 
BRANCH  37  38
ATOM     38  C   UNL A   1      42.527  24.442  28.468  1.00  0.00     0.031 A 
ATOM     39  C   UNL A   1      41.300  25.265  28.260  1.00  0.00     0.074 A 
ATOM     40  C   UNL A   1      43.432  24.764  29.417  1.00  0.00     0.049 A 
ATOM     41  N   UNL A   1      41.225  26.457  27.765  1.00  0.00    -0.248 NA
ATOM     42  C   UNL A   1      39.990  24.666  28.561  1.00  0.00     0.031 C 
ATOM     43  C   UNL A   1      44.528  23.942  29.946  1.00  0.00     0.029 A 
ATOM     44  N   UNL A   1      43.483  25.869  30.209  1.00  0.00    -0.354 N 
ATOM     45  C   UNL A   1      39.885  26.830  27.837  1.00  0.00     0.074 A 
ATOM     46  C   UNL A   1      39.155  25.643  28.201  1.00  0.00     0.031 C 
ATOM     47  C   UNL A   1      44.964  24.464  31.111  1.00  0.00     0.029 A 
ATOM     48  C   UNL A   1      44.306  25.741  31.320  1.00  0.00     0.049 A 
ATOM     49  H   UNL A   1      42.979  26.692  30.010  1.00  0.00     0.167 HD
ATOM     50  C   UNL A   1      39.513  28.141  27.793  1.00  0.00     0.037 A 
ATOM     51  C   UNL A   1      44.423  26.608  32.353  1.00  0.00     0.037 A 
ATOM     52  C   UNL A   1      40.582  28.969  27.296  1.00  0.00     0.049 A 
ATOM     53  C   UNL A   1      43.918  27.921  31.884  1.00  0.00     0.074 A 
ATOM     54  C   UNL A   1      41.295  29.025  26.114  1.00  0.00     0.029 A 
ATOM     55  N   UNL A   1      41.322  29.683  28.206  1.00  0.00    -0.354 N 
ATOM     56  N   UNL A   1      44.521  28.646  30.984  1.00  0.00    -0.248 NA
ATOM     57  C   UNL A   1      42.506  28.215  32.078  1.00  0.00     0.031 C 
ATOM     58  C   UNL A   1      42.634  29.321  26.506  1.00  0.00     0.029 A 
ATOM     59  C   UNL A   1      42.644  29.495  27.890  1.00  0.00     0.049 A 
ATOM     60  H   UNL A   1      40.970  30.228  28.946  1.00  0.00     0.167 HD
ATOM     61  C   UNL A   1      43.497  29.151  30.200  1.00  0.00     0.074 A 
ATOM     62  C   UNL A   1      42.279  28.942  30.981  1.00  0.00     0.031 C 
ATOM     63  C   UNL A   1      43.696  29.420  28.876  1.00  0.00     0.037 A 
BRANCH  50  64
ATOM     64  C   UNL A   1      38.327  28.731  28.517  1.00  0.00     0.064 A 
ATOM     65  C   UNL A   1      37.532  29.697  27.865  1.00  0.00     0.173 A 
ATOM     66  C   UNL A   1      38.132  28.624  29.911  1.00  0.00     0.173 A 
ATOM     67  F   UNL A   1      37.642  29.894  26.543  1.00  0.00    -0.203 F 
ATOM     68  C   UNL A   1      36.676  30.549  28.570  1.00  0.00     0.198 A 
ATOM     69  C   UNL A   1      37.237  29.439  30.603  1.00  0.00     0.198 A 
ATOM     70  F   UNL A   1      38.876  27.813  30.672  1.00  0.00    -0.203 F 
ATOM     71  F   UNL A   1      36.043  31.538  27.926  1.00  0.00    -0.200 F 
ATOM     72  C   UNL A   1      36.536  30.424  29.940  1.00  0.00     0.200 A 
ATOM     73  F   UNL A   1      37.128  29.315  31.933  1.00  0.00    -0.200 F 
ATOM     74  F   UNL A   1      35.770  31.282  30.627  1.00  0.00    -0.200 F 
ENDBRANCH  50  64
BRANCH  51  75
ATOM     75  C   UNL A   1      44.720  26.319  33.775  1.00  0.00     0.064 A 
ATOM     76  C   UNL A   1      43.706  25.926  34.662  1.00  0.00     0.173 A 
ATOM     77  C   UNL A   1      46.045  26.165  34.229  1.00  0.00     0.173 A 
ATOM     78  F   UNL A   1      42.420  26.004  34.295  1.00  0.00    -0.203 F 
ATOM     79  C   UNL A   1      44.001  25.380  35.917  1.00  0.00     0.198 A 
ATOM     80  C   UNL A   1      46.338  25.628  35.483  1.00  0.00     0.198 A 
ATOM     81  F   UNL A   1      47.084  26.439  33.428  1.00  0.00    -0.203 F 
ATOM     82  F   UNL A   1      43.008  24.954  36.709  1.00  0.00    -0.200 F 
ATOM     83  C   UNL A   1      45.317  25.221  36.321  1.00  0.00     0.200 A 
ATOM     84  F   UNL A   1      47.615  25.448  35.847  1.00  0.00    -0.200 F 
ATOM     85  F   UNL A   1      45.600  24.640  37.494  1.00  0.00    -0.200 F 
ENDBRANCH  51  75
BRANCH  63  86
ATOM     86  C   UNL A   1      45.110  29.398  28.365  1.00  0.00     0.064 A 
ATOM     87  C   UNL A   1      45.742  28.255  27.843  1.00  0.00     0.173 A 
ATOM     88  C   UNL A   1      45.812  30.607  28.286  1.00  0.00     0.173 A 
ATOM     89  F   UNL A   1      45.103  27.082  27.776  1.00  0.00    -0.203 F 
ATOM     90  C   UNL A   1      47.035  28.309  27.327  1.00  0.00     0.198 A 
ATOM     91  C   UNL A   1      47.089  30.667  27.733  1.00  0.00     0.198 A 
ATOM     92  F   UNL A   1      45.240  31.745  28.708  1.00  0.00    -0.203 F 
ATOM     93  F   UNL A   1      47.619  27.196  26.858  1.00  0.00    -0.200 F 
ATOM     94  C   UNL A   1      47.705  29.517  27.269  1.00  0.00     0.200 A 
ATOM     95  F   UNL A   1      47.714  31.848  27.630  1.00  0.00    -0.200 F 
ATOM     96  F   UNL A   1      48.936  29.578  26.740  1.00  0.00    -0.200 F 
ENDBRANCH  63  86
ENDBRANCH  37  38
ENDBRANCH  29  32
ENDBRANCH  27  28
ENDBRANCH  26  27
ENDBRANCH  25  26
ENDBRANCH   3  25
TORSDOF 16
ENDMDL
MODEL 2
REMARK VINA RESULT:     -12.2      2.533      7.104
REMARK SMILES CCn1cc(C(=O)/C=C/c2cccc(O[C@H](C)C(=O)NCCCNC(=O)c3ccc(-c4c5nc(c(-c6c(F)c(F)c(F)c(F)c6F)c6ccc([nH]6)c(-c6c(F)c(F)c(F)c(F)c6F)c6nc(c(-c7c(F)c(F)c(F)c(F)c7F)c7ccc4[nH]7)C=C6)C=C5)cc3)c2)cn1
REMARK SMILES IDX 18 1 19 2 20 3 16 5 17 6 15 7 14 8 10 9 11 10 90 11 12 12
REMARK SMILES IDX 13 13 9 14 8 15 6 16 7 17 5 18 3 19 4 20 92 21 91 22 2 23
REMARK SMILES IDX 1 24 21 25 22 26 23 27 24 28 25 29 26 31 27 32 28 33 89 34
REMARK SMILES IDX 29 35 88 36 30 37 31 38 32 39 82 40 33 41 87 42 81 43 83 44
REMARK SMILES IDX 34 45 86 46 80 47 79 48 35 50 67 51 47 52 66 53 48 54 51 55
REMARK SMILES IDX 65 56 84 57 49 58 50 59 64 61 85 62 52 63 36 64 37 65 45 66
REMARK SMILES IDX 38 67 39 68 43 69 46 70 40 71 41 72 44 73 42 74 68 75 69 76
REMARK SMILES IDX 77 77 70 78 71 79 75 80 78 81 72 82 73 83 76 84 74 85 53 86
REMARK SMILES IDX 54 87 62 88 55 89 56 90 60 91 63 92 57 93 58 94 61 95 59 96
REMARK H PARENT 20 4 24 30 83 49 51 60
REMARK Flexibility Score: inf
ROOT
ATOM      1  C   UNL A   1      34.422  21.212  26.395  1.00  0.00     0.260 C 
ATOM      2  O   UNL A   1      33.927  21.591  27.461  1.00  0.00    -0.271 OA
ATOM      3  N   UNL A   1      35.784  21.267  26.277  1.00  0.00    -0.353 N 
ATOM      4  H   UNL A   1      36.255  21.591  27.078  1.00  0.00     0.163 HD
ENDROOT
BRANCH   1   5
ATOM      5  C   UNL A   1      33.531  20.733  25.242  1.00  0.00     0.258 C 
ATOM      6  C   UNL A   1      32.916  19.375  25.567  1.00  0.00     0.064 C 
BRANCH   5   7
ATOM      7  O   UNL A   1      32.541  21.737  25.035  1.00  0.00    -0.481 OA
BRANCH   7   8
ATOM      8  C   UNL A   1      32.742  22.726  24.123  1.00  0.00     0.121 A 
ATOM      9  C   UNL A   1      32.668  25.129  23.810  1.00  0.00    -0.022 A 
ATOM     10  C   UNL A   1      33.010  24.957  22.466  1.00  0.00     0.008 A 
ATOM     11  C   UNL A   1      32.559  24.013  24.638  1.00  0.00     0.054 A 
ATOM     12  C   UNL A   1      33.211  23.675  21.952  1.00  0.00     0.004 A 
ATOM     13  C   UNL A   1      33.066  22.559  22.777  1.00  0.00     0.046 A 
BRANCH   9  14
ATOM     14  C   UNL A   1      32.313  26.464  24.289  1.00  0.00     0.012 C 
ATOM     15  C   UNL A   1      31.345  27.227  23.763  1.00  0.00     0.053 C 
BRANCH  15  16
ATOM     16  C   UNL A   1      30.907  28.565  24.262  1.00  0.00     0.189 C 
ATOM     17  O   UNL A   1      31.248  28.910  25.391  1.00  0.00    -0.289 OA
BRANCH  16  18
ATOM     18  C   UNL A   1      30.123  29.431  23.393  1.00  0.00     0.060 A 
ATOM     19  N   UNL A   1      29.018  31.077  22.419  1.00  0.00    -0.272 N 
ATOM     20  C   UNL A   1      29.575  30.683  23.602  1.00  0.00     0.120 A 
ATOM     21  N   UNL A   1      29.026  30.112  21.487  1.00  0.00    -0.181 NA
ATOM     22  C   UNL A   1      29.687  29.113  22.081  1.00  0.00     0.147 A 
BRANCH  19  23
ATOM     23  C   UNL A   1      28.446  32.380  22.129  1.00  0.00     0.141 C 
ATOM     24  C   UNL A   1      28.938  33.457  23.086  1.00  0.00     0.029 C 
ENDBRANCH  19  23
ENDBRANCH  16  18
ENDBRANCH  15  16
ENDBRANCH   9  14
ENDBRANCH   7   8
ENDBRANCH   5   7
ENDBRANCH   1   5
BRANCH   3  25
ATOM     25  C   UNL A   1      36.649  20.923  25.155  1.00  0.00     0.118 C 
BRANCH  25  26
ATOM     26  C   UNL A   1      37.732  21.977  24.909  1.00  0.00     0.042 C 
BRANCH  26  27
ATOM     27  C   UNL A   1      38.675  22.141  26.088  1.00  0.00     0.118 C 
BRANCH  27  28
ATOM     28  N   UNL A   1      40.054  21.765  25.775  1.00  0.00    -0.352 N 
ATOM     29  C   UNL A   1      41.190  22.532  25.942  1.00  0.00     0.251 C 
ATOM     30  H   UNL A   1      40.188  20.863  25.405  1.00  0.00     0.163 HD
ATOM     31  O   UNL A   1      42.230  22.271  25.345  1.00  0.00    -0.269 OA
BRANCH  29  32
ATOM     32  C   UNL A   1      41.122  23.685  26.852  1.00  0.00     0.039 A 
ATOM     33  C   UNL A   1      41.959  23.781  27.966  1.00  0.00     0.014 A 
ATOM     34  C   UNL A   1      40.251  24.717  26.515  1.00  0.00     0.014 A 
ATOM     35  C   UNL A   1      41.982  24.974  28.686  1.00  0.00     0.010 A 
ATOM     36  C   UNL A   1      40.389  25.937  27.126  1.00  0.00     0.010 A 
ATOM     37  C   UNL A   1      41.213  26.060  28.242  1.00  0.00    -0.014 A 
BRANCH  37  38
ATOM     38  C   UNL A   1      41.335  27.373  28.871  1.00  0.00     0.031 A 
ATOM     39  C   UNL A   1      42.476  28.212  28.404  1.00  0.00     0.074 A 
ATOM     40  C   UNL A   1      40.358  27.891  29.645  1.00  0.00     0.049 A 
ATOM     41  N   UNL A   1      43.448  28.687  29.113  1.00  0.00    -0.248 NA
ATOM     42  C   UNL A   1      42.602  28.492  26.965  1.00  0.00     0.031 C 
ATOM     43  C   UNL A   1      39.045  27.313  29.963  1.00  0.00     0.029 A 
ATOM     44  N   UNL A   1      40.285  29.122  30.220  1.00  0.00    -0.354 N 
ATOM     45  C   UNL A   1      44.222  29.460  28.252  1.00  0.00     0.074 A 
ATOM     46  C   UNL A   1      43.740  29.190  26.922  1.00  0.00     0.031 C 
ATOM     47  C   UNL A   1      38.233  28.274  30.449  1.00  0.00     0.029 A 
ATOM     48  C   UNL A   1      39.012  29.483  30.642  1.00  0.00     0.049 A 
ATOM     49  H   UNL A   1      41.069  29.708  30.327  1.00  0.00     0.167 HD
ATOM     50  C   UNL A   1      45.065  30.421  28.729  1.00  0.00     0.037 A 
ATOM     51  C   UNL A   1      38.616  30.696  31.095  1.00  0.00     0.037 A 
ATOM     52  C   UNL A   1      45.309  30.246  30.138  1.00  0.00     0.049 A 
ATOM     53  C   UNL A   1      39.835  31.422  31.528  1.00  0.00     0.074 A 
ATOM     54  C   UNL A   1      45.855  29.238  30.909  1.00  0.00     0.029 A 
ATOM     55  N   UNL A   1      44.628  31.053  31.016  1.00  0.00    -0.354 N 
ATOM     56  N   UNL A   1      40.549  31.079  32.563  1.00  0.00    -0.248 NA
ATOM     57  C   UNL A   1      40.517  32.251  30.545  1.00  0.00     0.031 C 
ATOM     58  C   UNL A   1      45.062  29.211  32.095  1.00  0.00     0.029 A 
ATOM     59  C   UNL A   1      44.129  30.245  32.006  1.00  0.00     0.049 A 
ATOM     60  H   UNL A   1      44.519  32.029  30.948  1.00  0.00     0.167 HD
ATOM     61  C   UNL A   1      41.862  31.253  32.154  1.00  0.00     0.074 A 
ATOM     62  C   UNL A   1      41.779  32.075  30.948  1.00  0.00     0.031 C 
ATOM     63  C   UNL A   1      42.863  30.475  32.660  1.00  0.00     0.037 A 
BRANCH  50  64
ATOM     64  C   UNL A   1      45.392  31.715  28.025  1.00  0.00     0.064 A 
ATOM     65  C   UNL A   1      44.341  32.567  27.625  1.00  0.00     0.173 A 
ATOM     66  C   UNL A   1      46.652  31.996  27.455  1.00  0.00     0.173 A 
ATOM     67  F   UNL A   1      43.098  32.385  28.094  1.00  0.00    -0.203 F 
ATOM     68  C   UNL A   1      44.522  33.562  26.661  1.00  0.00     0.198 A 
ATOM     69  C   UNL A   1      46.840  33.026  26.533  1.00  0.00     0.198 A 
ATOM     70  F   UNL A   1      47.721  31.221  27.674  1.00  0.00    -0.203 F 
ATOM     71  F   UNL A   1      43.467  34.257  26.215  1.00  0.00    -0.200 F 
ATOM     72  C   UNL A   1      45.771  33.785  26.109  1.00  0.00     0.200 A 
ATOM     73  F   UNL A   1      48.054  33.215  25.998  1.00  0.00    -0.200 F 
ATOM     74  F   UNL A   1      45.934  34.692  25.136  1.00  0.00    -0.200 F 
ENDBRANCH  50  64
BRANCH  51  75
ATOM     75  C   UNL A   1      37.294  31.349  30.959  1.00  0.00     0.064 A 
ATOM     76  C   UNL A   1      36.467  31.552  32.075  1.00  0.00     0.173 A 
ATOM     77  C   UNL A   1      36.932  32.027  29.779  1.00  0.00     0.173 A 
ATOM     78  F   UNL A   1      36.763  30.975  33.248  1.00  0.00    -0.203 F 
ATOM     79  C   UNL A   1      35.361  32.409  32.022  1.00  0.00     0.198 A 
ATOM     80  C   UNL A   1      35.824  32.874  29.724  1.00  0.00     0.198 A 
ATOM     81  F   UNL A   1      37.699  31.960  28.682  1.00  0.00    -0.203 F 
ATOM     82  F   UNL A   1      34.635  32.629  33.126  1.00  0.00    -0.200 F 
ATOM     83  C   UNL A   1      35.048  33.076  30.850  1.00  0.00     0.200 A 
ATOM     84  F   UNL A   1      35.552  33.541  28.594  1.00  0.00    -0.200 F 
ATOM     85  F   UNL A   1      34.028  33.945  30.816  1.00  0.00    -0.200 F 
ENDBRANCH  51  75
BRANCH  63  86
ATOM     86  C   UNL A   1      42.541  29.611  33.848  1.00  0.00     0.064 A 
ATOM     87  C   UNL A   1      41.993  28.319  33.759  1.00  0.00     0.173 A 
ATOM     88  C   UNL A   1      42.916  30.059  35.121  1.00  0.00     0.173 A 
ATOM     89  F   UNL A   1      41.711  27.769  32.574  1.00  0.00    -0.203 F 
ATOM     90  C   UNL A   1      41.774  27.541  34.893  1.00  0.00     0.198 A 
ATOM     91  C   UNL A   1      42.732  29.263  36.250  1.00  0.00     0.198 A 
ATOM     92  F   UNL A   1      43.502  31.257  35.267  1.00  0.00    -0.203 F 
ATOM     93  F   UNL A   1      41.227  26.321  34.777  1.00  0.00    -0.200 F 
ATOM     94  C   UNL A   1      42.148  28.013  36.138  1.00  0.00     0.200 A 
ATOM     95  F   UNL A   1      43.145  29.703  37.447  1.00  0.00    -0.200 F 
ATOM     96  F   UNL A   1      41.970  27.252  37.228  1.00  0.00    -0.200 F 
ENDBRANCH  63  86
ENDBRANCH  37  38
ENDBRANCH  29  32
ENDBRANCH  27  28
ENDBRANCH  26  27
ENDBRANCH  25  26
ENDBRANCH   3  25
TORSDOF 16
ENDMDL
MODEL 3
REMARK VINA RESULT:     -11.9      1.903      6.572
REMARK SMILES CCn1cc(C(=O)/C=C/c2cccc(O[C@H](C)C(=O)NCCCNC(=O)c3ccc(-c4c5nc(c(-c6c(F)c(F)c(F)c(F)c6F)c6ccc([nH]6)c(-c6c(F)c(F)c(F)c(F)c6F)c6nc(c(-c7c(F)c(F)c(F)c(F)c7F)c7ccc4[nH]7)C=C6)C=C5)cc3)c2)cn1
REMARK SMILES IDX 18 1 19 2 20 3 16 5 17 6 15 7 14 8 10 9 11 10 90 11 12 12
REMARK SMILES IDX 13 13 9 14 8 15 6 16 7 17 5 18 3 19 4 20 92 21 91 22 2 23
REMARK SMILES IDX 1 24 21 25 22 26 23 27 24 28 25 29 26 31 27 32 28 33 89 34
REMARK SMILES IDX 29 35 88 36 30 37 31 38 32 39 82 40 33 41 87 42 81 43 83 44
REMARK SMILES IDX 34 45 86 46 80 47 79 48 35 50 67 51 47 52 66 53 48 54 51 55
REMARK SMILES IDX 65 56 84 57 49 58 50 59 64 61 85 62 52 63 36 64 37 65 45 66
REMARK SMILES IDX 38 67 39 68 43 69 46 70 40 71 41 72 44 73 42 74 68 75 69 76
REMARK SMILES IDX 77 77 70 78 71 79 75 80 78 81 72 82 73 83 76 84 74 85 53 86
REMARK SMILES IDX 54 87 62 88 55 89 56 90 60 91 63 92 57 93 58 94 61 95 59 96
REMARK H PARENT 20 4 24 30 83 49 51 60
REMARK Flexibility Score: inf
ROOT
ATOM      1  C   UNL A   1      37.413  20.687  25.065  1.00  0.00     0.260 C 
ATOM      2  O   UNL A   1      36.407  19.998  24.871  1.00  0.00    -0.271 OA
ATOM      3  N   UNL A   1      38.543  20.046  25.494  1.00  0.00    -0.353 N 
ATOM      4  H   UNL A   1      38.452  19.070  25.591  1.00  0.00     0.163 HD
ENDROOT
BRANCH   1   5
ATOM      5  C   UNL A   1      37.377  22.207  24.862  1.00  0.00     0.258 C 
ATOM      6  C   UNL A   1      36.551  22.565  23.630  1.00  0.00     0.064 C 
BRANCH   5   7
ATOM      7  O   UNL A   1      36.839  22.774  26.054  1.00  0.00    -0.481 OA
BRANCH   7   8
ATOM      8  C   UNL A   1      35.559  23.233  26.084  1.00  0.00     0.121 A 
ATOM      9  C   UNL A   1      34.147  25.103  25.462  1.00  0.00    -0.022 A 
ATOM     10  C   UNL A   1      33.054  24.464  26.054  1.00  0.00     0.008 A 
ATOM     11  C   UNL A   1      35.390  24.473  25.458  1.00  0.00     0.054 A 
ATOM     12  C   UNL A   1      33.215  23.219  26.663  1.00  0.00     0.004 A 
ATOM     13  C   UNL A   1      34.469  22.608  26.688  1.00  0.00     0.046 A 
BRANCH   9  14
ATOM     14  C   UNL A   1      33.991  26.470  24.967  1.00  0.00     0.012 C 
ATOM     15  C   UNL A   1      33.116  26.839  24.021  1.00  0.00     0.053 C 
BRANCH  15  16
ATOM     16  C   UNL A   1      32.879  28.231  23.535  1.00  0.00     0.189 C 
ATOM     17  O   UNL A   1      33.851  28.954  23.327  1.00  0.00    -0.289 OA
BRANCH  16  18
ATOM     18  C   UNL A   1      31.516  28.681  23.290  1.00  0.00     0.060 A 
ATOM     19  N   UNL A   1      29.560  29.707  23.243  1.00  0.00    -0.272 N 
ATOM     20  C   UNL A   1      30.722  29.599  23.952  1.00  0.00     0.120 A 
ATOM     21  N   UNL A   1      29.469  28.816  22.245  1.00  0.00    -0.181 NA
ATOM     22  C   UNL A   1      30.650  28.189  22.279  1.00  0.00     0.147 A 
BRANCH  19  23
ATOM     23  C   UNL A   1      28.486  30.652  23.490  1.00  0.00     0.141 C 
ATOM     24  C   UNL A   1      27.614  30.877  22.262  1.00  0.00     0.029 C 
ENDBRANCH  19  23
ENDBRANCH  16  18
ENDBRANCH  15  16
ENDBRANCH   9  14
ENDBRANCH   7   8
ENDBRANCH   5   7
ENDBRANCH   1   5
BRANCH   3  25
ATOM     25  C   UNL A   1      39.859  20.575  25.832  1.00  0.00     0.118 C 
BRANCH  25  26
ATOM     26  C   UNL A   1      40.904  19.470  26.007  1.00  0.00     0.042 C 
BRANCH  26  27
ATOM     27  C   UNL A   1      42.243  19.996  26.493  1.00  0.00     0.118 C 
BRANCH  27  28
ATOM     28  N   UNL A   1      43.344  19.697  25.576  1.00  0.00    -0.352 N 
ATOM     29  C   UNL A   1      44.109  20.598  24.863  1.00  0.00     0.251 C 
ATOM     30  H   UNL A   1      43.564  18.745  25.453  1.00  0.00     0.163 HD
ATOM     31  O   UNL A   1      44.759  20.249  23.883  1.00  0.00    -0.269 OA
BRANCH  29  32
ATOM     32  C   UNL A   1      44.120  22.001  25.304  1.00  0.00     0.039 A 
ATOM     33  C   UNL A   1      43.225  22.935  24.777  1.00  0.00     0.014 A 
ATOM     34  C   UNL A   1      45.001  22.345  26.325  1.00  0.00     0.014 A 
ATOM     35  C   UNL A   1      43.155  24.199  25.359  1.00  0.00     0.010 A 
ATOM     36  C   UNL A   1      44.822  23.529  26.993  1.00  0.00     0.010 A 
ATOM     37  C   UNL A   1      43.939  24.480  26.488  1.00  0.00    -0.014 A 
BRANCH  37  38
ATOM     38  C   UNL A   1      43.775  25.732  27.222  1.00  0.00     0.031 A 
ATOM     39  C   UNL A   1      44.745  26.814  26.884  1.00  0.00     0.074 A 
ATOM     40  C   UNL A   1      42.686  25.983  27.979  1.00  0.00     0.049 A 
ATOM     41  N   UNL A   1      45.576  27.404  27.679  1.00  0.00    -0.248 NA
ATOM     42  C   UNL A   1      44.869  27.236  25.480  1.00  0.00     0.031 C 
ATOM     43  C   UNL A   1      41.502  25.137  28.179  1.00  0.00     0.029 A 
ATOM     44  N   UNL A   1      42.350  27.122  28.642  1.00  0.00    -0.354 N 
ATOM     45  C   UNL A   1      46.216  28.384  26.924  1.00  0.00     0.074 A 
ATOM     46  C   UNL A   1      45.847  28.142  25.553  1.00  0.00     0.031 C 
ATOM     47  C   UNL A   1      40.498  25.877  28.693  1.00  0.00     0.029 A 
ATOM     48  C   UNL A   1      41.016  27.193  29.021  1.00  0.00     0.049 A 
ATOM     49  H   UNL A   1      42.999  27.837  28.837  1.00  0.00     0.167 HD
ATOM     50  C   UNL A   1      46.834  29.445  27.519  1.00  0.00     0.037 A 
ATOM     51  C   UNL A   1      40.371  28.262  29.544  1.00  0.00     0.037 A 
ATOM     52  C   UNL A   1      47.053  29.199  28.922  1.00  0.00     0.049 A 
ATOM     53  C   UNL A   1      41.405  29.170  30.097  1.00  0.00     0.074 A 
ATOM     54  C   UNL A   1      47.757  28.253  29.641  1.00  0.00     0.029 A 
ATOM     55  N   UNL A   1      46.193  29.781  29.821  1.00  0.00    -0.354 N 
ATOM     56  N   UNL A   1      42.133  28.884  31.140  1.00  0.00    -0.248 NA
ATOM     57  C   UNL A   1      41.948  30.197  29.220  1.00  0.00     0.031 C 
ATOM     58  C   UNL A   1      46.940  27.972  30.777  1.00  0.00     0.029 A 
ATOM     59  C   UNL A   1      45.825  28.809  30.717  1.00  0.00     0.049 A 
ATOM     60  H   UNL A   1      45.896  30.719  29.823  1.00  0.00     0.167 HD
ATOM     61  C   UNL A   1      43.400  29.343  30.818  1.00  0.00     0.074 A 
ATOM     62  C   UNL A   1      43.203  30.235  29.677  1.00  0.00     0.031 C 
ATOM     63  C   UNL A   1      44.515  28.733  31.317  1.00  0.00     0.037 A 
BRANCH  50  64
ATOM     64  C   UNL A   1      46.926  30.834  26.936  1.00  0.00     0.064 A 
ATOM     65  C   UNL A   1      48.167  31.505  26.949  1.00  0.00     0.173 A 
ATOM     66  C   UNL A   1      45.802  31.640  26.658  1.00  0.00     0.173 A 
ATOM     67  F   UNL A   1      49.301  30.841  27.214  1.00  0.00    -0.203 F 
ATOM     68  C   UNL A   1      48.260  32.891  26.787  1.00  0.00     0.198 A 
ATOM     69  C   UNL A   1      45.905  33.014  26.443  1.00  0.00     0.198 A 
ATOM     70  F   UNL A   1      44.555  31.158  26.697  1.00  0.00    -0.203 F 
ATOM     71  F   UNL A   1      49.442  33.502  26.941  1.00  0.00    -0.200 F 
ATOM     72  C   UNL A   1      47.127  33.645  26.543  1.00  0.00     0.200 A 
ATOM     73  F   UNL A   1      44.794  33.730  26.224  1.00  0.00    -0.200 F 
ATOM     74  F   UNL A   1      47.202  34.980  26.455  1.00  0.00    -0.200 F 
ENDBRANCH  50  64
BRANCH  51  75
ATOM     75  C   UNL A   1      38.952  28.657  29.387  1.00  0.00     0.064 A 
ATOM     76  C   UNL A   1      38.124  28.845  30.504  1.00  0.00     0.173 A 
ATOM     77  C   UNL A   1      38.454  29.118  28.152  1.00  0.00     0.173 A 
ATOM     78  F   UNL A   1      38.538  28.471  31.722  1.00  0.00    -0.203 F 
ATOM     79  C   UNL A   1      36.884  29.485  30.397  1.00  0.00     0.198 A 
ATOM     80  C   UNL A   1      37.214  29.748  28.045  1.00  0.00     0.198 A 
ATOM     81  F   UNL A   1      39.201  29.054  27.040  1.00  0.00    -0.203 F 
ATOM     82  F   UNL A   1      36.150  29.707  31.497  1.00  0.00    -0.200 F 
ATOM     83  C   UNL A   1      36.436  29.946  29.170  1.00  0.00     0.200 A 
ATOM     84  F   UNL A   1      36.808  30.220  26.858  1.00  0.00    -0.200 F 
ATOM     85  F   UNL A   1      35.278  30.615  29.079  1.00  0.00    -0.200 F 
ENDBRANCH  51  75
BRANCH  63  86
ATOM     86  C   UNL A   1      44.324  27.724  32.416  1.00  0.00     0.064 A 
ATOM     87  C   UNL A   1      44.191  26.340  32.202  1.00  0.00     0.173 A 
ATOM     88  C   UNL A   1      44.402  28.160  33.744  1.00  0.00     0.173 A 
ATOM     89  F   UNL A   1      44.222  25.826  30.968  1.00  0.00    -0.203 F 
ATOM     90  C   UNL A   1      44.080  25.446  33.264  1.00  0.00     0.198 A 
ATOM     91  C   UNL A   1      44.329  27.260  34.805  1.00  0.00     0.198 A 
ATOM     92  F   UNL A   1      44.592  29.460  34.015  1.00  0.00    -0.203 F 
ATOM     93  F   UNL A   1      43.930  24.134  33.027  1.00  0.00    -0.200 F 
ATOM     94  C   UNL A   1      44.153  25.907  34.566  1.00  0.00     0.200 A 
ATOM     95  F   UNL A   1      44.454  27.705  36.063  1.00  0.00    -0.200 F 
ATOM     96  F   UNL A   1      44.080  25.046  35.591  1.00  0.00    -0.200 F 
ENDBRANCH  63  86
ENDBRANCH  37  38
ENDBRANCH  29  32
ENDBRANCH  27  28
ENDBRANCH  26  27
ENDBRANCH  25  26
ENDBRANCH   3  25
TORSDOF 16
ENDMDL
