MODEL 1
REMARK VINA RESULT:     -14.0      0.000      0.000
REMARK SMILES CCc1ccc(NC(=O)c2cnn3c2N=C(C(=O)NCCCNC(=O)c2ccc(-c4c5nc(c(-c6c(F)c(F)c(F)c(F)c6F)c6ccc([nH]6)c(-c6c(F)c(F)c(F)c(F)c6F)c6nc(c(-c7c(F)c(F)c(F)c(F)c7F)c7ccc4[nH]7)C=C6)C=C5)cc2)C[C@H]3c2ccccc2Cl)cc1
REMARK SMILES IDX 20 1 19 2 17 3 18 4 16 6 10 7 11 8 14 9 12 10 13 11 15 12
REMARK SMILES IDX 90 13 89 14 8 15 7 16 9 18 6 19 3 20 4 21 99 22 5 23 98 24
REMARK SMILES IDX 2 25 1 26 91 27 92 28 96 29 93 30 95 31 97 32 94 33 21 34
REMARK SMILES IDX 22 35 23 36 24 37 25 39 26 40 27 41 88 42 28 43 87 44 29 45
REMARK SMILES IDX 30 46 31 47 81 48 32 49 86 50 80 51 82 52 33 53 85 54 79 55
REMARK SMILES IDX 78 56 34 58 66 59 46 60 65 61 47 62 50 63 64 64 83 65 48 66
REMARK SMILES IDX 49 67 63 69 84 70 51 71 35 72 36 73 44 74 37 75 38 76 42 77
REMARK SMILES IDX 45 78 39 79 40 80 43 81 41 82 67 83 68 84 76 85 69 86 70 87
REMARK SMILES IDX 74 88 77 89 71 90 72 91 75 92 73 93 52 94 53 95 61 96 54 97
REMARK SMILES IDX 55 98 59 99 62 100 56 101 57 102 60 103 58 104
REMARK H PARENT 19 5 7 17 23 38 82 57 50 68
REMARK Flexibility Score: inf
ROOT
ATOM      1  C   UNL A   1      36.543  23.875  25.001  1.00  0.00     0.118 C 
ENDROOT
BRANCH   1   2
ATOM      2  N   UNL A   1      35.517  23.620  25.991  1.00  0.00    -0.351 N 
ATOM      3  C   UNL A   1      34.314  24.211  26.279  1.00  0.00     0.265 C 
ATOM      4  O   UNL A   1      33.618  23.665  27.134  1.00  0.00    -0.268 OA
ATOM      5  H   UNL A   1      35.727  22.861  26.582  1.00  0.00     0.163 HD
BRANCH   3   6
ATOM      6  C   UNL A   1      33.794  25.500  25.617  1.00  0.00     0.110 C 
ATOM      7  C   UNL A   1      32.919  26.680  22.357  1.00  0.00     0.104 A 
ATOM      8  C   UNL A   1      32.383  27.983  22.250  1.00  0.00     0.151 A 
ATOM      9  C   UNL A   1      33.398  26.601  23.656  1.00  0.00     0.164 A 
ATOM     10  N   UNL A   1      32.339  28.615  23.428  1.00  0.00    -0.178 NA
ATOM     11  N   UNL A   1      32.918  27.732  24.264  1.00  0.00    -0.239 N 
ATOM     12  N   UNL A   1      34.050  25.629  24.344  1.00  0.00    -0.227 NA
ATOM     13  C   UNL A   1      32.731  27.810  25.706  1.00  0.00     0.147 C 
ATOM     14  C   UNL A   1      32.857  26.425  26.365  1.00  0.00     0.094 C 
BRANCH   7  15
ATOM     15  C   UNL A   1      32.930  25.660  21.332  1.00  0.00     0.261 C 
ATOM     16  N   UNL A   1      32.606  24.354  21.648  1.00  0.00    -0.322 N 
ATOM     17  H   UNL A   1      32.846  23.699  20.953  1.00  0.00     0.170 HD
ATOM     18  O   UNL A   1      33.225  25.934  20.168  1.00  0.00    -0.269 OA
BRANCH  16  19
ATOM     19  C   UNL A   1      31.994  23.791  22.786  1.00  0.00     0.041 A 
ATOM     20  C   UNL A   1      31.042  22.673  25.208  1.00  0.00    -0.048 A 
ATOM     21  C   UNL A   1      30.441  23.809  24.653  1.00  0.00     0.006 A 
ATOM     22  C   UNL A   1      32.045  22.036  24.468  1.00  0.00     0.006 A 
ATOM     23  C   UNL A   1      30.901  24.350  23.448  1.00  0.00     0.026 A 
ATOM     24  C   UNL A   1      32.512  22.588  23.267  1.00  0.00     0.026 A 
BRANCH  20  25
ATOM     25  C   UNL A   1      30.544  22.158  26.537  1.00  0.00     0.032 C 
ATOM     26  C   UNL A   1      29.400  22.944  27.168  1.00  0.00     0.009 C 
ENDBRANCH  20  25
ENDBRANCH  16  19
ENDBRANCH   7  15
BRANCH  13  27
ATOM     27  C   UNL A   1      33.646  28.828  26.368  1.00  0.00    -0.004 A 
ATOM     28  C   UNL A   1      34.953  28.474  26.758  1.00  0.00     0.007 A 
ATOM     29  C   UNL A   1      33.188  30.121  26.691  1.00  0.00     0.046 A 
ATOM     30  C   UNL A   1      35.764  29.377  27.449  1.00  0.00     0.000 A 
ATOM     31  C   UNL A   1      34.008  31.022  27.376  1.00  0.00     0.021 A 
ATOM     32  Cl  UNL A   1      31.584  30.655  26.322  1.00  0.00    -0.084 Cl
ATOM     33  C   UNL A   1      35.292  30.648  27.761  1.00  0.00     0.002 A 
ENDBRANCH  13  27
ENDBRANCH   3   6
ENDBRANCH   1   2
BRANCH   1  34
ATOM     34  C   UNL A   1      37.528  22.705  24.872  1.00  0.00     0.042 C 
BRANCH  34  35
ATOM     35  C   UNL A   1      38.251  22.410  26.181  1.00  0.00     0.118 C 
BRANCH  35  36
ATOM     36  N   UNL A   1      39.667  22.085  25.969  1.00  0.00    -0.352 N 
ATOM     37  C   UNL A   1      40.794  22.862  26.182  1.00  0.00     0.251 C 
ATOM     38  H   UNL A   1      39.840  21.180  25.625  1.00  0.00     0.163 HD
ATOM     39  O   UNL A   1      41.866  22.567  25.697  1.00  0.00    -0.269 OA
BRANCH  37  40
ATOM     40  C   UNL A   1      40.651  24.070  27.011  1.00  0.00     0.039 A 
ATOM     41  C   UNL A   1      41.364  24.224  28.202  1.00  0.00     0.014 A 
ATOM     42  C   UNL A   1      39.859  25.092  26.506  1.00  0.00     0.014 A 
ATOM     43  C   UNL A   1      41.356  25.470  28.823  1.00  0.00     0.010 A 
ATOM     44  C   UNL A   1      40.019  26.357  27.002  1.00  0.00     0.010 A 
ATOM     45  C   UNL A   1      40.706  26.544  28.194  1.00  0.00    -0.014 A 
BRANCH  45  46
ATOM     46  C   UNL A   1      40.793  27.896  28.730  1.00  0.00     0.031 A 
ATOM     47  C   UNL A   1      41.897  28.733  28.187  1.00  0.00     0.074 A 
ATOM     48  C   UNL A   1      39.824  28.434  29.502  1.00  0.00     0.049 A 
ATOM     49  N   UNL A   1      42.934  29.180  28.815  1.00  0.00    -0.248 NA
ATOM     50  C   UNL A   1      41.908  29.021  26.743  1.00  0.00     0.031 C 
ATOM     51  C   UNL A   1      38.513  27.878  29.864  1.00  0.00     0.029 A 
ATOM     52  N   UNL A   1      39.782  29.672  30.059  1.00  0.00    -0.354 N 
ATOM     53  C   UNL A   1      43.641  29.958  27.900  1.00  0.00     0.074 A 
ATOM     54  C   UNL A   1      43.056  29.690  26.612  1.00  0.00     0.031 C 
ATOM     55  C   UNL A   1      37.726  28.854  30.365  1.00  0.00     0.029 A 
ATOM     56  C   UNL A   1      38.536  30.040  30.548  1.00  0.00     0.049 A 
ATOM     57  H   UNL A   1      40.569  30.261  30.110  1.00  0.00     0.167 HD
ATOM     58  C   UNL A   1      44.502  30.928  28.320  1.00  0.00     0.037 A 
ATOM     59  C   UNL A   1      38.195  31.244  31.063  1.00  0.00     0.037 A 
ATOM     60  C   UNL A   1      44.843  30.747  29.711  1.00  0.00     0.049 A 
ATOM     61  C   UNL A   1      39.453  31.924  31.457  1.00  0.00     0.074 A 
ATOM     62  C   UNL A   1      45.453  29.743  30.438  1.00  0.00     0.029 A 
ATOM     63  N   UNL A   1      44.206  31.535  30.637  1.00  0.00    -0.354 N 
ATOM     64  N   UNL A   1      40.226  31.513  32.425  1.00  0.00    -0.248 NA
ATOM     65  C   UNL A   1      40.087  32.788  30.475  1.00  0.00     0.031 C 
ATOM     66  C   UNL A   1      44.732  29.693  31.669  1.00  0.00     0.029 A 
ATOM     67  C   UNL A   1      43.776  30.710  31.646  1.00  0.00     0.049 A 
ATOM     68  H   UNL A   1      44.082  32.510  30.587  1.00  0.00     0.167 HD
ATOM     69  C   UNL A   1      41.516  31.704  31.952  1.00  0.00     0.074 A 
ATOM     70  C   UNL A   1      41.368  32.575  30.789  1.00  0.00     0.031 C 
ATOM     71  C   UNL A   1      42.545  30.911  32.374  1.00  0.00     0.037 A 
BRANCH  58  72
ATOM     72  C   UNL A   1      44.749  32.237  27.606  1.00  0.00     0.064 A 
ATOM     73  C   UNL A   1      45.960  32.415  26.902  1.00  0.00     0.173 A 
ATOM     74  C   UNL A   1      44.007  33.416  27.835  1.00  0.00     0.173 A 
ATOM     75  F   UNL A   1      46.753  31.368  26.629  1.00  0.00    -0.203 F 
ATOM     76  C   UNL A   1      46.433  33.682  26.548  1.00  0.00     0.198 A 
ATOM     77  C   UNL A   1      44.457  34.673  27.432  1.00  0.00     0.198 A 
ATOM     78  F   UNL A   1      42.878  33.423  28.551  1.00  0.00    -0.203 F 
ATOM     79  F   UNL A   1      47.652  33.810  26.006  1.00  0.00    -0.200 F 
ATOM     80  C   UNL A   1      45.686  34.811  26.823  1.00  0.00     0.200 A 
ATOM     81  F   UNL A   1      43.724  35.758  27.721  1.00  0.00    -0.200 F 
ATOM     82  F   UNL A   1      46.167  36.031  26.551  1.00  0.00    -0.200 F 
ENDBRANCH  58  72
BRANCH  59  83
ATOM     83  C   UNL A   1      36.901  31.949  30.941  1.00  0.00     0.064 A 
ATOM     84  C   UNL A   1      35.994  31.983  32.009  1.00  0.00     0.173 A 
ATOM     85  C   UNL A   1      36.656  32.837  29.875  1.00  0.00     0.173 A 
ATOM     86  F   UNL A   1      36.184  31.196  33.078  1.00  0.00    -0.203 F 
ATOM     87  C   UNL A   1      34.918  32.877  32.025  1.00  0.00     0.198 A 
ATOM     88  C   UNL A   1      35.581  33.726  29.891  1.00  0.00     0.198 A 
ATOM     89  F   UNL A   1      37.512  32.928  28.847  1.00  0.00    -0.203 F 
ATOM     90  F   UNL A   1      34.108  32.928  33.092  1.00  0.00    -0.200 F 
ATOM     91  C   UNL A   1      34.721  33.756  30.973  1.00  0.00     0.200 A 
ATOM     92  F   UNL A   1      35.425  34.598  28.884  1.00  0.00    -0.200 F 
ATOM     93  F   UNL A   1      33.732  34.659  31.020  1.00  0.00    -0.200 F 
ENDBRANCH  59  83
BRANCH  71  94
ATOM     94  C   UNL A   1      42.299  30.007  33.551  1.00  0.00     0.064 A 
ATOM     95  C   UNL A   1      41.822  28.688  33.450  1.00  0.00     0.173 A 
ATOM     96  C   UNL A   1      42.700  30.446  34.820  1.00  0.00     0.173 A 
ATOM     97  F   UNL A   1      41.513  28.155  32.262  1.00  0.00    -0.203 F 
ATOM     98  C   UNL A   1      41.709  27.867  34.571  1.00  0.00     0.198 A 
ATOM     99  C   UNL A   1      42.621  29.613  35.933  1.00  0.00     0.198 A 
ATOM    100  F   UNL A   1      43.216  31.675  34.973  1.00  0.00    -0.203 F 
ATOM    101  F   UNL A   1      41.240  26.617  34.446  1.00  0.00    -0.200 F 
ATOM    102  C   UNL A   1      42.116  28.329  35.811  1.00  0.00     0.200 A 
ATOM    103  F   UNL A   1      43.062  30.047  37.122  1.00  0.00    -0.200 F 
ATOM    104  F   UNL A   1      42.047  27.527  36.883  1.00  0.00    -0.200 F 
ENDBRANCH  71  94
ENDBRANCH  45  46
ENDBRANCH  37  40
ENDBRANCH  35  36
ENDBRANCH  34  35
ENDBRANCH   1  34
TORSDOF 14
ENDMDL
MODEL 2
REMARK VINA RESULT:     -13.0      5.417     11.778
REMARK SMILES CCc1ccc(NC(=O)c2cnn3c2N=C(C(=O)NCCCNC(=O)c2ccc(-c4c5nc(c(-c6c(F)c(F)c(F)c(F)c6F)c6ccc([nH]6)c(-c6c(F)c(F)c(F)c(F)c6F)c6nc(c(-c7c(F)c(F)c(F)c(F)c7F)c7ccc4[nH]7)C=C6)C=C5)cc2)C[C@H]3c2ccccc2Cl)cc1
REMARK SMILES IDX 20 1 19 2 17 3 18 4 16 6 10 7 11 8 14 9 12 10 13 11 15 12
REMARK SMILES IDX 90 13 89 14 8 15 7 16 9 18 6 19 3 20 4 21 99 22 5 23 98 24
REMARK SMILES IDX 2 25 1 26 91 27 92 28 96 29 93 30 95 31 97 32 94 33 21 34
REMARK SMILES IDX 22 35 23 36 24 37 25 39 26 40 27 41 88 42 28 43 87 44 29 45
REMARK SMILES IDX 30 46 31 47 81 48 32 49 86 50 80 51 82 52 33 53 85 54 79 55
REMARK SMILES IDX 78 56 34 58 66 59 46 60 65 61 47 62 50 63 64 64 83 65 48 66
REMARK SMILES IDX 49 67 63 69 84 70 51 71 35 72 36 73 44 74 37 75 38 76 42 77
REMARK SMILES IDX 45 78 39 79 40 80 43 81 41 82 67 83 68 84 76 85 69 86 70 87
REMARK SMILES IDX 74 88 77 89 71 90 72 91 75 92 73 93 52 94 53 95 61 96 54 97
REMARK SMILES IDX 55 98 59 99 62 100 56 101 57 102 60 103 58 104
REMARK H PARENT 19 5 7 17 23 38 82 57 50 68
REMARK Flexibility Score: inf
ROOT
ATOM      1  C   UNL A   1      36.170  34.115  32.649  1.00  0.00     0.118 C 
ENDROOT
BRANCH   1   2
ATOM      2  N   UNL A   1      36.708  32.774  32.754  1.00  0.00    -0.351 N 
ATOM      3  C   UNL A   1      37.968  32.274  32.957  1.00  0.00     0.265 C 
ATOM      4  O   UNL A   1      38.065  31.057  33.109  1.00  0.00    -0.268 OA
ATOM      5  H   UNL A   1      36.023  32.073  32.660  1.00  0.00     0.163 HD
BRANCH   3   6
ATOM      6  C   UNL A   1      39.249  33.126  32.997  1.00  0.00     0.110 C 
ATOM      7  C   UNL A   1      40.914  35.371  35.228  1.00  0.00     0.104 A 
ATOM      8  C   UNL A   1      42.176  35.871  34.838  1.00  0.00     0.151 A 
ATOM      9  C   UNL A   1      40.408  34.764  34.088  1.00  0.00     0.164 A 
ATOM     10  N   UNL A   1      42.537  35.453  33.620  1.00  0.00    -0.178 NA
ATOM     11  N   UNL A   1      41.464  34.747  33.216  1.00  0.00    -0.239 N 
ATOM     12  N   UNL A   1      39.232  34.142  33.815  1.00  0.00    -0.227 NA
ATOM     13  C   UNL A   1      41.552  33.776  32.133  1.00  0.00     0.147 C 
ATOM     14  C   UNL A   1      40.506  32.659  32.293  1.00  0.00     0.094 C 
BRANCH   7  15
ATOM     15  C   UNL A   1      40.312  35.461  36.540  1.00  0.00     0.261 C 
ATOM     16  N   UNL A   1      40.478  34.436  37.452  1.00  0.00    -0.322 N 
ATOM     17  H   UNL A   1      39.868  34.479  38.224  1.00  0.00     0.170 HD
ATOM     18  O   UNL A   1      39.648  36.445  36.867  1.00  0.00    -0.269 OA
BRANCH  16  19
ATOM     19  C   UNL A   1      41.364  33.340  37.476  1.00  0.00     0.041 A 
ATOM     20  C   UNL A   1      43.154  31.159  37.216  1.00  0.00    -0.048 A 
ATOM     21  C   UNL A   1      43.461  32.250  38.038  1.00  0.00     0.006 A 
ATOM     22  C   UNL A   1      41.885  31.122  36.627  1.00  0.00     0.006 A 
ATOM     23  C   UNL A   1      42.569  33.319  38.179  1.00  0.00     0.026 A 
ATOM     24  C   UNL A   1      40.999  32.200  36.760  1.00  0.00     0.026 A 
BRANCH  20  25
ATOM     25  C   UNL A   1      44.172  30.055  37.055  1.00  0.00     0.032 C 
ATOM     26  C   UNL A   1      45.338  30.078  38.037  1.00  0.00     0.009 C 
ENDBRANCH  20  25
ENDBRANCH  16  19
ENDBRANCH   7  15
BRANCH  13  27
ATOM     27  C   UNL A   1      41.481  34.416  30.756  1.00  0.00    -0.004 A 
ATOM     28  C   UNL A   1      40.236  34.667  30.143  1.00  0.00     0.007 A 
ATOM     29  C   UNL A   1      42.648  34.693  30.017  1.00  0.00     0.046 A 
ATOM     30  C   UNL A   1      40.165  35.168  28.842  1.00  0.00     0.000 A 
ATOM     31  C   UNL A   1      42.570  35.203  28.717  1.00  0.00     0.021 A 
ATOM     32  Cl  UNL A   1      44.232  34.372  30.632  1.00  0.00    -0.084 Cl
ATOM     33  C   UNL A   1      41.330  35.433  28.128  1.00  0.00     0.002 A 
ENDBRANCH  13  27
ENDBRANCH   3   6
ENDBRANCH   1   2
BRANCH   1  34
ATOM     34  C   UNL A   1      35.178  34.253  31.485  1.00  0.00     0.042 C 
BRANCH  34  35
ATOM     35  C   UNL A   1      34.639  32.904  31.023  1.00  0.00     0.118 C 
BRANCH  35  36
ATOM     36  N   UNL A   1      34.549  32.817  29.560  1.00  0.00    -0.352 N 
ATOM     37  C   UNL A   1      35.456  32.303  28.647  1.00  0.00     0.251 C 
ATOM     38  H   UNL A   1      33.721  33.178  29.170  1.00  0.00     0.163 HD
ATOM     39  O   UNL A   1      35.375  32.557  27.464  1.00  0.00    -0.269 OA
BRANCH  37  40
ATOM     40  C   UNL A   1      36.536  31.443  29.159  1.00  0.00     0.039 A 
ATOM     41  C   UNL A   1      36.375  30.060  29.268  1.00  0.00     0.014 A 
ATOM     42  C   UNL A   1      37.753  32.052  29.430  1.00  0.00     0.014 A 
ATOM     43  C   UNL A   1      37.495  29.283  29.547  1.00  0.00     0.010 A 
ATOM     44  C   UNL A   1      38.878  31.276  29.499  1.00  0.00     0.010 A 
ATOM     45  C   UNL A   1      38.754  29.899  29.627  1.00  0.00    -0.014 A 
BRANCH  45  46
ATOM     46  C   UNL A   1      39.971  29.111  29.772  1.00  0.00     0.031 A 
ATOM     47  C   UNL A   1      40.323  28.721  31.164  1.00  0.00     0.074 A 
ATOM     48  C   UNL A   1      40.624  28.584  28.713  1.00  0.00     0.049 A 
ATOM     49  N   UNL A   1      41.338  29.109  31.861  1.00  0.00    -0.248 NA
ATOM     50  C   UNL A   1      39.374  27.881  31.914  1.00  0.00     0.031 C 
ATOM     51  C   UNL A   1      40.239  28.583  27.295  1.00  0.00     0.029 A 
ATOM     52  N   UNL A   1      41.757  27.836  28.710  1.00  0.00    -0.354 N 
ATOM     53  C   UNL A   1      41.265  28.426  33.074  1.00  0.00     0.074 A 
ATOM     54  C   UNL A   1      39.960  27.819  33.112  1.00  0.00     0.031 C 
ATOM     55  C   UNL A   1      40.982  27.680  26.621  1.00  0.00     0.029 A 
ATOM     56  C   UNL A   1      42.021  27.197  27.507  1.00  0.00     0.049 A 
ATOM     57  H   UNL A   1      42.343  27.752  29.497  1.00  0.00     0.167 HD
ATOM     58  C   UNL A   1      42.375  28.237  33.843  1.00  0.00     0.037 A 
ATOM     59  C   UNL A   1      43.023  26.321  27.261  1.00  0.00     0.037 A 
ATOM     60  C   UNL A   1      43.436  29.129  33.443  1.00  0.00     0.049 A 
ATOM     61  C   UNL A   1      44.051  26.527  28.311  1.00  0.00     0.074 A 
ATOM     62  C   UNL A   1      43.581  30.502  33.388  1.00  0.00     0.029 A 
ATOM     63  N   UNL A   1      44.440  28.623  32.655  1.00  0.00    -0.354 N 
ATOM     64  N   UNL A   1      44.766  27.613  28.423  1.00  0.00    -0.248 NA
ATOM     65  C   UNL A   1      43.956  25.715  29.514  1.00  0.00     0.031 C 
ATOM     66  C   UNL A   1      44.315  30.745  32.188  1.00  0.00     0.029 A 
ATOM     67  C   UNL A   1      44.632  29.508  31.624  1.00  0.00     0.049 A 
ATOM     68  H   UNL A   1      44.931  27.783  32.802  1.00  0.00     0.167 HD
ATOM     69  C   UNL A   1      44.849  27.842  29.788  1.00  0.00     0.074 A 
ATOM     70  C   UNL A   1      44.412  26.595  30.410  1.00  0.00     0.031 C 
ATOM     71  C   UNL A   1      44.988  29.108  30.282  1.00  0.00     0.037 A 
BRANCH  58  72
ATOM     72  C   UNL A   1      42.642  27.017  34.695  1.00  0.00     0.064 A 
ATOM     73  C   UNL A   1      42.336  27.065  36.073  1.00  0.00     0.173 A 
ATOM     74  C   UNL A   1      43.456  25.935  34.296  1.00  0.00     0.173 A 
ATOM     75  F   UNL A   1      41.575  28.050  36.571  1.00  0.00    -0.203 F 
ATOM     76  C   UNL A   1      42.886  26.160  36.986  1.00  0.00     0.198 A 
ATOM     77  C   UNL A   1      43.958  25.003  35.203  1.00  0.00     0.198 A 
ATOM     78  F   UNL A   1      43.893  25.794  33.040  1.00  0.00    -0.203 F 
ATOM     79  F   UNL A   1      42.678  26.331  38.299  1.00  0.00    -0.200 F 
ATOM     80  C   UNL A   1      43.705  25.136  36.552  1.00  0.00     0.200 A 
ATOM     81  F   UNL A   1      44.763  24.024  34.763  1.00  0.00    -0.200 F 
ATOM     82  F   UNL A   1      44.290  24.311  37.429  1.00  0.00    -0.200 F 
ENDBRANCH  58  72
BRANCH  59  83
ATOM     83  C   UNL A   1      42.995  25.134  26.381  1.00  0.00     0.064 A 
ATOM     84  C   UNL A   1      43.966  24.949  25.386  1.00  0.00     0.173 A 
ATOM     85  C   UNL A   1      42.184  24.023  26.686  1.00  0.00     0.173 A 
ATOM     86  F   UNL A   1      44.802  25.948  25.069  1.00  0.00    -0.203 F 
ATOM     87  C   UNL A   1      44.136  23.714  24.753  1.00  0.00     0.198 A 
ATOM     88  C   UNL A   1      42.352  22.792  26.051  1.00  0.00     0.198 A 
ATOM     89  F   UNL A   1      41.281  24.084  27.676  1.00  0.00    -0.203 F 
ATOM     90  F   UNL A   1      45.116  23.555  23.853  1.00  0.00    -0.200 F 
ATOM     91  C   UNL A   1      43.339  22.635  25.095  1.00  0.00     0.200 A 
ATOM     92  F   UNL A   1      41.601  21.746  26.421  1.00  0.00    -0.200 F 
ATOM     93  F   UNL A   1      43.547  21.433  24.539  1.00  0.00    -0.200 F 
ENDBRANCH  59  83
BRANCH  71  94
ATOM     94  C   UNL A   1      45.313  30.210  29.310  1.00  0.00     0.064 A 
ATOM     95  C   UNL A   1      44.349  30.993  28.651  1.00  0.00     0.173 A 
ATOM     96  C   UNL A   1      46.655  30.581  29.153  1.00  0.00     0.173 A 
ATOM     97  F   UNL A   1      43.042  30.772  28.827  1.00  0.00    -0.203 F 
ATOM     98  C   UNL A   1      44.716  32.066  27.839  1.00  0.00     0.198 A 
ATOM     99  C   UNL A   1      47.018  31.674  28.370  1.00  0.00     0.198 A 
ATOM    100  F   UNL A   1      47.619  29.907  29.801  1.00  0.00    -0.203 F 
ATOM    101  F   UNL A   1      43.775  32.788  27.213  1.00  0.00    -0.200 F 
ATOM    102  C   UNL A   1      46.050  32.409  27.705  1.00  0.00     0.200 A 
ATOM    103  F   UNL A   1      48.306  32.033  28.284  1.00  0.00    -0.200 F 
ATOM    104  F   UNL A   1      46.401  33.465  26.958  1.00  0.00    -0.200 F 
ENDBRANCH  71  94
ENDBRANCH  45  46
ENDBRANCH  37  40
ENDBRANCH  35  36
ENDBRANCH  34  35
ENDBRANCH   1  34
TORSDOF 14
ENDMDL
MODEL 3
REMARK VINA RESULT:     -12.9      2.086      4.220
REMARK SMILES CCc1ccc(NC(=O)c2cnn3c2N=C(C(=O)NCCCNC(=O)c2ccc(-c4c5nc(c(-c6c(F)c(F)c(F)c(F)c6F)c6ccc([nH]6)c(-c6c(F)c(F)c(F)c(F)c6F)c6nc(c(-c7c(F)c(F)c(F)c(F)c7F)c7ccc4[nH]7)C=C6)C=C5)cc2)C[C@H]3c2ccccc2Cl)cc1
REMARK SMILES IDX 20 1 19 2 17 3 18 4 16 6 10 7 11 8 14 9 12 10 13 11 15 12
REMARK SMILES IDX 90 13 89 14 8 15 7 16 9 18 6 19 3 20 4 21 99 22 5 23 98 24
REMARK SMILES IDX 2 25 1 26 91 27 92 28 96 29 93 30 95 31 97 32 94 33 21 34
REMARK SMILES IDX 22 35 23 36 24 37 25 39 26 40 27 41 88 42 28 43 87 44 29 45
REMARK SMILES IDX 30 46 31 47 81 48 32 49 86 50 80 51 82 52 33 53 85 54 79 55
REMARK SMILES IDX 78 56 34 58 66 59 46 60 65 61 47 62 50 63 64 64 83 65 48 66
REMARK SMILES IDX 49 67 63 69 84 70 51 71 35 72 36 73 44 74 37 75 38 76 42 77
REMARK SMILES IDX 45 78 39 79 40 80 43 81 41 82 67 83 68 84 76 85 69 86 70 87
REMARK SMILES IDX 74 88 77 89 71 90 72 91 75 92 73 93 52 94 53 95 61 96 54 97
REMARK SMILES IDX 55 98 59 99 62 100 56 101 57 102 60 103 58 104
REMARK H PARENT 19 5 7 17 23 38 82 57 50 68
REMARK Flexibility Score: inf
ROOT
ATOM      1  C   UNL A   1      37.263  21.625  25.509  1.00  0.00     0.118 C 
ENDROOT
BRANCH   1   2
ATOM      2  N   UNL A   1      36.986  22.319  24.268  1.00  0.00    -0.351 N 
ATOM      3  C   UNL A   1      35.831  22.685  23.627  1.00  0.00     0.265 C 
ATOM      4  O   UNL A   1      35.952  23.378  22.617  1.00  0.00    -0.268 OA
ATOM      5  H   UNL A   1      37.800  22.583  23.782  1.00  0.00     0.163 HD
BRANCH   3   6
ATOM      6  C   UNL A   1      34.416  22.282  24.079  1.00  0.00     0.110 C 
ATOM      7  C   UNL A   1      31.786  23.562  26.136  1.00  0.00     0.104 A 
ATOM      8  C   UNL A   1      30.574  22.836  26.182  1.00  0.00     0.151 A 
ATOM      9  C   UNL A   1      32.679  22.714  25.497  1.00  0.00     0.164 A 
ATOM     10  N   UNL A   1      30.626  21.709  25.465  1.00  0.00    -0.178 NA
ATOM     11  N   UNL A   1      31.899  21.691  25.026  1.00  0.00    -0.239 N 
ATOM     12  N   UNL A   1      33.998  22.821  25.190  1.00  0.00    -0.227 NA
ATOM     13  C   UNL A   1      32.304  20.876  23.889  1.00  0.00     0.147 C 
ATOM     14  C   UNL A   1      33.511  21.489  23.158  1.00  0.00     0.094 C 
BRANCH   7  15
ATOM     15  C   UNL A   1      32.015  24.902  26.628  1.00  0.00     0.261 C 
ATOM     16  N   UNL A   1      32.401  25.905  25.759  1.00  0.00    -0.322 N 
ATOM     17  H   UNL A   1      32.739  26.716  26.203  1.00  0.00     0.170 HD
ATOM     18  O   UNL A   1      31.867  25.174  27.820  1.00  0.00    -0.269 OA
BRANCH  16  19
ATOM     19  C   UNL A   1      32.399  25.975  24.351  1.00  0.00     0.041 A 
ATOM     20  C   UNL A   1      32.566  25.857  21.525  1.00  0.00    -0.048 A 
ATOM     21  C   UNL A   1      31.326  25.930  22.172  1.00  0.00     0.006 A 
ATOM     22  C   UNL A   1      33.720  25.969  22.309  1.00  0.00     0.006 A 
ATOM     23  C   UNL A   1      31.246  26.005  23.567  1.00  0.00     0.026 A 
ATOM     24  C   UNL A   1      33.636  26.031  23.707  1.00  0.00     0.026 A 
BRANCH  20  25
ATOM     25  C   UNL A   1      32.599  25.723  20.021  1.00  0.00     0.032 C 
ATOM     26  C   UNL A   1      32.755  24.306  19.483  1.00  0.00     0.009 C 
ENDBRANCH  20  25
ENDBRANCH  16  19
ENDBRANCH   7  15
BRANCH  13  27
ATOM     27  C   UNL A   1      32.556  19.423  24.261  1.00  0.00    -0.004 A 
ATOM     28  C   UNL A   1      32.898  19.068  25.581  1.00  0.00     0.007 A 
ATOM     29  C   UNL A   1      32.542  18.406  23.286  1.00  0.00     0.046 A 
ATOM     30  C   UNL A   1      33.220  17.749  25.908  1.00  0.00     0.000 A 
ATOM     31  C   UNL A   1      32.858  17.086  23.622  1.00  0.00     0.021 A 
ATOM     32  Cl  UNL A   1      32.199  18.723  21.620  1.00  0.00    -0.084 Cl
ATOM     33  C   UNL A   1      33.203  16.759  24.930  1.00  0.00     0.002 A 
ENDBRANCH  13  27
ENDBRANCH   3   6
ENDBRANCH   1   2
BRANCH   1  34
ATOM     34  C   UNL A   1      38.710  21.119  25.581  1.00  0.00     0.042 C 
BRANCH  34  35
ATOM     35  C   UNL A   1      39.583  21.991  26.475  1.00  0.00     0.118 C 
BRANCH  35  36
ATOM     36  N   UNL A   1      40.963  22.080  25.981  1.00  0.00    -0.352 N 
ATOM     37  C   UNL A   1      41.820  23.168  25.942  1.00  0.00     0.251 C 
ATOM     38  H   UNL A   1      41.335  21.241  25.626  1.00  0.00     0.163 HD
ATOM     39  O   UNL A   1      42.817  23.164  25.251  1.00  0.00    -0.269 OA
BRANCH  37  40
ATOM     40  C   UNL A   1      41.477  24.344  26.758  1.00  0.00     0.039 A 
ATOM     41  C   UNL A   1      41.971  24.498  28.056  1.00  0.00     0.014 A 
ATOM     42  C   UNL A   1      40.729  25.341  26.148  1.00  0.00     0.014 A 
ATOM     43  C   UNL A   1      41.794  25.724  28.691  1.00  0.00     0.010 A 
ATOM     44  C   UNL A   1      40.737  26.597  26.689  1.00  0.00     0.010 A 
ATOM     45  C   UNL A   1      41.203  26.784  27.984  1.00  0.00    -0.014 A 
BRANCH  45  46
ATOM     46  C   UNL A   1      41.129  28.122  28.554  1.00  0.00     0.031 A 
ATOM     47  C   UNL A   1      42.203  29.061  28.132  1.00  0.00     0.074 A 
ATOM     48  C   UNL A   1      40.053  28.557  29.245  1.00  0.00     0.049 A 
ATOM     49  N   UNL A   1      43.138  29.573  28.862  1.00  0.00    -0.248 NA
ATOM     50  C   UNL A   1      42.319  29.390  26.702  1.00  0.00     0.031 C 
ATOM     51  C   UNL A   1      38.765  27.886  29.473  1.00  0.00     0.029 A 
ATOM     52  N   UNL A   1      39.857  29.771  29.821  1.00  0.00    -0.354 N 
ATOM     53  C   UNL A   1      43.857  30.432  28.032  1.00  0.00     0.074 A 
ATOM     54  C   UNL A   1      43.415  30.154  26.691  1.00  0.00     0.031 C 
ATOM     55  C   UNL A   1      37.857  28.780  29.920  1.00  0.00     0.029 A 
ATOM     56  C   UNL A   1      38.546  30.022  30.202  1.00  0.00     0.049 A 
ATOM     57  H   UNL A   1      40.584  30.420  29.957  1.00  0.00     0.167 HD
ATOM     58  C   UNL A   1      44.593  31.456  28.550  1.00  0.00     0.037 A 
ATOM     59  C   UNL A   1      38.060  31.179  30.708  1.00  0.00     0.037 A 
ATOM     60  C   UNL A   1      44.821  31.264  29.962  1.00  0.00     0.049 A 
ATOM     61  C   UNL A   1      39.217  31.947  31.231  1.00  0.00     0.074 A 
ATOM     62  C   UNL A   1      45.446  30.293  30.721  1.00  0.00     0.029 A 
ATOM     63  N   UNL A   1      44.040  31.971  30.843  1.00  0.00    -0.354 N 
ATOM     64  N   UNL A   1      39.931  31.574  32.257  1.00  0.00    -0.248 NA
ATOM     65  C   UNL A   1      39.862  32.889  30.329  1.00  0.00     0.031 C 
ATOM     66  C   UNL A   1      44.624  30.149  31.879  1.00  0.00     0.029 A 
ATOM     67  C   UNL A   1      43.592  31.085  31.789  1.00  0.00     0.049 A 
ATOM     68  H   UNL A   1      43.839  32.933  30.802  1.00  0.00     0.167 HD
ATOM     69  C   UNL A   1      41.238  31.882  31.908  1.00  0.00     0.074 A 
ATOM     70  C   UNL A   1      41.123  32.771  30.755  1.00  0.00     0.031 C 
ATOM     71  C   UNL A   1      42.287  31.164  32.406  1.00  0.00     0.037 A 
BRANCH  58  72
ATOM     72  C   UNL A   1      44.792  32.802  27.889  1.00  0.00     0.064 A 
ATOM     73  C   UNL A   1      46.042  33.098  27.304  1.00  0.00     0.173 A 
ATOM     74  C   UNL A   1      43.936  33.909  28.073  1.00  0.00     0.173 A 
ATOM     75  F   UNL A   1      46.942  32.128  27.085  1.00  0.00    -0.203 F 
ATOM     76  C   UNL A   1      46.437  34.409  27.023  1.00  0.00     0.198 A 
ATOM     77  C   UNL A   1      44.313  35.209  27.740  1.00  0.00     0.198 A 
ATOM     78  F   UNL A   1      42.750  33.802  28.682  1.00  0.00    -0.203 F 
ATOM     79  F   UNL A   1      47.685  34.652  26.599  1.00  0.00    -0.200 F 
ATOM     80  C   UNL A   1      45.576  35.465  27.251  1.00  0.00     0.200 A 
ATOM     81  F   UNL A   1      43.468  36.221  27.983  1.00  0.00    -0.200 F 
ATOM     82  F   UNL A   1      45.975  36.727  27.049  1.00  0.00    -0.200 F 
ENDBRANCH  58  72
BRANCH  59  83
ATOM     83  C   UNL A   1      36.728  31.779  30.483  1.00  0.00     0.064 A 
ATOM     84  C   UNL A   1      35.868  32.052  31.556  1.00  0.00     0.173 A 
ATOM     85  C   UNL A   1      36.392  32.355  29.242  1.00  0.00     0.173 A 
ATOM     86  F   UNL A   1      36.144  31.573  32.778  1.00  0.00    -0.203 F 
ATOM     87  C   UNL A   1      34.750  32.879  31.404  1.00  0.00     0.198 A 
ATOM     88  C   UNL A   1      35.275  33.176  29.090  1.00  0.00     0.198 A 
ATOM     89  F   UNL A   1      37.197  32.212  28.178  1.00  0.00    -0.203 F 
ATOM     90  F   UNL A   1      33.986  33.170  32.465  1.00  0.00    -0.200 F 
ATOM     91  C   UNL A   1      34.462  33.450  30.175  1.00  0.00     0.200 A 
ATOM     92  F   UNL A   1      35.031  33.755  27.905  1.00  0.00    -0.200 F 
ATOM     93  F   UNL A   1      33.432  34.297  30.045  1.00  0.00    -0.200 F 
ENDBRANCH  59  83
BRANCH  71  94
ATOM     94  C   UNL A   1      42.013  30.209  33.536  1.00  0.00     0.064 A 
ATOM     95  C   UNL A   1      41.657  28.860  33.363  1.00  0.00     0.173 A 
ATOM     96  C   UNL A   1      42.263  30.642  34.846  1.00  0.00     0.173 A 
ATOM     97  F   UNL A   1      41.499  28.339  32.142  1.00  0.00    -0.203 F 
ATOM     98  C   UNL A   1      41.514  28.001  34.452  1.00  0.00     0.198 A 
ATOM     99  C   UNL A   1      42.155  29.773  35.928  1.00  0.00     0.198 A 
ATOM    100  F   UNL A   1      42.662  31.904  35.071  1.00  0.00    -0.203 F 
ATOM    101  F   UNL A   1      41.161  26.721  34.258  1.00  0.00    -0.200 F 
ATOM    102  C   UNL A   1      41.770  28.457  35.733  1.00  0.00     0.200 A 
ATOM    103  F   UNL A   1      42.453  30.207  37.161  1.00  0.00    -0.200 F 
ATOM    104  F   UNL A   1      41.673  27.622  36.777  1.00  0.00    -0.200 F 
ENDBRANCH  71  94
ENDBRANCH  45  46
ENDBRANCH  37  40
ENDBRANCH  35  36
ENDBRANCH  34  35
ENDBRANCH   1  34
TORSDOF 14
ENDMDL
