MODEL 1
REMARK VINA RESULT:     -10.1      0.000      0.000
REMARK SMILES C[C@H](Nc1ccc(F)cc1Br)[C@@H](C)C(=O)NCCCNC(=O)c1ccc(-c2c3nc(c(-c4c(F)c(F)c(F)c(F)c4F)c4ccc([nH]4)c(-c4c(F)c(F)c(F)c(F)c4F)c4nc(c(-c5c(F)c(F)c(F)c(F)c5F)c5ccc2[nH]5)C=C4)C=C3)cc1
REMARK SMILES IDX 17 1 16 2 14 3 15 4 12 6 13 7 2 8 1 9 3 10 4 12 5 13 10 14
REMARK SMILES IDX 6 15 9 16 11 17 7 18 8 19 18 20 19 21 20 22 21 23 22 25
REMARK SMILES IDX 23 26 24 27 85 28 25 29 84 30 26 31 27 32 28 33 78 34 29 35
REMARK SMILES IDX 83 36 77 37 79 38 30 39 82 40 76 41 75 42 31 44 63 45 43 46
REMARK SMILES IDX 62 47 44 48 47 49 61 50 80 51 45 52 46 53 60 55 81 56 48 57
REMARK SMILES IDX 32 58 33 59 41 60 34 61 35 62 39 63 42 64 36 65 37 66 40 67
REMARK SMILES IDX 38 68 64 69 65 70 73 71 66 72 67 73 71 74 74 75 68 76 69 77
REMARK SMILES IDX 72 78 70 79 49 80 50 81 58 82 51 83 52 84 56 85 59 86 53 87
REMARK SMILES IDX 54 88 57 89 55 90
REMARK H PARENT 16 5 3 11 20 24 79 43 47 54
REMARK Flexibility Score: inf
ROOT
ATOM      1  C   UNL A   1      33.497  34.429  29.152  1.00  0.00     0.117 C 
ENDROOT
BRANCH   1   2
ATOM      2  N   UNL A   1      33.797  35.252  30.311  1.00  0.00    -0.356 N 
ATOM      3  C   UNL A   1      34.340  34.959  31.524  1.00  0.00     0.224 C 
ATOM      4  O   UNL A   1      34.460  35.896  32.319  1.00  0.00    -0.275 OA
ATOM      5  H   UNL A   1      33.563  36.201  30.197  1.00  0.00     0.163 HD
BRANCH   3   6
ATOM      6  C   UNL A   1      34.783  33.554  31.924  1.00  0.00     0.097 C 
ATOM      7  C   UNL A   1      34.367  33.234  33.361  1.00  0.00     0.020 C 
BRANCH   6   8
ATOM      8  C   UNL A   1      36.265  33.320  31.584  1.00  0.00     0.088 C 
ATOM      9  C   UNL A   1      36.815  32.096  32.334  1.00  0.00     0.031 C 
BRANCH   8  10
ATOM     10  N   UNL A   1      37.091  34.480  31.934  1.00  0.00    -0.381 N 
ATOM     11  H   UNL A   1      36.734  35.187  32.520  1.00  0.00     0.160 HD
BRANCH  10  12
ATOM     12  C   UNL A   1      38.388  34.572  31.424  1.00  0.00     0.049 A 
ATOM     13  C   UNL A   1      38.612  34.579  30.038  1.00  0.00     0.030 A 
ATOM     14  C   UNL A   1      39.515  34.583  32.271  1.00  0.00     0.044 A 
ATOM     15  C   UNL A   1      39.904  34.584  29.512  1.00  0.00     0.041 A 
ATOM     16  C   UNL A   1      40.812  34.583  31.750  1.00  0.00     0.057 A 
ATOM     17  Br  UNL A   1      39.317  34.564  34.162  1.00  0.00    -0.048 Br
ATOM     18  C   UNL A   1      40.991  34.579  30.374  1.00  0.00     0.124 A 
ATOM     19  F   UNL A   1      42.231  34.567  29.868  1.00  0.00    -0.207 F 
ENDBRANCH  10  12
ENDBRANCH   8  10
ENDBRANCH   6   8
ENDBRANCH   3   6
ENDBRANCH   1   2
BRANCH   1  20
ATOM     20  C   UNL A   1      34.613  34.448  28.111  1.00  0.00     0.042 C 
BRANCH  20  21
ATOM     21  C   UNL A   1      35.371  33.134  27.977  1.00  0.00     0.118 C 
BRANCH  21  22
ATOM     22  N   UNL A   1      34.484  31.991  27.817  1.00  0.00    -0.352 N 
ATOM     23  C   UNL A   1      34.746  30.645  27.847  1.00  0.00     0.251 C 
ATOM     24  H   UNL A   1      33.540  32.223  27.662  1.00  0.00     0.163 HD
ATOM     25  O   UNL A   1      33.872  29.856  27.490  1.00  0.00    -0.269 OA
BRANCH  23  26
ATOM     26  C   UNL A   1      36.061  30.126  28.285  1.00  0.00     0.039 A 
ATOM     27  C   UNL A   1      37.131  30.167  27.384  1.00  0.00     0.014 A 
ATOM     28  C   UNL A   1      36.240  29.553  29.546  1.00  0.00     0.014 A 
ATOM     29  C   UNL A   1      38.387  29.692  27.769  1.00  0.00     0.010 A 
ATOM     30  C   UNL A   1      37.509  29.154  29.957  1.00  0.00     0.010 A 
ATOM     31  C   UNL A   1      38.594  29.211  29.071  1.00  0.00    -0.014 A 
BRANCH  31  32
ATOM     32  C   UNL A   1      39.937  28.763  29.521  1.00  0.00     0.031 A 
ATOM     33  C   UNL A   1      40.758  29.625  30.439  1.00  0.00     0.074 A 
ATOM     34  C   UNL A   1      40.451  27.617  29.037  1.00  0.00     0.049 A 
ATOM     35  N   UNL A   1      41.978  29.440  30.879  1.00  0.00    -0.248 NA
ATOM     36  C   UNL A   1      40.140  30.880  30.895  1.00  0.00     0.031 C 
ATOM     37  C   UNL A   1      39.783  26.729  28.087  1.00  0.00     0.029 A 
ATOM     38  N   UNL A   1      41.663  27.014  29.263  1.00  0.00    -0.354 N 
ATOM     39  C   UNL A   1      42.281  30.565  31.637  1.00  0.00     0.074 A 
ATOM     40  C   UNL A   1      41.136  31.446  31.561  1.00  0.00     0.031 C 
ATOM     41  C   UNL A   1      40.587  25.688  27.818  1.00  0.00     0.029 A 
ATOM     42  C   UNL A   1      41.838  25.852  28.554  1.00  0.00     0.049 A 
ATOM     43  H   UNL A   1      42.342  27.380  29.874  1.00  0.00     0.167 HD
ATOM     44  C   UNL A   1      43.405  30.828  32.346  1.00  0.00     0.037 A 
ATOM     45  C   UNL A   1      42.890  25.014  28.496  1.00  0.00     0.037 A 
ATOM     46  C   UNL A   1      44.523  29.929  32.454  1.00  0.00     0.049 A 
ATOM     47  C   UNL A   1      44.107  25.302  29.329  1.00  0.00     0.074 A 
ATOM     48  C   UNL A   1      45.661  30.056  33.231  1.00  0.00     0.029 A 
ATOM     49  N   UNL A   1      44.646  28.735  31.758  1.00  0.00    -0.354 N 
ATOM     50  N   UNL A   1      44.347  26.324  30.115  1.00  0.00    -0.248 NA
ATOM     51  C   UNL A   1      45.196  24.317  29.276  1.00  0.00     0.031 C 
ATOM     52  C   UNL A   1      46.493  28.960  32.972  1.00  0.00     0.029 A 
ATOM     53  C   UNL A   1      45.853  28.128  32.067  1.00  0.00     0.049 A 
ATOM     54  H   UNL A   1      43.975  28.372  31.136  1.00  0.00     0.167 HD
ATOM     55  C   UNL A   1      45.603  26.100  30.661  1.00  0.00     0.074 A 
ATOM     56  C   UNL A   1      46.068  24.834  30.130  1.00  0.00     0.031 C 
ATOM     57  C   UNL A   1      46.307  26.873  31.524  1.00  0.00     0.037 A 
BRANCH  44  58
ATOM     58  C   UNL A   1      43.478  32.147  33.060  1.00  0.00     0.064 A 
ATOM     59  C   UNL A   1      42.937  32.323  34.343  1.00  0.00     0.173 A 
ATOM     60  C   UNL A   1      44.111  33.244  32.459  1.00  0.00     0.173 A 
ATOM     61  F   UNL A   1      42.312  31.309  34.958  1.00  0.00    -0.203 F 
ATOM     62  C   UNL A   1      42.994  33.561  34.981  1.00  0.00     0.198 A 
ATOM     63  C   UNL A   1      44.193  34.471  33.112  1.00  0.00     0.198 A 
ATOM     64  F   UNL A   1      44.650  33.129  31.236  1.00  0.00    -0.203 F 
ATOM     65  F   UNL A   1      42.420  33.720  36.180  1.00  0.00    -0.200 F 
ATOM     66  C   UNL A   1      43.625  34.632  34.367  1.00  0.00     0.200 A 
ATOM     67  F   UNL A   1      44.812  35.503  32.523  1.00  0.00    -0.200 F 
ATOM     68  F   UNL A   1      43.678  35.821  34.982  1.00  0.00    -0.200 F 
ENDBRANCH  44  58
BRANCH  45  69
ATOM     69  C   UNL A   1      42.815  23.808  27.635  1.00  0.00     0.064 A 
ATOM     70  C   UNL A   1      42.385  22.580  28.153  1.00  0.00     0.173 A 
ATOM     71  C   UNL A   1      43.136  23.868  26.271  1.00  0.00     0.173 A 
ATOM     72  F   UNL A   1      42.085  22.472  29.456  1.00  0.00    -0.203 F 
ATOM     73  C   UNL A   1      42.283  21.453  27.340  1.00  0.00     0.198 A 
ATOM     74  C   UNL A   1      43.011  22.747  25.454  1.00  0.00     0.198 A 
ATOM     75  F   UNL A   1      43.545  25.024  25.728  1.00  0.00    -0.203 F 
ATOM     76  F   UNL A   1      41.894  20.284  27.866  1.00  0.00    -0.200 F 
ATOM     77  C   UNL A   1      42.589  21.539  25.991  1.00  0.00     0.200 A 
ATOM     78  F   UNL A   1      43.293  22.837  24.147  1.00  0.00    -0.200 F 
ATOM     79  F   UNL A   1      42.477  20.458  25.206  1.00  0.00    -0.200 F 
ENDBRANCH  45  69
BRANCH  57  80
ATOM     80  C   UNL A   1      47.652  26.368  31.955  1.00  0.00     0.064 A 
ATOM     81  C   UNL A   1      47.791  25.501  33.049  1.00  0.00     0.173 A 
ATOM     82  C   UNL A   1      48.807  26.722  31.244  1.00  0.00     0.173 A 
ATOM     83  F   UNL A   1      46.718  25.146  33.771  1.00  0.00    -0.203 F 
ATOM     84  C   UNL A   1      49.044  25.025  33.428  1.00  0.00     0.198 A 
ATOM     85  C   UNL A   1      50.054  26.223  31.609  1.00  0.00     0.198 A 
ATOM     86  F   UNL A   1      48.726  27.544  30.186  1.00  0.00    -0.203 F 
ATOM     87  F   UNL A   1      49.160  24.233  34.502  1.00  0.00    -0.200 F 
ATOM     88  C   UNL A   1      50.172  25.381  32.704  1.00  0.00     0.200 A 
ATOM     89  F   UNL A   1      51.142  26.558  30.902  1.00  0.00    -0.200 F 
ATOM     90  F   UNL A   1      51.376  24.917  33.066  1.00  0.00    -0.200 F 
ENDBRANCH  57  80
ENDBRANCH  31  32
ENDBRANCH  23  26
ENDBRANCH  21  22
ENDBRANCH  20  21
ENDBRANCH   1  20
TORSDOF 13
ENDMDL
MODEL 2
REMARK VINA RESULT:     -10.1      5.107      9.559
REMARK SMILES C[C@H](Nc1ccc(F)cc1Br)[C@@H](C)C(=O)NCCCNC(=O)c1ccc(-c2c3nc(c(-c4c(F)c(F)c(F)c(F)c4F)c4ccc([nH]4)c(-c4c(F)c(F)c(F)c(F)c4F)c4nc(c(-c5c(F)c(F)c(F)c(F)c5F)c5ccc2[nH]5)C=C4)C=C3)cc1
REMARK SMILES IDX 17 1 16 2 14 3 15 4 12 6 13 7 2 8 1 9 3 10 4 12 5 13 10 14
REMARK SMILES IDX 6 15 9 16 11 17 7 18 8 19 18 20 19 21 20 22 21 23 22 25
REMARK SMILES IDX 23 26 24 27 85 28 25 29 84 30 26 31 27 32 28 33 78 34 29 35
REMARK SMILES IDX 83 36 77 37 79 38 30 39 82 40 76 41 75 42 31 44 63 45 43 46
REMARK SMILES IDX 62 47 44 48 47 49 61 50 80 51 45 52 46 53 60 55 81 56 48 57
REMARK SMILES IDX 32 58 33 59 41 60 34 61 35 62 39 63 42 64 36 65 37 66 40 67
REMARK SMILES IDX 38 68 64 69 65 70 73 71 66 72 67 73 71 74 74 75 68 76 69 77
REMARK SMILES IDX 72 78 70 79 49 80 50 81 58 82 51 83 52 84 56 85 59 86 53 87
REMARK SMILES IDX 54 88 57 89 55 90
REMARK H PARENT 16 5 3 11 20 24 79 43 47 54
REMARK Flexibility Score: inf
ROOT
ATOM      1  C   UNL A   1      36.547  20.355  25.020  1.00  0.00     0.117 C 
ENDROOT
BRANCH   1   2
ATOM      2  N   UNL A   1      36.860  21.717  25.419  1.00  0.00    -0.356 N 
ATOM      3  C   UNL A   1      36.105  22.847  25.481  1.00  0.00     0.224 C 
ATOM      4  O   UNL A   1      36.674  23.875  25.859  1.00  0.00    -0.275 OA
ATOM      5  H   UNL A   1      37.795  21.845  25.697  1.00  0.00     0.163 HD
BRANCH   3   6
ATOM      6  C   UNL A   1      34.626  22.887  25.102  1.00  0.00     0.097 C 
ATOM      7  C   UNL A   1      34.449  23.119  23.600  1.00  0.00     0.020 C 
BRANCH   6   8
ATOM      8  C   UNL A   1      33.840  23.831  26.027  1.00  0.00     0.088 C 
ATOM      9  C   UNL A   1      32.859  23.045  26.911  1.00  0.00     0.031 C 
BRANCH   8  10
ATOM     10  N   UNL A   1      33.074  24.822  25.264  1.00  0.00    -0.381 N 
ATOM     11  H   UNL A   1      32.691  24.589  24.387  1.00  0.00     0.160 HD
BRANCH  10  12
ATOM     12  C   UNL A   1      32.896  26.102  25.794  1.00  0.00     0.049 A 
ATOM     13  C   UNL A   1      33.998  26.944  26.013  1.00  0.00     0.030 A 
ATOM     14  C   UNL A   1      31.627  26.564  26.199  1.00  0.00     0.044 A 
ATOM     15  C   UNL A   1      33.848  28.191  26.620  1.00  0.00     0.041 A 
ATOM     16  C   UNL A   1      31.472  27.809  26.813  1.00  0.00     0.057 A 
ATOM     17  Br  UNL A   1      30.075  25.493  25.958  1.00  0.00    -0.048 Br
ATOM     18  C   UNL A   1      32.587  28.608  27.020  1.00  0.00     0.124 A 
ATOM     19  F   UNL A   1      32.447  29.798  27.619  1.00  0.00    -0.207 F 
ENDBRANCH  10  12
ENDBRANCH   8  10
ENDBRANCH   6   8
ENDBRANCH   3   6
ENDBRANCH   1   2
BRANCH   1  20
ATOM     20  C   UNL A   1      37.778  19.453  24.984  1.00  0.00     0.042 C 
BRANCH  20  21
ATOM     21  C   UNL A   1      39.041  20.092  25.549  1.00  0.00     0.118 C 
BRANCH  21  22
ATOM     22  N   UNL A   1      40.097  19.121  25.794  1.00  0.00    -0.352 N 
ATOM     23  C   UNL A   1      41.423  19.298  26.091  1.00  0.00     0.251 C 
ATOM     24  H   UNL A   1      39.810  18.181  25.738  1.00  0.00     0.163 HD
ATOM     25  O   UNL A   1      42.180  18.328  26.064  1.00  0.00    -0.269 OA
BRANCH  23  26
ATOM     26  C   UNL A   1      41.965  20.634  26.428  1.00  0.00     0.039 A 
ATOM     27  C   UNL A   1      42.273  21.515  25.385  1.00  0.00     0.014 A 
ATOM     28  C   UNL A   1      42.223  21.009  27.748  1.00  0.00     0.014 A 
ATOM     29  C   UNL A   1      42.778  22.785  25.669  1.00  0.00     0.010 A 
ATOM     30  C   UNL A   1      42.650  22.304  28.035  1.00  0.00     0.010 A 
ATOM     31  C   UNL A   1      42.940  23.202  26.998  1.00  0.00    -0.014 A 
BRANCH  31  32
ATOM     32  C   UNL A   1      43.413  24.572  27.323  1.00  0.00     0.031 A 
ATOM     33  C   UNL A   1      42.444  25.621  27.794  1.00  0.00     0.074 A 
ATOM     34  C   UNL A   1      44.704  24.895  27.115  1.00  0.00     0.049 A 
ATOM     35  N   UNL A   1      42.654  26.887  28.053  1.00  0.00    -0.248 NA
ATOM     36  C   UNL A   1      41.045  25.197  27.962  1.00  0.00     0.031 C 
ATOM     37  C   UNL A   1      45.727  23.989  26.596  1.00  0.00     0.029 A 
ATOM     38  N   UNL A   1      45.370  26.082  27.296  1.00  0.00    -0.354 N 
ATOM     39  C   UNL A   1      41.412  27.415  28.385  1.00  0.00     0.074 A 
ATOM     40  C   UNL A   1      40.448  26.344  28.252  1.00  0.00     0.031 C 
ATOM     41  C   UNL A   1      46.894  24.646  26.510  1.00  0.00     0.029 A 
ATOM     42  C   UNL A   1      46.694  26.028  26.940  1.00  0.00     0.049 A 
ATOM     43  H   UNL A   1      44.939  26.894  27.648  1.00  0.00     0.167 HD
ATOM     44  C   UNL A   1      41.109  28.674  28.783  1.00  0.00     0.037 A 
ATOM     45  C   UNL A   1      47.641  26.984  26.950  1.00  0.00     0.037 A 
ATOM     46  C   UNL A   1      42.078  29.725  28.956  1.00  0.00     0.049 A 
ATOM     47  C   UNL A   1      47.292  28.361  27.441  1.00  0.00     0.074 A 
ATOM     48  C   UNL A   1      41.887  31.001  29.454  1.00  0.00     0.029 A 
ATOM     49  N   UNL A   1      43.422  29.619  28.629  1.00  0.00    -0.354 N 
ATOM     50  N   UNL A   1      46.133  28.826  27.841  1.00  0.00    -0.248 NA
ATOM     51  C   UNL A   1      48.383  29.343  27.493  1.00  0.00     0.031 C 
ATOM     52  C   UNL A   1      43.108  31.684  29.389  1.00  0.00     0.029 A 
ATOM     53  C   UNL A   1      44.068  30.817  28.891  1.00  0.00     0.049 A 
ATOM     54  H   UNL A   1      43.854  28.813  28.266  1.00  0.00     0.167 HD
ATOM     55  C   UNL A   1      46.356  30.146  28.205  1.00  0.00     0.074 A 
ATOM     56  C   UNL A   1      47.766  30.403  27.996  1.00  0.00     0.031 C 
ATOM     57  C   UNL A   1      45.471  31.062  28.669  1.00  0.00     0.037 A 
BRANCH  44  58
ATOM     58  C   UNL A   1      39.665  28.984  29.056  1.00  0.00     0.064 A 
ATOM     59  C   UNL A   1      39.111  28.852  30.339  1.00  0.00     0.173 A 
ATOM     60  C   UNL A   1      38.829  29.432  28.024  1.00  0.00     0.173 A 
ATOM     61  F   UNL A   1      39.865  28.416  31.359  1.00  0.00    -0.203 F 
ATOM     62  C   UNL A   1      37.764  29.120  30.569  1.00  0.00     0.198 A 
ATOM     63  C   UNL A   1      37.490  29.729  28.264  1.00  0.00     0.198 A 
ATOM     64  F   UNL A   1      39.308  29.582  26.780  1.00  0.00    -0.203 F 
ATOM     65  F   UNL A   1      37.244  28.931  31.789  1.00  0.00    -0.200 F 
ATOM     66  C   UNL A   1      36.956  29.563  29.533  1.00  0.00     0.200 A 
ATOM     67  F   UNL A   1      36.712  30.168  27.265  1.00  0.00    -0.200 F 
ATOM     68  F   UNL A   1      35.660  29.821  29.756  1.00  0.00    -0.200 F 
ENDBRANCH  44  58
BRANCH  45  69
ATOM     69  C   UNL A   1      49.017  26.652  26.506  1.00  0.00     0.064 A 
ATOM     70  C   UNL A   1      49.422  26.880  25.185  1.00  0.00     0.173 A 
ATOM     71  C   UNL A   1      49.965  26.135  27.401  1.00  0.00     0.173 A 
ATOM     72  F   UNL A   1      48.544  27.357  24.289  1.00  0.00    -0.203 F 
ATOM     73  C   UNL A   1      50.722  26.599  24.772  1.00  0.00     0.198 A 
ATOM     74  C   UNL A   1      51.272  25.875  26.994  1.00  0.00     0.198 A 
ATOM     75  F   UNL A   1      49.627  25.907  28.679  1.00  0.00    -0.203 F 
ATOM     76  F   UNL A   1      51.076  26.801  23.496  1.00  0.00    -0.200 F 
ATOM     77  C   UNL A   1      51.647  26.103  25.678  1.00  0.00     0.200 A 
ATOM     78  F   UNL A   1      52.167  25.411  27.876  1.00  0.00    -0.200 F 
ATOM     79  F   UNL A   1      52.903  25.845  25.284  1.00  0.00    -0.200 F 
ENDBRANCH  45  69
BRANCH  57  80
ATOM     80  C   UNL A   1      46.004  32.426  28.993  1.00  0.00     0.064 A 
ATOM     81  C   UNL A   1      46.048  33.443  28.029  1.00  0.00     0.173 A 
ATOM     82  C   UNL A   1      46.439  32.731  30.291  1.00  0.00     0.173 A 
ATOM     83  F   UNL A   1      45.658  33.196  26.768  1.00  0.00    -0.203 F 
ATOM     84  C   UNL A   1      46.529  34.710  28.347  1.00  0.00     0.198 A 
ATOM     85  C   UNL A   1      46.894  34.006  30.613  1.00  0.00     0.198 A 
ATOM     86  F   UNL A   1      46.411  31.794  31.252  1.00  0.00    -0.203 F 
ATOM     87  F   UNL A   1      46.603  35.654  27.399  1.00  0.00    -0.200 F 
ATOM     88  C   UNL A   1      46.945  34.992  29.640  1.00  0.00     0.200 A 
ATOM     89  F   UNL A   1      47.285  34.280  31.866  1.00  0.00    -0.200 F 
ATOM     90  F   UNL A   1      47.402  36.214  29.947  1.00  0.00    -0.200 F 
ENDBRANCH  57  80
ENDBRANCH  31  32
ENDBRANCH  23  26
ENDBRANCH  21  22
ENDBRANCH  20  21
ENDBRANCH   1  20
TORSDOF 13
ENDMDL
MODEL 3
REMARK VINA RESULT:      -9.9      4.759     10.357
REMARK SMILES C[C@H](Nc1ccc(F)cc1Br)[C@@H](C)C(=O)NCCCNC(=O)c1ccc(-c2c3nc(c(-c4c(F)c(F)c(F)c(F)c4F)c4ccc([nH]4)c(-c4c(F)c(F)c(F)c(F)c4F)c4nc(c(-c5c(F)c(F)c(F)c(F)c5F)c5ccc2[nH]5)C=C4)C=C3)cc1
REMARK SMILES IDX 17 1 16 2 14 3 15 4 12 6 13 7 2 8 1 9 3 10 4 12 5 13 10 14
REMARK SMILES IDX 6 15 9 16 11 17 7 18 8 19 18 20 19 21 20 22 21 23 22 25
REMARK SMILES IDX 23 26 24 27 85 28 25 29 84 30 26 31 27 32 28 33 78 34 29 35
REMARK SMILES IDX 83 36 77 37 79 38 30 39 82 40 76 41 75 42 31 44 63 45 43 46
REMARK SMILES IDX 62 47 44 48 47 49 61 50 80 51 45 52 46 53 60 55 81 56 48 57
REMARK SMILES IDX 32 58 33 59 41 60 34 61 35 62 39 63 42 64 36 65 37 66 40 67
REMARK SMILES IDX 38 68 64 69 65 70 73 71 66 72 67 73 71 74 74 75 68 76 69 77
REMARK SMILES IDX 72 78 70 79 49 80 50 81 58 82 51 83 52 84 56 85 59 86 53 87
REMARK SMILES IDX 54 88 57 89 55 90
REMARK H PARENT 16 5 3 11 20 24 79 43 47 54
REMARK Flexibility Score: inf
ROOT
ATOM      1  C   UNL A   1      31.458  30.375  26.109  1.00  0.00     0.117 C 
ENDROOT
BRANCH   1   2
ATOM      2  N   UNL A   1      32.308  30.140  24.954  1.00  0.00    -0.356 N 
ATOM      3  C   UNL A   1      32.839  29.003  24.427  1.00  0.00     0.224 C 
ATOM      4  O   UNL A   1      33.545  29.134  23.423  1.00  0.00    -0.275 OA
ATOM      5  H   UNL A   1      32.544  30.957  24.460  1.00  0.00     0.163 HD
BRANCH   3   6
ATOM      6  C   UNL A   1      32.605  27.617  25.023  1.00  0.00     0.097 C 
ATOM      7  C   UNL A   1      33.831  27.139  25.803  1.00  0.00     0.020 C 
BRANCH   6   8
ATOM      8  C   UNL A   1      32.057  26.642  23.966  1.00  0.00     0.088 C 
ATOM      9  C   UNL A   1      33.201  25.943  23.215  1.00  0.00     0.031 C 
BRANCH   8  10
ATOM     10  N   UNL A   1      31.217  27.330  22.980  1.00  0.00    -0.381 N 
ATOM     11  H   UNL A   1      31.607  27.665  22.140  1.00  0.00     0.160 HD
BRANCH  10  12
ATOM     12  C   UNL A   1      29.857  27.507  23.248  1.00  0.00     0.049 A 
ATOM     13  C   UNL A   1      29.122  26.504  23.900  1.00  0.00     0.030 A 
ATOM     14  C   UNL A   1      29.161  28.651  22.810  1.00  0.00     0.044 A 
ATOM     15  C   UNL A   1      27.747  26.627  24.099  1.00  0.00     0.041 A 
ATOM     16  C   UNL A   1      27.783  28.777  23.001  1.00  0.00     0.057 A 
ATOM     17  Br  UNL A   1      30.065  30.058  21.905  1.00  0.00    -0.048 Br
ATOM     18  C   UNL A   1      27.090  27.760  23.641  1.00  0.00     0.124 A 
ATOM     19  F   UNL A   1      25.767  27.869  23.818  1.00  0.00    -0.207 F 
ENDBRANCH  10  12
ENDBRANCH   8  10
ENDBRANCH   6   8
ENDBRANCH   3   6
ENDBRANCH   1   2
BRANCH   1  20
ATOM     20  C   UNL A   1      31.372  31.852  26.486  1.00  0.00     0.042 C 
BRANCH  20  21
ATOM     21  C   UNL A   1      32.596  32.385  27.219  1.00  0.00     0.118 C 
BRANCH  21  22
ATOM     22  N   UNL A   1      32.460  33.786  27.589  1.00  0.00    -0.352 N 
ATOM     23  C   UNL A   1      33.115  34.528  28.538  1.00  0.00     0.251 C 
ATOM     24  H   UNL A   1      31.786  34.283  27.072  1.00  0.00     0.163 HD
ATOM     25  O   UNL A   1      32.697  35.652  28.814  1.00  0.00    -0.269 OA
BRANCH  23  26
ATOM     26  C   UNL A   1      34.301  33.998  29.245  1.00  0.00     0.039 A 
ATOM     27  C   UNL A   1      34.105  33.182  30.365  1.00  0.00     0.014 A 
ATOM     28  C   UNL A   1      35.599  34.336  28.856  1.00  0.00     0.014 A 
ATOM     29  C   UNL A   1      35.204  32.659  31.051  1.00  0.00     0.010 A 
ATOM     30  C   UNL A   1      36.693  33.751  29.489  1.00  0.00     0.010 A 
ATOM     31  C   UNL A   1      36.507  32.913  30.598  1.00  0.00    -0.014 A 
BRANCH  31  32
ATOM     32  C   UNL A   1      37.687  32.313  31.273  1.00  0.00     0.031 A 
ATOM     33  C   UNL A   1      38.425  31.167  30.639  1.00  0.00     0.074 A 
ATOM     34  C   UNL A   1      38.043  32.747  32.497  1.00  0.00     0.049 A 
ATOM     35  N   UNL A   1      39.427  30.466  31.108  1.00  0.00    -0.248 NA
ATOM     36  C   UNL A   1      37.951  30.728  29.317  1.00  0.00     0.031 C 
ATOM     37  C   UNL A   1      37.365  33.803  33.247  1.00  0.00     0.029 A 
ATOM     38  N   UNL A   1      39.052  32.339  33.333  1.00  0.00    -0.354 N 
ATOM     39  C   UNL A   1      39.682  29.488  30.154  1.00  0.00     0.074 A 
ATOM     40  C   UNL A   1      38.703  29.659  29.102  1.00  0.00     0.031 C 
ATOM     41  C   UNL A   1      37.982  33.969  34.428  1.00  0.00     0.029 A 
ATOM     42  C   UNL A   1      39.080  33.011  34.529  1.00  0.00     0.049 A 
ATOM     43  H   UNL A   1      39.695  31.631  33.097  1.00  0.00     0.167 HD
ATOM     44  C   UNL A   1      40.657  28.547  30.149  1.00  0.00     0.037 A 
ATOM     45  C   UNL A   1      39.893  32.868  35.592  1.00  0.00     0.037 A 
ATOM     46  C   UNL A   1      41.655  28.409  31.177  1.00  0.00     0.049 A 
ATOM     47  C   UNL A   1      40.996  31.850  35.544  1.00  0.00     0.074 A 
ATOM     48  C   UNL A   1      42.745  27.558  31.212  1.00  0.00     0.029 A 
ATOM     49  N   UNL A   1      41.680  29.141  32.355  1.00  0.00    -0.354 N 
ATOM     50  N   UNL A   1      41.287  30.991  34.597  1.00  0.00    -0.248 NA
ATOM     51  C   UNL A   1      41.892  31.787  36.707  1.00  0.00     0.031 C 
ATOM     52  C   UNL A   1      43.406  27.744  32.432  1.00  0.00     0.029 A 
ATOM     53  C   UNL A   1      42.753  28.743  33.137  1.00  0.00     0.049 A 
ATOM     54  H   UNL A   1      41.032  29.841  32.600  1.00  0.00     0.167 HD
ATOM     55  C   UNL A   1      42.404  30.297  35.039  1.00  0.00     0.074 A 
ATOM     56  C   UNL A   1      42.750  30.848  36.334  1.00  0.00     0.031 C 
ATOM     57  C   UNL A   1      43.080  29.293  34.428  1.00  0.00     0.037 A 
BRANCH  44  58
ATOM     58  C   UNL A   1      40.687  27.590  28.993  1.00  0.00     0.064 A 
ATOM     59  C   UNL A   1      39.833  26.477  28.934  1.00  0.00     0.173 A 
ATOM     60  C   UNL A   1      41.569  27.796  27.923  1.00  0.00     0.173 A 
ATOM     61  F   UNL A   1      38.978  26.228  29.936  1.00  0.00    -0.203 F 
ATOM     62  C   UNL A   1      39.891  25.585  27.864  1.00  0.00     0.198 A 
ATOM     63  C   UNL A   1      41.603  26.920  26.841  1.00  0.00     0.198 A 
ATOM     64  F   UNL A   1      42.403  28.848  27.926  1.00  0.00    -0.203 F 
ATOM     65  F   UNL A   1      39.108  24.499  27.858  1.00  0.00    -0.200 F 
ATOM     66  C   UNL A   1      40.772  25.810  26.818  1.00  0.00     0.200 A 
ATOM     67  F   UNL A   1      42.447  27.144  25.825  1.00  0.00    -0.200 F 
ATOM     68  F   UNL A   1      40.826  24.952  25.791  1.00  0.00    -0.200 F 
ENDBRANCH  44  58
BRANCH  45  69
ATOM     69  C   UNL A   1      39.701  33.740  36.778  1.00  0.00     0.064 A 
ATOM     70  C   UNL A   1      40.323  34.992  36.859  1.00  0.00     0.173 A 
ATOM     71  C   UNL A   1      38.864  33.354  37.835  1.00  0.00     0.173 A 
ATOM     72  F   UNL A   1      41.147  35.394  35.879  1.00  0.00    -0.203 F 
ATOM     73  C   UNL A   1      40.121  35.826  37.956  1.00  0.00     0.198 A 
ATOM     74  C   UNL A   1      38.643  34.199  38.921  1.00  0.00     0.198 A 
ATOM     75  F   UNL A   1      38.240  32.168  37.799  1.00  0.00    -0.203 F 
ATOM     76  F   UNL A   1      40.749  37.008  38.021  1.00  0.00    -0.200 F 
ATOM     77  C   UNL A   1      39.275  35.432  38.982  1.00  0.00     0.200 A 
ATOM     78  F   UNL A   1      37.813  33.822  39.903  1.00  0.00    -0.200 F 
ATOM     79  F   UNL A   1      39.070  36.241  40.031  1.00  0.00    -0.200 F 
ENDBRANCH  45  69
BRANCH  57  80
ATOM     80  C   UNL A   1      44.271  28.733  35.148  1.00  0.00     0.064 A 
ATOM     81  C   UNL A   1      44.153  27.632  36.009  1.00  0.00     0.173 A 
ATOM     82  C   UNL A   1      45.547  29.276  34.944  1.00  0.00     0.173 A 
ATOM     83  F   UNL A   1      42.951  27.087  36.249  1.00  0.00    -0.203 F 
ATOM     84  C   UNL A   1      45.269  27.110  36.658  1.00  0.00     0.198 A 
ATOM     85  C   UNL A   1      46.664  28.736  35.573  1.00  0.00     0.198 A 
ATOM     86  F   UNL A   1      45.713  30.326  34.125  1.00  0.00    -0.203 F 
ATOM     87  F   UNL A   1      45.128  26.086  37.510  1.00  0.00    -0.200 F 
ATOM     88  C   UNL A   1      46.524  27.657  36.434  1.00  0.00     0.200 A 
ATOM     89  F   UNL A   1      47.878  29.258  35.347  1.00  0.00    -0.200 F 
ATOM     90  F   UNL A   1      47.598  27.150  37.054  1.00  0.00    -0.200 F 
ENDBRANCH  57  80
ENDBRANCH  31  32
ENDBRANCH  23  26
ENDBRANCH  21  22
ENDBRANCH  20  21
ENDBRANCH   1  20
TORSDOF 13
ENDMDL
