MODEL 1
REMARK VINA RESULT:     -14.2      0.000      0.000
REMARK SMILES Cc1c(-c2nn(-c3ccccc3)cc2/C=N/O)nnn1-c1ccc(C(=O)NCCCNC(=O)c2ccc(-c3c4nc(c(-c5c(F)c(F)c(F)c(F)c5F)c5ccc([nH]5)c(-c5c(F)c(F)c(F)c(F)c5F)c5nc(c(-c6c(F)c(F)c(F)c(F)c6F)c6ccc3[nH]6)C=C5)C=C4)cc2)cc1
REMARK SMILES IDX 28 1 27 2 25 3 26 4 24 6 21 7 22 8 98 9 23 10 97 11 20 12
REMARK SMILES IDX 1 13 2 14 3 15 18 16 19 17 4 18 5 19 14 20 6 21 13 22 15 23
REMARK SMILES IDX 16 24 17 25 7 27 8 28 12 29 9 30 11 31 10 32 29 33 30 34
REMARK SMILES IDX 31 35 32 36 33 38 34 39 35 40 96 41 36 42 95 43 37 44 38 45
REMARK SMILES IDX 39 46 89 47 40 48 94 49 88 50 90 51 41 52 93 53 87 54 86 55
REMARK SMILES IDX 42 57 74 58 54 59 73 60 55 61 58 62 72 63 91 64 56 65 57 66
REMARK SMILES IDX 71 68 92 69 59 70 43 71 44 72 52 73 45 74 46 75 50 76 53 77
REMARK SMILES IDX 47 78 48 79 51 80 49 81 75 82 76 83 84 84 77 85 78 86 82 87
REMARK SMILES IDX 85 88 79 89 80 90 83 91 81 92 60 93 61 94 69 95 62 96 63 97
REMARK SMILES IDX 67 98 70 99 64 100 65 101 68 102 66 103
REMARK H PARENT 27 5 17 26 31 37 90 56 58 67
REMARK Flexibility Score: inf
ROOT
ATOM      1  C   UNL A   1      38.146  21.396  25.125  1.00  0.00     0.118 C 
ENDROOT
BRANCH   1   2
ATOM      2  N   UNL A   1      37.239  20.269  24.965  1.00  0.00    -0.352 N 
ATOM      3  C   UNL A   1      35.870  20.163  24.999  1.00  0.00     0.251 C 
ATOM      4  O   UNL A   1      35.387  19.057  24.755  1.00  0.00    -0.269 OA
ATOM      5  H   UNL A   1      37.698  19.414  24.799  1.00  0.00     0.163 HD
BRANCH   3   6
ATOM      6  C   UNL A   1      34.953  21.312  25.265  1.00  0.00     0.039 A 
ATOM      7  C   UNL A   1      33.238  23.516  25.554  1.00  0.00     0.067 A 
ATOM      8  C   UNL A   1      33.052  22.636  24.487  1.00  0.00     0.029 A 
ATOM      9  C   UNL A   1      34.215  23.261  26.516  1.00  0.00     0.029 A 
ATOM     10  C   UNL A   1      33.931  21.559  24.330  1.00  0.00     0.016 A 
ATOM     11  C   UNL A   1      35.031  22.138  26.390  1.00  0.00     0.016 A 
BRANCH   7  12
ATOM     12  N   UNL A   1      32.429  24.662  25.675  1.00  0.00    -0.217 N 
ATOM     13  C   UNL A   1      33.331  26.083  23.765  1.00  0.00     0.069 C 
ATOM     14  C   UNL A   1      32.533  25.858  24.994  1.00  0.00     0.071 A 
ATOM     15  C   UNL A   1      31.649  26.676  25.667  1.00  0.00     0.137 A 
ATOM     16  N   UNL A   1      30.979  25.966  26.619  1.00  0.00    -0.128 NA
ATOM     17  N   UNL A   1      31.409  24.710  26.563  1.00  0.00    -0.061 NA
BRANCH  15  18
ATOM     18  C   UNL A   1      31.319  28.064  25.374  1.00  0.00     0.124 A 
ATOM     19  N   UNL A   1      30.333  28.379  24.528  1.00  0.00    -0.165 NA
ATOM     20  C   UNL A   1      32.003  29.202  25.859  1.00  0.00     0.044 A 
ATOM     21  N   UNL A   1      30.431  29.715  24.376  1.00  0.00    -0.240 N 
ATOM     22  C   UNL A   1      31.427  30.249  25.164  1.00  0.00     0.125 A 
BRANCH  20  23
ATOM     23  C   UNL A   1      33.060  29.342  26.829  1.00  0.00     0.166 C 
ATOM     24  N   UNL A   1      33.350  30.504  27.312  1.00  0.00    -0.097 NA
BRANCH  24  25
ATOM     25  O   UNL A   1      34.424  30.377  28.202  1.00  0.00    -0.411 OA
ATOM     26  H   UNL A   1      34.311  30.593  29.107  1.00  0.00     0.330 HD
ENDBRANCH  24  25
ENDBRANCH  20  23
BRANCH  21  27
ATOM     27  C   UNL A   1      29.601  30.393  23.455  1.00  0.00     0.065 A 
ATOM     28  C   UNL A   1      29.261  29.760  22.251  1.00  0.00     0.028 A 
ATOM     29  C   UNL A   1      29.153  31.693  23.720  1.00  0.00     0.028 A 
ATOM     30  C   UNL A   1      28.454  30.420  21.325  1.00  0.00     0.002 A 
ATOM     31  C   UNL A   1      28.388  32.363  22.764  1.00  0.00     0.002 A 
ATOM     32  C   UNL A   1      28.031  31.725  21.575  1.00  0.00     0.000 A 
ENDBRANCH  21  27
ENDBRANCH  15  18
ENDBRANCH   7  12
ENDBRANCH   3   6
ENDBRANCH   1   2
BRANCH   1  33
ATOM     33  C   UNL A   1      39.349  21.039  26.008  1.00  0.00     0.042 C 
BRANCH  33  34
ATOM     34  C   UNL A   1      40.077  22.268  26.526  1.00  0.00     0.118 C 
BRANCH  34  35
ATOM     35  N   UNL A   1      41.403  22.418  25.923  1.00  0.00    -0.352 N 
ATOM     36  C   UNL A   1      42.155  23.567  25.752  1.00  0.00     0.251 C 
ATOM     37  H   UNL A   1      41.816  21.588  25.594  1.00  0.00     0.163 HD
ATOM     38  O   UNL A   1      43.061  23.604  24.940  1.00  0.00    -0.269 OA
BRANCH  36  39
ATOM     39  C   UNL A   1      41.827  24.751  26.565  1.00  0.00     0.039 A 
ATOM     40  C   UNL A   1      42.353  24.907  27.849  1.00  0.00     0.014 A 
ATOM     41  C   UNL A   1      41.024  25.734  25.998  1.00  0.00     0.014 A 
ATOM     42  C   UNL A   1      42.139  26.112  28.515  1.00  0.00     0.010 A 
ATOM     43  C   UNL A   1      40.969  26.977  26.574  1.00  0.00     0.010 A 
ATOM     44  C   UNL A   1      41.472  27.159  27.856  1.00  0.00    -0.014 A 
BRANCH  44  45
ATOM     45  C   UNL A   1      41.399  28.487  28.457  1.00  0.00     0.031 A 
ATOM     46  C   UNL A   1      42.508  29.392  28.057  1.00  0.00     0.074 A 
ATOM     47  C   UNL A   1      40.326  28.941  29.144  1.00  0.00     0.049 A 
ATOM     48  N   UNL A   1      43.477  29.815  28.798  1.00  0.00    -0.248 NA
ATOM     49  C   UNL A   1      42.643  29.763  26.640  1.00  0.00     0.031 C 
ATOM     50  C   UNL A   1      39.029  28.274  29.316  1.00  0.00     0.029 A 
ATOM     51  N   UNL A   1      40.123  30.148  29.750  1.00  0.00    -0.354 N 
ATOM     52  C   UNL A   1      44.203  30.699  28.004  1.00  0.00     0.074 A 
ATOM     53  C   UNL A   1      43.777  30.468  26.650  1.00  0.00     0.031 C 
ATOM     54  C   UNL A   1      38.112  29.164  29.750  1.00  0.00     0.029 A 
ATOM     55  C   UNL A   1      38.798  30.397  30.085  1.00  0.00     0.049 A 
ATOM     56  H   UNL A   1      40.851  30.785  29.934  1.00  0.00     0.167 HD
ATOM     57  C   UNL A   1      44.847  31.754  28.578  1.00  0.00     0.037 A 
ATOM     58  C   UNL A   1      38.281  31.526  30.622  1.00  0.00     0.037 A 
ATOM     59  C   UNL A   1      44.897  31.596  30.009  1.00  0.00     0.049 A 
ATOM     60  C   UNL A   1      39.384  32.260  31.274  1.00  0.00     0.074 A 
ATOM     61  C   UNL A   1      45.631  30.873  30.922  1.00  0.00     0.029 A 
ATOM     62  N   UNL A   1      43.759  32.018  30.640  1.00  0.00    -0.354 N 
ATOM     63  N   UNL A   1      40.008  31.824  32.334  1.00  0.00    -0.248 NA
ATOM     64  C   UNL A   1      40.049  33.341  30.556  1.00  0.00     0.031 C 
ATOM     65  C   UNL A   1      44.822  30.770  32.095  1.00  0.00     0.029 A 
ATOM     66  C   UNL A   1      43.633  31.461  31.883  1.00  0.00     0.049 A 
ATOM     67  H   UNL A   1      43.111  32.646  30.248  1.00  0.00     0.167 HD
ATOM     68  C   UNL A   1      41.306  32.253  32.157  1.00  0.00     0.074 A 
ATOM     69  C   UNL A   1      41.233  33.324  31.174  1.00  0.00     0.031 C 
ATOM     70  C   UNL A   1      42.353  31.475  32.552  1.00  0.00     0.037 A 
BRANCH  57  71
ATOM     71  C   UNL A   1      44.966  33.141  27.975  1.00  0.00     0.064 A 
ATOM     72  C   UNL A   1      46.254  33.647  27.691  1.00  0.00     0.173 A 
ATOM     73  C   UNL A   1      43.932  34.101  27.986  1.00  0.00     0.173 A 
ATOM     74  F   UNL A   1      47.320  32.831  27.667  1.00  0.00    -0.203 F 
ATOM     75  C   UNL A   1      46.494  35.014  27.515  1.00  0.00     0.198 A 
ATOM     76  C   UNL A   1      44.168  35.457  27.761  1.00  0.00     0.198 A 
ATOM     77  F   UNL A   1      42.676  33.794  28.329  1.00  0.00    -0.203 F 
ATOM     78  F   UNL A   1      47.750  35.459  27.375  1.00  0.00    -0.200 F 
ATOM     79  C   UNL A   1      45.450  35.919  27.559  1.00  0.00     0.200 A 
ATOM     80  F   UNL A   1      43.145  36.322  27.829  1.00  0.00    -0.200 F 
ATOM     81  F   UNL A   1      45.682  37.234  27.454  1.00  0.00    -0.200 F 
ENDBRANCH  57  71
BRANCH  58  82
ATOM     82  C   UNL A   1      36.928  32.098  30.473  1.00  0.00     0.064 A 
ATOM     83  C   UNL A   1      35.999  32.059  31.523  1.00  0.00     0.173 A 
ATOM     84  C   UNL A   1      36.626  32.946  29.391  1.00  0.00     0.173 A 
ATOM     85  F   UNL A   1      36.232  31.300  32.602  1.00  0.00    -0.203 F 
ATOM     86  C   UNL A   1      34.850  32.856  31.510  1.00  0.00     0.198 A 
ATOM     87  C   UNL A   1      35.477  33.739  29.379  1.00  0.00     0.198 A 
ATOM     88  F   UNL A   1      37.490  33.090  28.376  1.00  0.00    -0.203 F 
ATOM     89  F   UNL A   1      34.017  32.844  32.561  1.00  0.00    -0.200 F 
ATOM     90  C   UNL A   1      34.599  33.706  30.446  1.00  0.00     0.200 A 
ATOM     91  F   UNL A   1      35.264  34.585  28.361  1.00  0.00    -0.200 F 
ATOM     92  F   UNL A   1      33.535  34.522  30.468  1.00  0.00    -0.200 F 
ENDBRANCH  58  82
BRANCH  70  93
ATOM     93  C   UNL A   1      42.100  30.476  33.635  1.00  0.00     0.064 A 
ATOM     94  C   UNL A   1      41.729  29.139  33.418  1.00  0.00     0.173 A 
ATOM     95  C   UNL A   1      42.298  30.889  34.959  1.00  0.00     0.173 A 
ATOM     96  F   UNL A   1      41.591  28.653  32.179  1.00  0.00    -0.203 F 
ATOM     97  C   UNL A   1      41.528  28.268  34.488  1.00  0.00     0.198 A 
ATOM     98  C   UNL A   1      42.132  30.009  36.022  1.00  0.00     0.198 A 
ATOM     99  F   UNL A   1      42.688  32.147  35.219  1.00  0.00    -0.203 F 
ATOM    100  F   UNL A   1      41.152  27.001  34.263  1.00  0.00    -0.200 F 
ATOM    101  C   UNL A   1      41.736  28.703  35.788  1.00  0.00     0.200 A 
ATOM    102  F   UNL A   1      42.373  30.425  37.273  1.00  0.00    -0.200 F 
ATOM    103  F   UNL A   1      41.571  27.858  36.815  1.00  0.00    -0.200 F 
ENDBRANCH  70  93
ENDBRANCH  44  45
ENDBRANCH  36  39
ENDBRANCH  34  35
ENDBRANCH  33  34
ENDBRANCH   1  33
TORSDOF 15
ENDMDL
MODEL 2
REMARK VINA RESULT:     -14.0      3.224      9.803
REMARK SMILES Cc1c(-c2nn(-c3ccccc3)cc2/C=N/O)nnn1-c1ccc(C(=O)NCCCNC(=O)c2ccc(-c3c4nc(c(-c5c(F)c(F)c(F)c(F)c5F)c5ccc([nH]5)c(-c5c(F)c(F)c(F)c(F)c5F)c5nc(c(-c6c(F)c(F)c(F)c(F)c6F)c6ccc3[nH]6)C=C5)C=C4)cc2)cc1
REMARK SMILES IDX 28 1 27 2 25 3 26 4 24 6 21 7 22 8 98 9 23 10 97 11 20 12
REMARK SMILES IDX 1 13 2 14 3 15 18 16 19 17 4 18 5 19 14 20 6 21 13 22 15 23
REMARK SMILES IDX 16 24 17 25 7 27 8 28 12 29 9 30 11 31 10 32 29 33 30 34
REMARK SMILES IDX 31 35 32 36 33 38 34 39 35 40 96 41 36 42 95 43 37 44 38 45
REMARK SMILES IDX 39 46 89 47 40 48 94 49 88 50 90 51 41 52 93 53 87 54 86 55
REMARK SMILES IDX 42 57 74 58 54 59 73 60 55 61 58 62 72 63 91 64 56 65 57 66
REMARK SMILES IDX 71 68 92 69 59 70 43 71 44 72 52 73 45 74 46 75 50 76 53 77
REMARK SMILES IDX 47 78 48 79 51 80 49 81 75 82 76 83 84 84 77 85 78 86 82 87
REMARK SMILES IDX 85 88 79 89 80 90 83 91 81 92 60 93 61 94 69 95 62 96 63 97
REMARK SMILES IDX 67 98 70 99 64 100 65 101 68 102 66 103
REMARK H PARENT 27 5 17 26 31 37 90 56 58 67
REMARK Flexibility Score: inf
ROOT
ATOM      1  C   UNL A   1      32.560  30.714  27.119  1.00  0.00     0.118 C 
ENDROOT
BRANCH   1   2
ATOM      2  N   UNL A   1      31.548  30.985  26.109  1.00  0.00    -0.352 N 
ATOM      3  C   UNL A   1      31.131  30.289  25.000  1.00  0.00     0.251 C 
ATOM      4  O   UNL A   1      30.185  30.759  24.367  1.00  0.00    -0.269 OA
ATOM      5  H   UNL A   1      31.068  31.832  26.248  1.00  0.00     0.163 HD
BRANCH   3   6
ATOM      6  C   UNL A   1      31.726  28.992  24.559  1.00  0.00     0.039 A 
ATOM      7  C   UNL A   1      32.711  26.455  23.871  1.00  0.00     0.067 A 
ATOM      8  C   UNL A   1      31.336  26.639  24.025  1.00  0.00     0.029 A 
ATOM      9  C   UNL A   1      33.584  27.537  23.977  1.00  0.00     0.029 A 
ATOM     10  C   UNL A   1      30.855  27.898  24.400  1.00  0.00     0.016 A 
ATOM     11  C   UNL A   1      33.080  28.803  24.273  1.00  0.00     0.016 A 
BRANCH   7  12
ATOM     12  N   UNL A   1      33.226  25.174  23.591  1.00  0.00    -0.217 N 
ATOM     13  C   UNL A   1      32.876  24.023  25.835  1.00  0.00     0.069 C 
ATOM     14  C   UNL A   1      33.437  24.127  24.466  1.00  0.00     0.071 A 
ATOM     15  C   UNL A   1      34.157  23.228  23.706  1.00  0.00     0.137 A 
ATOM     16  N   UNL A   1      34.264  23.674  22.422  1.00  0.00    -0.128 NA
ATOM     17  N   UNL A   1      33.621  24.834  22.343  1.00  0.00    -0.061 NA
BRANCH  15  18
ATOM     18  C   UNL A   1      34.642  21.915  24.104  1.00  0.00     0.124 A 
ATOM     19  N   UNL A   1      33.879  20.825  23.976  1.00  0.00    -0.165 NA
ATOM     20  C   UNL A   1      35.889  21.637  24.710  1.00  0.00     0.044 A 
ATOM     21  N   UNL A   1      34.577  19.848  24.589  1.00  0.00    -0.240 N 
ATOM     22  C   UNL A   1      35.797  20.298  25.044  1.00  0.00     0.125 A 
BRANCH  20  23
ATOM     23  C   UNL A   1      37.034  22.472  24.971  1.00  0.00     0.166 C 
ATOM     24  N   UNL A   1      38.022  22.022  25.670  1.00  0.00    -0.097 NA
BRANCH  24  25
ATOM     25  O   UNL A   1      38.986  23.029  25.805  1.00  0.00    -0.411 OA
ATOM     26  H   UNL A   1      39.673  22.939  26.436  1.00  0.00     0.330 HD
ENDBRANCH  24  25
ENDBRANCH  20  23
BRANCH  21  27
ATOM     27  C   UNL A   1      34.019  18.559  24.744  1.00  0.00     0.065 A 
ATOM     28  C   UNL A   1      34.564  17.489  24.020  1.00  0.00     0.028 A 
ATOM     29  C   UNL A   1      32.913  18.356  25.579  1.00  0.00     0.028 A 
ATOM     30  C   UNL A   1      34.017  16.214  24.151  1.00  0.00     0.002 A 
ATOM     31  C   UNL A   1      32.341  17.085  25.663  1.00  0.00     0.002 A 
ATOM     32  C   UNL A   1      32.897  16.015  24.960  1.00  0.00     0.000 A 
ENDBRANCH  21  27
ENDBRANCH  15  18
ENDBRANCH   7  12
ENDBRANCH   3   6
ENDBRANCH   1   2
BRANCH   1  33
ATOM     33  C   UNL A   1      33.242  32.002  27.603  1.00  0.00     0.042 C 
BRANCH  33  34
ATOM     34  C   UNL A   1      34.580  31.737  28.270  1.00  0.00     0.118 C 
BRANCH  34  35
ATOM     35  N   UNL A   1      34.616  32.228  29.648  1.00  0.00    -0.352 N 
ATOM     36  C   UNL A   1      35.414  31.812  30.699  1.00  0.00     0.251 C 
ATOM     37  H   UNL A   1      33.985  32.954  29.857  1.00  0.00     0.163 HD
ATOM     38  O   UNL A   1      35.105  32.054  31.852  1.00  0.00    -0.269 OA
BRANCH  36  39
ATOM     39  C   UNL A   1      36.642  31.056  30.396  1.00  0.00     0.039 A 
ATOM     40  C   UNL A   1      37.812  31.714  30.011  1.00  0.00     0.014 A 
ATOM     41  C   UNL A   1      36.618  29.675  30.554  1.00  0.00     0.014 A 
ATOM     42  C   UNL A   1      38.984  30.972  29.884  1.00  0.00     0.010 A 
ATOM     43  C   UNL A   1      37.799  28.982  30.608  1.00  0.00     0.010 A 
ATOM     44  C   UNL A   1      38.977  29.606  30.218  1.00  0.00    -0.014 A 
BRANCH  44  45
ATOM     45  C   UNL A   1      40.225  28.850  30.275  1.00  0.00     0.031 A 
ATOM     46  C   UNL A   1      40.793  28.725  31.642  1.00  0.00     0.074 A 
ATOM     47  C   UNL A   1      40.723  28.146  29.234  1.00  0.00     0.049 A 
ATOM     48  N   UNL A   1      41.862  29.285  32.100  1.00  0.00    -0.248 NA
ATOM     49  C   UNL A   1      40.017  28.008  32.668  1.00  0.00     0.031 C 
ATOM     50  C   UNL A   1      40.085  27.905  27.933  1.00  0.00     0.029 A 
ATOM     51  N   UNL A   1      41.864  27.400  29.148  1.00  0.00    -0.354 N 
ATOM     52  C   UNL A   1      42.023  28.797  33.394  1.00  0.00     0.074 A 
ATOM     53  C   UNL A   1      40.769  28.194  33.756  1.00  0.00     0.031 C 
ATOM     54  C   UNL A   1      40.709  26.891  27.298  1.00  0.00     0.029 A 
ATOM     55  C   UNL A   1      41.907  26.557  28.044  1.00  0.00     0.049 A 
ATOM     56  H   UNL A   1      42.591  27.455  29.809  1.00  0.00     0.167 HD
ATOM     57  C   UNL A   1      43.274  28.653  33.914  1.00  0.00     0.037 A 
ATOM     58  C   UNL A   1      42.864  25.652  27.736  1.00  0.00     0.037 A 
ATOM     59  C   UNL A   1      44.242  29.334  33.092  1.00  0.00     0.049 A 
ATOM     60  C   UNL A   1      44.097  26.039  28.449  1.00  0.00     0.074 A 
ATOM     61  C   UNL A   1      44.663  30.628  32.887  1.00  0.00     0.029 A 
ATOM     62  N   UNL A   1      44.662  28.592  32.022  1.00  0.00    -0.354 N 
ATOM     63  N   UNL A   1      44.775  27.120  28.175  1.00  0.00    -0.248 NA
ATOM     64  C   UNL A   1      44.420  25.403  29.721  1.00  0.00     0.031 C 
ATOM     65  C   UNL A   1      45.244  30.658  31.582  1.00  0.00     0.029 A 
ATOM     66  C   UNL A   1      45.196  29.378  31.039  1.00  0.00     0.049 A 
ATOM     67  H   UNL A   1      44.589  27.612  31.967  1.00  0.00     0.167 HD
ATOM     68  C   UNL A   1      45.262  27.528  29.398  1.00  0.00     0.074 A 
ATOM     69  C   UNL A   1      45.184  26.357  30.260  1.00  0.00     0.031 C 
ATOM     70  C   UNL A   1      45.352  28.854  29.702  1.00  0.00     0.037 A 
BRANCH  57  71
ATOM     71  C   UNL A   1      43.724  27.516  34.812  1.00  0.00     0.064 A 
ATOM     72  C   UNL A   1      43.639  26.193  34.324  1.00  0.00     0.173 A 
ATOM     73  C   UNL A   1      43.902  27.632  36.207  1.00  0.00     0.173 A 
ATOM     74  F   UNL A   1      43.454  25.958  33.016  1.00  0.00    -0.203 F 
ATOM     75  C   UNL A   1      43.647  25.084  35.177  1.00  0.00     0.198 A 
ATOM     76  C   UNL A   1      43.960  26.521  37.049  1.00  0.00     0.198 A 
ATOM     77  F   UNL A   1      43.908  28.815  36.831  1.00  0.00    -0.203 F 
ATOM     78  F   UNL A   1      43.436  23.858  34.680  1.00  0.00    -0.200 F 
ATOM     79  C   UNL A   1      43.800  25.251  36.540  1.00  0.00     0.200 A 
ATOM     80  F   UNL A   1      44.087  26.705  38.372  1.00  0.00    -0.200 F 
ATOM     81  F   UNL A   1      43.747  24.198  37.367  1.00  0.00    -0.200 F 
ENDBRANCH  57  71
BRANCH  58  82
ATOM     82  C   UNL A   1      42.744  24.381  26.993  1.00  0.00     0.064 A 
ATOM     83  C   UNL A   1      43.236  24.250  25.685  1.00  0.00     0.173 A 
ATOM     84  C   UNL A   1      42.400  23.192  27.662  1.00  0.00     0.173 A 
ATOM     85  F   UNL A   1      43.614  25.335  24.995  1.00  0.00    -0.203 F 
ATOM     86  C   UNL A   1      43.411  22.995  25.094  1.00  0.00     0.198 A 
ATOM     87  C   UNL A   1      42.575  21.940  27.071  1.00  0.00     0.198 A 
ATOM     88  F   UNL A   1      41.983  23.223  28.936  1.00  0.00    -0.203 F 
ATOM     89  F   UNL A   1      43.946  22.903  23.868  1.00  0.00    -0.200 F 
ATOM     90  C   UNL A   1      43.096  21.842  25.794  1.00  0.00     0.200 A 
ATOM     91  F   UNL A   1      42.302  20.830  27.770  1.00  0.00    -0.200 F 
ATOM     92  F   UNL A   1      43.333  20.637  25.254  1.00  0.00    -0.200 F 
ENDBRANCH  58  82
BRANCH  70  93
ATOM     93  C   UNL A   1      45.459  29.816  28.562  1.00  0.00     0.064 A 
ATOM     94  C   UNL A   1      44.365  30.409  27.911  1.00  0.00     0.173 A 
ATOM     95  C   UNL A   1      46.744  30.194  28.151  1.00  0.00     0.173 A 
ATOM     96  F   UNL A   1      43.110  30.152  28.297  1.00  0.00    -0.203 F 
ATOM     97  C   UNL A   1      44.557  31.311  26.866  1.00  0.00     0.198 A 
ATOM     98  C   UNL A   1      46.932  31.121  27.132  1.00  0.00     0.198 A 
ATOM     99  F   UNL A   1      47.823  29.684  28.765  1.00  0.00    -0.203 F 
ATOM    100  F   UNL A   1      43.500  31.850  26.240  1.00  0.00    -0.200 F 
ATOM    101  C   UNL A   1      45.840  31.670  26.482  1.00  0.00     0.200 A 
ATOM    102  F   UNL A   1      48.174  31.493  26.793  1.00  0.00    -0.200 F 
ATOM    103  F   UNL A   1      46.024  32.559  25.496  1.00  0.00    -0.200 F 
ENDBRANCH  70  93
ENDBRANCH  44  45
ENDBRANCH  36  39
ENDBRANCH  34  35
ENDBRANCH  33  34
ENDBRANCH   1  33
TORSDOF 15
ENDMDL
MODEL 3
REMARK VINA RESULT:     -14.0      3.001      4.578
REMARK SMILES Cc1c(-c2nn(-c3ccccc3)cc2/C=N/O)nnn1-c1ccc(C(=O)NCCCNC(=O)c2ccc(-c3c4nc(c(-c5c(F)c(F)c(F)c(F)c5F)c5ccc([nH]5)c(-c5c(F)c(F)c(F)c(F)c5F)c5nc(c(-c6c(F)c(F)c(F)c(F)c6F)c6ccc3[nH]6)C=C5)C=C4)cc2)cc1
REMARK SMILES IDX 28 1 27 2 25 3 26 4 24 6 21 7 22 8 98 9 23 10 97 11 20 12
REMARK SMILES IDX 1 13 2 14 3 15 18 16 19 17 4 18 5 19 14 20 6 21 13 22 15 23
REMARK SMILES IDX 16 24 17 25 7 27 8 28 12 29 9 30 11 31 10 32 29 33 30 34
REMARK SMILES IDX 31 35 32 36 33 38 34 39 35 40 96 41 36 42 95 43 37 44 38 45
REMARK SMILES IDX 39 46 89 47 40 48 94 49 88 50 90 51 41 52 93 53 87 54 86 55
REMARK SMILES IDX 42 57 74 58 54 59 73 60 55 61 58 62 72 63 91 64 56 65 57 66
REMARK SMILES IDX 71 68 92 69 59 70 43 71 44 72 52 73 45 74 46 75 50 76 53 77
REMARK SMILES IDX 47 78 48 79 51 80 49 81 75 82 76 83 84 84 77 85 78 86 82 87
REMARK SMILES IDX 85 88 79 89 80 90 83 91 81 92 60 93 61 94 69 95 62 96 63 97
REMARK SMILES IDX 67 98 70 99 64 100 65 101 68 102 66 103
REMARK H PARENT 27 5 17 26 31 37 90 56 58 67
REMARK Flexibility Score: inf
ROOT
ATOM      1  C   UNL A   1      41.640  19.198  26.237  1.00  0.00     0.118 C 
ENDROOT
BRANCH   1   2
ATOM      2  N   UNL A   1      41.920  20.273  27.178  1.00  0.00    -0.352 N 
ATOM      3  C   UNL A   1      41.261  21.441  27.480  1.00  0.00     0.251 C 
ATOM      4  O   UNL A   1      41.725  22.126  28.392  1.00  0.00    -0.269 OA
ATOM      5  H   UNL A   1      42.743  20.137  27.699  1.00  0.00     0.163 HD
BRANCH   3   6
ATOM      6  C   UNL A   1      40.007  21.887  26.804  1.00  0.00     0.039 A 
ATOM      7  C   UNL A   1      37.708  22.606  25.361  1.00  0.00     0.067 A 
ATOM      8  C   UNL A   1      38.134  21.277  25.356  1.00  0.00     0.029 A 
ATOM      9  C   UNL A   1      38.368  23.555  26.141  1.00  0.00     0.029 A 
ATOM     10  C   UNL A   1      39.299  20.932  26.050  1.00  0.00     0.016 A 
ATOM     11  C   UNL A   1      39.481  23.178  26.891  1.00  0.00     0.016 A 
BRANCH   7  12
ATOM     12  N   UNL A   1      36.596  22.995  24.590  1.00  0.00    -0.217 N 
ATOM     13  C   UNL A   1      34.874  23.411  26.419  1.00  0.00     0.069 C 
ATOM     14  C   UNL A   1      35.301  23.225  25.012  1.00  0.00     0.071 A 
ATOM     15  C   UNL A   1      34.606  23.346  23.826  1.00  0.00     0.137 A 
ATOM     16  N   UNL A   1      35.465  23.304  22.768  1.00  0.00    -0.128 NA
ATOM     17  N   UNL A   1      36.694  23.166  23.252  1.00  0.00    -0.061 NA
BRANCH  15  18
ATOM     18  C   UNL A   1      33.187  23.622  23.650  1.00  0.00     0.124 A 
ATOM     19  N   UNL A   1      32.752  24.845  23.330  1.00  0.00    -0.165 NA
ATOM     20  C   UNL A   1      32.130  22.705  23.851  1.00  0.00     0.044 A 
ATOM     21  N   UNL A   1      31.410  24.761  23.419  1.00  0.00    -0.240 N 
ATOM     22  C   UNL A   1      30.995  23.486  23.731  1.00  0.00     0.125 A 
BRANCH  20  23
ATOM     23  C   UNL A   1      32.130  21.291  24.129  1.00  0.00     0.166 C 
ATOM     24  N   UNL A   1      32.114  20.867  25.349  1.00  0.00    -0.097 NA
BRANCH  24  25
ATOM     25  O   UNL A   1      32.148  19.467  25.350  1.00  0.00    -0.411 OA
ATOM     26  H   UNL A   1      32.346  19.003  26.139  1.00  0.00     0.330 HD
ENDBRANCH  24  25
ENDBRANCH  20  23
BRANCH  21  27
ATOM     27  C   UNL A   1      30.609  25.913  23.248  1.00  0.00     0.065 A 
ATOM     28  C   UNL A   1      31.119  26.995  22.518  1.00  0.00     0.028 A 
ATOM     29  C   UNL A   1      29.338  25.991  23.831  1.00  0.00     0.028 A 
ATOM     30  C   UNL A   1      30.348  28.144  22.351  1.00  0.00     0.002 A 
ATOM     31  C   UNL A   1      28.595  27.165  23.701  1.00  0.00     0.002 A 
ATOM     32  C   UNL A   1      29.093  28.235  22.954  1.00  0.00     0.000 A 
ENDBRANCH  21  27
ENDBRANCH  15  18
ENDBRANCH   7  12
ENDBRANCH   3   6
ENDBRANCH   1   2
BRANCH   1  33
ATOM     33  C   UNL A   1      42.923  18.489  25.783  1.00  0.00     0.042 C 
BRANCH  33  34
ATOM     34  C   UNL A   1      44.156  19.364  25.936  1.00  0.00     0.118 C 
BRANCH  34  35
ATOM     35  N   UNL A   1      44.604  19.913  24.654  1.00  0.00    -0.352 N 
ATOM     36  C   UNL A   1      44.457  21.196  24.159  1.00  0.00     0.251 C 
ATOM     37  H   UNL A   1      45.075  19.281  24.064  1.00  0.00     0.163 HD
ATOM     38  O   UNL A   1      44.560  21.420  22.966  1.00  0.00    -0.269 OA
BRANCH  36  39
ATOM     39  C   UNL A   1      44.159  22.286  25.103  1.00  0.00     0.039 A 
ATOM     40  C   UNL A   1      45.032  22.587  26.150  1.00  0.00     0.014 A 
ATOM     41  C   UNL A   1      43.011  23.042  24.893  1.00  0.00     0.014 A 
ATOM     42  C   UNL A   1      44.785  23.720  26.921  1.00  0.00     0.010 A 
ATOM     43  C   UNL A   1      42.870  24.248  25.528  1.00  0.00     0.010 A 
ATOM     44  C   UNL A   1      43.717  24.568  26.582  1.00  0.00    -0.014 A 
BRANCH  44  45
ATOM     45  C   UNL A   1      43.548  25.854  27.253  1.00  0.00     0.031 A 
ATOM     46  C   UNL A   1      44.543  26.880  26.848  1.00  0.00     0.074 A 
ATOM     47  C   UNL A   1      42.474  26.168  28.011  1.00  0.00     0.049 A 
ATOM     48  N   UNL A   1      45.504  27.362  27.564  1.00  0.00    -0.248 NA
ATOM     49  C   UNL A   1      44.569  27.328  25.446  1.00  0.00     0.031 C 
ATOM     50  C   UNL A   1      41.256  25.370  28.209  1.00  0.00     0.029 A 
ATOM     51  N   UNL A   1      42.187  27.320  28.687  1.00  0.00    -0.354 N 
ATOM     52  C   UNL A   1      46.101  28.348  26.783  1.00  0.00     0.074 A 
ATOM     53  C   UNL A   1      45.630  28.140  25.440  1.00  0.00     0.031 C 
ATOM     54  C   UNL A   1      40.282  26.145  28.731  1.00  0.00     0.029 A 
ATOM     55  C   UNL A   1      40.863  27.422  29.096  1.00  0.00     0.049 A 
ATOM     56  H   UNL A   1      42.859  28.016  28.868  1.00  0.00     0.167 HD
ATOM     57  C   UNL A   1      46.670  29.433  27.378  1.00  0.00     0.037 A 
ATOM     58  C   UNL A   1      40.269  28.470  29.712  1.00  0.00     0.037 A 
ATOM     59  C   UNL A   1      46.808  29.215  28.795  1.00  0.00     0.049 A 
ATOM     60  C   UNL A   1      41.329  29.277  30.349  1.00  0.00     0.074 A 
ATOM     61  C   UNL A   1      47.654  28.526  29.635  1.00  0.00     0.029 A 
ATOM     62  N   UNL A   1      45.669  29.494  29.500  1.00  0.00    -0.354 N 
ATOM     63  N   UNL A   1      42.045  28.856  31.355  1.00  0.00    -0.248 NA
ATOM     64  C   UNL A   1      41.850  30.450  29.656  1.00  0.00     0.031 C 
ATOM     65  C   UNL A   1      46.919  28.291  30.838  1.00  0.00     0.029 A 
ATOM     66  C   UNL A   1      45.660  28.872  30.717  1.00  0.00     0.049 A 
ATOM     67  H   UNL A   1      44.944  30.074  29.171  1.00  0.00     0.167 HD
ATOM     68  C   UNL A   1      43.286  29.418  31.140  1.00  0.00     0.074 A 
ATOM     69  C   UNL A   1      43.061  30.521  30.217  1.00  0.00     0.031 C 
ATOM     70  C   UNL A   1      44.421  28.729  31.446  1.00  0.00     0.037 A 
BRANCH  57  71
ATOM     71  C   UNL A   1      46.624  30.852  26.842  1.00  0.00     0.064 A 
ATOM     72  C   UNL A   1      47.812  31.617  26.851  1.00  0.00     0.173 A 
ATOM     73  C   UNL A   1      45.436  31.588  26.649  1.00  0.00     0.173 A 
ATOM     74  F   UNL A   1      49.003  31.029  27.041  1.00  0.00    -0.203 F 
ATOM     75  C   UNL A   1      47.798  33.013  26.757  1.00  0.00     0.198 A 
ATOM     76  C   UNL A   1      45.430  32.976  26.506  1.00  0.00     0.198 A 
ATOM     77  F   UNL A   1      44.226  31.021  26.708  1.00  0.00    -0.203 F 
ATOM     78  F   UNL A   1      48.938  33.703  26.898  1.00  0.00    -0.200 F 
ATOM     79  C   UNL A   1      46.605  33.691  26.593  1.00  0.00     0.200 A 
ATOM     80  F   UNL A   1      44.261  33.618  26.370  1.00  0.00    -0.200 F 
ATOM     81  F   UNL A   1      46.579  35.030  26.566  1.00  0.00    -0.200 F 
ENDBRANCH  57  71
BRANCH  58  82
ATOM     82  C   UNL A   1      38.861  28.912  29.656  1.00  0.00     0.064 A 
ATOM     83  C   UNL A   1      38.104  29.090  30.824  1.00  0.00     0.173 A 
ATOM     84  C   UNL A   1      38.327  29.443  28.468  1.00  0.00     0.173 A 
ATOM     85  F   UNL A   1      38.563  28.640  32.000  1.00  0.00    -0.203 F 
ATOM     86  C   UNL A   1      36.897  29.795  30.810  1.00  0.00     0.198 A 
ATOM     87  C   UNL A   1      37.120  30.145  28.455  1.00  0.00     0.198 A 
ATOM     88  F   UNL A   1      39.015  29.373  27.319  1.00  0.00    -0.203 F 
ATOM     89  F   UNL A   1      36.232  30.004  31.955  1.00  0.00    -0.200 F 
ATOM     90  C   UNL A   1      36.415  30.335  29.629  1.00  0.00     0.200 A 
ATOM     91  F   UNL A   1      36.683  30.695  27.314  1.00  0.00    -0.200 F 
ATOM     92  F   UNL A   1      35.295  31.073  29.630  1.00  0.00    -0.200 F 
ENDBRANCH  58  82
BRANCH  70  93
ATOM     93  C   UNL A   1      44.321  27.661  32.487  1.00  0.00     0.064 A 
ATOM     94  C   UNL A   1      44.215  27.899  33.867  1.00  0.00     0.173 A 
ATOM     95  C   UNL A   1      44.274  26.331  32.051  1.00  0.00     0.173 A 
ATOM     96  F   UNL A   1      44.179  29.146  34.353  1.00  0.00    -0.203 F 
ATOM     97  C   UNL A   1      44.108  26.842  34.770  1.00  0.00     0.198 A 
ATOM     98  C   UNL A   1      44.132  25.281  32.951  1.00  0.00     0.198 A 
ATOM     99  F   UNL A   1      44.336  26.052  30.740  1.00  0.00    -0.203 F 
ATOM    100  F   UNL A   1      44.031  27.087  36.087  1.00  0.00    -0.200 F 
ATOM    101  C   UNL A   1      44.061  25.535  34.310  1.00  0.00     0.200 A 
ATOM    102  F   UNL A   1      44.047  24.023  32.496  1.00  0.00    -0.200 F 
ATOM    103  F   UNL A   1      43.930  24.521  35.176  1.00  0.00    -0.200 F 
ENDBRANCH  70  93
ENDBRANCH  44  45
ENDBRANCH  36  39
ENDBRANCH  34  35
ENDBRANCH  33  34
ENDBRANCH   1  33
TORSDOF 15
ENDMDL
