MODEL 1
REMARK VINA RESULT:     -13.0      0.000      0.000
REMARK SMILES O=C(NCCCNC(=O)c1ccc(CNC(=O)c2cccnc2)o1)c1ccc(-c2c3nc(c(-c4c(F)c(F)c(F)c(F)c4F)c4ccc([nH]4)c(-c4c(F)c(F)c(F)c(F)c4F)c4nc(c(-c5c(F)c(F)c(F)c(F)c5F)c5ccc2[nH]5)C=C4)C=C3)cc1
REMARK SMILES IDX 5 1 4 2 3 3 1 4 2 5 25 7 26 8 87 9 27 10 86 11 28 12 29 13
REMARK SMILES IDX 30 14 80 15 31 16 85 17 79 18 81 19 32 20 84 21 78 22 77 23
REMARK SMILES IDX 33 25 65 26 45 27 64 28 46 29 49 30 63 31 82 32 47 33 48 34
REMARK SMILES IDX 62 36 83 37 50 38 34 39 35 40 43 41 36 42 37 43 41 44 44 45
REMARK SMILES IDX 38 46 39 47 42 48 40 49 66 50 67 51 75 52 68 53 69 54 73 55
REMARK SMILES IDX 76 56 70 57 71 58 74 59 72 60 51 61 52 62 60 63 53 64 54 65
REMARK SMILES IDX 58 66 61 67 55 68 56 69 59 70 57 71 6 72 7 73 8 74 9 76
REMARK SMILES IDX 10 77 11 78 24 79 12 80 13 81 14 82 15 83 16 84 17 86 18 87
REMARK SMILES IDX 19 88 23 89 20 90 22 91 21 92
REMARK H PARENT 3 6 81 24 49 35 7 75 15 85
REMARK Flexibility Score: inf
ROOT
ATOM      1  C   UNL A   1      31.439  32.479  26.552  1.00  0.00     0.042 C 
ENDROOT
BRANCH   1   2
ATOM      2  C   UNL A   1      32.655  33.019  27.294  1.00  0.00     0.118 C 
BRANCH   2   3
ATOM      3  N   UNL A   1      32.482  34.408  27.694  1.00  0.00    -0.352 N 
ATOM      4  O   UNL A   1      32.605  36.210  29.029  1.00  0.00    -0.269 OA
ATOM      5  C   UNL A   1      33.056  35.110  28.723  1.00  0.00     0.251 C 
ATOM      6  H   UNL A   1      31.855  34.924  27.139  1.00  0.00     0.163 HD
BRANCH   5   7
ATOM      7  C   UNL A   1      34.212  34.560  29.465  1.00  0.00     0.039 A 
ATOM      8  C   UNL A   1      34.042  33.925  30.698  1.00  0.00     0.014 A 
ATOM      9  C   UNL A   1      35.478  34.605  28.872  1.00  0.00     0.014 A 
ATOM     10  C   UNL A   1      35.145  33.424  31.381  1.00  0.00     0.010 A 
ATOM     11  C   UNL A   1      36.575  34.034  29.524  1.00  0.00     0.010 A 
ATOM     12  C   UNL A   1      36.416  33.445  30.787  1.00  0.00    -0.014 A 
BRANCH  12  13
ATOM     13  C   UNL A   1      37.539  32.734  31.444  1.00  0.00     0.031 A 
ATOM     14  C   UNL A   1      38.221  31.572  30.786  1.00  0.00     0.074 A 
ATOM     15  C   UNL A   1      37.925  33.150  32.667  1.00  0.00     0.049 A 
ATOM     16  N   UNL A   1      39.201  30.831  31.238  1.00  0.00    -0.248 NA
ATOM     17  C   UNL A   1      37.740  31.183  29.452  1.00  0.00     0.031 C 
ATOM     18  C   UNL A   1      37.310  34.251  33.413  1.00  0.00     0.029 A 
ATOM     19  N   UNL A   1      38.919  32.701  33.498  1.00  0.00    -0.354 N 
ATOM     20  C   UNL A   1      39.441  29.879  30.259  1.00  0.00     0.074 A 
ATOM     21  C   UNL A   1      38.497  30.124  29.189  1.00  0.00     0.031 C 
ATOM     22  C   UNL A   1      37.951  34.405  34.580  1.00  0.00     0.029 A 
ATOM     23  C   UNL A   1      38.983  33.381  34.690  1.00  0.00     0.049 A 
ATOM     24  H   UNL A   1      39.528  31.964  33.264  1.00  0.00     0.167 HD
ATOM     25  C   UNL A   1      40.372  28.895  30.258  1.00  0.00     0.037 A 
ATOM     26  C   UNL A   1      39.765  33.183  35.767  1.00  0.00     0.037 A 
ATOM     27  C   UNL A   1      41.330  28.684  31.312  1.00  0.00     0.049 A 
ATOM     28  C   UNL A   1      40.771  32.071  35.740  1.00  0.00     0.074 A 
ATOM     29  C   UNL A   1      42.381  27.783  31.354  1.00  0.00     0.029 A 
ATOM     30  N   UNL A   1      41.345  29.371  32.516  1.00  0.00    -0.354 N 
ATOM     31  N   UNL A   1      41.040  31.225  34.776  1.00  0.00    -0.248 NA
ATOM     32  C   UNL A   1      41.575  31.876  36.954  1.00  0.00     0.031 C 
ATOM     33  C   UNL A   1      43.001  27.890  32.603  1.00  0.00     0.029 A 
ATOM     34  C   UNL A   1      42.360  28.883  33.325  1.00  0.00     0.049 A 
ATOM     35  H   UNL A   1      40.727  30.098  32.760  1.00  0.00     0.167 HD
ATOM     36  C   UNL A   1      42.040  30.398  35.262  1.00  0.00     0.074 A 
ATOM     37  C   UNL A   1      42.353  30.862  36.598  1.00  0.00     0.031 C 
ATOM     38  C   UNL A   1      42.641  29.345  34.659  1.00  0.00     0.037 A 
BRANCH  25  39
ATOM     39  C   UNL A   1      40.412  27.958  29.090  1.00  0.00     0.064 A 
ATOM     40  C   UNL A   1      39.638  26.790  29.056  1.00  0.00     0.173 A 
ATOM     41  C   UNL A   1      41.161  28.287  27.949  1.00  0.00     0.173 A 
ATOM     42  F   UNL A   1      38.911  26.430  30.123  1.00  0.00    -0.203 F 
ATOM     43  C   UNL A   1      39.615  25.981  27.922  1.00  0.00     0.198 A 
ATOM     44  C   UNL A   1      41.120  27.486  26.810  1.00  0.00     0.198 A 
ATOM     45  F   UNL A   1      41.913  29.397  27.931  1.00  0.00    -0.203 F 
ATOM     46  F   UNL A   1      38.881  24.859  27.915  1.00  0.00    -0.200 F 
ATOM     47  C   UNL A   1      40.348  26.334  26.798  1.00  0.00     0.200 A 
ATOM     48  F   UNL A   1      41.822  27.834  25.722  1.00  0.00    -0.200 F 
ATOM     49  F   UNL A   1      40.311  25.563  25.702  1.00  0.00    -0.200 F 
ENDBRANCH  25  39
BRANCH  26  50
ATOM     50  C   UNL A   1      39.593  34.036  36.969  1.00  0.00     0.064 A 
ATOM     51  C   UNL A   1      38.819  33.608  38.057  1.00  0.00     0.173 A 
ATOM     52  C   UNL A   1      40.205  35.296  37.056  1.00  0.00     0.173 A 
ATOM     53  F   UNL A   1      38.198  32.421  38.010  1.00  0.00    -0.203 F 
ATOM     54  C   UNL A   1      38.654  34.416  39.179  1.00  0.00     0.198 A 
ATOM     55  C   UNL A   1      40.061  36.089  38.191  1.00  0.00     0.198 A 
ATOM     56  F   UNL A   1      40.958  35.747  36.042  1.00  0.00    -0.203 F 
ATOM     57  F   UNL A   1      37.876  34.002  40.189  1.00  0.00    -0.200 F 
ATOM     58  C   UNL A   1      39.280  35.652  39.249  1.00  0.00     0.200 A 
ATOM     59  F   UNL A   1      40.680  37.276  38.259  1.00  0.00    -0.200 F 
ATOM     60  F   UNL A   1      39.123  36.425  40.332  1.00  0.00    -0.200 F 
ENDBRANCH  26  50
BRANCH  38  61
ATOM     61  C   UNL A   1      43.683  28.615  35.449  1.00  0.00     0.064 A 
ATOM     62  C   UNL A   1      45.041  28.946  35.335  1.00  0.00     0.173 A 
ATOM     63  C   UNL A   1      43.322  27.600  36.347  1.00  0.00     0.173 A 
ATOM     64  F   UNL A   1      45.434  29.897  34.474  1.00  0.00    -0.203 F 
ATOM     65  C   UNL A   1      46.004  28.275  36.083  1.00  0.00     0.198 A 
ATOM     66  C   UNL A   1      44.286  26.948  37.110  1.00  0.00     0.198 A 
ATOM     67  F   UNL A   1      42.035  27.251  36.492  1.00  0.00    -0.203 F 
ATOM     68  F   UNL A   1      47.300  28.579  35.930  1.00  0.00    -0.200 F 
ATOM     69  C   UNL A   1      45.625  27.281  36.973  1.00  0.00     0.200 A 
ATOM     70  F   UNL A   1      43.918  25.994  37.976  1.00  0.00    -0.200 F 
ATOM     71  F   UNL A   1      46.553  26.639  37.696  1.00  0.00    -0.200 F 
ENDBRANCH  38  61
ENDBRANCH  12  13
ENDBRANCH   5   7
ENDBRANCH   2   3
ENDBRANCH   1   2
BRANCH   1  72
ATOM     72  C   UNL A   1      31.407  30.957  26.453  1.00  0.00     0.118 C 
BRANCH  72  73
ATOM     73  N   UNL A   1      32.745  30.391  26.437  1.00  0.00    -0.349 N 
ATOM     74  C   UNL A   1      33.123  29.091  26.182  1.00  0.00     0.286 C 
ATOM     75  H   UNL A   1      33.477  31.018  26.635  1.00  0.00     0.163 HD
ATOM     76  O   UNL A   1      34.271  28.763  26.478  1.00  0.00    -0.266 OA
BRANCH  74  77
ATOM     77  C   UNL A   1      32.158  28.202  25.584  1.00  0.00     0.191 A 
ATOM     78  C   UNL A   1      31.736  26.929  25.920  1.00  0.00     0.056 A 
ATOM     79  O   UNL A   1      31.497  28.618  24.463  1.00  0.00    -0.454 OA
ATOM     80  C   UNL A   1      30.797  26.536  24.939  1.00  0.00     0.048 A 
ATOM     81  C   UNL A   1      30.687  27.596  24.065  1.00  0.00     0.124 A 
BRANCH  81  82
ATOM     82  C   UNL A   1      29.932  27.809  22.809  1.00  0.00     0.191 C 
BRANCH  82  83
ATOM     83  N   UNL A   1      28.513  27.732  23.080  1.00  0.00    -0.345 N 
ATOM     84  C   UNL A   1      27.593  28.747  23.129  1.00  0.00     0.253 C 
ATOM     85  H   UNL A   1      28.160  26.830  23.254  1.00  0.00     0.164 HD
ATOM     86  O   UNL A   1      26.447  28.528  23.511  1.00  0.00    -0.269 OA
BRANCH  84  87
ATOM     87  C   UNL A   1      27.973  30.113  22.737  1.00  0.00     0.058 A 
ATOM     88  C   UNL A   1      28.366  31.081  23.663  1.00  0.00     0.017 A 
ATOM     89  C   UNL A   1      27.974  30.446  21.391  1.00  0.00     0.124 A 
ATOM     90  C   UNL A   1      28.683  32.360  23.211  1.00  0.00     0.021 A 
ATOM     91  N   UNL A   1      28.279  31.683  20.926  1.00  0.00    -0.264 NA
ATOM     92  C   UNL A   1      28.621  32.611  21.847  1.00  0.00     0.111 A 
ENDBRANCH  84  87
ENDBRANCH  82  83
ENDBRANCH  81  82
ENDBRANCH  74  77
ENDBRANCH  72  73
ENDBRANCH   1  72
TORSDOF 13
ENDMDL
MODEL 2
REMARK VINA RESULT:     -12.9      0.280      1.989
REMARK SMILES O=C(NCCCNC(=O)c1ccc(CNC(=O)c2cccnc2)o1)c1ccc(-c2c3nc(c(-c4c(F)c(F)c(F)c(F)c4F)c4ccc([nH]4)c(-c4c(F)c(F)c(F)c(F)c4F)c4nc(c(-c5c(F)c(F)c(F)c(F)c5F)c5ccc2[nH]5)C=C4)C=C3)cc1
REMARK SMILES IDX 5 1 4 2 3 3 1 4 2 5 25 7 26 8 87 9 27 10 86 11 28 12 29 13
REMARK SMILES IDX 30 14 80 15 31 16 85 17 79 18 81 19 32 20 84 21 78 22 77 23
REMARK SMILES IDX 33 25 65 26 45 27 64 28 46 29 49 30 63 31 82 32 47 33 48 34
REMARK SMILES IDX 62 36 83 37 50 38 34 39 35 40 43 41 36 42 37 43 41 44 44 45
REMARK SMILES IDX 38 46 39 47 42 48 40 49 66 50 67 51 75 52 68 53 69 54 73 55
REMARK SMILES IDX 76 56 70 57 71 58 74 59 72 60 51 61 52 62 60 63 53 64 54 65
REMARK SMILES IDX 58 66 61 67 55 68 56 69 59 70 57 71 6 72 7 73 8 74 9 76
REMARK SMILES IDX 10 77 11 78 24 79 12 80 13 81 14 82 15 83 16 84 17 86 18 87
REMARK SMILES IDX 19 88 23 89 20 90 22 91 21 92
REMARK H PARENT 3 6 81 24 49 35 7 75 15 85
REMARK Flexibility Score: inf
ROOT
ATOM      1  C   UNL A   1      31.403  32.393  26.732  1.00  0.00     0.042 C 
ENDROOT
BRANCH   1   2
ATOM      2  C   UNL A   1      32.702  33.060  27.170  1.00  0.00     0.118 C 
BRANCH   2   3
ATOM      3  N   UNL A   1      32.485  34.412  27.665  1.00  0.00    -0.352 N 
ATOM      4  O   UNL A   1      32.537  36.118  29.126  1.00  0.00    -0.269 OA
ATOM      5  C   UNL A   1      33.022  35.054  28.750  1.00  0.00     0.251 C 
ATOM      6  H   UNL A   1      31.853  34.950  27.136  1.00  0.00     0.163 HD
BRANCH   5   7
ATOM      7  C   UNL A   1      34.180  34.483  29.473  1.00  0.00     0.039 A 
ATOM      8  C   UNL A   1      34.008  33.765  30.659  1.00  0.00     0.014 A 
ATOM      9  C   UNL A   1      35.453  34.594  28.902  1.00  0.00     0.014 A 
ATOM     10  C   UNL A   1      35.114  33.245  31.325  1.00  0.00     0.010 A 
ATOM     11  C   UNL A   1      36.554  34.006  29.532  1.00  0.00     0.010 A 
ATOM     12  C   UNL A   1      36.392  33.333  30.752  1.00  0.00    -0.014 A 
BRANCH  12  13
ATOM     13  C   UNL A   1      37.522  32.605  31.379  1.00  0.00     0.031 A 
ATOM     14  C   UNL A   1      38.193  31.457  30.686  1.00  0.00     0.074 A 
ATOM     15  C   UNL A   1      37.925  32.994  32.605  1.00  0.00     0.049 A 
ATOM     16  N   UNL A   1      39.177  30.704  31.109  1.00  0.00    -0.248 NA
ATOM     17  C   UNL A   1      37.693  31.098  29.350  1.00  0.00     0.031 C 
ATOM     18  C   UNL A   1      37.322  34.079  33.383  1.00  0.00     0.029 A 
ATOM     19  N   UNL A   1      38.929  32.525  33.413  1.00  0.00    -0.354 N 
ATOM     20  C   UNL A   1      39.402  29.774  30.105  1.00  0.00     0.074 A 
ATOM     21  C   UNL A   1      38.444  30.044  29.054  1.00  0.00     0.031 C 
ATOM     22  C   UNL A   1      37.979  34.206  34.544  1.00  0.00     0.029 A 
ATOM     23  C   UNL A   1      39.010  33.178  34.618  1.00  0.00     0.049 A 
ATOM     24  H   UNL A   1      39.533  31.791  33.154  1.00  0.00     0.167 HD
ATOM     25  C   UNL A   1      40.331  28.788  30.071  1.00  0.00     0.037 A 
ATOM     26  C   UNL A   1      39.806  32.955  35.680  1.00  0.00     0.037 A 
ATOM     27  C   UNL A   1      41.303  28.552  31.107  1.00  0.00     0.049 A 
ATOM     28  C   UNL A   1      40.810  31.842  35.615  1.00  0.00     0.074 A 
ATOM     29  C   UNL A   1      42.352  27.649  31.115  1.00  0.00     0.029 A 
ATOM     30  N   UNL A   1      41.335  29.213  32.326  1.00  0.00    -0.354 N 
ATOM     31  N   UNL A   1      41.063  31.017  34.629  1.00  0.00    -0.248 NA
ATOM     32  C   UNL A   1      41.629  31.618  36.814  1.00  0.00     0.031 C 
ATOM     33  C   UNL A   1      42.988  27.727  32.357  1.00  0.00     0.029 A 
ATOM     34  C   UNL A   1      42.359  28.705  33.110  1.00  0.00     0.049 A 
ATOM     35  H   UNL A   1      40.722  29.935  32.594  1.00  0.00     0.167 HD
ATOM     36  C   UNL A   1      42.068  30.178  35.084  1.00  0.00     0.074 A 
ATOM     37  C   UNL A   1      42.400  30.611  36.426  1.00  0.00     0.031 C 
ATOM     38  C   UNL A   1      42.659  29.137  34.450  1.00  0.00     0.037 A 
BRANCH  25  39
ATOM     39  C   UNL A   1      40.353  27.877  28.882  1.00  0.00     0.064 A 
ATOM     40  C   UNL A   1      41.133  28.159  27.752  1.00  0.00     0.173 A 
ATOM     41  C   UNL A   1      39.659  26.657  28.917  1.00  0.00     0.173 A 
ATOM     42  F   UNL A   1      41.809  29.314  27.668  1.00  0.00    -0.203 F 
ATOM     43  C   UNL A   1      41.215  27.253  26.697  1.00  0.00     0.198 A 
ATOM     44  C   UNL A   1      39.759  25.746  27.868  1.00  0.00     0.198 A 
ATOM     45  F   UNL A   1      38.903  26.340  29.978  1.00  0.00    -0.203 F 
ATOM     46  F   UNL A   1      41.954  27.548  25.618  1.00  0.00    -0.200 F 
ATOM     47  C   UNL A   1      40.537  26.044  26.759  1.00  0.00     0.200 A 
ATOM     48  F   UNL A   1      39.110  24.575  27.936  1.00  0.00    -0.200 F 
ATOM     49  F   UNL A   1      40.631  25.167  25.751  1.00  0.00    -0.200 F 
ENDBRANCH  25  39
BRANCH  26  50
ATOM     50  C   UNL A   1      39.652  33.781  36.903  1.00  0.00     0.064 A 
ATOM     51  C   UNL A   1      40.356  34.983  37.059  1.00  0.00     0.173 A 
ATOM     52  C   UNL A   1      38.792  33.386  37.940  1.00  0.00     0.173 A 
ATOM     53  F   UNL A   1      41.204  35.390  36.105  1.00  0.00    -0.203 F 
ATOM     54  C   UNL A   1      40.215  35.751  38.213  1.00  0.00     0.198 A 
ATOM     55  C   UNL A   1      38.632  34.169  39.079  1.00  0.00     0.198 A 
ATOM     56  F   UNL A   1      38.095  32.245  37.835  1.00  0.00    -0.203 F 
ATOM     57  F   UNL A   1      40.929  36.876  38.356  1.00  0.00    -0.200 F 
ATOM     58  C   UNL A   1      39.348  35.348  39.218  1.00  0.00     0.200 A 
ATOM     59  F   UNL A   1      37.782  33.783  40.041  1.00  0.00    -0.200 F 
ATOM     60  F   UNL A   1      39.210  36.090  40.325  1.00  0.00    -0.200 F 
ENDBRANCH  26  50
BRANCH  38  61
ATOM     61  C   UNL A   1      43.710  28.388  35.210  1.00  0.00     0.064 A 
ATOM     62  C   UNL A   1      43.383  27.263  35.981  1.00  0.00     0.173 A 
ATOM     63  C   UNL A   1      45.056  28.778  35.145  1.00  0.00     0.173 A 
ATOM     64  F   UNL A   1      42.106  26.866  36.087  1.00  0.00    -0.203 F 
ATOM     65  C   UNL A   1      44.366  26.562  36.672  1.00  0.00     0.198 A 
ATOM     66  C   UNL A   1      46.038  28.061  35.820  1.00  0.00     0.198 A 
ATOM     67  F   UNL A   1      45.416  29.846  34.419  1.00  0.00    -0.203 F 
ATOM     68  F   UNL A   1      44.028  25.514  37.435  1.00  0.00    -0.200 F 
ATOM     69  C   UNL A   1      45.693  26.958  36.586  1.00  0.00     0.200 A 
ATOM     70  F   UNL A   1      47.321  28.438  35.730  1.00  0.00    -0.200 F 
ATOM     71  F   UNL A   1      46.639  26.279  37.250  1.00  0.00    -0.200 F 
ENDBRANCH  38  61
ENDBRANCH  12  13
ENDBRANCH   5   7
ENDBRANCH   2   3
ENDBRANCH   1   2
BRANCH   1  72
ATOM     72  C   UNL A   1      31.420  30.874  26.866  1.00  0.00     0.118 C 
BRANCH  72  73
ATOM     73  N   UNL A   1      32.756  30.332  26.691  1.00  0.00    -0.349 N 
ATOM     74  C   UNL A   1      33.123  29.069  26.283  1.00  0.00     0.286 C 
ATOM     75  H   UNL A   1      33.497  30.949  26.890  1.00  0.00     0.163 HD
ATOM     76  O   UNL A   1      34.294  28.732  26.454  1.00  0.00    -0.266 OA
BRANCH  74  77
ATOM     77  C   UNL A   1      32.120  28.227  25.680  1.00  0.00     0.191 A 
ATOM     78  C   UNL A   1      31.634  26.976  26.016  1.00  0.00     0.056 A 
ATOM     79  O   UNL A   1      31.489  28.670  24.552  1.00  0.00    -0.454 OA
ATOM     80  C   UNL A   1      30.684  26.626  25.029  1.00  0.00     0.048 A 
ATOM     81  C   UNL A   1      30.634  27.688  24.151  1.00  0.00     0.124 A 
BRANCH  81  82
ATOM     82  C   UNL A   1      29.900  27.933  22.888  1.00  0.00     0.191 C 
BRANCH  82  83
ATOM     83  N   UNL A   1      28.477  27.826  23.128  1.00  0.00    -0.345 N 
ATOM     84  C   UNL A   1      27.529  28.816  23.125  1.00  0.00     0.253 C 
ATOM     85  H   UNL A   1      28.144  26.919  23.320  1.00  0.00     0.164 HD
ATOM     86  O   UNL A   1      26.381  28.578  23.487  1.00  0.00    -0.269 OA
BRANCH  84  87
ATOM     87  C   UNL A   1      27.883  30.180  22.703  1.00  0.00     0.058 A 
ATOM     88  C   UNL A   1      28.112  31.216  23.610  1.00  0.00     0.017 A 
ATOM     89  C   UNL A   1      28.028  30.443  21.349  1.00  0.00     0.124 A 
ATOM     90  C   UNL A   1      28.414  32.486  23.125  1.00  0.00     0.021 A 
ATOM     91  N   UNL A   1      28.322  31.670  20.852  1.00  0.00    -0.264 NA
ATOM     92  C   UNL A   1      28.503  32.662  21.751  1.00  0.00     0.111 A 
ENDBRANCH  84  87
ENDBRANCH  82  83
ENDBRANCH  81  82
ENDBRANCH  74  77
ENDBRANCH  72  73
ENDBRANCH   1  72
TORSDOF 13
ENDMDL
MODEL 3
REMARK VINA RESULT:     -12.7      0.713      7.516
REMARK SMILES O=C(NCCCNC(=O)c1ccc(CNC(=O)c2cccnc2)o1)c1ccc(-c2c3nc(c(-c4c(F)c(F)c(F)c(F)c4F)c4ccc([nH]4)c(-c4c(F)c(F)c(F)c(F)c4F)c4nc(c(-c5c(F)c(F)c(F)c(F)c5F)c5ccc2[nH]5)C=C4)C=C3)cc1
REMARK SMILES IDX 5 1 4 2 3 3 1 4 2 5 25 7 26 8 87 9 27 10 86 11 28 12 29 13
REMARK SMILES IDX 30 14 80 15 31 16 85 17 79 18 81 19 32 20 84 21 78 22 77 23
REMARK SMILES IDX 33 25 65 26 45 27 64 28 46 29 49 30 63 31 82 32 47 33 48 34
REMARK SMILES IDX 62 36 83 37 50 38 34 39 35 40 43 41 36 42 37 43 41 44 44 45
REMARK SMILES IDX 38 46 39 47 42 48 40 49 66 50 67 51 75 52 68 53 69 54 73 55
REMARK SMILES IDX 76 56 70 57 71 58 74 59 72 60 51 61 52 62 60 63 53 64 54 65
REMARK SMILES IDX 58 66 61 67 55 68 56 69 59 70 57 71 6 72 7 73 8 74 9 76
REMARK SMILES IDX 10 77 11 78 24 79 12 80 13 81 14 82 15 83 16 84 17 86 18 87
REMARK SMILES IDX 19 88 23 89 20 90 22 91 21 92
REMARK H PARENT 3 6 81 24 49 35 7 75 15 85
REMARK Flexibility Score: inf
ROOT
ATOM      1  C   UNL A   1      31.353  32.291  26.903  1.00  0.00     0.042 C 
ENDROOT
BRANCH   1   2
ATOM      2  C   UNL A   1      32.689  32.948  27.229  1.00  0.00     0.118 C 
BRANCH   2   3
ATOM      3  N   UNL A   1      32.530  34.326  27.674  1.00  0.00    -0.352 N 
ATOM      4  O   UNL A   1      32.665  36.083  29.066  1.00  0.00    -0.269 OA
ATOM      5  C   UNL A   1      33.105  34.988  28.727  1.00  0.00     0.251 C 
ATOM      6  H   UNL A   1      31.912  34.867  27.132  1.00  0.00     0.163 HD
BRANCH   5   7
ATOM      7  C   UNL A   1      34.250  34.401  29.458  1.00  0.00     0.039 A 
ATOM      8  C   UNL A   1      34.055  33.631  30.607  1.00  0.00     0.014 A 
ATOM      9  C   UNL A   1      35.537  34.554  28.929  1.00  0.00     0.014 A 
ATOM     10  C   UNL A   1      35.149  33.098  31.281  1.00  0.00     0.010 A 
ATOM     11  C   UNL A   1      36.628  33.954  29.565  1.00  0.00     0.010 A 
ATOM     12  C   UNL A   1      36.441  33.227  30.749  1.00  0.00    -0.014 A 
BRANCH  12  13
ATOM     13  C   UNL A   1      37.563  32.488  31.377  1.00  0.00     0.031 A 
ATOM     14  C   UNL A   1      38.070  32.848  32.742  1.00  0.00     0.074 A 
ATOM     15  C   UNL A   1      38.134  31.486  30.678  1.00  0.00     0.049 A 
ATOM     16  N   UNL A   1      39.056  32.315  33.418  1.00  0.00    -0.248 NA
ATOM     17  C   UNL A   1      37.392  33.952  33.437  1.00  0.00     0.031 C 
ATOM     18  C   UNL A   1      37.740  31.073  29.329  1.00  0.00     0.029 A 
ATOM     19  N   UNL A   1      39.163  30.638  30.998  1.00  0.00    -0.354 N 
ATOM     20  C   UNL A   1      39.130  33.028  34.606  1.00  0.00     0.074 A 
ATOM     21  C   UNL A   1      38.099  34.042  34.557  1.00  0.00     0.031 C 
ATOM     22  C   UNL A   1      38.502  30.039  28.945  1.00  0.00     0.029 A 
ATOM     23  C   UNL A   1      39.473  29.753  29.995  1.00  0.00     0.049 A 
ATOM     24  H   UNL A   1      39.633  30.660  31.863  1.00  0.00     0.167 HD
ATOM     25  C   UNL A   1      39.983  32.841  35.642  1.00  0.00     0.037 A 
ATOM     26  C   UNL A   1      40.452  28.834  29.913  1.00  0.00     0.037 A 
ATOM     27  C   UNL A   1      40.983  31.806  35.695  1.00  0.00     0.049 A 
ATOM     28  C   UNL A   1      41.393  28.669  31.071  1.00  0.00     0.074 A 
ATOM     29  C   UNL A   1      41.821  31.470  36.744  1.00  0.00     0.029 A 
ATOM     30  N   UNL A   1      41.289  30.949  34.648  1.00  0.00    -0.354 N 
ATOM     31  N   UNL A   1      41.403  29.298  32.220  1.00  0.00    -0.248 NA
ATOM     32  C   UNL A   1      42.464  27.676  30.917  1.00  0.00     0.031 C 
ATOM     33  C   UNL A   1      42.669  30.443  36.316  1.00  0.00     0.029 A 
ATOM     34  C   UNL A   1      42.334  30.115  35.013  1.00  0.00     0.049 A 
ATOM     35  H   UNL A   1      40.832  30.936  33.776  1.00  0.00     0.167 HD
ATOM     36  C   UNL A   1      42.478  28.782  32.926  1.00  0.00     0.074 A 
ATOM     37  C   UNL A   1      43.080  27.764  32.089  1.00  0.00     0.031 C 
ATOM     38  C   UNL A   1      42.931  29.123  34.156  1.00  0.00     0.037 A 
BRANCH  25  39
ATOM     39  C   UNL A   1      39.891  33.773  36.812  1.00  0.00     0.064 A 
ATOM     40  C   UNL A   1      40.572  34.998  36.834  1.00  0.00     0.173 A 
ATOM     41  C   UNL A   1      39.031  33.477  37.881  1.00  0.00     0.173 A 
ATOM     42  F   UNL A   1      41.410  35.322  35.839  1.00  0.00    -0.203 F 
ATOM     43  C   UNL A   1      40.399  35.893  37.887  1.00  0.00     0.198 A 
ATOM     44  C   UNL A   1      38.846  34.383  38.923  1.00  0.00     0.198 A 
ATOM     45  F   UNL A   1      38.353  32.320  37.903  1.00  0.00    -0.203 F 
ATOM     46  F   UNL A   1      41.072  37.052  37.898  1.00  0.00    -0.200 F 
ATOM     47  C   UNL A   1      39.529  35.590  38.925  1.00  0.00     0.200 A 
ATOM     48  F   UNL A   1      37.998  34.091  39.919  1.00  0.00    -0.200 F 
ATOM     49  F   UNL A   1      39.351  36.460  39.928  1.00  0.00    -0.200 F 
ENDBRANCH  25  39
BRANCH  26  50
ATOM     50  C   UNL A   1      40.610  28.032  28.674  1.00  0.00     0.064 A 
ATOM     51  C   UNL A   1      39.964  26.797  28.523  1.00  0.00     0.173 A 
ATOM     52  C   UNL A   1      41.407  28.488  27.613  1.00  0.00     0.173 A 
ATOM     53  F   UNL A   1      39.209  26.311  29.518  1.00  0.00    -0.203 F 
ATOM     54  C   UNL A   1      40.122  26.044  27.362  1.00  0.00     0.198 A 
ATOM     55  C   UNL A   1      41.541  27.747  26.443  1.00  0.00     0.198 A 
ATOM     56  F   UNL A   1      42.043  29.665  27.710  1.00  0.00    -0.203 F 
ATOM     57  F   UNL A   1      39.527  24.848  27.258  1.00  0.00    -0.200 F 
ATOM     58  C   UNL A   1      40.904  26.522  26.321  1.00  0.00     0.200 A 
ATOM     59  F   UNL A   1      42.285  28.220  25.434  1.00  0.00    -0.200 F 
ATOM     60  F   UNL A   1      41.051  25.798  25.203  1.00  0.00    -0.200 F 
ENDBRANCH  26  50
BRANCH  38  61
ATOM     61  C   UNL A   1      44.144  28.401  34.657  1.00  0.00     0.064 A 
ATOM     62  C   UNL A   1      44.033  27.160  35.300  1.00  0.00     0.173 A 
ATOM     63  C   UNL A   1      45.426  28.937  34.469  1.00  0.00     0.173 A 
ATOM     64  F   UNL A   1      42.825  26.619  35.519  1.00  0.00    -0.203 F 
ATOM     65  C   UNL A   1      45.164  26.487  35.751  1.00  0.00     0.198 A 
ATOM     66  C   UNL A   1      46.556  28.250  34.900  1.00  0.00     0.198 A 
ATOM     67  F   UNL A   1      45.581  30.121  33.857  1.00  0.00    -0.203 F 
ATOM     68  F   UNL A   1      45.035  25.321  36.398  1.00  0.00    -0.200 F 
ATOM     69  C   UNL A   1      46.425  27.030  35.545  1.00  0.00     0.200 A 
ATOM     70  F   UNL A   1      47.773  28.770  34.693  1.00  0.00    -0.200 F 
ATOM     71  F   UNL A   1      47.513  26.377  35.975  1.00  0.00    -0.200 F 
ENDBRANCH  38  61
ENDBRANCH  12  13
ENDBRANCH   5   7
ENDBRANCH   2   3
ENDBRANCH   1   2
BRANCH   1  72
ATOM     72  C   UNL A   1      31.479  31.043  26.036  1.00  0.00     0.118 C 
BRANCH  72  73
ATOM     73  N   UNL A   1      32.699  30.308  26.326  1.00  0.00    -0.349 N 
ATOM     74  C   UNL A   1      32.890  28.945  26.360  1.00  0.00     0.286 C 
ATOM     75  H   UNL A   1      33.492  30.856  26.524  1.00  0.00     0.163 HD
ATOM     76  O   UNL A   1      33.923  28.526  26.883  1.00  0.00    -0.266 OA
BRANCH  74  77
ATOM     77  C   UNL A   1      31.878  28.096  25.781  1.00  0.00     0.191 A 
ATOM     78  C   UNL A   1      31.370  26.867  26.160  1.00  0.00     0.056 A 
ATOM     79  O   UNL A   1      31.262  28.508  24.633  1.00  0.00    -0.454 OA
ATOM     80  C   UNL A   1      30.421  26.496  25.180  1.00  0.00     0.048 A 
ATOM     81  C   UNL A   1      30.393  27.525  24.263  1.00  0.00     0.124 A 
BRANCH  81  82
ATOM     82  C   UNL A   1      29.672  27.734  22.986  1.00  0.00     0.191 C 
BRANCH  82  83
ATOM     83  N   UNL A   1      28.246  27.653  23.219  1.00  0.00    -0.345 N 
ATOM     84  C   UNL A   1      27.308  28.650  23.156  1.00  0.00     0.253 C 
ATOM     85  H   UNL A   1      27.903  26.761  23.455  1.00  0.00     0.164 HD
ATOM     86  O   UNL A   1      26.154  28.442  23.520  1.00  0.00    -0.269 OA
BRANCH  84  87
ATOM     87  C   UNL A   1      27.678  29.987  22.667  1.00  0.00     0.058 A 
ATOM     88  C   UNL A   1      28.012  30.237  21.334  1.00  0.00     0.017 A 
ATOM     89  C   UNL A   1      27.665  31.051  23.556  1.00  0.00     0.124 A 
ATOM     90  C   UNL A   1      28.379  31.527  20.959  1.00  0.00     0.021 A 
ATOM     91  N   UNL A   1      28.017  32.316  23.215  1.00  0.00    -0.264 NA
ATOM     92  C   UNL A   1      28.371  32.522  21.927  1.00  0.00     0.111 A 
ENDBRANCH  84  87
ENDBRANCH  82  83
ENDBRANCH  81  82
ENDBRANCH  74  77
ENDBRANCH  72  73
ENDBRANCH   1  72
TORSDOF 13
ENDMDL
