MODEL 1
REMARK VINA RESULT:     -13.7      0.000      0.000
REMARK SMILES Cc1ccc(-c2ccc(C(=O)NCCCNC(=O)c3ccc(-c4c5nc(c(-c6c(F)c(F)c(F)c(F)c6F)c6ccc([nH]6)c(-c6c(F)c(F)c(F)c(F)c6F)c6nc(c(-c7c(F)c(F)c(F)c(F)c7F)c7ccc4[nH]7)C=C6)C=C5)cc3)c(O)c2)c(F)c1
REMARK SMILES IDX 14 1 13 2 12 3 10 4 11 5 9 7 6 8 7 9 84 10 8 11 82 12 5 13
REMARK SMILES IDX 1 14 2 15 3 16 87 17 4 18 85 19 86 20 83 21 15 23 16 24
REMARK SMILES IDX 17 25 18 27 19 28 20 29 81 30 21 31 80 32 22 33 23 34 24 35
REMARK SMILES IDX 74 36 25 37 79 38 73 39 75 40 26 41 78 42 72 43 71 44 27 46
REMARK SMILES IDX 59 47 39 48 58 49 40 50 43 51 57 52 76 53 41 54 42 55 56 57
REMARK SMILES IDX 77 58 44 59 28 60 29 61 37 62 30 63 31 64 35 65 38 66 32 67
REMARK SMILES IDX 33 68 36 69 34 70 60 71 61 72 69 73 62 74 63 75 67 76 70 77
REMARK SMILES IDX 64 78 65 79 68 80 66 81 45 82 46 83 54 84 47 85 48 86 52 87
REMARK SMILES IDX 55 88 49 89 50 90 53 91 51 92
REMARK H PARENT 12 6 83 22 16 26 75 45 43 56
REMARK Flexibility Score: inf
ROOT
ATOM      1  C   UNL A   1      33.720  29.103  26.297  1.00  0.00     0.042 C 
ENDROOT
BRANCH   1   2
ATOM      2  C   UNL A   1      32.471  28.465  26.849  1.00  0.00     0.118 C 
BRANCH   2   3
ATOM      3  N   UNL A   1      31.389  28.265  25.894  1.00  0.00    -0.352 N 
ATOM      4  C   UNL A   1      31.208  27.191  25.050  1.00  0.00     0.255 C 
ATOM      5  O   UNL A   1      30.249  27.162  24.287  1.00  0.00    -0.269 OA
ATOM      6  H   UNL A   1      30.711  28.977  25.847  1.00  0.00     0.163 HD
BRANCH   4   7
ATOM      7  C   UNL A   1      32.217  26.107  25.028  1.00  0.00     0.081 A 
ATOM      8  C   UNL A   1      34.430  24.367  25.128  1.00  0.00    -0.012 A 
ATOM      9  C   UNL A   1      34.259  25.250  24.048  1.00  0.00     0.010 A 
ATOM     10  C   UNL A   1      33.450  24.359  26.131  1.00  0.00     0.055 A 
ATOM     11  C   UNL A   1      33.174  26.133  24.010  1.00  0.00     0.018 A 
ATOM     12  C   UNL A   1      32.310  25.135  26.023  1.00  0.00     0.128 A 
BRANCH   8  13
ATOM     13  C   UNL A   1      35.535  23.399  25.201  1.00  0.00     0.018 A 
ATOM     14  C   UNL A   1      38.688  20.436  25.338  1.00  0.00     0.044 C 
ATOM     15  C   UNL A   1      37.607  21.472  25.316  1.00  0.00    -0.048 A 
ATOM     16  C   UNL A   1      37.834  22.790  25.734  1.00  0.00     0.004 A 
ATOM     17  C   UNL A   1      36.343  21.117  24.851  1.00  0.00     0.043 A 
ATOM     18  C   UNL A   1      36.808  23.743  25.681  1.00  0.00     0.012 A 
ATOM     19  C   UNL A   1      35.337  22.069  24.789  1.00  0.00     0.131 A 
ATOM     20  F   UNL A   1      34.150  21.674  24.301  1.00  0.00    -0.206 F 
ENDBRANCH   8  13
BRANCH  12  21
ATOM     21  O   UNL A   1      31.330  24.861  26.935  1.00  0.00    -0.507 OA
ATOM     22  H   UNL A   1      30.744  24.144  26.793  1.00  0.00     0.293 HD
ENDBRANCH  12  21
ENDBRANCH   4   7
ENDBRANCH   2   3
ENDBRANCH   1   2
BRANCH   1  23
ATOM     23  C   UNL A   1      34.882  28.976  27.245  1.00  0.00     0.118 C 
BRANCH  23  24
ATOM     24  N   UNL A   1      35.076  30.149  28.111  1.00  0.00    -0.352 N 
ATOM     25  C   UNL A   1      36.162  30.433  28.924  1.00  0.00     0.251 C 
ATOM     26  H   UNL A   1      34.347  30.811  28.113  1.00  0.00     0.163 HD
ATOM     27  O   UNL A   1      36.156  31.317  29.745  1.00  0.00    -0.269 OA
BRANCH  25  28
ATOM     28  C   UNL A   1      37.354  29.605  28.693  1.00  0.00     0.039 A 
ATOM     29  C   UNL A   1      38.184  29.776  27.580  1.00  0.00     0.014 A 
ATOM     30  C   UNL A   1      37.690  28.766  29.746  1.00  0.00     0.014 A 
ATOM     31  C   UNL A   1      39.413  29.126  27.567  1.00  0.00     0.010 A 
ATOM     32  C   UNL A   1      38.982  28.378  29.853  1.00  0.00     0.010 A 
ATOM     33  C   UNL A   1      39.801  28.447  28.723  1.00  0.00    -0.014 A 
BRANCH  33  34
ATOM     34  C   UNL A   1      41.001  27.657  28.888  1.00  0.00     0.031 A 
ATOM     35  C   UNL A   1      40.998  26.227  28.585  1.00  0.00     0.074 A 
ATOM     36  C   UNL A   1      42.109  28.406  29.093  1.00  0.00     0.049 A 
ATOM     37  N   UNL A   1      41.883  25.409  29.024  1.00  0.00    -0.248 NA
ATOM     38  C   UNL A   1      39.980  25.585  27.757  1.00  0.00     0.031 C 
ATOM     39  C   UNL A   1      43.520  28.108  28.951  1.00  0.00     0.029 A 
ATOM     40  N   UNL A   1      42.103  29.726  29.590  1.00  0.00    -0.354 N 
ATOM     41  C   UNL A   1      41.775  24.259  28.275  1.00  0.00     0.074 A 
ATOM     42  C   UNL A   1      40.494  24.357  27.615  1.00  0.00     0.031 C 
ATOM     43  C   UNL A   1      44.216  29.030  29.653  1.00  0.00     0.029 A 
ATOM     44  C   UNL A   1      43.251  29.846  30.381  1.00  0.00     0.049 A 
ATOM     45  H   UNL A   1      41.428  30.421  29.416  1.00  0.00     0.167 HD
ATOM     46  C   UNL A   1      42.877  23.464  28.155  1.00  0.00     0.037 A 
ATOM     47  C   UNL A   1      43.048  29.869  31.735  1.00  0.00     0.037 A 
ATOM     48  C   UNL A   1      43.998  24.056  28.893  1.00  0.00     0.049 A 
ATOM     49  C   UNL A   1      43.526  28.594  32.395  1.00  0.00     0.074 A 
ATOM     50  C   UNL A   1      45.070  24.851  28.520  1.00  0.00     0.029 A 
ATOM     51  N   UNL A   1      43.880  24.207  30.262  1.00  0.00    -0.354 N 
ATOM     52  N   UNL A   1      43.846  27.507  31.746  1.00  0.00    -0.248 NA
ATOM     53  C   UNL A   1      43.655  28.436  33.837  1.00  0.00     0.031 C 
ATOM     54  C   UNL A   1      45.578  25.494  29.691  1.00  0.00     0.029 A 
ATOM     55  C   UNL A   1      44.819  25.082  30.771  1.00  0.00     0.049 A 
ATOM     56  H   UNL A   1      43.206  23.745  30.811  1.00  0.00     0.167 HD
ATOM     57  C   UNL A   1      44.289  26.556  32.617  1.00  0.00     0.074 A 
ATOM     58  C   UNL A   1      44.090  27.165  33.924  1.00  0.00     0.031 C 
ATOM     59  C   UNL A   1      44.802  25.357  32.201  1.00  0.00     0.037 A 
BRANCH  46  60
ATOM     60  C   UNL A   1      43.030  22.341  27.157  1.00  0.00     0.064 A 
ATOM     61  C   UNL A   1      42.210  21.194  27.237  1.00  0.00     0.173 A 
ATOM     62  C   UNL A   1      43.963  22.323  26.102  1.00  0.00     0.173 A 
ATOM     63  F   UNL A   1      41.216  21.105  28.131  1.00  0.00    -0.203 F 
ATOM     64  C   UNL A   1      42.375  20.087  26.401  1.00  0.00     0.198 A 
ATOM     65  C   UNL A   1      44.157  21.198  25.290  1.00  0.00     0.198 A 
ATOM     66  F   UNL A   1      44.681  23.409  25.789  1.00  0.00    -0.203 F 
ATOM     67  F   UNL A   1      41.566  19.026  26.536  1.00  0.00    -0.200 F 
ATOM     68  C   UNL A   1      43.369  20.076  25.446  1.00  0.00     0.200 A 
ATOM     69  F   UNL A   1      45.114  21.212  24.350  1.00  0.00    -0.200 F 
ATOM     70  F   UNL A   1      43.547  19.003  24.664  1.00  0.00    -0.200 F 
ENDBRANCH  46  60
BRANCH  47  71
ATOM     71  C   UNL A   1      41.802  30.641  32.085  1.00  0.00     0.064 A 
ATOM     72  C   UNL A   1      40.723  29.916  32.645  1.00  0.00     0.173 A 
ATOM     73  C   UNL A   1      41.830  32.023  32.330  1.00  0.00     0.173 A 
ATOM     74  F   UNL A   1      40.629  28.592  32.439  1.00  0.00    -0.203 F 
ATOM     75  C   UNL A   1      39.836  30.506  33.546  1.00  0.00     0.198 A 
ATOM     76  C   UNL A   1      40.912  32.617  33.203  1.00  0.00     0.198 A 
ATOM     77  F   UNL A   1      42.813  32.780  31.823  1.00  0.00    -0.203 F 
ATOM     78  F   UNL A   1      38.931  29.750  34.186  1.00  0.00    -0.200 F 
ATOM     79  C   UNL A   1      39.952  31.850  33.850  1.00  0.00     0.200 A 
ATOM     80  F   UNL A   1      41.011  33.924  33.486  1.00  0.00    -0.200 F 
ATOM     81  F   UNL A   1      39.167  32.394  34.791  1.00  0.00    -0.200 F 
ENDBRANCH  47  71
BRANCH  59  82
ATOM     82  C   UNL A   1      45.339  24.311  33.136  1.00  0.00     0.064 A 
ATOM     83  C   UNL A   1      44.574  23.218  33.565  1.00  0.00     0.173 A 
ATOM     84  C   UNL A   1      46.626  24.421  33.713  1.00  0.00     0.173 A 
ATOM     85  F   UNL A   1      43.285  23.096  33.211  1.00  0.00    -0.203 F 
ATOM     86  C   UNL A   1      45.105  22.235  34.398  1.00  0.00     0.198 A 
ATOM     87  C   UNL A   1      47.130  23.475  34.598  1.00  0.00     0.198 A 
ATOM     88  F   UNL A   1      47.454  25.435  33.429  1.00  0.00    -0.203 F 
ATOM     89  F   UNL A   1      44.369  21.158  34.703  1.00  0.00    -0.200 F 
ATOM     90  C   UNL A   1      46.383  22.361  34.911  1.00  0.00     0.200 A 
ATOM     91  F   UNL A   1      48.349  23.648  35.126  1.00  0.00    -0.200 F 
ATOM     92  F   UNL A   1      46.893  21.417  35.711  1.00  0.00    -0.200 F 
ENDBRANCH  59  82
ENDBRANCH  33  34
ENDBRANCH  25  28
ENDBRANCH  23  24
ENDBRANCH   1  23
TORSDOF 12
ENDMDL
MODEL 2
REMARK VINA RESULT:     -13.6      4.052     10.248
REMARK SMILES Cc1ccc(-c2ccc(C(=O)NCCCNC(=O)c3ccc(-c4c5nc(c(-c6c(F)c(F)c(F)c(F)c6F)c6ccc([nH]6)c(-c6c(F)c(F)c(F)c(F)c6F)c6nc(c(-c7c(F)c(F)c(F)c(F)c7F)c7ccc4[nH]7)C=C6)C=C5)cc3)c(O)c2)c(F)c1
REMARK SMILES IDX 14 1 13 2 12 3 10 4 11 5 9 7 6 8 7 9 84 10 8 11 82 12 5 13
REMARK SMILES IDX 1 14 2 15 3 16 87 17 4 18 85 19 86 20 83 21 15 23 16 24
REMARK SMILES IDX 17 25 18 27 19 28 20 29 81 30 21 31 80 32 22 33 23 34 24 35
REMARK SMILES IDX 74 36 25 37 79 38 73 39 75 40 26 41 78 42 72 43 71 44 27 46
REMARK SMILES IDX 59 47 39 48 58 49 40 50 43 51 57 52 76 53 41 54 42 55 56 57
REMARK SMILES IDX 77 58 44 59 28 60 29 61 37 62 30 63 31 64 35 65 38 66 32 67
REMARK SMILES IDX 33 68 36 69 34 70 60 71 61 72 69 73 62 74 63 75 67 76 70 77
REMARK SMILES IDX 64 78 65 79 68 80 66 81 45 82 46 83 54 84 47 85 48 86 52 87
REMARK SMILES IDX 55 88 49 89 50 90 53 91 51 92
REMARK H PARENT 12 6 83 22 16 26 75 45 43 56
REMARK Flexibility Score: inf
ROOT
ATOM      1  C   UNL A   1      36.797  23.037  25.732  1.00  0.00     0.042 C 
ENDROOT
BRANCH   1   2
ATOM      2  C   UNL A   1      36.443  23.092  24.268  1.00  0.00     0.118 C 
BRANCH   2   3
ATOM      3  N   UNL A   1      35.302  22.282  23.864  1.00  0.00    -0.352 N 
ATOM      4  C   UNL A   1      33.980  22.668  23.816  1.00  0.00     0.255 C 
ATOM      5  O   UNL A   1      33.119  21.871  23.461  1.00  0.00    -0.269 OA
ATOM      6  H   UNL A   1      35.497  21.356  23.593  1.00  0.00     0.163 HD
BRANCH   4   7
ATOM      7  C   UNL A   1      33.605  24.030  24.259  1.00  0.00     0.081 A 
ATOM      8  C   UNL A   1      33.284  26.613  25.335  1.00  0.00    -0.012 A 
ATOM      9  C   UNL A   1      33.004  25.473  26.109  1.00  0.00     0.010 A 
ATOM     10  C   UNL A   1      33.693  26.422  24.008  1.00  0.00     0.055 A 
ATOM     11  C   UNL A   1      33.188  24.189  25.584  1.00  0.00     0.018 A 
ATOM     12  C   UNL A   1      33.742  25.157  23.450  1.00  0.00     0.128 A 
BRANCH   8  13
ATOM     13  C   UNL A   1      33.079  27.983  25.831  1.00  0.00     0.018 A 
ATOM     14  C   UNL A   1      32.321  32.015  27.212  1.00  0.00     0.044 C 
ATOM     15  C   UNL A   1      32.612  30.627  26.732  1.00  0.00    -0.048 A 
ATOM     16  C   UNL A   1      33.764  29.933  27.123  1.00  0.00     0.004 A 
ATOM     17  C   UNL A   1      31.700  30.003  25.883  1.00  0.00     0.043 A 
ATOM     18  C   UNL A   1      33.998  28.626  26.674  1.00  0.00     0.012 A 
ATOM     19  C   UNL A   1      31.932  28.705  25.455  1.00  0.00     0.131 A 
ATOM     20  F   UNL A   1      31.000  28.146  24.665  1.00  0.00    -0.206 F 
ENDBRANCH   8  13
BRANCH  12  21
ATOM     21  O   UNL A   1      33.921  25.125  22.096  1.00  0.00    -0.507 OA
ATOM     22  H   UNL A   1      33.179  25.096  21.526  1.00  0.00     0.293 HD
ENDBRANCH  12  21
ENDBRANCH   4   7
ENDBRANCH   2   3
ENDBRANCH   1   2
BRANCH   1  23
ATOM     23  C   UNL A   1      37.755  24.130  26.121  1.00  0.00     0.118 C 
BRANCH  23  24
ATOM     24  N   UNL A   1      39.160  23.700  26.174  1.00  0.00    -0.352 N 
ATOM     25  C   UNL A   1      40.252  24.420  26.635  1.00  0.00     0.251 C 
ATOM     26  H   UNL A   1      39.348  22.792  25.843  1.00  0.00     0.163 HD
ATOM     27  O   UNL A   1      41.392  24.067  26.467  1.00  0.00    -0.269 OA
BRANCH  25  28
ATOM     28  C   UNL A   1      39.927  25.638  27.391  1.00  0.00     0.039 A 
ATOM     29  C   UNL A   1      39.407  25.601  28.689  1.00  0.00     0.014 A 
ATOM     30  C   UNL A   1      40.339  26.820  26.791  1.00  0.00     0.014 A 
ATOM     31  C   UNL A   1      39.363  26.787  29.416  1.00  0.00     0.010 A 
ATOM     32  C   UNL A   1      40.556  27.889  27.591  1.00  0.00     0.010 A 
ATOM     33  C   UNL A   1      39.961  27.915  28.855  1.00  0.00    -0.014 A 
BRANCH  33  34
ATOM     34  C   UNL A   1      39.964  29.249  29.415  1.00  0.00     0.031 A 
ATOM     35  C   UNL A   1      38.899  30.196  29.087  1.00  0.00     0.074 A 
ATOM     36  C   UNL A   1      40.866  29.408  30.410  1.00  0.00     0.049 A 
ATOM     37  N   UNL A   1      39.007  31.464  29.247  1.00  0.00    -0.248 NA
ATOM     38  C   UNL A   1      37.609  29.792  28.535  1.00  0.00     0.031 C 
ATOM     39  C   UNL A   1      40.980  30.393  31.467  1.00  0.00     0.029 A 
ATOM     40  N   UNL A   1      42.012  28.604  30.588  1.00  0.00    -0.354 N 
ATOM     41  C   UNL A   1      37.736  31.987  29.176  1.00  0.00     0.074 A 
ATOM     42  C   UNL A   1      36.930  30.945  28.585  1.00  0.00     0.031 C 
ATOM     43  C   UNL A   1      42.247  30.360  31.936  1.00  0.00     0.029 A 
ATOM     44  C   UNL A   1      43.007  29.455  31.081  1.00  0.00     0.049 A 
ATOM     45  H   UNL A   1      42.094  27.641  30.404  1.00  0.00     0.167 HD
ATOM     46  C   UNL A   1      37.490  33.168  29.814  1.00  0.00     0.037 A 
ATOM     47  C   UNL A   1      43.998  29.796  30.199  1.00  0.00     0.037 A 
ATOM     48  C   UNL A   1      38.712  33.637  30.476  1.00  0.00     0.049 A 
ATOM     49  C   UNL A   1      43.894  31.244  29.770  1.00  0.00     0.074 A 
ATOM     50  C   UNL A   1      39.190  33.538  31.773  1.00  0.00     0.029 A 
ATOM     51  N   UNL A   1      39.813  33.937  29.695  1.00  0.00    -0.354 N 
ATOM     52  N   UNL A   1      42.855  32.003  29.995  1.00  0.00    -0.248 NA
ATOM     53  C   UNL A   1      44.940  31.940  29.033  1.00  0.00     0.031 C 
ATOM     54  C   UNL A   1      40.600  33.768  31.749  1.00  0.00     0.029 A 
ATOM     55  C   UNL A   1      40.973  34.012  30.439  1.00  0.00     0.049 A 
ATOM     56  H   UNL A   1      39.774  34.080  28.722  1.00  0.00     0.167 HD
ATOM     57  C   UNL A   1      43.092  33.265  29.537  1.00  0.00     0.074 A 
ATOM     58  C   UNL A   1      44.388  33.158  28.884  1.00  0.00     0.031 C 
ATOM     59  C   UNL A   1      42.220  34.300  29.745  1.00  0.00     0.037 A 
BRANCH  46  60
ATOM     60  C   UNL A   1      36.117  33.735  30.087  1.00  0.00     0.064 A 
ATOM     61  C   UNL A   1      35.293  34.162  29.023  1.00  0.00     0.173 A 
ATOM     62  C   UNL A   1      35.553  33.893  31.368  1.00  0.00     0.173 A 
ATOM     63  F   UNL A   1      35.656  33.994  27.745  1.00  0.00    -0.203 F 
ATOM     64  C   UNL A   1      34.058  34.783  29.227  1.00  0.00     0.198 A 
ATOM     65  C   UNL A   1      34.333  34.551  31.575  1.00  0.00     0.198 A 
ATOM     66  F   UNL A   1      36.134  33.370  32.455  1.00  0.00    -0.203 F 
ATOM     67  F   UNL A   1      33.328  35.171  28.170  1.00  0.00    -0.200 F 
ATOM     68  C   UNL A   1      33.590  35.004  30.504  1.00  0.00     0.200 A 
ATOM     69  F   UNL A   1      33.881  34.739  32.823  1.00  0.00    -0.200 F 
ATOM     70  F   UNL A   1      32.420  35.626  30.700  1.00  0.00    -0.200 F 
ENDBRANCH  46  60
BRANCH  47  71
ATOM     71  C   UNL A   1      44.365  28.630  29.318  1.00  0.00     0.064 A 
ATOM     72  C   UNL A   1      44.074  28.740  27.937  1.00  0.00     0.173 A 
ATOM     73  C   UNL A   1      45.360  27.710  29.683  1.00  0.00     0.173 A 
ATOM     74  F   UNL A   1      43.124  29.593  27.521  1.00  0.00    -0.203 F 
ATOM     75  C   UNL A   1      44.858  28.107  26.972  1.00  0.00     0.198 A 
ATOM     76  C   UNL A   1      46.117  27.046  28.710  1.00  0.00     0.198 A 
ATOM     77  F   UNL A   1      45.685  27.539  30.972  1.00  0.00    -0.203 F 
ATOM     78  F   UNL A   1      44.659  28.369  25.671  1.00  0.00    -0.200 F 
ATOM     79  C   UNL A   1      45.901  27.286  27.359  1.00  0.00     0.200 A 
ATOM     80  F   UNL A   1      47.118  26.235  29.083  1.00  0.00    -0.200 F 
ATOM     81  F   UNL A   1      46.719  26.760  26.436  1.00  0.00    -0.200 F 
ENDBRANCH  47  71
BRANCH  59  82
ATOM     82  C   UNL A   1      42.476  35.709  29.290  1.00  0.00     0.064 A 
ATOM     83  C   UNL A   1      41.955  36.222  28.095  1.00  0.00     0.173 A 
ATOM     84  C   UNL A   1      43.340  36.573  30.004  1.00  0.00     0.173 A 
ATOM     85  F   UNL A   1      41.255  35.445  27.256  1.00  0.00    -0.203 F 
ATOM     86  C   UNL A   1      42.169  37.547  27.714  1.00  0.00     0.198 A 
ATOM     87  C   UNL A   1      43.606  37.872  29.586  1.00  0.00     0.198 A 
ATOM     88  F   UNL A   1      43.942  36.205  31.142  1.00  0.00    -0.203 F 
ATOM     89  F   UNL A   1      41.570  38.022  26.614  1.00  0.00    -0.200 F 
ATOM     90  C   UNL A   1      42.990  38.372  28.460  1.00  0.00     0.200 A 
ATOM     91  F   UNL A   1      44.450  38.634  30.295  1.00  0.00    -0.200 F 
ATOM     92  F   UNL A   1      43.194  39.642  28.094  1.00  0.00    -0.200 F 
ENDBRANCH  59  82
ENDBRANCH  33  34
ENDBRANCH  25  28
ENDBRANCH  23  24
ENDBRANCH   1  23
TORSDOF 12
ENDMDL
MODEL 3
REMARK VINA RESULT:     -13.6      0.644      1.305
REMARK SMILES Cc1ccc(-c2ccc(C(=O)NCCCNC(=O)c3ccc(-c4c5nc(c(-c6c(F)c(F)c(F)c(F)c6F)c6ccc([nH]6)c(-c6c(F)c(F)c(F)c(F)c6F)c6nc(c(-c7c(F)c(F)c(F)c(F)c7F)c7ccc4[nH]7)C=C6)C=C5)cc3)c(O)c2)c(F)c1
REMARK SMILES IDX 14 1 13 2 12 3 10 4 11 5 9 7 6 8 7 9 84 10 8 11 82 12 5 13
REMARK SMILES IDX 1 14 2 15 3 16 87 17 4 18 85 19 86 20 83 21 15 23 16 24
REMARK SMILES IDX 17 25 18 27 19 28 20 29 81 30 21 31 80 32 22 33 23 34 24 35
REMARK SMILES IDX 74 36 25 37 79 38 73 39 75 40 26 41 78 42 72 43 71 44 27 46
REMARK SMILES IDX 59 47 39 48 58 49 40 50 43 51 57 52 76 53 41 54 42 55 56 57
REMARK SMILES IDX 77 58 44 59 28 60 29 61 37 62 30 63 31 64 35 65 38 66 32 67
REMARK SMILES IDX 33 68 36 69 34 70 60 71 61 72 69 73 62 74 63 75 67 76 70 77
REMARK SMILES IDX 64 78 65 79 68 80 66 81 45 82 46 83 54 84 47 85 48 86 52 87
REMARK SMILES IDX 55 88 49 89 50 90 53 91 51 92
REMARK H PARENT 12 6 83 22 16 26 75 45 43 56
REMARK Flexibility Score: inf
ROOT
ATOM      1  C   UNL A   1      33.719  29.177  26.149  1.00  0.00     0.042 C 
ENDROOT
BRANCH   1   2
ATOM      2  C   UNL A   1      32.487  28.524  26.723  1.00  0.00     0.118 C 
BRANCH   2   3
ATOM      3  N   UNL A   1      31.393  28.308  25.785  1.00  0.00    -0.352 N 
ATOM      4  C   UNL A   1      31.196  27.213  24.972  1.00  0.00     0.255 C 
ATOM      5  O   UNL A   1      30.228  27.171  24.220  1.00  0.00    -0.269 OA
ATOM      6  H   UNL A   1      30.719  29.023  25.727  1.00  0.00     0.163 HD
BRANCH   4   7
ATOM      7  C   UNL A   1      32.197  26.122  24.967  1.00  0.00     0.081 A 
ATOM      8  C   UNL A   1      34.396  24.367  25.099  1.00  0.00    -0.012 A 
ATOM      9  C   UNL A   1      34.241  25.243  24.010  1.00  0.00     0.010 A 
ATOM     10  C   UNL A   1      33.408  24.374  26.093  1.00  0.00     0.055 A 
ATOM     11  C   UNL A   1      33.163  26.133  23.956  1.00  0.00     0.018 A 
ATOM     12  C   UNL A   1      32.274  25.157  25.970  1.00  0.00     0.128 A 
BRANCH   8  13
ATOM     13  C   UNL A   1      35.494  23.392  25.189  1.00  0.00     0.018 A 
ATOM     14  C   UNL A   1      38.624  20.409  25.375  1.00  0.00     0.044 C 
ATOM     15  C   UNL A   1      37.552  21.452  25.337  1.00  0.00    -0.048 A 
ATOM     16  C   UNL A   1      37.783  22.770  25.749  1.00  0.00     0.004 A 
ATOM     17  C   UNL A   1      36.290  21.103  24.861  1.00  0.00     0.043 A 
ATOM     18  C   UNL A   1      36.765  23.730  25.681  1.00  0.00     0.012 A 
ATOM     19  C   UNL A   1      35.291  22.062  24.782  1.00  0.00     0.131 A 
ATOM     20  F   UNL A   1      34.106  21.672  24.284  1.00  0.00    -0.206 F 
ENDBRANCH   8  13
BRANCH  12  21
ATOM     21  O   UNL A   1      31.286  24.897  26.876  1.00  0.00    -0.507 OA
ATOM     22  H   UNL A   1      30.424  25.238  26.740  1.00  0.00     0.293 HD
ENDBRANCH  12  21
ENDBRANCH   4   7
ENDBRANCH   2   3
ENDBRANCH   1   2
BRANCH   1  23
ATOM     23  C   UNL A   1      34.902  29.050  27.071  1.00  0.00     0.118 C 
BRANCH  23  24
ATOM     24  N   UNL A   1      34.999  30.128  28.068  1.00  0.00    -0.352 N 
ATOM     25  C   UNL A   1      36.018  30.351  28.981  1.00  0.00     0.251 C 
ATOM     26  H   UNL A   1      34.250  30.767  28.088  1.00  0.00     0.163 HD
ATOM     27  O   UNL A   1      35.928  31.141  29.887  1.00  0.00    -0.269 OA
BRANCH  25  28
ATOM     28  C   UNL A   1      37.249  29.583  28.748  1.00  0.00     0.039 A 
ATOM     29  C   UNL A   1      38.191  29.949  27.780  1.00  0.00     0.014 A 
ATOM     30  C   UNL A   1      37.490  28.578  29.673  1.00  0.00     0.014 A 
ATOM     31  C   UNL A   1      39.432  29.319  27.795  1.00  0.00     0.010 A 
ATOM     32  C   UNL A   1      38.772  28.186  29.857  1.00  0.00     0.010 A 
ATOM     33  C   UNL A   1      39.708  28.455  28.855  1.00  0.00    -0.014 A 
BRANCH  33  34
ATOM     34  C   UNL A   1      40.903  27.656  29.017  1.00  0.00     0.031 A 
ATOM     35  C   UNL A   1      40.899  26.234  28.682  1.00  0.00     0.074 A 
ATOM     36  C   UNL A   1      42.011  28.397  29.253  1.00  0.00     0.049 A 
ATOM     37  N   UNL A   1      41.775  25.402  29.115  1.00  0.00    -0.248 NA
ATOM     38  C   UNL A   1      39.889  25.614  27.828  1.00  0.00     0.031 C 
ATOM     39  C   UNL A   1      43.423  28.096  29.121  1.00  0.00     0.029 A 
ATOM     40  N   UNL A   1      42.003  29.706  29.778  1.00  0.00    -0.354 N 
ATOM     41  C   UNL A   1      41.672  24.270  28.339  1.00  0.00     0.074 A 
ATOM     42  C   UNL A   1      40.399  24.387  27.665  1.00  0.00     0.031 C 
ATOM     43  C   UNL A   1      44.113  29.000  29.852  1.00  0.00     0.029 A 
ATOM     44  C   UNL A   1      43.142  29.803  30.586  1.00  0.00     0.049 A 
ATOM     45  H   UNL A   1      41.334  30.407  29.611  1.00  0.00     0.167 HD
ATOM     46  C   UNL A   1      42.772  23.473  28.214  1.00  0.00     0.037 A 
ATOM     47  C   UNL A   1      42.923  29.797  31.937  1.00  0.00     0.037 A 
ATOM     48  C   UNL A   1      43.887  24.044  28.979  1.00  0.00     0.049 A 
ATOM     49  C   UNL A   1      43.389  28.505  32.575  1.00  0.00     0.074 A 
ATOM     50  C   UNL A   1      44.966  24.844  28.636  1.00  0.00     0.029 A 
ATOM     51  N   UNL A   1      43.753  24.166  30.350  1.00  0.00    -0.354 N 
ATOM     52  N   UNL A   1      43.712  27.432  31.905  1.00  0.00    -0.248 NA
ATOM     53  C   UNL A   1      43.499  28.315  34.015  1.00  0.00     0.031 C 
ATOM     54  C   UNL A   1      45.462  25.458  29.827  1.00  0.00     0.029 A 
ATOM     55  C   UNL A   1      44.688  25.026  30.889  1.00  0.00     0.049 A 
ATOM     56  H   UNL A   1      43.070  23.694  30.879  1.00  0.00     0.167 HD
ATOM     57  C   UNL A   1      44.141  26.461  32.761  1.00  0.00     0.074 A 
ATOM     58  C   UNL A   1      43.928  27.041  34.078  1.00  0.00     0.031 C 
ATOM     59  C   UNL A   1      44.655  25.269  32.324  1.00  0.00     0.037 A 
BRANCH  46  60
ATOM     60  C   UNL A   1      42.933  22.372  27.193  1.00  0.00     0.064 A 
ATOM     61  C   UNL A   1      42.122  21.217  27.251  1.00  0.00     0.173 A 
ATOM     62  C   UNL A   1      43.866  22.383  26.138  1.00  0.00     0.173 A 
ATOM     63  F   UNL A   1      41.130  21.102  28.143  1.00  0.00    -0.203 F 
ATOM     64  C   UNL A   1      42.296  20.129  26.392  1.00  0.00     0.198 A 
ATOM     65  C   UNL A   1      44.068  21.276  25.303  1.00  0.00     0.198 A 
ATOM     66  F   UNL A   1      44.576  23.481  25.847  1.00  0.00    -0.203 F 
ATOM     67  F   UNL A   1      41.495  19.059  26.506  1.00  0.00    -0.200 F 
ATOM     68  C   UNL A   1      43.289  20.146  25.437  1.00  0.00     0.200 A 
ATOM     69  F   UNL A   1      45.024  21.317  24.364  1.00  0.00    -0.200 F 
ATOM     70  F   UNL A   1      43.475  19.090  24.633  1.00  0.00    -0.200 F 
ENDBRANCH  46  60
BRANCH  47  71
ATOM     71  C   UNL A   1      41.676  30.566  32.289  1.00  0.00     0.064 A 
ATOM     72  C   UNL A   1      41.632  31.935  31.935  1.00  0.00     0.173 A 
ATOM     73  C   UNL A   1      40.443  29.925  32.491  1.00  0.00     0.173 A 
ATOM     74  F   UNL A   1      42.776  32.611  31.740  1.00  0.00    -0.203 F 
ATOM     75  C   UNL A   1      40.431  32.571  31.620  1.00  0.00     0.198 A 
ATOM     76  C   UNL A   1      39.238  30.581  32.212  1.00  0.00     0.198 A 
ATOM     77  F   UNL A   1      40.401  28.632  32.840  1.00  0.00    -0.203 F 
ATOM     78  F   UNL A   1      40.444  33.818  31.126  1.00  0.00    -0.200 F 
ATOM     79  C   UNL A   1      39.237  31.882  31.727  1.00  0.00     0.200 A 
ATOM     80  F   UNL A   1      38.077  29.921  32.332  1.00  0.00    -0.200 F 
ATOM     81  F   UNL A   1      38.093  32.458  31.327  1.00  0.00    -0.200 F 
ENDBRANCH  47  71
BRANCH  59  82
ATOM     82  C   UNL A   1      45.176  24.200  33.243  1.00  0.00     0.064 A 
ATOM     83  C   UNL A   1      44.398  23.108  33.647  1.00  0.00     0.173 A 
ATOM     84  C   UNL A   1      46.462  24.287  33.827  1.00  0.00     0.173 A 
ATOM     85  F   UNL A   1      43.110  23.005  33.286  1.00  0.00    -0.203 F 
ATOM     86  C   UNL A   1      44.915  22.104  34.465  1.00  0.00     0.198 A 
ATOM     87  C   UNL A   1      46.951  23.319  34.697  1.00  0.00     0.198 A 
ATOM     88  F   UNL A   1      47.302  25.297  33.566  1.00  0.00    -0.203 F 
ATOM     89  F   UNL A   1      44.166  21.029  34.746  1.00  0.00    -0.200 F 
ATOM     90  C   UNL A   1      46.192  22.207  34.986  1.00  0.00     0.200 A 
ATOM     91  F   UNL A   1      48.170  23.469  35.234  1.00  0.00    -0.200 F 
ATOM     92  F   UNL A   1      46.688  21.243  35.771  1.00  0.00    -0.200 F 
ENDBRANCH  59  82
ENDBRANCH  33  34
ENDBRANCH  25  28
ENDBRANCH  23  24
ENDBRANCH   1  23
TORSDOF 12
ENDMDL
