MODEL 1
REMARK VINA RESULT:     -12.8      0.000      0.000
REMARK SMILES CC1(C)CCC[C@H]1NC(=O)N[C@@H]1COC[C@@]1(C)C(=O)NCCCNC(=O)c1ccc(-c2c3nc(c(-c4c(F)c(F)c(F)c(F)c4F)c4ccc([nH]4)c(-c4c(F)c(F)c(F)c(F)c4F)c4nc(c(-c5c(F)c(F)c(F)c(F)c5F)c5ccc2[nH]5)C=C4)C=C3)cc1
REMARK SMILES IDX 22 1 21 2 20 3 18 4 19 5 16 7 12 8 13 9 14 10 15 11 17 12
REMARK SMILES IDX 11 13 8 14 9 15 10 17 7 19 1 20 2 21 3 22 4 23 5 24 6 25
REMARK SMILES IDX 23 26 24 27 25 28 26 30 27 31 28 32 89 33 29 34 88 35 30 36
REMARK SMILES IDX 31 37 32 38 82 39 33 40 87 41 81 42 83 43 34 44 86 45 80 46
REMARK SMILES IDX 79 47 35 49 67 50 47 51 66 52 48 53 51 54 65 55 84 56 49 57
REMARK SMILES IDX 50 58 64 60 85 61 52 62 36 63 37 64 45 65 38 66 39 67 43 68
REMARK SMILES IDX 46 69 40 70 41 71 44 72 42 73 68 74 69 75 77 76 70 77 71 78
REMARK SMILES IDX 75 79 78 80 72 81 73 82 76 83 74 84 53 85 54 86 62 87 55 88
REMARK SMILES IDX 56 89 60 90 63 91 57 92 58 93 61 94 59 95
REMARK H PARENT 20 6 8 16 11 18 24 29 83 48 51 59
REMARK Flexibility Score: inf
ROOT
ATOM      1  C   UNL A   1      31.814  28.685  26.585  1.00  0.00     0.042 C 
ENDROOT
BRANCH   1   2
ATOM      2  C   UNL A   1      31.225  27.567  25.724  1.00  0.00     0.117 C 
BRANCH   2   3
ATOM      3  N   UNL A   1      31.179  27.801  24.290  1.00  0.00    -0.355 N 
ATOM      4  C   UNL A   1      31.505  27.024  23.218  1.00  0.00     0.230 C 
ATOM      5  O   UNL A   1      31.071  27.412  22.128  1.00  0.00    -0.274 OA
ATOM      6  H   UNL A   1      30.848  28.695  24.046  1.00  0.00     0.163 HD
BRANCH   4   7
ATOM      7  C   UNL A   1      32.442  25.813  23.315  1.00  0.00     0.092 C 
ATOM      8  C   UNL A   1      31.792  24.492  23.775  1.00  0.00     0.127 C 
ATOM      9  C   UNL A   1      32.263  23.405  22.810  1.00  0.00     0.186 C 
ATOM     10  O   UNL A   1      33.217  24.017  21.941  1.00  0.00    -0.378 OA
ATOM     11  C   UNL A   1      32.869  25.408  21.883  1.00  0.00     0.179 C 
ATOM     12  C   UNL A   1      33.687  26.269  24.057  1.00  0.00     0.026 C 
BRANCH   8  13
ATOM     13  N   UNL A   1      31.819  24.089  25.186  1.00  0.00    -0.332 N 
ATOM     14  N   UNL A   1      33.718  22.829  25.884  1.00  0.00    -0.335 N 
ATOM     15  C   UNL A   1      32.567  23.460  26.084  1.00  0.00     0.315 C 
ATOM     16  H   UNL A   1      34.171  22.630  26.735  1.00  0.00     0.165 HD
ATOM     17  O   UNL A   1      32.146  23.488  27.245  1.00  0.00    -0.249 OA
ATOM     18  H   UNL A   1      30.989  24.393  25.621  1.00  0.00     0.165 HD
BRANCH  14  19
ATOM     19  C   UNL A   1      34.493  22.349  24.743  1.00  0.00     0.089 C 
ATOM     20  C   UNL A   1      36.329  24.056  25.566  1.00  0.00     0.013 C 
ATOM     21  C   UNL A   1      36.006  22.751  24.820  1.00  0.00    -0.015 C 
ATOM     22  C   UNL A   1      36.620  22.838  23.404  1.00  0.00     0.013 C 
ATOM     23  C   UNL A   1      36.629  21.568  25.580  1.00  0.00     0.008 C 
ATOM     24  C   UNL A   1      35.932  20.352  25.001  1.00  0.00     0.003 C 
ATOM     25  C   UNL A   1      34.494  20.801  24.755  1.00  0.00     0.025 C 
ENDBRANCH  14  19
ENDBRANCH   8  13
ENDBRANCH   4   7
ENDBRANCH   2   3
ENDBRANCH   1   2
BRANCH   1  26
ATOM     26  C   UNL A   1      32.806  29.612  25.893  1.00  0.00     0.118 C 
BRANCH  26  27
ATOM     27  N   UNL A   1      32.659  30.995  26.308  1.00  0.00    -0.352 N 
ATOM     28  C   UNL A   1      33.349  31.767  27.207  1.00  0.00     0.251 C 
ATOM     29  H   UNL A   1      31.924  31.469  25.860  1.00  0.00     0.163 HD
ATOM     30  O   UNL A   1      32.855  32.845  27.533  1.00  0.00    -0.269 OA
BRANCH  28  31
ATOM     31  C   UNL A   1      34.660  31.375  27.790  1.00  0.00     0.039 A 
ATOM     32  C   UNL A   1      34.769  30.083  28.323  1.00  0.00     0.014 A 
ATOM     33  C   UNL A   1      35.726  32.264  27.952  1.00  0.00     0.014 A 
ATOM     34  C   UNL A   1      35.926  29.685  29.001  1.00  0.00     0.010 A 
ATOM     35  C   UNL A   1      36.911  31.845  28.571  1.00  0.00     0.010 A 
ATOM     36  C   UNL A   1      37.015  30.562  29.125  1.00  0.00    -0.014 A 
BRANCH  36  37
ATOM     37  C   UNL A   1      38.238  30.133  29.857  1.00  0.00     0.031 A 
ATOM     38  C   UNL A   1      38.498  30.590  31.267  1.00  0.00     0.074 A 
ATOM     39  C   UNL A   1      39.134  29.335  29.245  1.00  0.00     0.049 A 
ATOM     40  N   UNL A   1      39.486  30.281  32.071  1.00  0.00    -0.248 NA
ATOM     41  C   UNL A   1      37.535  31.540  31.843  1.00  0.00     0.031 C 
ATOM     42  C   UNL A   1      39.040  28.873  27.861  1.00  0.00     0.029 A 
ATOM     43  N   UNL A   1      40.298  28.774  29.709  1.00  0.00    -0.354 N 
ATOM     44  C   UNL A   1      39.271  31.004  33.237  1.00  0.00     0.074 A 
ATOM     45  C   UNL A   1      38.085  31.806  33.019  1.00  0.00     0.031 C 
ATOM     46  C   UNL A   1      40.093  28.084  27.591  1.00  0.00     0.029 A 
ATOM     47  C   UNL A   1      40.940  27.997  28.777  1.00  0.00     0.049 A 
ATOM     48  H   UNL A   1      40.640  28.916  30.621  1.00  0.00     0.167 HD
ATOM     49  C   UNL A   1      39.984  30.990  34.391  1.00  0.00     0.037 A 
ATOM     50  C   UNL A   1      42.079  27.283  28.868  1.00  0.00     0.037 A 
ATOM     51  C   UNL A   1      41.148  30.174  34.620  1.00  0.00     0.049 A 
ATOM     52  C   UNL A   1      42.821  27.233  30.174  1.00  0.00     0.074 A 
ATOM     53  C   UNL A   1      41.887  30.027  35.783  1.00  0.00     0.029 A 
ATOM     54  N   UNL A   1      41.749  29.368  33.665  1.00  0.00    -0.354 N 
ATOM     55  N   UNL A   1      42.556  27.852  31.299  1.00  0.00    -0.248 NA
ATOM     56  C   UNL A   1      44.009  26.372  30.227  1.00  0.00     0.031 C 
ATOM     57  C   UNL A   1      42.957  29.164  35.518  1.00  0.00     0.029 A 
ATOM     58  C   UNL A   1      42.863  28.741  34.202  1.00  0.00     0.049 A 
ATOM     59  H   UNL A   1      41.432  29.260  32.738  1.00  0.00     0.167 HD
ATOM     60  C   UNL A   1      43.536  27.451  32.196  1.00  0.00     0.074 A 
ATOM     61  C   UNL A   1      44.386  26.512  31.490  1.00  0.00     0.031 C 
ATOM     62  C   UNL A   1      43.716  27.828  33.485  1.00  0.00     0.037 A 
BRANCH  49  63
ATOM     63  C   UNL A   1      39.521  31.895  35.498  1.00  0.00     0.064 A 
ATOM     64  C   UNL A   1      38.575  31.475  36.446  1.00  0.00     0.173 A 
ATOM     65  C   UNL A   1      40.040  33.192  35.621  1.00  0.00     0.173 A 
ATOM     66  F   UNL A   1      38.041  30.247  36.368  1.00  0.00    -0.203 F 
ATOM     67  C   UNL A   1      38.139  32.334  37.452  1.00  0.00     0.198 A 
ATOM     68  C   UNL A   1      39.623  34.039  36.646  1.00  0.00     0.198 A 
ATOM     69  F   UNL A   1      40.953  33.642  34.747  1.00  0.00    -0.203 F 
ATOM     70  F   UNL A   1      37.194  31.929  38.312  1.00  0.00    -0.200 F 
ATOM     71  C   UNL A   1      38.666  33.612  37.554  1.00  0.00     0.200 A 
ATOM     72  F   UNL A   1      40.141  35.270  36.750  1.00  0.00    -0.200 F 
ATOM     73  F   UNL A   1      38.243  34.438  38.521  1.00  0.00    -0.200 F 
ENDBRANCH  49  63
BRANCH  50  74
ATOM     74  C   UNL A   1      42.556  26.527  27.685  1.00  0.00     0.064 A 
ATOM     75  C   UNL A   1      43.499  27.081  26.808  1.00  0.00     0.173 A 
ATOM     76  C   UNL A   1      42.114  25.220  27.433  1.00  0.00     0.173 A 
ATOM     77  F   UNL A   1      43.935  28.334  26.999  1.00  0.00    -0.203 F 
ATOM     78  C   UNL A   1      43.976  26.356  25.717  1.00  0.00     0.198 A 
ATOM     79  C   UNL A   1      42.609  24.490  26.355  1.00  0.00     0.198 A 
ATOM     80  F   UNL A   1      41.216  24.647  28.249  1.00  0.00    -0.203 F 
ATOM     81  F   UNL A   1      44.856  26.917  24.878  1.00  0.00    -0.200 F 
ATOM     82  C   UNL A   1      43.537  25.059  25.498  1.00  0.00     0.200 A 
ATOM     83  F   UNL A   1      42.193  23.232  26.154  1.00  0.00    -0.200 F 
ATOM     84  F   UNL A   1      44.007  24.358  24.457  1.00  0.00    -0.200 F 
ENDBRANCH  50  74
BRANCH  62  85
ATOM     85  C   UNL A   1      44.885  27.229  34.211  1.00  0.00     0.064 A 
ATOM     86  C   UNL A   1      46.135  27.866  34.235  1.00  0.00     0.173 A 
ATOM     87  C   UNL A   1      44.755  26.014  34.899  1.00  0.00     0.173 A 
ATOM     88  F   UNL A   1      46.315  29.023  33.579  1.00  0.00    -0.203 F 
ATOM     89  C   UNL A   1      47.220  27.291  34.891  1.00  0.00     0.198 A 
ATOM     90  C   UNL A   1      45.835  25.455  35.578  1.00  0.00     0.198 A 
ATOM     91  F   UNL A   1      43.580  25.366  34.912  1.00  0.00    -0.203 F 
ATOM     92  F   UNL A   1      48.418  27.892  34.856  1.00  0.00    -0.200 F 
ATOM     93  C   UNL A   1      47.068  26.090  35.565  1.00  0.00     0.200 A 
ATOM     94  F   UNL A   1      45.685  24.297  36.235  1.00  0.00    -0.200 F 
ATOM     95  F   UNL A   1      48.114  25.536  36.195  1.00  0.00    -0.200 F 
ENDBRANCH  62  85
ENDBRANCH  36  37
ENDBRANCH  28  31
ENDBRANCH  26  27
ENDBRANCH   1  26
TORSDOF 12
ENDMDL
MODEL 2
REMARK VINA RESULT:     -12.7      0.206      1.961
REMARK SMILES CC1(C)CCC[C@H]1NC(=O)N[C@@H]1COC[C@@]1(C)C(=O)NCCCNC(=O)c1ccc(-c2c3nc(c(-c4c(F)c(F)c(F)c(F)c4F)c4ccc([nH]4)c(-c4c(F)c(F)c(F)c(F)c4F)c4nc(c(-c5c(F)c(F)c(F)c(F)c5F)c5ccc2[nH]5)C=C4)C=C3)cc1
REMARK SMILES IDX 22 1 21 2 20 3 18 4 19 5 16 7 12 8 13 9 14 10 15 11 17 12
REMARK SMILES IDX 11 13 8 14 9 15 10 17 7 19 1 20 2 21 3 22 4 23 5 24 6 25
REMARK SMILES IDX 23 26 24 27 25 28 26 30 27 31 28 32 89 33 29 34 88 35 30 36
REMARK SMILES IDX 31 37 32 38 82 39 33 40 87 41 81 42 83 43 34 44 86 45 80 46
REMARK SMILES IDX 79 47 35 49 67 50 47 51 66 52 48 53 51 54 65 55 84 56 49 57
REMARK SMILES IDX 50 58 64 60 85 61 52 62 36 63 37 64 45 65 38 66 39 67 43 68
REMARK SMILES IDX 46 69 40 70 41 71 44 72 42 73 68 74 69 75 77 76 70 77 71 78
REMARK SMILES IDX 75 79 78 80 72 81 73 82 76 83 74 84 53 85 54 86 62 87 55 88
REMARK SMILES IDX 56 89 60 90 63 91 57 92 58 93 61 94 59 95
REMARK H PARENT 20 6 8 16 11 18 24 29 83 48 51 59
REMARK Flexibility Score: inf
ROOT
ATOM      1  C   UNL A   1      32.066  28.421  26.583  1.00  0.00     0.042 C 
ENDROOT
BRANCH   1   2
ATOM      2  C   UNL A   1      31.242  27.478  25.705  1.00  0.00     0.117 C 
BRANCH   2   3
ATOM      3  N   UNL A   1      31.240  27.748  24.277  1.00  0.00    -0.355 N 
ATOM      4  C   UNL A   1      31.542  26.978  23.192  1.00  0.00     0.230 C 
ATOM      5  O   UNL A   1      31.155  27.417  22.104  1.00  0.00    -0.274 OA
ATOM      6  H   UNL A   1      30.969  28.666  24.048  1.00  0.00     0.163 HD
BRANCH   4   7
ATOM      7  C   UNL A   1      32.403  25.710  23.278  1.00  0.00     0.092 C 
ATOM      8  C   UNL A   1      31.673  24.429  23.729  1.00  0.00     0.127 C 
ATOM      9  C   UNL A   1      32.074  23.322  22.755  1.00  0.00     0.186 C 
ATOM     10  O   UNL A   1      33.063  23.880  21.888  1.00  0.00    -0.378 OA
ATOM     11  C   UNL A   1      32.801  25.292  21.842  1.00  0.00     0.179 C 
ATOM     12  C   UNL A   1      33.674  26.083  24.021  1.00  0.00     0.026 C 
BRANCH   8  13
ATOM     13  N   UNL A   1      31.677  24.014  25.137  1.00  0.00    -0.332 N 
ATOM     14  N   UNL A   1      33.614  22.840  25.882  1.00  0.00    -0.335 N 
ATOM     15  C   UNL A   1      32.428  23.412  26.052  1.00  0.00     0.315 C 
ATOM     16  H   UNL A   1      34.050  22.655  26.744  1.00  0.00     0.165 HD
ATOM     17  O   UNL A   1      31.972  23.410  27.200  1.00  0.00    -0.249 OA
ATOM     18  H   UNL A   1      30.821  24.273  25.549  1.00  0.00     0.165 HD
BRANCH  14  19
ATOM     19  C   UNL A   1      34.445  22.410  24.761  1.00  0.00     0.089 C 
ATOM     20  C   UNL A   1      36.238  24.073  25.751  1.00  0.00     0.013 C 
ATOM     21  C   UNL A   1      35.953  22.804  24.932  1.00  0.00    -0.015 C 
ATOM     22  C   UNL A   1      36.637  22.952  23.554  1.00  0.00     0.013 C 
ATOM     23  C   UNL A   1      36.535  21.586  25.669  1.00  0.00     0.008 C 
ATOM     24  C   UNL A   1      35.869  20.399  25.001  1.00  0.00     0.003 C 
ATOM     25  C   UNL A   1      34.444  20.863  24.704  1.00  0.00     0.025 C 
ENDBRANCH  14  19
ENDBRANCH   8  13
ENDBRANCH   4   7
ENDBRANCH   2   3
ENDBRANCH   1   2
BRANCH   1  26
ATOM     26  C   UNL A   1      32.959  29.412  25.846  1.00  0.00     0.118 C 
BRANCH  26  27
ATOM     27  N   UNL A   1      32.766  30.779  26.297  1.00  0.00    -0.352 N 
ATOM     28  C   UNL A   1      33.414  31.541  27.234  1.00  0.00     0.251 C 
ATOM     29  H   UNL A   1      32.028  31.247  25.846  1.00  0.00     0.163 HD
ATOM     30  O   UNL A   1      32.884  32.596  27.580  1.00  0.00    -0.269 OA
BRANCH  28  31
ATOM     31  C   UNL A   1      34.721  31.166  27.837  1.00  0.00     0.039 A 
ATOM     32  C   UNL A   1      34.834  29.881  28.386  1.00  0.00     0.014 A 
ATOM     33  C   UNL A   1      35.778  32.065  28.001  1.00  0.00     0.014 A 
ATOM     34  C   UNL A   1      35.986  29.501  29.082  1.00  0.00     0.010 A 
ATOM     35  C   UNL A   1      36.960  31.663  28.638  1.00  0.00     0.010 A 
ATOM     36  C   UNL A   1      37.067  30.387  29.209  1.00  0.00    -0.014 A 
BRANCH  36  37
ATOM     37  C   UNL A   1      38.284  29.977  29.959  1.00  0.00     0.031 A 
ATOM     38  C   UNL A   1      38.535  30.468  31.359  1.00  0.00     0.074 A 
ATOM     39  C   UNL A   1      39.185  29.164  29.373  1.00  0.00     0.049 A 
ATOM     40  N   UNL A   1      39.517  30.178  32.178  1.00  0.00    -0.248 NA
ATOM     41  C   UNL A   1      37.568  31.431  31.905  1.00  0.00     0.031 C 
ATOM     42  C   UNL A   1      39.101  28.669  28.000  1.00  0.00     0.029 A 
ATOM     43  N   UNL A   1      40.346  28.615  29.858  1.00  0.00    -0.354 N 
ATOM     44  C   UNL A   1      39.294  30.930  33.324  1.00  0.00     0.074 A 
ATOM     45  C   UNL A   1      38.109  31.726  33.078  1.00  0.00     0.031 C 
ATOM     46  C   UNL A   1      40.155  27.873  27.756  1.00  0.00     0.029 A 
ATOM     47  C   UNL A   1      40.994  27.815  28.950  1.00  0.00     0.049 A 
ATOM     48  H   UNL A   1      40.681  28.779  30.769  1.00  0.00     0.167 HD
ATOM     49  C   UNL A   1      39.998  30.944  34.483  1.00  0.00     0.037 A 
ATOM     50  C   UNL A   1      42.132  27.104  29.067  1.00  0.00     0.037 A 
ATOM     51  C   UNL A   1      41.161  30.134  34.740  1.00  0.00     0.049 A 
ATOM     52  C   UNL A   1      42.865  27.086  30.379  1.00  0.00     0.074 A 
ATOM     53  C   UNL A   1      41.892  30.015  35.911  1.00  0.00     0.029 A 
ATOM     54  N   UNL A   1      41.768  29.305  33.809  1.00  0.00    -0.354 N 
ATOM     55  N   UNL A   1      42.592  27.732  31.486  1.00  0.00    -0.248 NA
ATOM     56  C   UNL A   1      44.053  26.226  30.461  1.00  0.00     0.031 C 
ATOM     57  C   UNL A   1      42.964  29.146  35.675  1.00  0.00     0.029 A 
ATOM     58  C   UNL A   1      42.879  28.692  34.369  1.00  0.00     0.049 A 
ATOM     59  H   UNL A   1      41.458  29.174  32.883  1.00  0.00     0.167 HD
ATOM     60  C   UNL A   1      43.566  27.353  32.400  1.00  0.00     0.074 A 
ATOM     61  C   UNL A   1      44.421  26.398  31.723  1.00  0.00     0.031 C 
ATOM     62  C   UNL A   1      43.737  27.761  33.680  1.00  0.00     0.037 A 
BRANCH  49  63
ATOM     63  C   UNL A   1      39.528  31.876  35.564  1.00  0.00     0.064 A 
ATOM     64  C   UNL A   1      40.024  33.184  35.678  1.00  0.00     0.173 A 
ATOM     65  C   UNL A   1      38.558  31.460  36.489  1.00  0.00     0.173 A 
ATOM     66  F   UNL A   1      40.959  33.627  34.824  1.00  0.00    -0.203 F 
ATOM     67  C   UNL A   1      39.594  34.027  36.700  1.00  0.00     0.198 A 
ATOM     68  C   UNL A   1      38.110  32.316  37.493  1.00  0.00     0.198 A 
ATOM     69  F   UNL A   1      38.043  30.224  36.421  1.00  0.00    -0.203 F 
ATOM     70  F   UNL A   1      40.124  35.252  36.822  1.00  0.00    -0.200 F 
ATOM     71  C   UNL A   1      38.635  33.595  37.603  1.00  0.00     0.200 A 
ATOM     72  F   UNL A   1      37.175  31.901  38.358  1.00  0.00    -0.200 F 
ATOM     73  F   UNL A   1      38.226  34.406  38.587  1.00  0.00    -0.200 F 
ENDBRANCH  49  63
BRANCH  50  74
ATOM     74  C   UNL A   1      42.618  26.319  27.906  1.00  0.00     0.064 A 
ATOM     75  C   UNL A   1      42.143  25.024  27.661  1.00  0.00     0.173 A 
ATOM     76  C   UNL A   1      43.534  26.865  26.995  1.00  0.00     0.173 A 
ATOM     77  F   UNL A   1      41.281  24.455  28.517  1.00  0.00    -0.203 F 
ATOM     78  C   UNL A   1      42.571  24.301  26.549  1.00  0.00     0.198 A 
ATOM     79  C   UNL A   1      43.944  26.149  25.873  1.00  0.00     0.198 A 
ATOM     80  F   UNL A   1      44.012  28.103  27.186  1.00  0.00    -0.203 F 
ATOM     81  F   UNL A   1      42.122  23.054  26.352  1.00  0.00    -0.200 F 
ATOM     82  C   UNL A   1      43.463  24.868  25.652  1.00  0.00     0.200 A 
ATOM     83  F   UNL A   1      44.796  26.705  25.001  1.00  0.00    -0.200 F 
ATOM     84  F   UNL A   1      43.864  24.177  24.576  1.00  0.00    -0.200 F 
ENDBRANCH  50  74
BRANCH  62  85
ATOM     85  C   UNL A   1      44.901  27.181  34.430  1.00  0.00     0.064 A 
ATOM     86  C   UNL A   1      44.782  25.983  35.151  1.00  0.00     0.173 A 
ATOM     87  C   UNL A   1      46.149  27.821  34.421  1.00  0.00     0.173 A 
ATOM     88  F   UNL A   1      43.605  25.342  35.204  1.00  0.00    -0.203 F 
ATOM     89  C   UNL A   1      45.861  25.465  35.862  1.00  0.00     0.198 A 
ATOM     90  C   UNL A   1      47.234  27.286  35.111  1.00  0.00     0.198 A 
ATOM     91  F   UNL A   1      46.317  28.966  33.743  1.00  0.00    -0.203 F 
ATOM     92  F   UNL A   1      45.709  24.347  36.587  1.00  0.00    -0.200 F 
ATOM     93  C   UNL A   1      47.086  26.114  35.838  1.00  0.00     0.200 A 
ATOM     94  F   UNL A   1      48.419  27.910  35.081  1.00  0.00    -0.200 F 
ATOM     95  F   UNL A   1      48.123  25.616  36.526  1.00  0.00    -0.200 F 
ENDBRANCH  62  85
ENDBRANCH  36  37
ENDBRANCH  28  31
ENDBRANCH  26  27
ENDBRANCH   1  26
TORSDOF 12
ENDMDL
MODEL 3
REMARK VINA RESULT:     -12.7      3.906      8.927
REMARK SMILES CC1(C)CCC[C@H]1NC(=O)N[C@@H]1COC[C@@]1(C)C(=O)NCCCNC(=O)c1ccc(-c2c3nc(c(-c4c(F)c(F)c(F)c(F)c4F)c4ccc([nH]4)c(-c4c(F)c(F)c(F)c(F)c4F)c4nc(c(-c5c(F)c(F)c(F)c(F)c5F)c5ccc2[nH]5)C=C4)C=C3)cc1
REMARK SMILES IDX 22 1 21 2 20 3 18 4 19 5 16 7 12 8 13 9 14 10 15 11 17 12
REMARK SMILES IDX 11 13 8 14 9 15 10 17 7 19 1 20 2 21 3 22 4 23 5 24 6 25
REMARK SMILES IDX 23 26 24 27 25 28 26 30 27 31 28 32 89 33 29 34 88 35 30 36
REMARK SMILES IDX 31 37 32 38 82 39 33 40 87 41 81 42 83 43 34 44 86 45 80 46
REMARK SMILES IDX 79 47 35 49 67 50 47 51 66 52 48 53 51 54 65 55 84 56 49 57
REMARK SMILES IDX 50 58 64 60 85 61 52 62 36 63 37 64 45 65 38 66 39 67 43 68
REMARK SMILES IDX 46 69 40 70 41 71 44 72 42 73 68 74 69 75 77 76 70 77 71 78
REMARK SMILES IDX 75 79 78 80 72 81 73 82 76 83 74 84 53 85 54 86 62 87 55 88
REMARK SMILES IDX 56 89 60 90 63 91 57 92 58 93 61 94 59 95
REMARK H PARENT 20 6 8 16 11 18 24 29 83 48 51 59
REMARK Flexibility Score: inf
ROOT
ATOM      1  C   UNL A   1      36.542  22.909  23.459  1.00  0.00     0.042 C 
ENDROOT
BRANCH   1   2
ATOM      2  C   UNL A   1      35.032  22.676  23.400  1.00  0.00     0.117 C 
BRANCH   2   3
ATOM      3  N   UNL A   1      34.429  22.000  24.538  1.00  0.00    -0.355 N 
ATOM      4  C   UNL A   1      33.322  22.268  25.288  1.00  0.00     0.230 C 
ATOM      5  O   UNL A   1      32.920  21.338  25.994  1.00  0.00    -0.274 OA
ATOM      6  H   UNL A   1      34.915  21.194  24.822  1.00  0.00     0.163 HD
BRANCH   4   7
ATOM      7  C   UNL A   1      32.673  23.657  25.358  1.00  0.00     0.092 C 
ATOM      8  C   UNL A   1      32.005  24.155  24.060  1.00  0.00     0.127 C 
ATOM      9  C   UNL A   1      30.626  24.690  24.447  1.00  0.00     0.186 C 
ATOM     10  O   UNL A   1      30.552  24.634  25.872  1.00  0.00    -0.378 OA
ATOM     11  C   UNL A   1      31.429  23.570  26.275  1.00  0.00     0.179 C 
ATOM     12  C   UNL A   1      33.674  24.586  26.023  1.00  0.00     0.026 C 
BRANCH   8  13
ATOM     13  N   UNL A   1      32.733  25.011  23.116  1.00  0.00    -0.332 N 
ATOM     14  N   UNL A   1      32.895  27.317  23.698  1.00  0.00    -0.335 N 
ATOM     15  C   UNL A   1      33.145  26.260  22.935  1.00  0.00     0.315 C 
ATOM     16  H   UNL A   1      33.480  28.074  23.466  1.00  0.00     0.165 HD
ATOM     17  O   UNL A   1      33.864  26.447  21.948  1.00  0.00    -0.249 OA
ATOM     18  H   UNL A   1      33.017  24.468  22.346  1.00  0.00     0.165 HD
BRANCH  14  19
ATOM     19  C   UNL A   1      31.986  27.662  24.788  1.00  0.00     0.089 C 
ATOM     20  C   UNL A   1      34.185  28.099  26.177  1.00  0.00     0.013 C 
ATOM     21  C   UNL A   1      32.698  28.420  25.961  1.00  0.00    -0.015 C 
ATOM     22  C   UNL A   1      31.952  28.184  27.294  1.00  0.00     0.013 C 
ATOM     23  C   UNL A   1      32.555  29.893  25.543  1.00  0.00     0.008 C 
ATOM     24  C   UNL A   1      31.147  29.982  24.987  1.00  0.00     0.003 C 
ATOM     25  C   UNL A   1      30.926  28.658  24.257  1.00  0.00     0.025 C 
ENDBRANCH  14  19
ENDBRANCH   8  13
ENDBRANCH   4   7
ENDBRANCH   2   3
ENDBRANCH   1   2
BRANCH   1  26
ATOM     26  C   UNL A   1      37.080  23.483  24.765  1.00  0.00     0.118 C 
BRANCH  26  27
ATOM     27  N   UNL A   1      38.036  22.600  25.409  1.00  0.00    -0.352 N 
ATOM     28  C   UNL A   1      39.118  22.842  26.216  1.00  0.00     0.251 C 
ATOM     29  H   UNL A   1      37.878  21.646  25.233  1.00  0.00     0.163 HD
ATOM     30  O   UNL A   1      39.893  21.912  26.428  1.00  0.00    -0.269 OA
BRANCH  28  31
ATOM     31  C   UNL A   1      39.388  24.159  26.853  1.00  0.00     0.039 A 
ATOM     32  C   UNL A   1      40.081  25.113  26.094  1.00  0.00     0.014 A 
ATOM     33  C   UNL A   1      39.110  24.436  28.194  1.00  0.00     0.014 A 
ATOM     34  C   UNL A   1      40.483  26.325  26.666  1.00  0.00     0.010 A 
ATOM     35  C   UNL A   1      39.452  25.676  28.749  1.00  0.00     0.010 A 
ATOM     36  C   UNL A   1      40.166  26.623  28.000  1.00  0.00    -0.014 A 
BRANCH  36  37
ATOM     37  C   UNL A   1      40.607  27.910  28.602  1.00  0.00     0.031 A 
ATOM     38  C   UNL A   1      42.048  28.141  28.971  1.00  0.00     0.074 A 
ATOM     39  C   UNL A   1      39.702  28.881  28.835  1.00  0.00     0.049 A 
ATOM     40  N   UNL A   1      42.618  29.214  29.462  1.00  0.00    -0.248 NA
ATOM     41  C   UNL A   1      42.967  27.008  28.787  1.00  0.00     0.031 C 
ATOM     42  C   UNL A   1      38.265  28.766  28.589  1.00  0.00     0.029 A 
ATOM     43  N   UNL A   1      39.858  30.151  29.330  1.00  0.00    -0.354 N 
ATOM     44  C   UNL A   1      43.953  28.883  29.657  1.00  0.00     0.074 A 
ATOM     45  C   UNL A   1      44.099  27.493  29.276  1.00  0.00     0.031 C 
ATOM     46  C   UNL A   1      37.671  29.925  28.917  1.00  0.00     0.029 A 
ATOM     47  C   UNL A   1      38.683  30.856  29.408  1.00  0.00     0.049 A 
ATOM     48  H   UNL A   1      40.728  30.521  29.604  1.00  0.00     0.167 HD
ATOM     49  C   UNL A   1      44.968  29.667  30.096  1.00  0.00     0.037 A 
ATOM     50  C   UNL A   1      38.445  32.117  29.820  1.00  0.00     0.037 A 
ATOM     51  C   UNL A   1      44.832  31.057  30.449  1.00  0.00     0.049 A 
ATOM     52  C   UNL A   1      39.593  32.988  30.245  1.00  0.00     0.074 A 
ATOM     53  C   UNL A   1      45.817  31.956  30.822  1.00  0.00     0.029 A 
ATOM     54  N   UNL A   1      43.631  31.750  30.480  1.00  0.00    -0.354 N 
ATOM     55  N   UNL A   1      40.866  32.690  30.338  1.00  0.00    -0.248 NA
ATOM     56  C   UNL A   1      39.273  34.376  30.604  1.00  0.00     0.031 C 
ATOM     57  C   UNL A   1      45.206  33.181  31.117  1.00  0.00     0.029 A 
ATOM     58  C   UNL A   1      43.845  33.057  30.889  1.00  0.00     0.049 A 
ATOM     59  H   UNL A   1      42.753  31.368  30.248  1.00  0.00     0.167 HD
ATOM     60  C   UNL A   1      41.501  33.851  30.757  1.00  0.00     0.074 A 
ATOM     61  C   UNL A   1      40.474  34.868  30.873  1.00  0.00     0.031 C 
ATOM     62  C   UNL A   1      42.814  34.054  31.024  1.00  0.00     0.037 A 
BRANCH  49  63
ATOM     63  C   UNL A   1      46.325  29.032  30.221  1.00  0.00     0.064 A 
ATOM     64  C   UNL A   1      47.237  29.025  29.153  1.00  0.00     0.173 A 
ATOM     65  C   UNL A   1      46.723  28.437  31.426  1.00  0.00     0.173 A 
ATOM     66  F   UNL A   1      46.901  29.573  27.976  1.00  0.00    -0.203 F 
ATOM     67  C   UNL A   1      48.481  28.412  29.278  1.00  0.00     0.198 A 
ATOM     68  C   UNL A   1      47.980  27.850  31.556  1.00  0.00     0.198 A 
ATOM     69  F   UNL A   1      45.895  28.424  32.481  1.00  0.00    -0.203 F 
ATOM     70  F   UNL A   1      49.312  28.368  28.227  1.00  0.00    -0.200 F 
ATOM     71  C   UNL A   1      48.853  27.829  30.479  1.00  0.00     0.200 A 
ATOM     72  F   UNL A   1      48.344  27.297  32.722  1.00  0.00    -0.200 F 
ATOM     73  F   UNL A   1      50.050  27.237  30.596  1.00  0.00    -0.200 F 
ENDBRANCH  49  63
BRANCH  50  74
ATOM     74  C   UNL A   1      37.054  32.632  29.807  1.00  0.00     0.064 A 
ATOM     75  C   UNL A   1      36.223  32.491  30.927  1.00  0.00     0.173 A 
ATOM     76  C   UNL A   1      36.544  33.315  28.693  1.00  0.00     0.173 A 
ATOM     77  F   UNL A   1      36.662  31.828  32.007  1.00  0.00    -0.203 F 
ATOM     78  C   UNL A   1      34.929  33.008  30.928  1.00  0.00     0.198 A 
ATOM     79  C   UNL A   1      35.259  33.850  28.706  1.00  0.00     0.198 A 
ATOM     80  F   UNL A   1      37.306  33.478  27.601  1.00  0.00    -0.203 F 
ATOM     81  F   UNL A   1      34.144  32.837  32.001  1.00  0.00    -0.200 F 
ATOM     82  C   UNL A   1      34.452  33.694  29.822  1.00  0.00     0.200 A 
ATOM     83  F   UNL A   1      34.806  34.524  27.640  1.00  0.00    -0.200 F 
ATOM     84  F   UNL A   1      33.213  34.204  29.831  1.00  0.00    -0.200 F 
ENDBRANCH  50  74
BRANCH  62  85
ATOM     85  C   UNL A   1      43.210  35.429  31.477  1.00  0.00     0.064 A 
ATOM     86  C   UNL A   1      43.636  36.406  30.564  1.00  0.00     0.173 A 
ATOM     87  C   UNL A   1      43.157  35.779  32.835  1.00  0.00     0.173 A 
ATOM     88  F   UNL A   1      43.721  36.115  29.257  1.00  0.00    -0.203 F 
ATOM     89  C   UNL A   1      44.025  37.671  30.997  1.00  0.00     0.198 A 
ATOM     90  C   UNL A   1      43.520  37.054  33.261  1.00  0.00     0.198 A 
ATOM     91  F   UNL A   1      42.752  34.884  33.748  1.00  0.00    -0.203 F 
ATOM     92  F   UNL A   1      44.478  38.570  30.112  1.00  0.00    -0.200 F 
ATOM     93  C   UNL A   1      43.963  37.995  32.343  1.00  0.00     0.200 A 
ATOM     94  F   UNL A   1      43.453  37.369  34.562  1.00  0.00    -0.200 F 
ATOM     95  F   UNL A   1      44.340  39.212  32.759  1.00  0.00    -0.200 F 
ENDBRANCH  62  85
ENDBRANCH  36  37
ENDBRANCH  28  31
ENDBRANCH  26  27
ENDBRANCH   1  26
TORSDOF 12
ENDMDL
