MODEL 1
REMARK VINA RESULT:     -13.3      0.000      0.000
REMARK SMILES COc1cccc(NC(=O)/C(C#N)=C\c2ccc(O[C@@H](C)C(=O)NCCCNC(=O)c3ccc(-c4c5nc(c(-c6c(F)c(F)c(F)c(F)c6F)c6ccc([nH]6)c(-c6c(F)c(F)c(F)c(F)c6F)c6nc(c(-c7c(F)c(F)c(F)c(F)c7F)c7ccc4[nH]7)C=C6)C=C5)cc3)cc2)c1
REMARK SMILES IDX 22 1 23 2 24 3 20 5 21 6 19 7 18 8 15 9 16 10 95 11 17 12
REMARK SMILES IDX 94 13 14 14 11 15 9 16 8 17 10 19 7 20 3 21 4 22 96 23 5 24
REMARK SMILES IDX 6 25 2 26 1 27 12 28 13 29 25 30 26 31 27 32 28 33 29 34
REMARK SMILES IDX 30 36 31 37 32 38 93 39 33 40 92 41 34 42 35 43 36 44 86 45
REMARK SMILES IDX 37 46 91 47 85 48 87 49 38 50 90 51 84 52 83 53 39 55 71 56
REMARK SMILES IDX 51 57 70 58 52 59 55 60 69 61 88 62 53 63 54 64 68 66 89 67
REMARK SMILES IDX 56 68 40 69 41 70 49 71 42 72 43 73 47 74 50 75 44 76 45 77
REMARK SMILES IDX 48 78 46 79 72 80 73 81 81 82 74 83 75 84 79 85 82 86 76 87
REMARK SMILES IDX 77 88 80 89 78 90 57 91 58 92 66 93 59 94 60 95 64 96 67 97
REMARK SMILES IDX 61 98 62 99 65 100 63 101
REMARK H PARENT 24 4 8 18 28 35 87 54 55 65
REMARK Flexibility Score: inf
ROOT
ATOM      1  C   UNL A   1      30.716  28.769  22.579  1.00  0.00     0.260 C 
ATOM      2  O   UNL A   1      29.929  29.355  21.820  1.00  0.00    -0.271 OA
ATOM      3  N   UNL A   1      31.235  29.548  23.564  1.00  0.00    -0.353 N 
ATOM      4  H   UNL A   1      30.841  30.451  23.596  1.00  0.00     0.163 HD
ENDROOT
BRANCH   1   5
ATOM      5  C   UNL A   1      30.956  27.235  22.396  1.00  0.00     0.258 C 
ATOM      6  C   UNL A   1      30.167  26.394  23.405  1.00  0.00     0.064 C 
BRANCH   5   7
ATOM      7  O   UNL A   1      32.207  26.694  21.958  1.00  0.00    -0.481 OA
BRANCH   7   8
ATOM      8  C   UNL A   1      32.872  25.758  22.677  1.00  0.00     0.120 A 
ATOM      9  C   UNL A   1      34.566  23.822  23.842  1.00  0.00    -0.024 A 
ATOM     10  C   UNL A   1      33.739  23.488  22.759  1.00  0.00     0.012 A 
ATOM     11  C   UNL A   1      34.413  25.091  24.389  1.00  0.00     0.012 A 
ATOM     12  C   UNL A   1      32.908  24.459  22.171  1.00  0.00     0.047 A 
ATOM     13  C   UNL A   1      33.509  26.008  23.872  1.00  0.00     0.047 A 
BRANCH   9  14
ATOM     14  C   UNL A   1      35.719  22.962  24.178  1.00  0.00     0.033 C 
ATOM     15  C   UNL A   1      35.958  22.044  25.150  1.00  0.00     0.118 C 
BRANCH  15  16
ATOM     16  C   UNL A   1      34.906  21.477  26.072  1.00  0.00     0.266 C 
ATOM     17  N   UNL A   1      34.240  20.299  25.903  1.00  0.00    -0.321 N 
ATOM     18  H   UNL A   1      34.156  19.793  26.742  1.00  0.00     0.170 HD
ATOM     19  O   UNL A   1      34.630  22.050  27.132  1.00  0.00    -0.268 OA
BRANCH  17  20
ATOM     20  C   UNL A   1      33.646  19.637  24.817  1.00  0.00     0.045 A 
ATOM     21  C   UNL A   1      33.373  17.545  23.619  1.00  0.00     0.120 A 
ATOM     22  C   UNL A   1      32.527  18.157  22.704  1.00  0.00     0.046 A 
ATOM     23  C   UNL A   1      33.985  18.289  24.631  1.00  0.00     0.072 A 
ATOM     24  C   UNL A   1      32.153  19.477  22.912  1.00  0.00     0.006 A 
ATOM     25  C   UNL A   1      32.650  20.175  24.014  1.00  0.00     0.026 A 
BRANCH  21  26
ATOM     26  O   UNL A   1      33.574  16.196  23.501  1.00  0.00    -0.497 OA
ATOM     27  C   UNL A   1      33.357  15.553  24.762  1.00  0.00     0.278 C 
ENDBRANCH  21  26
ENDBRANCH  17  20
ENDBRANCH  15  16
BRANCH  15  28
ATOM     28  C   UNL A   1      37.330  21.691  25.265  1.00  0.00     0.105 C 
ATOM     29  N   UNL A   1      38.471  21.518  25.377  1.00  0.00    -0.192 NA
ENDBRANCH  15  28
ENDBRANCH   9  14
ENDBRANCH   7   8
ENDBRANCH   5   7
ENDBRANCH   1   5
BRANCH   3  30
ATOM     30  C   UNL A   1      32.245  29.329  24.578  1.00  0.00     0.118 C 
BRANCH  30  31
ATOM     31  C   UNL A   1      31.646  28.713  25.839  1.00  0.00     0.042 C 
BRANCH  31  32
ATOM     32  C   UNL A   1      32.005  29.455  27.118  1.00  0.00     0.118 C 
BRANCH  32  33
ATOM     33  N   UNL A   1      32.235  30.874  26.861  1.00  0.00    -0.352 N 
ATOM     34  C   UNL A   1      33.180  31.744  27.347  1.00  0.00     0.251 C 
ATOM     35  H   UNL A   1      31.598  31.280  26.229  1.00  0.00     0.163 HD
ATOM     36  O   UNL A   1      32.971  32.951  27.251  1.00  0.00    -0.269 OA
BRANCH  34  37
ATOM     37  C   UNL A   1      34.428  31.264  27.990  1.00  0.00     0.039 A 
ATOM     38  C   UNL A   1      35.293  32.196  28.574  1.00  0.00     0.014 A 
ATOM     39  C   UNL A   1      34.785  29.916  27.991  1.00  0.00     0.014 A 
ATOM     40  C   UNL A   1      36.453  31.769  29.228  1.00  0.00     0.010 A 
ATOM     41  C   UNL A   1      35.878  29.479  28.732  1.00  0.00     0.010 A 
ATOM     42  C   UNL A   1      36.732  30.402  29.350  1.00  0.00    -0.014 A 
BRANCH  42  43
ATOM     43  C   UNL A   1      37.934  29.910  30.069  1.00  0.00     0.031 A 
ATOM     44  C   UNL A   1      38.208  30.389  31.467  1.00  0.00     0.074 A 
ATOM     45  C   UNL A   1      38.808  29.095  29.449  1.00  0.00     0.049 A 
ATOM     46  N   UNL A   1      39.240  30.158  32.237  1.00  0.00    -0.248 NA
ATOM     47  C   UNL A   1      37.199  31.275  32.069  1.00  0.00     0.031 C 
ATOM     48  C   UNL A   1      38.665  28.588  28.086  1.00  0.00     0.029 A 
ATOM     49  N   UNL A   1      39.995  28.555  29.878  1.00  0.00    -0.354 N 
ATOM     50  C   UNL A   1      39.012  30.883  33.400  1.00  0.00     0.074 A 
ATOM     51  C   UNL A   1      37.780  31.615  33.209  1.00  0.00     0.031 C 
ATOM     52  C   UNL A   1      39.704  27.789  27.798  1.00  0.00     0.029 A 
ATOM     53  C   UNL A   1      40.614  27.767  28.939  1.00  0.00     0.049 A 
ATOM     54  H   UNL A   1      40.367  28.717  30.775  1.00  0.00     0.167 HD
ATOM     55  C   UNL A   1      39.750  30.912  34.534  1.00  0.00     0.037 A 
ATOM     56  C   UNL A   1      41.791  27.113  28.988  1.00  0.00     0.037 A 
ATOM     57  C   UNL A   1      40.968  30.167  34.717  1.00  0.00     0.049 A 
ATOM     58  C   UNL A   1      42.614  27.196  30.247  1.00  0.00     0.074 A 
ATOM     59  C   UNL A   1      41.766  30.084  35.843  1.00  0.00     0.029 A 
ATOM     60  N   UNL A   1      41.567  29.384  33.740  1.00  0.00    -0.354 N 
ATOM     61  N   UNL A   1      42.356  27.828  31.366  1.00  0.00    -0.248 NA
ATOM     62  C   UNL A   1      43.891  26.471  30.250  1.00  0.00     0.031 C 
ATOM     63  C   UNL A   1      42.887  29.312  35.524  1.00  0.00     0.029 A 
ATOM     64  C   UNL A   1      42.747  28.844  34.227  1.00  0.00     0.049 A 
ATOM     65  H   UNL A   1      41.208  29.233  32.837  1.00  0.00     0.167 HD
ATOM     66  C   UNL A   1      43.416  27.546  32.219  1.00  0.00     0.074 A 
ATOM     67  C   UNL A   1      44.313  26.674  31.490  1.00  0.00     0.031 C 
ATOM     68  C   UNL A   1      43.625  27.969  33.491  1.00  0.00     0.037 A 
BRANCH  55  69
ATOM     69  C   UNL A   1      39.268  31.789  35.655  1.00  0.00     0.064 A 
ATOM     70  C   UNL A   1      38.363  31.326  36.624  1.00  0.00     0.173 A 
ATOM     71  C   UNL A   1      39.733  33.108  35.774  1.00  0.00     0.173 A 
ATOM     72  F   UNL A   1      37.877  30.078  36.554  1.00  0.00    -0.203 F 
ATOM     73  C   UNL A   1      37.913  32.161  37.643  1.00  0.00     0.198 A 
ATOM     74  C   UNL A   1      39.311  33.927  36.819  1.00  0.00     0.198 A 
ATOM     75  F   UNL A   1      40.600  33.603  34.880  1.00  0.00    -0.203 F 
ATOM     76  F   UNL A   1      36.998  31.716  38.516  1.00  0.00    -0.200 F 
ATOM     77  C   UNL A   1      38.393  33.457  37.745  1.00  0.00     0.200 A 
ATOM     78  F   UNL A   1      39.790  35.174  36.924  1.00  0.00    -0.200 F 
ATOM     79  F   UNL A   1      37.964  34.258  38.730  1.00  0.00    -0.200 F 
ENDBRANCH  55  69
BRANCH  56  80
ATOM     80  C   UNL A   1      42.255  26.312  27.822  1.00  0.00     0.064 A 
ATOM     81  C   UNL A   1      41.760  25.021  27.591  1.00  0.00     0.173 A 
ATOM     82  C   UNL A   1      43.214  26.810  26.926  1.00  0.00     0.173 A 
ATOM     83  F   UNL A   1      40.856  24.490  28.427  1.00  0.00    -0.203 F 
ATOM     84  C   UNL A   1      42.227  24.248  26.529  1.00  0.00     0.198 A 
ATOM     85  C   UNL A   1      43.653  26.050  25.844  1.00  0.00     0.198 A 
ATOM     86  F   UNL A   1      43.717  28.041  27.095  1.00  0.00    -0.203 F 
ATOM     87  F   UNL A   1      41.781  22.994  26.369  1.00  0.00    -0.200 F 
ATOM     88  C   UNL A   1      43.170  24.765  25.654  1.00  0.00     0.200 A 
ATOM     89  F   UNL A   1      44.550  26.561  24.989  1.00  0.00    -0.200 F 
ATOM     90  F   UNL A   1      43.618  24.022  24.633  1.00  0.00    -0.200 F 
ENDBRANCH  56  80
BRANCH  68  91
ATOM     91  C   UNL A   1      44.847  27.455  34.197  1.00  0.00     0.064 A 
ATOM     92  C   UNL A   1      44.841  26.250  34.913  1.00  0.00     0.173 A 
ATOM     93  C   UNL A   1      46.059  28.160  34.112  1.00  0.00     0.173 A 
ATOM     94  F   UNL A   1      43.706  25.544  35.038  1.00  0.00    -0.203 F 
ATOM     95  C   UNL A   1      45.992  25.785  35.544  1.00  0.00     0.198 A 
ATOM     96  C   UNL A   1      47.218  27.672  34.708  1.00  0.00     0.198 A 
ATOM     97  F   UNL A   1      46.125  29.314  33.431  1.00  0.00    -0.203 F 
ATOM     98  F   UNL A   1      45.947  24.660  36.270  1.00  0.00    -0.200 F 
ATOM     99  C   UNL A   1      47.181  26.490  35.432  1.00  0.00     0.200 A 
ATOM    100  F   UNL A   1      48.370  28.343  34.579  1.00  0.00    -0.200 F 
ATOM    101  F   UNL A   1      48.291  26.033  36.027  1.00  0.00    -0.200 F 
ENDBRANCH  68  91
ENDBRANCH  42  43
ENDBRANCH  34  37
ENDBRANCH  32  33
ENDBRANCH  31  32
ENDBRANCH  30  31
ENDBRANCH   3  30
TORSDOF 17
ENDMDL
MODEL 2
REMARK VINA RESULT:     -13.1      3.063      5.630
REMARK SMILES COc1cccc(NC(=O)/C(C#N)=C\c2ccc(O[C@@H](C)C(=O)NCCCNC(=O)c3ccc(-c4c5nc(c(-c6c(F)c(F)c(F)c(F)c6F)c6ccc([nH]6)c(-c6c(F)c(F)c(F)c(F)c6F)c6nc(c(-c7c(F)c(F)c(F)c(F)c7F)c7ccc4[nH]7)C=C6)C=C5)cc3)cc2)c1
REMARK SMILES IDX 22 1 23 2 24 3 20 5 21 6 19 7 18 8 15 9 16 10 95 11 17 12
REMARK SMILES IDX 94 13 14 14 11 15 9 16 8 17 10 19 7 20 3 21 4 22 96 23 5 24
REMARK SMILES IDX 6 25 2 26 1 27 12 28 13 29 25 30 26 31 27 32 28 33 29 34
REMARK SMILES IDX 30 36 31 37 32 38 93 39 33 40 92 41 34 42 35 43 36 44 86 45
REMARK SMILES IDX 37 46 91 47 85 48 87 49 38 50 90 51 84 52 83 53 39 55 71 56
REMARK SMILES IDX 51 57 70 58 52 59 55 60 69 61 88 62 53 63 54 64 68 66 89 67
REMARK SMILES IDX 56 68 40 69 41 70 49 71 42 72 43 73 47 74 50 75 44 76 45 77
REMARK SMILES IDX 48 78 46 79 72 80 73 81 81 82 74 83 75 84 79 85 82 86 76 87
REMARK SMILES IDX 77 88 80 89 78 90 57 91 58 92 66 93 59 94 60 95 64 96 67 97
REMARK SMILES IDX 61 98 62 99 65 100 63 101
REMARK H PARENT 24 4 8 18 28 35 87 54 55 65
REMARK Flexibility Score: inf
ROOT
ATOM      1  C   UNL A   1      35.532  32.356  27.969  1.00  0.00     0.260 C 
ATOM      2  O   UNL A   1      36.770  32.295  27.995  1.00  0.00    -0.271 OA
ATOM      3  N   UNL A   1      35.030  33.615  27.876  1.00  0.00    -0.353 N 
ATOM      4  H   UNL A   1      35.724  34.303  27.749  1.00  0.00     0.163 HD
ENDROOT
BRANCH   1   5
ATOM      5  C   UNL A   1      34.702  31.031  27.953  1.00  0.00     0.258 C 
ATOM      6  C   UNL A   1      35.511  29.827  28.447  1.00  0.00     0.064 C 
BRANCH   5   7
ATOM      7  O   UNL A   1      33.694  30.760  26.973  1.00  0.00    -0.481 OA
BRANCH   7   8
ATOM      8  C   UNL A   1      33.308  29.496  26.675  1.00  0.00     0.120 A 
ATOM      9  C   UNL A   1      32.898  26.735  26.247  1.00  0.00    -0.024 A 
ATOM     10  C   UNL A   1      33.784  27.459  25.437  1.00  0.00     0.012 A 
ATOM     11  C   UNL A   1      32.144  27.458  27.165  1.00  0.00     0.012 A 
ATOM     12  C   UNL A   1      33.999  28.831  25.662  1.00  0.00     0.047 A 
ATOM     13  C   UNL A   1      32.280  28.831  27.306  1.00  0.00     0.047 A 
BRANCH   9  14
ATOM     14  C   UNL A   1      32.987  25.262  26.300  1.00  0.00     0.033 C 
ATOM     15  C   UNL A   1      32.067  24.264  26.346  1.00  0.00     0.118 C 
BRANCH  15  16
ATOM     16  C   UNL A   1      30.589  24.448  26.105  1.00  0.00     0.266 C 
ATOM     17  N   UNL A   1      30.008  24.838  24.935  1.00  0.00    -0.321 N 
ATOM     18  H   UNL A   1      29.200  24.317  24.726  1.00  0.00     0.170 HD
ATOM     19  O   UNL A   1      29.772  24.164  26.989  1.00  0.00    -0.268 OA
BRANCH  17  20
ATOM     20  C   UNL A   1      30.287  25.806  23.957  1.00  0.00     0.045 A 
ATOM     21  C   UNL A   1      29.884  28.062  23.162  1.00  0.00     0.120 A 
ATOM     22  C   UNL A   1      30.748  27.861  22.094  1.00  0.00     0.046 A 
ATOM     23  C   UNL A   1      29.600  27.024  24.052  1.00  0.00     0.072 A 
ATOM     24  C   UNL A   1      31.465  26.675  22.023  1.00  0.00     0.006 A 
ATOM     25  C   UNL A   1      31.290  25.696  23.002  1.00  0.00     0.026 A 
BRANCH  21  26
ATOM     26  O   UNL A   1      29.336  29.307  23.315  1.00  0.00    -0.497 OA
ATOM     27  C   UNL A   1      29.431  30.041  22.088  1.00  0.00     0.278 C 
ENDBRANCH  21  26
ENDBRANCH  17  20
ENDBRANCH  15  16
BRANCH  15  28
ATOM     28  C   UNL A   1      32.622  23.003  26.700  1.00  0.00     0.105 C 
ATOM     29  N   UNL A   1      33.002  21.929  26.910  1.00  0.00    -0.192 NA
ENDBRANCH  15  28
ENDBRANCH   9  14
ENDBRANCH   7   8
ENDBRANCH   5   7
ENDBRANCH   1   5
BRANCH   3  30
ATOM     30  C   UNL A   1      33.689  34.158  27.925  1.00  0.00     0.118 C 
BRANCH  30  31
ATOM     31  C   UNL A   1      33.284  34.518  29.352  1.00  0.00     0.042 C 
BRANCH  31  32
ATOM     32  C   UNL A   1      33.213  36.015  29.615  1.00  0.00     0.118 C 
BRANCH  32  33
ATOM     33  N   UNL A   1      32.487  36.302  30.849  1.00  0.00    -0.352 N 
ATOM     34  C   UNL A   1      32.616  35.793  32.119  1.00  0.00     0.251 C 
ATOM     35  H   UNL A   1      31.778  36.979  30.755  1.00  0.00     0.163 HD
ATOM     36  O   UNL A   1      31.683  35.936  32.906  1.00  0.00    -0.269 OA
BRANCH  34  37
ATOM     37  C   UNL A   1      33.838  35.071  32.551  1.00  0.00     0.039 A 
ATOM     38  C   UNL A   1      33.718  33.761  33.029  1.00  0.00     0.014 A 
ATOM     39  C   UNL A   1      35.095  35.674  32.538  1.00  0.00     0.014 A 
ATOM     40  C   UNL A   1      34.857  33.039  33.400  1.00  0.00     0.010 A 
ATOM     41  C   UNL A   1      36.236  34.925  32.802  1.00  0.00     0.010 A 
ATOM     42  C   UNL A   1      36.131  33.601  33.248  1.00  0.00    -0.014 A 
BRANCH  42  43
ATOM     43  C   UNL A   1      37.364  32.852  33.595  1.00  0.00     0.031 A 
ATOM     44  C   UNL A   1      38.076  33.155  34.884  1.00  0.00     0.074 A 
ATOM     45  C   UNL A   1      37.879  31.957  32.731  1.00  0.00     0.049 A 
ATOM     46  N   UNL A   1      39.211  32.687  35.336  1.00  0.00    -0.248 NA
ATOM     47  C   UNL A   1      37.442  34.145  35.769  1.00  0.00     0.031 C 
ATOM     48  C   UNL A   1      37.295  31.601  31.440  1.00  0.00     0.029 A 
ATOM     49  N   UNL A   1      39.014  31.188  32.802  1.00  0.00    -0.354 N 
ATOM     50  C   UNL A   1      39.431  33.337  36.543  1.00  0.00     0.074 A 
ATOM     51  C   UNL A   1      38.352  34.281  36.722  1.00  0.00     0.031 C 
ATOM     52  C   UNL A   1      38.055  30.665  30.852  1.00  0.00     0.029 A 
ATOM     53  C   UNL A   1      39.210  30.390  31.701  1.00  0.00     0.049 A 
ATOM     54  H   UNL A   1      39.630  31.207  33.571  1.00  0.00     0.167 HD
ATOM     55  C   UNL A   1      40.431  33.142  37.435  1.00  0.00     0.037 A 
ATOM     56  C   UNL A   1      40.215  29.544  31.405  1.00  0.00     0.037 A 
ATOM     57  C   UNL A   1      41.493  32.188  37.253  1.00  0.00     0.049 A 
ATOM     58  C   UNL A   1      41.338  29.377  32.396  1.00  0.00     0.074 A 
ATOM     59  C   UNL A   1      42.526  31.874  38.117  1.00  0.00     0.029 A 
ATOM     60  N   UNL A   1      41.661  31.401  36.122  1.00  0.00    -0.354 N 
ATOM     61  N   UNL A   1      41.502  29.945  33.566  1.00  0.00    -0.248 NA
ATOM     62  C   UNL A   1      42.413  28.448  32.026  1.00  0.00     0.031 C 
ATOM     63  C   UNL A   1      43.362  30.953  37.477  1.00  0.00     0.029 A 
ATOM     64  C   UNL A   1      42.805  30.630  36.250  1.00  0.00     0.049 A 
ATOM     65  H   UNL A   1      41.058  31.392  35.345  1.00  0.00     0.167 HD
ATOM     66  C   UNL A   1      42.674  29.415  34.089  1.00  0.00     0.074 A 
ATOM     67  C   UNL A   1      43.172  28.469  33.112  1.00  0.00     0.031 C 
ATOM     68  C   UNL A   1      43.282  29.685  35.271  1.00  0.00     0.037 A 
BRANCH  55  69
ATOM     69  C   UNL A   1      40.429  33.989  38.677  1.00  0.00     0.064 A 
ATOM     70  C   UNL A   1      39.765  33.588  39.848  1.00  0.00     0.173 A 
ATOM     71  C   UNL A   1      41.119  35.210  38.704  1.00  0.00     0.173 A 
ATOM     72  F   UNL A   1      39.080  32.435  39.876  1.00  0.00    -0.203 F 
ATOM     73  C   UNL A   1      39.758  34.396  40.982  1.00  0.00     0.198 A 
ATOM     74  C   UNL A   1      41.143  35.997  39.853  1.00  0.00     0.198 A 
ATOM     75  F   UNL A   1      41.774  35.642  37.617  1.00  0.00    -0.203 F 
ATOM     76  F   UNL A   1      39.060  34.023  42.064  1.00  0.00    -0.200 F 
ATOM     77  C   UNL A   1      40.453  35.595  40.986  1.00  0.00     0.200 A 
ATOM     78  F   UNL A   1      41.831  37.147  39.861  1.00  0.00    -0.200 F 
ATOM     79  F   UNL A   1      40.451  36.369  42.081  1.00  0.00    -0.200 F 
ENDBRANCH  55  69
BRANCH  56  80
ATOM     80  C   UNL A   1      40.203  28.780  30.128  1.00  0.00     0.064 A 
ATOM     81  C   UNL A   1      40.833  29.282  28.980  1.00  0.00     0.173 A 
ATOM     82  C   UNL A   1      39.549  27.542  30.021  1.00  0.00     0.173 A 
ATOM     83  F   UNL A   1      41.456  30.468  29.023  1.00  0.00    -0.203 F 
ATOM     84  C   UNL A   1      40.784  28.593  27.769  1.00  0.00     0.198 A 
ATOM     85  C   UNL A   1      39.532  26.838  28.818  1.00  0.00     0.198 A 
ATOM     86  F   UNL A   1      38.935  27.011  31.088  1.00  0.00    -0.203 F 
ATOM     87  F   UNL A   1      41.342  29.128  26.675  1.00  0.00    -0.200 F 
ATOM     88  C   UNL A   1      40.137  27.370  27.691  1.00  0.00     0.200 A 
ATOM     89  F   UNL A   1      38.922  25.646  28.752  1.00  0.00    -0.200 F 
ATOM     90  F   UNL A   1      40.090  26.708  26.527  1.00  0.00    -0.200 F 
ENDBRANCH  56  80
BRANCH  68  91
ATOM     91  C   UNL A   1      44.527  28.912  35.601  1.00  0.00     0.064 A 
ATOM     92  C   UNL A   1      45.805  29.380  35.263  1.00  0.00     0.173 A 
ATOM     93  C   UNL A   1      44.440  27.704  36.313  1.00  0.00     0.173 A 
ATOM     94  F   UNL A   1      45.945  30.522  34.571  1.00  0.00    -0.203 F 
ATOM     95  C   UNL A   1      46.945  28.654  35.597  1.00  0.00     0.198 A 
ATOM     96  C   UNL A   1      45.583  27.003  36.682  1.00  0.00     0.198 A 
ATOM     97  F   UNL A   1      43.243  27.215  36.671  1.00  0.00    -0.203 F 
ATOM     98  F   UNL A   1      48.152  29.093  35.213  1.00  0.00    -0.200 F 
ATOM     99  C   UNL A   1      46.834  27.473  36.314  1.00  0.00     0.200 A 
ATOM    100  F   UNL A   1      45.474  25.873  37.394  1.00  0.00    -0.200 F 
ATOM    101  F   UNL A   1      47.934  26.784  36.647  1.00  0.00    -0.200 F 
ENDBRANCH  68  91
ENDBRANCH  42  43
ENDBRANCH  34  37
ENDBRANCH  32  33
ENDBRANCH  31  32
ENDBRANCH  30  31
ENDBRANCH   3  30
TORSDOF 17
ENDMDL
MODEL 3
REMARK VINA RESULT:     -13.1      0.390      7.144
REMARK SMILES COc1cccc(NC(=O)/C(C#N)=C\c2ccc(O[C@@H](C)C(=O)NCCCNC(=O)c3ccc(-c4c5nc(c(-c6c(F)c(F)c(F)c(F)c6F)c6ccc([nH]6)c(-c6c(F)c(F)c(F)c(F)c6F)c6nc(c(-c7c(F)c(F)c(F)c(F)c7F)c7ccc4[nH]7)C=C6)C=C5)cc3)cc2)c1
REMARK SMILES IDX 22 1 23 2 24 3 20 5 21 6 19 7 18 8 15 9 16 10 95 11 17 12
REMARK SMILES IDX 94 13 14 14 11 15 9 16 8 17 10 19 7 20 3 21 4 22 96 23 5 24
REMARK SMILES IDX 6 25 2 26 1 27 12 28 13 29 25 30 26 31 27 32 28 33 29 34
REMARK SMILES IDX 30 36 31 37 32 38 93 39 33 40 92 41 34 42 35 43 36 44 86 45
REMARK SMILES IDX 37 46 91 47 85 48 87 49 38 50 90 51 84 52 83 53 39 55 71 56
REMARK SMILES IDX 51 57 70 58 52 59 55 60 69 61 88 62 53 63 54 64 68 66 89 67
REMARK SMILES IDX 56 68 40 69 41 70 49 71 42 72 43 73 47 74 50 75 44 76 45 77
REMARK SMILES IDX 48 78 46 79 72 80 73 81 81 82 74 83 75 84 79 85 82 86 76 87
REMARK SMILES IDX 77 88 80 89 78 90 57 91 58 92 66 93 59 94 60 95 64 96 67 97
REMARK SMILES IDX 61 98 62 99 65 100 63 101
REMARK H PARENT 24 4 8 18 28 35 87 54 55 65
REMARK Flexibility Score: inf
ROOT
ATOM      1  C   UNL A   1      30.318  28.540  22.621  1.00  0.00     0.260 C 
ATOM      2  O   UNL A   1      29.379  29.005  21.959  1.00  0.00    -0.271 OA
ATOM      3  N   UNL A   1      30.868  29.410  23.510  1.00  0.00    -0.353 N 
ATOM      4  H   UNL A   1      30.382  30.264  23.570  1.00  0.00     0.163 HD
ENDROOT
BRANCH   1   5
ATOM      5  C   UNL A   1      30.706  27.035  22.447  1.00  0.00     0.258 C 
ATOM      6  C   UNL A   1      29.982  26.125  23.444  1.00  0.00     0.064 C 
BRANCH   5   7
ATOM      7  O   UNL A   1      32.011  26.615  22.032  1.00  0.00    -0.481 OA
BRANCH   7   8
ATOM      8  C   UNL A   1      32.710  25.678  22.717  1.00  0.00     0.120 A 
ATOM      9  C   UNL A   1      34.488  23.782  23.823  1.00  0.00    -0.024 A 
ATOM     10  C   UNL A   1      33.721  23.467  22.691  1.00  0.00     0.012 A 
ATOM     11  C   UNL A   1      34.233  25.001  24.442  1.00  0.00     0.012 A 
ATOM     12  C   UNL A   1      32.849  24.419  22.133  1.00  0.00     0.047 A 
ATOM     13  C   UNL A   1      33.289  25.891  23.949  1.00  0.00     0.047 A 
BRANCH   9  14
ATOM     14  C   UNL A   1      35.682  22.977  24.148  1.00  0.00     0.033 C 
ATOM     15  C   UNL A   1      35.977  22.083  25.127  1.00  0.00     0.118 C 
BRANCH  15  16
ATOM     16  C   UNL A   1      34.966  21.482  26.073  1.00  0.00     0.266 C 
ATOM     17  N   UNL A   1      34.316  20.295  25.905  1.00  0.00    -0.321 N 
ATOM     18  H   UNL A   1      34.269  19.773  26.738  1.00  0.00     0.170 HD
ATOM     19  O   UNL A   1      34.717  22.031  27.152  1.00  0.00    -0.268 OA
BRANCH  17  20
ATOM     20  C   UNL A   1      33.697  19.641  24.828  1.00  0.00     0.045 A 
ATOM     21  C   UNL A   1      33.385  17.556  23.629  1.00  0.00     0.120 A 
ATOM     22  C   UNL A   1      32.527  18.177  22.731  1.00  0.00     0.046 A 
ATOM     23  C   UNL A   1      34.021  18.292  24.631  1.00  0.00     0.072 A 
ATOM     24  C   UNL A   1      32.168  19.500  22.951  1.00  0.00     0.006 A 
ATOM     25  C   UNL A   1      32.690  20.190  24.045  1.00  0.00     0.026 A 
BRANCH  21  26
ATOM     26  O   UNL A   1      33.574  16.206  23.501  1.00  0.00    -0.497 OA
ATOM     27  C   UNL A   1      33.311  15.552  24.749  1.00  0.00     0.278 C 
ENDBRANCH  21  26
ENDBRANCH  17  20
ENDBRANCH  15  16
BRANCH  15  28
ATOM     28  C   UNL A   1      37.366  21.791  25.222  1.00  0.00     0.105 C 
ATOM     29  N   UNL A   1      38.506  21.645  25.372  1.00  0.00    -0.192 NA
ENDBRANCH  15  28
ENDBRANCH   9  14
ENDBRANCH   7   8
ENDBRANCH   5   7
ENDBRANCH   1   5
BRANCH   3  30
ATOM     30  C   UNL A   1      32.018  29.343  24.385  1.00  0.00     0.118 C 
BRANCH  30  31
ATOM     31  C   UNL A   1      31.661  28.717  25.731  1.00  0.00     0.042 C 
BRANCH  31  32
ATOM     32  C   UNL A   1      32.321  29.394  26.922  1.00  0.00     0.118 C 
BRANCH  32  33
ATOM     33  N   UNL A   1      32.469  30.830  26.700  1.00  0.00    -0.352 N 
ATOM     34  C   UNL A   1      33.327  31.751  27.249  1.00  0.00     0.251 C 
ATOM     35  H   UNL A   1      31.840  31.206  26.041  1.00  0.00     0.163 HD
ATOM     36  O   UNL A   1      33.043  32.944  27.161  1.00  0.00    -0.269 OA
BRANCH  34  37
ATOM     37  C   UNL A   1      34.569  31.342  27.950  1.00  0.00     0.039 A 
ATOM     38  C   UNL A   1      35.573  32.292  28.163  1.00  0.00     0.014 A 
ATOM     39  C   UNL A   1      34.783  30.027  28.362  1.00  0.00     0.014 A 
ATOM     40  C   UNL A   1      36.735  31.947  28.861  1.00  0.00     0.010 A 
ATOM     41  C   UNL A   1      35.884  29.708  29.149  1.00  0.00     0.010 A 
ATOM     42  C   UNL A   1      36.880  30.662  29.399  1.00  0.00    -0.014 A 
BRANCH  42  43
ATOM     43  C   UNL A   1      38.082  30.270  30.177  1.00  0.00     0.031 A 
ATOM     44  C   UNL A   1      39.064  29.299  29.585  1.00  0.00     0.074 A 
ATOM     45  C   UNL A   1      38.254  30.727  31.432  1.00  0.00     0.049 A 
ATOM     46  N   UNL A   1      40.124  28.756  30.125  1.00  0.00    -0.248 NA
ATOM     47  C   UNL A   1      38.799  28.852  28.208  1.00  0.00     0.031 C 
ATOM     48  C   UNL A   1      37.354  31.648  32.124  1.00  0.00     0.029 A 
ATOM     49  N   UNL A   1      39.240  30.474  32.354  1.00  0.00    -0.354 N 
ATOM     50  C   UNL A   1      40.637  27.895  29.164  1.00  0.00     0.074 A 
ATOM     51  C   UNL A   1      39.737  27.934  28.034  1.00  0.00     0.031 C 
ATOM     52  C   UNL A   1      37.841  31.908  33.347  1.00  0.00     0.029 A 
ATOM     53  C   UNL A   1      39.060  31.132  33.547  1.00  0.00     0.049 A 
ATOM     54  H   UNL A   1      40.003  29.878  32.177  1.00  0.00     0.167 HD
ATOM     55  C   UNL A   1      41.773  27.159  29.210  1.00  0.00     0.037 A 
ATOM     56  C   UNL A   1      39.791  31.100  34.678  1.00  0.00     0.037 A 
ATOM     57  C   UNL A   1      42.669  27.140  30.336  1.00  0.00     0.049 A 
ATOM     58  C   UNL A   1      41.027  30.240  34.719  1.00  0.00     0.074 A 
ATOM     59  C   UNL A   1      43.873  26.471  30.467  1.00  0.00     0.029 A 
ATOM     60  N   UNL A   1      42.452  27.815  31.528  1.00  0.00    -0.354 N 
ATOM     61  N   UNL A   1      41.542  29.483  33.780  1.00  0.00    -0.248 NA
ATOM     62  C   UNL A   1      41.787  30.234  35.975  1.00  0.00     0.031 C 
ATOM     63  C   UNL A   1      44.345  26.680  31.766  1.00  0.00     0.029 A 
ATOM     64  C   UNL A   1      43.481  27.547  32.417  1.00  0.00     0.049 A 
ATOM     65  H   UNL A   1      41.682  28.398  31.717  1.00  0.00     0.167 HD
ATOM     66  C   UNL A   1      42.704  28.943  34.317  1.00  0.00     0.074 A 
ATOM     67  C   UNL A   1      42.824  29.471  35.660  1.00  0.00     0.031 C 
ATOM     68  C   UNL A   1      43.591  28.089  33.748  1.00  0.00     0.037 A 
BRANCH  55  69
ATOM     69  C   UNL A   1      42.098  26.306  28.016  1.00  0.00     0.064 A 
ATOM     70  C   UNL A   1      41.505  25.048  27.819  1.00  0.00     0.173 A 
ATOM     71  C   UNL A   1      43.000  26.762  27.044  1.00  0.00     0.173 A 
ATOM     72  F   UNL A   1      40.643  24.558  28.721  1.00  0.00    -0.203 F 
ATOM     73  C   UNL A   1      41.835  24.265  26.716  1.00  0.00     0.198 A 
ATOM     74  C   UNL A   1      43.297  25.993  25.921  1.00  0.00     0.198 A 
ATOM     75  F   UNL A   1      43.594  27.957  27.178  1.00  0.00    -0.203 F 
ATOM     76  F   UNL A   1      41.307  23.040  26.585  1.00  0.00    -0.200 F 
ATOM     77  C   UNL A   1      42.723  24.741  25.764  1.00  0.00     0.200 A 
ATOM     78  F   UNL A   1      44.143  26.462  24.994  1.00  0.00    -0.200 F 
ATOM     79  F   UNL A   1      43.035  23.988  24.700  1.00  0.00    -0.200 F 
ENDBRANCH  55  69
BRANCH  56  80
ATOM     80  C   UNL A   1      39.386  31.913  35.857  1.00  0.00     0.064 A 
ATOM     81  C   UNL A   1      39.990  33.151  36.122  1.00  0.00     0.173 A 
ATOM     82  C   UNL A   1      38.403  31.466  36.754  1.00  0.00     0.173 A 
ATOM     83  F   UNL A   1      40.949  33.616  35.308  1.00  0.00    -0.203 F 
ATOM     84  C   UNL A   1      39.651  33.894  37.251  1.00  0.00     0.198 A 
ATOM     85  C   UNL A   1      38.039  32.228  37.863  1.00  0.00     0.198 A 
ATOM     86  F   UNL A   1      37.788  30.293  36.547  1.00  0.00    -0.203 F 
ATOM     87  F   UNL A   1      40.289  35.043  37.510  1.00  0.00    -0.200 F 
ATOM     88  C   UNL A   1      38.671  33.434  38.117  1.00  0.00     0.200 A 
ATOM     89  F   UNL A   1      37.078  31.788  38.687  1.00  0.00    -0.200 F 
ATOM     90  F   UNL A   1      38.344  34.148  39.203  1.00  0.00    -0.200 F 
ENDBRANCH  56  80
BRANCH  68  91
ATOM     91  C   UNL A   1      44.799  27.709  34.556  1.00  0.00     0.064 A 
ATOM     92  C   UNL A   1      45.971  28.479  34.548  1.00  0.00     0.173 A 
ATOM     93  C   UNL A   1      44.763  26.581  35.392  1.00  0.00     0.173 A 
ATOM     94  F   UNL A   1      46.064  29.560  33.759  1.00  0.00    -0.203 F 
ATOM     95  C   UNL A   1      47.071  28.117  35.321  1.00  0.00     0.198 A 
ATOM     96  C   UNL A   1      45.848  26.245  36.194  1.00  0.00     0.198 A 
ATOM     97  F   UNL A   1      43.663  25.814  35.445  1.00  0.00    -0.203 F 
ATOM     98  F   UNL A   1      48.200  28.836  35.254  1.00  0.00    -0.200 F 
ATOM     99  C   UNL A   1      47.005  27.007  36.150  1.00  0.00     0.200 A 
ATOM    100  F   UNL A   1      45.774  25.186  37.011  1.00  0.00    -0.200 F 
ATOM    101  F   UNL A   1      48.060  26.669  36.905  1.00  0.00    -0.200 F 
ENDBRANCH  68  91
ENDBRANCH  42  43
ENDBRANCH  34  37
ENDBRANCH  32  33
ENDBRANCH  31  32
ENDBRANCH  30  31
ENDBRANCH   3  30
TORSDOF 17
ENDMDL
