MODEL 1
REMARK VINA RESULT:     -13.4      0.000      0.000
REMARK SMILES COc1ccc(CCc2nnc(NC(=O)[C@@H]3[C@@H](C(=O)NCCCNC(=O)c4ccc(-c5c6nc(c(-c7c(F)c(F)c(F)c(F)c7F)c7ccc([nH]7)c(-c7c(F)c(F)c(F)c(F)c7F)c7nc(c(-c8c(F)c(F)c(F)c(F)c8F)c8ccc5[nH]8)C=C7)C=C6)cc4)C3(C)C)s2)cc1
REMARK SMILES IDX 18 1 19 2 20 3 17 5 16 6 90 7 91 8 92 9 14 10 13 11 15 13
REMARK SMILES IDX 12 14 9 15 10 16 93 17 11 18 8 19 7 20 6 21 3 22 4 23 95 24
REMARK SMILES IDX 5 25 94 26 2 27 1 28 21 29 22 30 23 31 24 32 25 33 26 35
REMARK SMILES IDX 27 36 28 37 89 38 29 39 88 40 30 41 31 42 32 43 82 44 33 45
REMARK SMILES IDX 87 46 81 47 83 48 34 49 86 50 80 51 79 52 35 54 67 55 47 56
REMARK SMILES IDX 66 57 48 58 51 59 65 60 84 61 49 62 50 63 64 65 85 66 52 67
REMARK SMILES IDX 36 68 37 69 45 70 38 71 39 72 43 73 46 74 40 75 41 76 44 77
REMARK SMILES IDX 42 78 68 79 69 80 77 81 70 82 71 83 75 84 78 85 72 86 73 87
REMARK SMILES IDX 76 88 74 89 53 90 54 91 62 92 55 93 56 94 60 95 63 96 57 97
REMARK SMILES IDX 58 98 61 99 59 100
REMARK H PARENT 20 4 13 12 24 34 83 53 51 64
REMARK Flexibility Score: inf
ROOT
ATOM      1  C   UNL A   1      36.319  22.408  24.009  1.00  0.00     0.224 C 
ATOM      2  O   UNL A   1      36.884  23.419  23.587  1.00  0.00    -0.275 OA
ATOM      3  N   UNL A   1      37.128  21.446  24.529  1.00  0.00    -0.356 N 
ATOM      4  H   UNL A   1      38.074  21.719  24.561  1.00  0.00     0.163 HD
ENDROOT
BRANCH   1   5
ATOM      5  C   UNL A   1      34.842  22.388  23.945  1.00  0.00     0.098 C 
ATOM      6  C   UNL A   1      33.888  23.485  23.544  1.00  0.00     0.098 C 
ATOM      7  C   UNL A   1      33.877  22.935  24.978  1.00  0.00    -0.011 C 
ATOM      8  C   UNL A   1      34.382  23.846  26.075  1.00  0.00     0.013 C 
ATOM      9  C   UNL A   1      32.747  22.042  25.429  1.00  0.00     0.013 C 
BRANCH   6  10
ATOM     10  C   UNL A   1      32.941  23.119  22.448  1.00  0.00     0.230 C 
ATOM     11  N   UNL A   1      32.528  24.095  21.571  1.00  0.00    -0.300 N 
ATOM     12  H   UNL A   1      32.083  23.804  20.742  1.00  0.00     0.172 HD
ATOM     13  O   UNL A   1      32.570  21.962  22.298  1.00  0.00    -0.274 OA
BRANCH  11  14
ATOM     14  C   UNL A   1      32.687  25.438  21.762  1.00  0.00     0.212 A 
ATOM     15  C   UNL A   1      32.477  27.610  22.680  1.00  0.00     0.119 A 
ATOM     16  N   UNL A   1      33.603  27.454  22.015  1.00  0.00    -0.142 NA
ATOM     17  S   UNL A   1      31.409  26.254  22.548  1.00  0.00    -0.080 S 
ATOM     18  N   UNL A   1      33.721  26.191  21.489  1.00  0.00    -0.120 NA
BRANCH  15  19
ATOM     19  C   UNL A   1      32.162  28.838  23.472  1.00  0.00     0.074 C 
BRANCH  19  20
ATOM     20  C   UNL A   1      30.713  28.966  23.964  1.00  0.00     0.043 C 
BRANCH  20  21
ATOM     21  C   UNL A   1      29.831  30.018  23.318  1.00  0.00    -0.047 A 
ATOM     22  C   UNL A   1      28.401  32.114  22.086  1.00  0.00     0.118 A 
ATOM     23  C   UNL A   1      28.725  30.972  21.366  1.00  0.00     0.046 A 
ATOM     24  C   UNL A   1      28.743  32.201  23.432  1.00  0.00     0.046 A 
ATOM     25  C   UNL A   1      29.449  29.944  21.972  1.00  0.00     0.007 A 
ATOM     26  C   UNL A   1      29.456  31.160  24.043  1.00  0.00     0.007 A 
BRANCH  22  27
ATOM     27  O   UNL A   1      27.702  33.079  21.417  1.00  0.00    -0.497 OA
ATOM     28  C   UNL A   1      27.673  32.865  20.008  1.00  0.00     0.278 C 
ENDBRANCH  22  27
ENDBRANCH  20  21
ENDBRANCH  19  20
ENDBRANCH  15  19
ENDBRANCH  11  14
ENDBRANCH   6  10
ENDBRANCH   1   5
BRANCH   3  29
ATOM     29  C   UNL A   1      36.915  20.109  25.048  1.00  0.00     0.117 C 
BRANCH  29  30
ATOM     30  C   UNL A   1      38.177  19.265  24.946  1.00  0.00     0.042 C 
BRANCH  30  31
ATOM     31  C   UNL A   1      39.346  19.837  25.732  1.00  0.00     0.118 C 
BRANCH  31  32
ATOM     32  N   UNL A   1      40.430  18.878  25.889  1.00  0.00    -0.352 N 
ATOM     33  C   UNL A   1      41.776  19.082  26.069  1.00  0.00     0.251 C 
ATOM     34  H   UNL A   1      40.154  17.933  25.863  1.00  0.00     0.163 HD
ATOM     35  O   UNL A   1      42.556  18.139  25.966  1.00  0.00    -0.269 OA
BRANCH  33  36
ATOM     36  C   UNL A   1      42.298  20.434  26.364  1.00  0.00     0.039 A 
ATOM     37  C   UNL A   1      42.791  21.212  25.313  1.00  0.00     0.014 A 
ATOM     38  C   UNL A   1      42.332  20.930  27.669  1.00  0.00     0.014 A 
ATOM     39  C   UNL A   1      43.261  22.503  25.565  1.00  0.00     0.010 A 
ATOM     40  C   UNL A   1      42.697  22.252  27.903  1.00  0.00     0.010 A 
ATOM     41  C   UNL A   1      43.184  23.048  26.857  1.00  0.00    -0.014 A 
BRANCH  41  42
ATOM     42  C   UNL A   1      43.629  24.438  27.135  1.00  0.00     0.031 A 
ATOM     43  C   UNL A   1      42.657  25.450  27.679  1.00  0.00     0.074 A 
ATOM     44  C   UNL A   1      44.896  24.803  26.852  1.00  0.00     0.049 A 
ATOM     45  N   UNL A   1      42.842  26.720  27.943  1.00  0.00    -0.248 NA
ATOM     46  C   UNL A   1      41.285  24.983  27.933  1.00  0.00     0.031 C 
ATOM     47  C   UNL A   1      45.918  23.930  26.274  1.00  0.00     0.029 A 
ATOM     48  N   UNL A   1      45.537  26.007  27.006  1.00  0.00    -0.354 N 
ATOM     49  C   UNL A   1      41.613  27.198  28.378  1.00  0.00     0.074 A 
ATOM     50  C   UNL A   1      40.673  26.104  28.280  1.00  0.00     0.031 C 
ATOM     51  C   UNL A   1      47.065  24.616  26.153  1.00  0.00     0.029 A 
ATOM     52  C   UNL A   1      46.849  25.987  26.603  1.00  0.00     0.049 A 
ATOM     53  H   UNL A   1      45.097  26.808  27.372  1.00  0.00     0.167 HD
ATOM     54  C   UNL A   1      41.302  28.432  28.844  1.00  0.00     0.037 A 
ATOM     55  C   UNL A   1      47.774  26.966  26.592  1.00  0.00     0.037 A 
ATOM     56  C   UNL A   1      42.246  29.512  28.961  1.00  0.00     0.049 A 
ATOM     57  C   UNL A   1      47.399  28.332  27.104  1.00  0.00     0.074 A 
ATOM     58  C   UNL A   1      42.047  30.782  29.474  1.00  0.00     0.029 A 
ATOM     59  N   UNL A   1      43.570  29.450  28.551  1.00  0.00    -0.354 N 
ATOM     60  N   UNL A   1      46.253  28.752  27.583  1.00  0.00    -0.248 NA
ATOM     61  C   UNL A   1      48.451  29.358  27.081  1.00  0.00     0.031 C 
ATOM     62  C   UNL A   1      43.232  31.506  29.322  1.00  0.00     0.029 A 
ATOM     63  C   UNL A   1      44.192  30.668  28.776  1.00  0.00     0.049 A 
ATOM     64  H   UNL A   1      44.005  28.659  28.159  1.00  0.00     0.167 HD
ATOM     65  C   UNL A   1      46.454  30.076  27.948  1.00  0.00     0.074 A 
ATOM     66  C   UNL A   1      47.837  30.385  27.650  1.00  0.00     0.031 C 
ATOM     67  C   UNL A   1      45.572  30.958  28.483  1.00  0.00     0.037 A 
BRANCH  54  68
ATOM     68  C   UNL A   1      39.881  28.679  29.267  1.00  0.00     0.064 A 
ATOM     69  C   UNL A   1      39.447  28.434  30.579  1.00  0.00     0.173 A 
ATOM     70  C   UNL A   1      38.948  29.200  28.358  1.00  0.00     0.173 A 
ATOM     71  F   UNL A   1      40.294  27.925  31.487  1.00  0.00    -0.203 F 
ATOM     72  C   UNL A   1      38.127  28.669  30.955  1.00  0.00     0.198 A 
ATOM     73  C   UNL A   1      37.638  29.469  28.748  1.00  0.00     0.198 A 
ATOM     74  F   UNL A   1      39.308  29.460  27.092  1.00  0.00    -0.203 F 
ATOM     75  F   UNL A   1      37.724  28.375  32.200  1.00  0.00    -0.200 F 
ATOM     76  C   UNL A   1      37.227  29.195  30.043  1.00  0.00     0.200 A 
ATOM     77  F   UNL A   1      36.772  29.992  27.867  1.00  0.00    -0.200 F 
ATOM     78  F   UNL A   1      35.959  29.430  30.409  1.00  0.00    -0.200 F 
ENDBRANCH  54  68
BRANCH  55  79
ATOM     79  C   UNL A   1      49.150  26.687  26.102  1.00  0.00     0.064 A 
ATOM     80  C   UNL A   1      50.116  26.123  26.948  1.00  0.00     0.173 A 
ATOM     81  C   UNL A   1      49.532  26.986  24.786  1.00  0.00     0.173 A 
ATOM     82  F   UNL A   1      49.806  25.837  28.221  1.00  0.00    -0.203 F 
ATOM     83  C   UNL A   1      51.417  25.893  26.504  1.00  0.00     0.198 A 
ATOM     84  C   UNL A   1      50.824  26.724  24.333  1.00  0.00     0.198 A 
ATOM     85  F   UNL A   1      48.646  27.521  23.934  1.00  0.00    -0.203 F 
ATOM     86  F   UNL A   1      52.334  25.403  27.350  1.00  0.00    -0.200 F 
ATOM     87  C   UNL A   1      51.768  26.189  25.196  1.00  0.00     0.200 A 
ATOM     88  F   UNL A   1      51.154  26.996  23.064  1.00  0.00    -0.200 F 
ATOM     89  F   UNL A   1      53.018  25.964  24.769  1.00  0.00    -0.200 F 
ENDBRANCH  55  79
BRANCH  67  90
ATOM     90  C   UNL A   1      46.088  32.328  28.823  1.00  0.00     0.064 A 
ATOM     91  C   UNL A   1      46.662  32.614  30.071  1.00  0.00     0.173 A 
ATOM     92  C   UNL A   1      46.041  33.357  27.870  1.00  0.00     0.173 A 
ATOM     93  F   UNL A   1      46.718  31.669  31.021  1.00  0.00    -0.203 F 
ATOM     94  C   UNL A   1      47.141  33.889  30.361  1.00  0.00     0.198 A 
ATOM     95  C   UNL A   1      46.555  34.619  28.152  1.00  0.00     0.198 A 
ATOM     96  F   UNL A   1      45.511  33.134  26.658  1.00  0.00    -0.203 F 
ATOM     97  F   UNL A   1      47.633  34.155  31.580  1.00  0.00    -0.200 F 
ATOM     98  C   UNL A   1      47.095  34.887  29.401  1.00  0.00     0.200 A 
ATOM     99  F   UNL A   1      46.525  35.577  27.216  1.00  0.00    -0.200 F 
ATOM    100  F   UNL A   1      47.564  36.111  29.680  1.00  0.00    -0.200 F 
ENDBRANCH  67  90
ENDBRANCH  41  42
ENDBRANCH  33  36
ENDBRANCH  31  32
ENDBRANCH  30  31
ENDBRANCH  29  30
ENDBRANCH   3  29
TORSDOF 16
ENDMDL
MODEL 2
REMARK VINA RESULT:     -13.4      3.506      9.518
REMARK SMILES COc1ccc(CCc2nnc(NC(=O)[C@@H]3[C@@H](C(=O)NCCCNC(=O)c4ccc(-c5c6nc(c(-c7c(F)c(F)c(F)c(F)c7F)c7ccc([nH]7)c(-c7c(F)c(F)c(F)c(F)c7F)c7nc(c(-c8c(F)c(F)c(F)c(F)c8F)c8ccc5[nH]8)C=C7)C=C6)cc4)C3(C)C)s2)cc1
REMARK SMILES IDX 18 1 19 2 20 3 17 5 16 6 90 7 91 8 92 9 14 10 13 11 15 13
REMARK SMILES IDX 12 14 9 15 10 16 93 17 11 18 8 19 7 20 6 21 3 22 4 23 95 24
REMARK SMILES IDX 5 25 94 26 2 27 1 28 21 29 22 30 23 31 24 32 25 33 26 35
REMARK SMILES IDX 27 36 28 37 89 38 29 39 88 40 30 41 31 42 32 43 82 44 33 45
REMARK SMILES IDX 87 46 81 47 83 48 34 49 86 50 80 51 79 52 35 54 67 55 47 56
REMARK SMILES IDX 66 57 48 58 51 59 65 60 84 61 49 62 50 63 64 65 85 66 52 67
REMARK SMILES IDX 36 68 37 69 45 70 38 71 39 72 43 73 46 74 40 75 41 76 44 77
REMARK SMILES IDX 42 78 68 79 69 80 77 81 70 82 71 83 75 84 78 85 72 86 73 87
REMARK SMILES IDX 76 88 74 89 53 90 54 91 62 92 55 93 56 94 60 95 63 96 57 97
REMARK SMILES IDX 58 98 61 99 59 100
REMARK H PARENT 20 4 13 12 24 34 83 53 51 64
REMARK Flexibility Score: inf
ROOT
ATOM      1  C   UNL A   1      32.473  25.882  26.108  1.00  0.00     0.224 C 
ATOM      2  O   UNL A   1      31.541  25.558  26.846  1.00  0.00    -0.275 OA
ATOM      3  N   UNL A   1      33.534  25.030  26.076  1.00  0.00    -0.356 N 
ATOM      4  H   UNL A   1      33.384  24.215  26.610  1.00  0.00     0.163 HD
ENDROOT
BRANCH   1   5
ATOM      5  C   UNL A   1      32.303  27.119  25.315  1.00  0.00     0.098 C 
ATOM      6  C   UNL A   1      33.211  27.717  24.271  1.00  0.00     0.098 C 
ATOM      7  C   UNL A   1      32.941  28.468  25.583  1.00  0.00    -0.011 C 
ATOM      8  C   UNL A   1      34.083  28.581  26.568  1.00  0.00     0.013 C 
ATOM      9  C   UNL A   1      32.046  29.683  25.580  1.00  0.00     0.013 C 
BRANCH   6  10
ATOM     10  C   UNL A   1      32.561  27.976  22.951  1.00  0.00     0.230 C 
ATOM     11  N   UNL A   1      32.209  26.907  22.160  1.00  0.00    -0.300 N 
ATOM     12  H   UNL A   1      31.599  27.080  21.407  1.00  0.00     0.172 HD
ATOM     13  O   UNL A   1      32.301  29.118  22.593  1.00  0.00    -0.274 OA
BRANCH  11  14
ATOM     14  C   UNL A   1      32.639  25.624  22.340  1.00  0.00     0.212 A 
ATOM     15  C   UNL A   1      32.626  23.264  22.540  1.00  0.00     0.119 A 
ATOM     16  N   UNL A   1      33.803  23.730  22.175  1.00  0.00    -0.142 NA
ATOM     17  S   UNL A   1      31.488  24.509  22.931  1.00  0.00    -0.080 S 
ATOM     18  N   UNL A   1      33.802  25.098  22.056  1.00  0.00    -0.120 NA
BRANCH  15  19
ATOM     19  C   UNL A   1      32.312  21.805  22.603  1.00  0.00     0.074 C 
BRANCH  19  20
ATOM     20  C   UNL A   1      32.287  21.183  24.006  1.00  0.00     0.043 C 
BRANCH  20  21
ATOM     21  C   UNL A   1      32.506  19.687  24.128  1.00  0.00    -0.047 A 
ATOM     22  C   UNL A   1      33.154  16.946  24.280  1.00  0.00     0.118 A 
ATOM     23  C   UNL A   1      33.090  17.713  25.435  1.00  0.00     0.046 A 
ATOM     24  C   UNL A   1      32.852  17.524  23.050  1.00  0.00     0.046 A 
ATOM     25  C   UNL A   1      32.788  19.074  25.356  1.00  0.00     0.007 A 
ATOM     26  C   UNL A   1      32.532  18.886  22.975  1.00  0.00     0.007 A 
BRANCH  22  27
ATOM     27  O   UNL A   1      33.469  15.625  24.441  1.00  0.00    -0.497 OA
ATOM     28  C   UNL A   1      32.649  14.976  25.409  1.00  0.00     0.278 C 
ENDBRANCH  22  27
ENDBRANCH  20  21
ENDBRANCH  19  20
ENDBRANCH  15  19
ENDBRANCH  11  14
ENDBRANCH   6  10
ENDBRANCH   1   5
BRANCH   3  29
ATOM     29  C   UNL A   1      34.834  25.048  25.437  1.00  0.00     0.117 C 
BRANCH  29  30
ATOM     30  C   UNL A   1      35.603  23.763  25.704  1.00  0.00     0.042 C 
BRANCH  30  31
ATOM     31  C   UNL A   1      36.932  23.695  24.967  1.00  0.00     0.118 C 
BRANCH  31  32
ATOM     32  N   UNL A   1      37.827  22.694  25.530  1.00  0.00    -0.352 N 
ATOM     33  C   UNL A   1      38.970  22.846  26.275  1.00  0.00     0.251 C 
ATOM     34  H   UNL A   1      37.572  21.761  25.348  1.00  0.00     0.163 HD
ATOM     35  O   UNL A   1      39.702  21.879  26.474  1.00  0.00    -0.269 OA
BRANCH  33  36
ATOM     36  C   UNL A   1      39.340  24.168  26.824  1.00  0.00     0.039 A 
ATOM     37  C   UNL A   1      38.962  24.487  28.131  1.00  0.00     0.014 A 
ATOM     38  C   UNL A   1      40.029  25.107  26.053  1.00  0.00     0.014 A 
ATOM     39  C   UNL A   1      39.327  25.718  28.680  1.00  0.00     0.010 A 
ATOM     40  C   UNL A   1      40.486  26.285  26.635  1.00  0.00     0.010 A 
ATOM     41  C   UNL A   1      40.125  26.614  27.949  1.00  0.00    -0.014 A 
BRANCH  41  42
ATOM     42  C   UNL A   1      40.568  27.906  28.533  1.00  0.00     0.031 A 
ATOM     43  C   UNL A   1      42.012  28.114  28.902  1.00  0.00     0.074 A 
ATOM     44  C   UNL A   1      39.662  28.874  28.780  1.00  0.00     0.049 A 
ATOM     45  N   UNL A   1      42.584  29.151  29.463  1.00  0.00    -0.248 NA
ATOM     46  C   UNL A   1      42.934  27.000  28.631  1.00  0.00     0.031 C 
ATOM     47  C   UNL A   1      38.226  28.774  28.516  1.00  0.00     0.029 A 
ATOM     48  N   UNL A   1      39.815  30.129  29.312  1.00  0.00    -0.354 N 
ATOM     49  C   UNL A   1      43.920  28.805  29.622  1.00  0.00     0.074 A 
ATOM     50  C   UNL A   1      44.063  27.442  29.162  1.00  0.00     0.031 C 
ATOM     51  C   UNL A   1      37.635  29.930  28.856  1.00  0.00     0.029 A 
ATOM     52  C   UNL A   1      38.641  30.835  29.402  1.00  0.00     0.049 A 
ATOM     53  H   UNL A   1      40.684  30.489  29.601  1.00  0.00     0.167 HD
ATOM     54  C   UNL A   1      44.942  29.566  30.084  1.00  0.00     0.037 A 
ATOM     55  C   UNL A   1      38.401  32.073  29.877  1.00  0.00     0.037 A 
ATOM     56  C   UNL A   1      44.798  30.929  30.521  1.00  0.00     0.049 A 
ATOM     57  C   UNL A   1      39.552  32.893  30.397  1.00  0.00     0.074 A 
ATOM     58  C   UNL A   1      45.779  31.805  30.953  1.00  0.00     0.029 A 
ATOM     59  N   UNL A   1      43.593  31.614  30.588  1.00  0.00    -0.354 N 
ATOM     60  N   UNL A   1      40.824  32.583  30.472  1.00  0.00    -0.248 NA
ATOM     61  C   UNL A   1      39.234  34.240  30.889  1.00  0.00     0.031 C 
ATOM     62  C   UNL A   1      45.161  32.999  31.335  1.00  0.00     0.029 A 
ATOM     63  C   UNL A   1      43.804  32.893  31.079  1.00  0.00     0.049 A 
ATOM     64  H   UNL A   1      42.719  31.247  30.325  1.00  0.00     0.167 HD
ATOM     65  C   UNL A   1      41.461  33.703  30.988  1.00  0.00     0.074 A 
ATOM     66  C   UNL A   1      40.437  34.706  31.192  1.00  0.00     0.031 C 
ATOM     67  C   UNL A   1      42.776  33.885  31.267  1.00  0.00     0.037 A 
BRANCH  54  68
ATOM     68  C   UNL A   1      46.307  28.940  30.139  1.00  0.00     0.064 A 
ATOM     69  C   UNL A   1      46.767  28.269  31.283  1.00  0.00     0.173 A 
ATOM     70  C   UNL A   1      47.154  28.980  29.021  1.00  0.00     0.173 A 
ATOM     71  F   UNL A   1      46.003  28.209  32.385  1.00  0.00    -0.203 F 
ATOM     72  C   UNL A   1      48.035  27.693  31.317  1.00  0.00     0.198 A 
ATOM     73  C   UNL A   1      48.407  28.372  29.047  1.00  0.00     0.198 A 
ATOM     74  F   UNL A   1      46.764  29.602  27.898  1.00  0.00    -0.203 F 
ATOM     75  F   UNL A   1      48.472  27.106  32.440  1.00  0.00    -0.200 F 
ATOM     76  C   UNL A   1      48.849  27.737  30.197  1.00  0.00     0.200 A 
ATOM     77  F   UNL A   1      49.187  28.402  27.956  1.00  0.00    -0.200 F 
ATOM     78  F   UNL A   1      50.065  27.173  30.228  1.00  0.00    -0.200 F 
ENDBRANCH  54  68
BRANCH  55  79
ATOM     79  C   UNL A   1      37.019  32.623  29.861  1.00  0.00     0.064 A 
ATOM     80  C   UNL A   1      36.537  33.330  28.750  1.00  0.00     0.173 A 
ATOM     81  C   UNL A   1      36.156  32.463  30.956  1.00  0.00     0.173 A 
ATOM     82  F   UNL A   1      37.329  33.527  27.686  1.00  0.00    -0.203 F 
ATOM     83  C   UNL A   1      35.256  33.878  28.745  1.00  0.00     0.198 A 
ATOM     84  C   UNL A   1      34.864  32.982  30.937  1.00  0.00     0.198 A 
ATOM     85  F   UNL A   1      36.566  31.790  32.041  1.00  0.00    -0.203 F 
ATOM     86  F   UNL A   1      34.840  34.595  27.692  1.00  0.00    -0.200 F 
ATOM     87  C   UNL A   1      34.418  33.699  29.836  1.00  0.00     0.200 A 
ATOM     88  F   UNL A   1      34.053  32.793  31.985  1.00  0.00    -0.200 F 
ATOM     89  F   UNL A   1      33.185  34.223  29.829  1.00  0.00    -0.200 F 
ENDBRANCH  55  79
BRANCH  67  90
ATOM     90  C   UNL A   1      43.191  35.235  31.781  1.00  0.00     0.064 A 
ATOM     91  C   UNL A   1      43.156  35.550  33.147  1.00  0.00     0.173 A 
ATOM     92  C   UNL A   1      43.669  36.212  30.894  1.00  0.00     0.173 A 
ATOM     93  F   UNL A   1      42.696  34.656  34.035  1.00  0.00    -0.203 F 
ATOM     94  C   UNL A   1      43.554  36.804  33.602  1.00  0.00     0.198 A 
ATOM     95  C   UNL A   1      44.100  37.451  31.357  1.00  0.00     0.198 A 
ATOM     96  F   UNL A   1      43.731  35.959  29.578  1.00  0.00    -0.203 F 
ATOM     97  F   UNL A   1      43.459  37.102  34.906  1.00  0.00    -0.200 F 
ATOM     98  C   UNL A   1      44.033  37.750  32.709  1.00  0.00     0.200 A 
ATOM     99  F   UNL A   1      44.579  38.357  30.494  1.00  0.00    -0.200 F 
ATOM    100  F   UNL A   1      44.424  38.953  33.150  1.00  0.00    -0.200 F 
ENDBRANCH  67  90
ENDBRANCH  41  42
ENDBRANCH  33  36
ENDBRANCH  31  32
ENDBRANCH  30  31
ENDBRANCH  29  30
ENDBRANCH   3  29
TORSDOF 16
ENDMDL
MODEL 3
REMARK VINA RESULT:     -13.3      5.554     11.617
REMARK SMILES COc1ccc(CCc2nnc(NC(=O)[C@@H]3[C@@H](C(=O)NCCCNC(=O)c4ccc(-c5c6nc(c(-c7c(F)c(F)c(F)c(F)c7F)c7ccc([nH]7)c(-c7c(F)c(F)c(F)c(F)c7F)c7nc(c(-c8c(F)c(F)c(F)c(F)c8F)c8ccc5[nH]8)C=C7)C=C6)cc4)C3(C)C)s2)cc1
REMARK SMILES IDX 18 1 19 2 20 3 17 5 16 6 90 7 91 8 92 9 14 10 13 11 15 13
REMARK SMILES IDX 12 14 9 15 10 16 93 17 11 18 8 19 7 20 6 21 3 22 4 23 95 24
REMARK SMILES IDX 5 25 94 26 2 27 1 28 21 29 22 30 23 31 24 32 25 33 26 35
REMARK SMILES IDX 27 36 28 37 89 38 29 39 88 40 30 41 31 42 32 43 82 44 33 45
REMARK SMILES IDX 87 46 81 47 83 48 34 49 86 50 80 51 79 52 35 54 67 55 47 56
REMARK SMILES IDX 66 57 48 58 51 59 65 60 84 61 49 62 50 63 64 65 85 66 52 67
REMARK SMILES IDX 36 68 37 69 45 70 38 71 39 72 43 73 46 74 40 75 41 76 44 77
REMARK SMILES IDX 42 78 68 79 69 80 77 81 70 82 71 83 75 84 78 85 72 86 73 87
REMARK SMILES IDX 76 88 74 89 53 90 54 91 62 92 55 93 56 94 60 95 63 96 57 97
REMARK SMILES IDX 58 98 61 99 59 100
REMARK H PARENT 20 4 13 12 24 34 83 53 51 64
REMARK Flexibility Score: inf
ROOT
ATOM      1  C   UNL A   1      31.840  28.656  26.744  1.00  0.00     0.224 C 
ATOM      2  O   UNL A   1      32.290  28.101  27.749  1.00  0.00    -0.275 OA
ATOM      3  N   UNL A   1      31.877  30.016  26.747  1.00  0.00    -0.356 N 
ATOM      4  H   UNL A   1      32.329  30.384  27.541  1.00  0.00     0.163 HD
ENDROOT
BRANCH   1   5
ATOM      5  C   UNL A   1      31.367  27.781  25.649  1.00  0.00     0.098 C 
ATOM      6  C   UNL A   1      31.449  26.282  25.521  1.00  0.00     0.098 C 
ATOM      7  C   UNL A   1      32.202  27.186  24.533  1.00  0.00    -0.011 C 
ATOM      8  C   UNL A   1      33.712  27.209  24.624  1.00  0.00     0.013 C 
ATOM      9  C   UNL A   1      31.696  27.334  23.119  1.00  0.00     0.013 C 
BRANCH   6  10
ATOM     10  C   UNL A   1      30.141  25.602  25.280  1.00  0.00     0.230 C 
ATOM     11  N   UNL A   1      29.930  24.353  25.817  1.00  0.00    -0.300 N 
ATOM     12  H   UNL A   1      29.005  24.015  25.832  1.00  0.00     0.172 HD
ATOM     13  O   UNL A   1      29.249  26.161  24.654  1.00  0.00    -0.274 OA
BRANCH  11  14
ATOM     14  C   UNL A   1      30.904  23.546  26.330  1.00  0.00     0.212 A 
ATOM     15  C   UNL A   1      32.829  22.175  26.479  1.00  0.00     0.119 A 
ATOM     16  N   UNL A   1      32.516  22.727  27.633  1.00  0.00    -0.142 NA
ATOM     17  S   UNL A   1      31.656  22.469  25.239  1.00  0.00    -0.080 S 
ATOM     18  N   UNL A   1      31.403  23.525  27.539  1.00  0.00    -0.120 NA
BRANCH  15  19
ATOM     19  C   UNL A   1      34.075  21.378  26.267  1.00  0.00     0.074 C 
BRANCH  19  20
ATOM     20  C   UNL A   1      34.203  20.681  24.905  1.00  0.00     0.043 C 
BRANCH  20  21
ATOM     21  C   UNL A   1      33.915  19.193  24.835  1.00  0.00    -0.047 A 
ATOM     22  C   UNL A   1      33.526  16.400  24.911  1.00  0.00     0.118 A 
ATOM     23  C   UNL A   1      32.539  17.256  25.382  1.00  0.00     0.046 A 
ATOM     24  C   UNL A   1      34.690  16.927  24.358  1.00  0.00     0.046 A 
ATOM     25  C   UNL A   1      32.741  18.637  25.361  1.00  0.00     0.007 A 
ATOM     26  C   UNL A   1      34.884  18.315  24.323  1.00  0.00     0.007 A 
BRANCH  22  27
ATOM     27  O   UNL A   1      33.256  15.062  24.978  1.00  0.00    -0.497 OA
ATOM     28  C   UNL A   1      32.158  14.762  25.836  1.00  0.00     0.278 C 
ENDBRANCH  22  27
ENDBRANCH  20  21
ENDBRANCH  19  20
ENDBRANCH  15  19
ENDBRANCH  11  14
ENDBRANCH   6  10
ENDBRANCH   1   5
BRANCH   3  29
ATOM     29  C   UNL A   1      31.403  31.048  25.846  1.00  0.00     0.117 C 
BRANCH  29  30
ATOM     30  C   UNL A   1      31.274  32.388  26.555  1.00  0.00     0.042 C 
BRANCH  30  31
ATOM     31  C   UNL A   1      32.603  32.936  27.048  1.00  0.00     0.118 C 
BRANCH  31  32
ATOM     32  N   UNL A   1      32.465  34.240  27.681  1.00  0.00    -0.352 N 
ATOM     33  C   UNL A   1      33.097  34.762  28.782  1.00  0.00     0.251 C 
ATOM     34  H   UNL A   1      31.815  34.842  27.252  1.00  0.00     0.163 HD
ATOM     35  O   UNL A   1      32.685  35.804  29.286  1.00  0.00    -0.269 OA
BRANCH  33  36
ATOM     36  C   UNL A   1      34.259  34.070  29.380  1.00  0.00     0.039 A 
ATOM     37  C   UNL A   1      35.547  34.463  29.003  1.00  0.00     0.014 A 
ATOM     38  C   UNL A   1      34.092  33.022  30.286  1.00  0.00     0.014 A 
ATOM     39  C   UNL A   1      36.658  33.844  29.578  1.00  0.00     0.010 A 
ATOM     40  C   UNL A   1      35.196  32.481  30.939  1.00  0.00     0.010 A 
ATOM     41  C   UNL A   1      36.493  32.872  30.580  1.00  0.00    -0.014 A 
BRANCH  41  42
ATOM     42  C   UNL A   1      37.662  32.239  31.242  1.00  0.00     0.031 A 
ATOM     43  C   UNL A   1      38.434  31.154  30.540  1.00  0.00     0.074 A 
ATOM     44  C   UNL A   1      38.000  32.605  32.495  1.00  0.00     0.049 A 
ATOM     45  N   UNL A   1      39.453  30.450  30.969  1.00  0.00    -0.248 NA
ATOM     46  C   UNL A   1      37.984  30.788  29.188  1.00  0.00     0.031 C 
ATOM     47  C   UNL A   1      37.301  33.607  33.300  1.00  0.00     0.029 A 
ATOM     48  N   UNL A   1      39.015  32.172  33.312  1.00  0.00    -0.354 N 
ATOM     49  C   UNL A   1      39.751  29.558  29.948  1.00  0.00     0.074 A 
ATOM     50  C   UNL A   1      38.768  29.759  28.907  1.00  0.00     0.031 C 
ATOM     51  C   UNL A   1      37.925  33.736  34.481  1.00  0.00     0.029 A 
ATOM     52  C   UNL A   1      39.040  32.797  34.535  1.00  0.00     0.049 A 
ATOM     53  H   UNL A   1      39.662  31.481  33.046  1.00  0.00     0.167 HD
ATOM     54  C   UNL A   1      40.771  28.668  29.872  1.00  0.00     0.037 A 
ATOM     55  C   UNL A   1      39.868  32.627  35.584  1.00  0.00     0.037 A 
ATOM     56  C   UNL A   1      41.760  28.487  30.902  1.00  0.00     0.049 A 
ATOM     57  C   UNL A   1      40.986  31.623  35.479  1.00  0.00     0.074 A 
ATOM     58  C   UNL A   1      42.866  27.654  30.899  1.00  0.00     0.029 A 
ATOM     59  N   UNL A   1      41.759  29.145  32.123  1.00  0.00    -0.354 N 
ATOM     60  N   UNL A   1      41.304  30.838  34.479  1.00  0.00    -0.248 NA
ATOM     61  C   UNL A   1      41.865  31.489  36.648  1.00  0.00     0.031 C 
ATOM     62  C   UNL A   1      43.500  27.766  32.139  1.00  0.00     0.029 A 
ATOM     63  C   UNL A   1      42.830  28.718  32.891  1.00  0.00     0.049 A 
ATOM     64  H   UNL A   1      41.096  29.817  32.402  1.00  0.00     0.167 HD
ATOM     65  C   UNL A   1      42.435  30.143  34.883  1.00  0.00     0.074 A 
ATOM     66  C   UNL A   1      42.757  30.611  36.214  1.00  0.00     0.031 C 
ATOM     67  C   UNL A   1      43.144  29.201  34.212  1.00  0.00     0.037 A 
BRANCH  54  68
ATOM     68  C   UNL A   1      40.870  27.825  28.632  1.00  0.00     0.064 A 
ATOM     69  C   UNL A   1      40.159  26.622  28.498  1.00  0.00     0.173 A 
ATOM     70  C   UNL A   1      41.658  28.242  27.549  1.00  0.00     0.173 A 
ATOM     71  F   UNL A   1      39.398  26.170  29.507  1.00  0.00    -0.203 F 
ATOM     72  C   UNL A   1      40.260  25.853  27.341  1.00  0.00     0.198 A 
ATOM     73  C   UNL A   1      41.728  27.488  26.379  1.00  0.00     0.198 A 
ATOM     74  F   UNL A   1      42.354  29.386  27.618  1.00  0.00    -0.203 F 
ATOM     75  F   UNL A   1      39.615  24.681  27.260  1.00  0.00    -0.200 F 
ATOM     76  C   UNL A   1      41.037  26.290  26.281  1.00  0.00     0.200 A 
ATOM     77  F   UNL A   1      42.468  27.920  25.348  1.00  0.00    -0.200 F 
ATOM     78  F   UNL A   1      41.125  25.554  25.164  1.00  0.00    -0.200 F 
ENDBRANCH  54  68
BRANCH  55  79
ATOM     79  C   UNL A   1      39.687  33.441  36.815  1.00  0.00     0.064 A 
ATOM     80  C   UNL A   1      38.844  33.010  37.848  1.00  0.00     0.173 A 
ATOM     81  C   UNL A   1      40.345  34.670  36.981  1.00  0.00     0.173 A 
ATOM     82  F   UNL A   1      38.177  31.853  37.730  1.00  0.00    -0.203 F 
ATOM     83  C   UNL A   1      38.643  33.788  38.988  1.00  0.00     0.198 A 
ATOM     84  C   UNL A   1      40.170  35.431  38.135  1.00  0.00     0.198 A 
ATOM     85  F   UNL A   1      41.167  35.126  36.025  1.00  0.00    -0.203 F 
ATOM     86  F   UNL A   1      37.790  33.376  39.935  1.00  0.00    -0.200 F 
ATOM     87  C   UNL A   1      39.311  34.995  39.133  1.00  0.00     0.200 A 
ATOM     88  F   UNL A   1      40.829  36.588  38.278  1.00  0.00    -0.200 F 
ATOM     89  F   UNL A   1      39.121  35.740  40.229  1.00  0.00    -0.200 F 
ENDBRANCH  55  79
BRANCH  67  90
ATOM     90  C   UNL A   1      44.366  28.646  34.887  1.00  0.00     0.064 A 
ATOM     91  C   UNL A   1      45.623  29.258  34.763  1.00  0.00     0.173 A 
ATOM     92  C   UNL A   1      44.268  27.508  35.703  1.00  0.00     0.173 A 
ATOM     93  F   UNL A   1      45.773  30.340  33.984  1.00  0.00    -0.203 F 
ATOM     94  C   UNL A   1      46.740  28.731  35.405  1.00  0.00     0.198 A 
ATOM     95  C   UNL A   1      45.380  27.008  36.373  1.00  0.00     0.198 A 
ATOM     96  F   UNL A   1      43.088  26.891  35.864  1.00  0.00    -0.203 F 
ATOM     97  F   UNL A   1      47.942  29.299  35.226  1.00  0.00    -0.200 F 
ATOM     98  C   UNL A   1      46.617  27.613  36.215  1.00  0.00     0.200 A 
ATOM     99  F   UNL A   1      45.255  25.937  37.169  1.00  0.00    -0.200 F 
ATOM    100  F   UNL A   1      47.693  27.113  36.839  1.00  0.00    -0.200 F 
ENDBRANCH  67  90
ENDBRANCH  41  42
ENDBRANCH  33  36
ENDBRANCH  31  32
ENDBRANCH  30  31
ENDBRANCH  29  30
ENDBRANCH   3  29
TORSDOF 16
ENDMDL
