MODEL 1
REMARK VINA RESULT:     -14.5      0.000      0.000
REMARK SMILES Cc1cccc(-n2c(C)cc(/C=N\c3ccc(O)c(C(=O)NCCCNC(=O)c4ccc(-c5c6nc(c(-c7c(F)c(F)c(F)c(F)c7F)c7ccc([nH]7)c(-c7c(F)c(F)c(F)c(F)c7F)c7nc(c(-c8c(F)c(F)c(F)c(F)c8F)c8ccc5[nH]8)C=C7)C=C6)cc4)c3)c2C)c1
REMARK SMILES IDX 23 1 22 2 20 3 21 4 19 6 14 7 15 8 92 9 16 10 17 11 13 12
REMARK SMILES IDX 12 13 11 14 7 15 8 16 93 17 9 18 10 19 94 20 6 21 1 22 2 23
REMARK SMILES IDX 3 24 95 25 4 26 5 27 18 28 24 30 25 31 26 32 27 33 28 35
REMARK SMILES IDX 29 36 30 37 91 38 31 39 90 40 32 41 33 42 34 43 84 44 35 45
REMARK SMILES IDX 89 46 83 47 85 48 36 49 88 50 82 51 81 52 37 54 69 55 49 56
REMARK SMILES IDX 68 57 50 58 53 59 67 60 86 61 51 62 52 63 66 65 87 66 54 67
REMARK SMILES IDX 38 68 39 69 47 70 40 71 41 72 45 73 48 74 42 75 43 76 46 77
REMARK SMILES IDX 44 78 70 79 71 80 79 81 72 82 73 83 77 84 80 85 74 86 75 87
REMARK SMILES IDX 78 88 76 89 55 90 56 91 64 92 57 93 58 94 62 95 65 96 59 97
REMARK SMILES IDX 60 98 63 99 61 100
REMARK H PARENT 22 5 18 29 26 34 85 53 53 64
REMARK Flexibility Score: inf
ROOT
ATOM      1  C   UNL A   1      37.246  21.288  25.202  1.00  0.00     0.118 C 
ENDROOT
BRANCH   1   2
ATOM      2  N   UNL A   1      36.921  22.133  24.067  1.00  0.00    -0.352 N 
ATOM      3  C   UNL A   1      35.761  22.780  23.697  1.00  0.00     0.255 C 
ATOM      4  O   UNL A   1      35.829  23.492  22.692  1.00  0.00    -0.269 OA
ATOM      5  H   UNL A   1      37.670  22.269  23.445  1.00  0.00     0.163 HD
BRANCH   3   6
ATOM      6  C   UNL A   1      34.445  22.647  24.407  1.00  0.00     0.083 A 
ATOM      7  C   UNL A   1      32.015  22.660  24.231  1.00  0.00     0.064 A 
ATOM      8  C   UNL A   1      31.900  22.252  25.556  1.00  0.00     0.032 A 
ATOM      9  C   UNL A   1      33.281  22.676  23.622  1.00  0.00     0.046 A 
ATOM     10  C   UNL A   1      33.028  22.248  26.354  1.00  0.00     0.049 A 
ATOM     11  C   UNL A   1      34.239  22.636  25.790  1.00  0.00     0.128 A 
BRANCH   7  12
ATOM     12  N   UNL A   1      30.903  23.130  23.530  1.00  0.00    -0.256 NA
ATOM     13  C   UNL A   1      30.743  24.395  23.242  1.00  0.00     0.121 C 
BRANCH  13  14
ATOM     14  C   UNL A   1      31.585  25.575  23.508  1.00  0.00     0.014 A 
ATOM     15  N   UNL A   1      32.680  27.359  24.393  1.00  0.00    -0.318 N 
ATOM     16  C   UNL A   1      33.014  27.306  23.050  1.00  0.00     0.021 A 
ATOM     17  C   UNL A   1      31.973  26.190  24.701  1.00  0.00     0.029 A 
ATOM     18  C   UNL A   1      34.026  28.200  22.418  1.00  0.00     0.065 C 
ATOM     19  C   UNL A   1      32.319  26.252  22.488  1.00  0.00     0.033 A 
ATOM     20  C   UNL A   1      31.681  25.819  26.106  1.00  0.00     0.065 C 
BRANCH  15  21
ATOM     21  C   UNL A   1      32.950  28.447  25.284  1.00  0.00     0.046 A 
ATOM     22  C   UNL A   1      31.229  31.651  26.458  1.00  0.00     0.044 C 
ATOM     23  C   UNL A   1      32.198  30.511  26.337  1.00  0.00    -0.049 A 
ATOM     24  C   UNL A   1      33.248  30.409  27.259  1.00  0.00     0.003 A 
ATOM     25  C   UNL A   1      32.054  29.527  25.344  1.00  0.00     0.030 A 
ATOM     26  C   UNL A   1      34.168  29.368  27.167  1.00  0.00     0.002 A 
ATOM     27  C   UNL A   1      34.028  28.400  26.173  1.00  0.00     0.026 A 
ENDBRANCH  15  21
ENDBRANCH  13  14
ENDBRANCH   7  12
BRANCH  11  28
ATOM     28  O   UNL A   1      35.035  23.325  26.678  1.00  0.00    -0.507 OA
ATOM     29  H   UNL A   1      35.791  22.913  27.047  1.00  0.00     0.293 HD
ENDBRANCH  11  28
ENDBRANCH   3   6
ENDBRANCH   1   2
BRANCH   1  30
ATOM     30  C   UNL A   1      38.638  21.420  25.753  1.00  0.00     0.042 C 
BRANCH  30  31
ATOM     31  C   UNL A   1      38.970  22.799  26.255  1.00  0.00     0.118 C 
BRANCH  31  32
ATOM     32  N   UNL A   1      40.368  23.005  26.644  1.00  0.00    -0.352 N 
ATOM     33  C   UNL A   1      41.023  24.189  26.963  1.00  0.00     0.251 C 
ATOM     34  H   UNL A   1      40.921  22.191  26.684  1.00  0.00     0.163 HD
ATOM     35  O   UNL A   1      42.193  24.167  27.333  1.00  0.00    -0.269 OA
BRANCH  33  36
ATOM     36  C   UNL A   1      40.253  25.459  27.005  1.00  0.00     0.039 A 
ATOM     37  C   UNL A   1      40.756  26.570  26.323  1.00  0.00     0.014 A 
ATOM     38  C   UNL A   1      39.283  25.632  27.975  1.00  0.00     0.014 A 
ATOM     39  C   UNL A   1      40.533  27.840  26.852  1.00  0.00     0.010 A 
ATOM     40  C   UNL A   1      39.275  26.831  28.644  1.00  0.00     0.010 A 
ATOM     41  C   UNL A   1      39.934  27.937  28.104  1.00  0.00    -0.014 A 
BRANCH  41  42
ATOM     42  C   UNL A   1      39.987  29.110  28.968  1.00  0.00     0.031 A 
ATOM     43  C   UNL A   1      38.952  30.160  28.833  1.00  0.00     0.074 A 
ATOM     44  C   UNL A   1      40.843  29.128  30.014  1.00  0.00     0.049 A 
ATOM     45  N   UNL A   1      39.019  31.330  29.367  1.00  0.00    -0.248 NA
ATOM     46  C   UNL A   1      37.739  29.964  28.049  1.00  0.00     0.031 C 
ATOM     47  C   UNL A   1      40.811  30.014  31.174  1.00  0.00     0.029 A 
ATOM     48  N   UNL A   1      42.058  28.433  30.150  1.00  0.00    -0.354 N 
ATOM     49  C   UNL A   1      37.781  31.925  29.249  1.00  0.00     0.074 A 
ATOM     50  C   UNL A   1      37.037  31.050  28.378  1.00  0.00     0.031 C 
ATOM     51  C   UNL A   1      42.039  30.065  31.714  1.00  0.00     0.029 A 
ATOM     52  C   UNL A   1      42.924  29.330  30.830  1.00  0.00     0.049 A 
ATOM     53  H   UNL A   1      42.265  27.521  29.840  1.00  0.00     0.167 HD
ATOM     54  C   UNL A   1      37.512  33.033  29.999  1.00  0.00     0.037 A 
ATOM     55  C   UNL A   1      44.003  29.860  30.182  1.00  0.00     0.037 A 
ATOM     56  C   UNL A   1      38.722  33.496  30.687  1.00  0.00     0.049 A 
ATOM     57  C   UNL A   1      43.936  31.360  29.967  1.00  0.00     0.074 A 
ATOM     58  C   UNL A   1      39.220  33.376  31.975  1.00  0.00     0.029 A 
ATOM     59  N   UNL A   1      39.778  33.947  29.914  1.00  0.00    -0.354 N 
ATOM     60  N   UNL A   1      42.932  32.114  30.327  1.00  0.00    -0.248 NA
ATOM     61  C   UNL A   1      44.958  32.110  29.235  1.00  0.00     0.031 C 
ATOM     62  C   UNL A   1      40.607  33.707  31.944  1.00  0.00     0.029 A 
ATOM     63  C   UNL A   1      40.947  34.038  30.645  1.00  0.00     0.049 A 
ATOM     64  H   UNL A   1      39.705  34.174  28.959  1.00  0.00     0.167 HD
ATOM     65  C   UNL A   1      43.115  33.376  29.833  1.00  0.00     0.074 A 
ATOM     66  C   UNL A   1      44.402  33.332  29.166  1.00  0.00     0.031 C 
ATOM     67  C   UNL A   1      42.183  34.364  29.955  1.00  0.00     0.037 A 
BRANCH  54  68
ATOM     68  C   UNL A   1      36.130  33.594  30.286  1.00  0.00     0.064 A 
ATOM     69  C   UNL A   1      35.355  34.137  29.238  1.00  0.00     0.173 A 
ATOM     70  C   UNL A   1      35.526  33.690  31.555  1.00  0.00     0.173 A 
ATOM     71  F   UNL A   1      35.735  34.031  27.957  1.00  0.00    -0.203 F 
ATOM     72  C   UNL A   1      34.147  34.809  29.458  1.00  0.00     0.198 A 
ATOM     73  C   UNL A   1      34.344  34.402  31.784  1.00  0.00     0.198 A 
ATOM     74  F   UNL A   1      36.001  33.042  32.619  1.00  0.00    -0.203 F 
ATOM     75  F   UNL A   1      33.464  35.306  28.418  1.00  0.00    -0.200 F 
ATOM     76  C   UNL A   1      33.659  34.973  30.737  1.00  0.00     0.200 A 
ATOM     77  F   UNL A   1      33.873  34.517  33.035  1.00  0.00    -0.200 F 
ATOM     78  F   UNL A   1      32.521  35.644  30.954  1.00  0.00    -0.200 F 
ENDBRANCH  54  68
BRANCH  55  79
ATOM     79  C   UNL A   1      44.620  28.885  29.240  1.00  0.00     0.064 A 
ATOM     80  C   UNL A   1      45.405  27.847  29.782  1.00  0.00     0.173 A 
ATOM     81  C   UNL A   1      44.129  28.715  27.942  1.00  0.00     0.173 A 
ATOM     82  F   UNL A   1      45.904  27.963  31.024  1.00  0.00    -0.203 F 
ATOM     83  C   UNL A   1      45.566  26.637  29.112  1.00  0.00     0.198 A 
ATOM     84  C   UNL A   1      44.315  27.508  27.264  1.00  0.00     0.198 A 
ATOM     85  F   UNL A   1      43.355  29.653  27.379  1.00  0.00    -0.203 F 
ATOM     86  F   UNL A   1      46.204  25.621  29.710  1.00  0.00    -0.200 F 
ATOM     87  C   UNL A   1      44.992  26.458  27.866  1.00  0.00     0.200 A 
ATOM     88  F   UNL A   1      43.736  27.324  26.068  1.00  0.00    -0.200 F 
ATOM     89  F   UNL A   1      45.050  25.261  27.264  1.00  0.00    -0.200 F 
ENDBRANCH  55  79
BRANCH  67  90
ATOM     90  C   UNL A   1      42.396  35.743  29.417  1.00  0.00     0.064 A 
ATOM     91  C   UNL A   1      41.869  36.139  28.178  1.00  0.00     0.173 A 
ATOM     92  C   UNL A   1      43.243  36.664  30.066  1.00  0.00     0.173 A 
ATOM     93  F   UNL A   1      41.074  35.314  27.481  1.00  0.00    -0.203 F 
ATOM     94  C   UNL A   1      42.161  37.389  27.630  1.00  0.00     0.198 A 
ATOM     95  C   UNL A   1      43.573  37.888  29.492  1.00  0.00     0.198 A 
ATOM     96  F   UNL A   1      43.748  36.405  31.281  1.00  0.00    -0.203 F 
ATOM     97  F   UNL A   1      41.605  37.750  26.465  1.00  0.00    -0.200 F 
ATOM     98  C   UNL A   1      43.027  38.254  28.277  1.00  0.00     0.200 A 
ATOM     99  F   UNL A   1      44.423  38.711  30.124  1.00  0.00    -0.200 F 
ATOM    100  F   UNL A   1      43.329  39.441  27.734  1.00  0.00    -0.200 F 
ENDBRANCH  67  90
ENDBRANCH  41  42
ENDBRANCH  33  36
ENDBRANCH  31  32
ENDBRANCH  30  31
ENDBRANCH   1  30
TORSDOF 14
ENDMDL
MODEL 2
REMARK VINA RESULT:     -14.0      1.107      2.303
REMARK SMILES Cc1cccc(-n2c(C)cc(/C=N\c3ccc(O)c(C(=O)NCCCNC(=O)c4ccc(-c5c6nc(c(-c7c(F)c(F)c(F)c(F)c7F)c7ccc([nH]7)c(-c7c(F)c(F)c(F)c(F)c7F)c7nc(c(-c8c(F)c(F)c(F)c(F)c8F)c8ccc5[nH]8)C=C7)C=C6)cc4)c3)c2C)c1
REMARK SMILES IDX 23 1 22 2 20 3 21 4 19 6 14 7 15 8 92 9 16 10 17 11 13 12
REMARK SMILES IDX 12 13 11 14 7 15 8 16 93 17 9 18 10 19 94 20 6 21 1 22 2 23
REMARK SMILES IDX 3 24 95 25 4 26 5 27 18 28 24 30 25 31 26 32 27 33 28 35
REMARK SMILES IDX 29 36 30 37 91 38 31 39 90 40 32 41 33 42 34 43 84 44 35 45
REMARK SMILES IDX 89 46 83 47 85 48 36 49 88 50 82 51 81 52 37 54 69 55 49 56
REMARK SMILES IDX 68 57 50 58 53 59 67 60 86 61 51 62 52 63 66 65 87 66 54 67
REMARK SMILES IDX 38 68 39 69 47 70 40 71 41 72 45 73 48 74 42 75 43 76 46 77
REMARK SMILES IDX 44 78 70 79 71 80 79 81 72 82 73 83 77 84 80 85 74 86 75 87
REMARK SMILES IDX 78 88 76 89 55 90 56 91 64 92 57 93 58 94 62 95 65 96 59 97
REMARK SMILES IDX 60 98 63 99 61 100
REMARK H PARENT 22 5 18 29 26 34 85 53 53 64
REMARK Flexibility Score: inf
ROOT
ATOM      1  C   UNL A   1      36.764  21.451  25.433  1.00  0.00     0.118 C 
ENDROOT
BRANCH   1   2
ATOM      2  N   UNL A   1      35.978  22.466  26.108  1.00  0.00    -0.352 N 
ATOM      3  C   UNL A   1      34.705  22.951  25.888  1.00  0.00     0.255 C 
ATOM      4  O   UNL A   1      34.289  23.783  26.697  1.00  0.00    -0.269 OA
ATOM      5  H   UNL A   1      36.440  22.890  26.866  1.00  0.00     0.163 HD
BRANCH   3   6
ATOM      6  C   UNL A   1      33.831  22.559  24.732  1.00  0.00     0.083 A 
ATOM      7  C   UNL A   1      33.313  22.848  22.369  1.00  0.00     0.064 A 
ATOM      8  C   UNL A   1      32.393  21.806  22.425  1.00  0.00     0.032 A 
ATOM      9  C   UNL A   1      34.149  23.091  23.472  1.00  0.00     0.046 A 
ATOM     10  C   UNL A   1      32.042  21.291  23.660  1.00  0.00     0.049 A 
ATOM     11  C   UNL A   1      32.641  21.827  24.795  1.00  0.00     0.128 A 
BRANCH   7  12
ATOM     12  N   UNL A   1      33.355  23.703  21.265  1.00  0.00    -0.256 NA
ATOM     13  C   UNL A   1      32.895  24.925  21.311  1.00  0.00     0.121 C 
BRANCH  13  14
ATOM     14  C   UNL A   1      32.284  25.702  22.405  1.00  0.00     0.014 A 
ATOM     15  N   UNL A   1      31.745  27.214  24.014  1.00  0.00    -0.318 N 
ATOM     16  C   UNL A   1      30.815  26.191  24.093  1.00  0.00     0.021 A 
ATOM     17  C   UNL A   1      32.510  27.004  22.860  1.00  0.00     0.029 A 
ATOM     18  C   UNL A   1      29.627  26.228  24.993  1.00  0.00     0.065 C 
ATOM     19  C   UNL A   1      31.156  25.242  23.150  1.00  0.00     0.033 A 
ATOM     20  C   UNL A   1      33.431  28.047  22.351  1.00  0.00     0.065 C 
BRANCH  15  21
ATOM     21  C   UNL A   1      31.933  28.255  24.979  1.00  0.00     0.046 A 
ATOM     22  C   UNL A   1      34.447  29.183  27.704  1.00  0.00     0.044 C 
ATOM     23  C   UNL A   1      33.300  29.242  26.736  1.00  0.00    -0.049 A 
ATOM     24  C   UNL A   1      32.556  30.424  26.636  1.00  0.00     0.003 A 
ATOM     25  C   UNL A   1      32.982  28.154  25.907  1.00  0.00     0.030 A 
ATOM     26  C   UNL A   1      31.481  30.507  25.754  1.00  0.00     0.002 A 
ATOM     27  C   UNL A   1      31.161  29.421  24.940  1.00  0.00     0.026 A 
ENDBRANCH  15  21
ENDBRANCH  13  14
ENDBRANCH   7  12
BRANCH  11  28
ATOM     28  O   UNL A   1      31.782  21.873  25.869  1.00  0.00    -0.507 OA
ATOM     29  H   UNL A   1      32.119  22.008  26.733  1.00  0.00     0.293 HD
ENDBRANCH  11  28
ENDBRANCH   3   6
ENDBRANCH   1   2
BRANCH   1  30
ATOM     30  C   UNL A   1      38.248  21.686  25.378  1.00  0.00     0.042 C 
BRANCH  30  31
ATOM     31  C   UNL A   1      38.694  22.948  26.063  1.00  0.00     0.118 C 
BRANCH  31  32
ATOM     32  N   UNL A   1      40.129  23.034  26.347  1.00  0.00    -0.352 N 
ATOM     33  C   UNL A   1      40.894  24.150  26.667  1.00  0.00     0.251 C 
ATOM     34  H   UNL A   1      40.621  22.182  26.304  1.00  0.00     0.163 HD
ATOM     35  O   UNL A   1      42.084  24.025  26.942  1.00  0.00    -0.269 OA
BRANCH  33  36
ATOM     36  C   UNL A   1      40.227  25.467  26.831  1.00  0.00     0.039 A 
ATOM     37  C   UNL A   1      40.728  26.564  26.125  1.00  0.00     0.014 A 
ATOM     38  C   UNL A   1      39.388  25.674  27.910  1.00  0.00     0.014 A 
ATOM     39  C   UNL A   1      40.658  27.827  26.708  1.00  0.00     0.010 A 
ATOM     40  C   UNL A   1      39.541  26.847  28.606  1.00  0.00     0.010 A 
ATOM     41  C   UNL A   1      40.213  27.923  28.022  1.00  0.00    -0.014 A 
BRANCH  41  42
ATOM     42  C   UNL A   1      40.447  29.060  28.905  1.00  0.00     0.031 A 
ATOM     43  C   UNL A   1      39.408  30.105  29.035  1.00  0.00     0.074 A 
ATOM     44  C   UNL A   1      41.504  29.042  29.747  1.00  0.00     0.049 A 
ATOM     45  N   UNL A   1      39.585  31.253  29.592  1.00  0.00    -0.248 NA
ATOM     46  C   UNL A   1      38.056  29.932  28.517  1.00  0.00     0.031 C 
ATOM     47  C   UNL A   1      41.718  29.879  30.924  1.00  0.00     0.029 A 
ATOM     48  N   UNL A   1      42.720  28.352  29.595  1.00  0.00    -0.354 N 
ATOM     49  C   UNL A   1      38.351  31.842  29.762  1.00  0.00     0.074 A 
ATOM     50  C   UNL A   1      37.440  30.997  29.031  1.00  0.00     0.031 C 
ATOM     51  C   UNL A   1      43.032  29.918  31.195  1.00  0.00     0.029 A 
ATOM     52  C   UNL A   1      43.710  29.228  30.115  1.00  0.00     0.049 A 
ATOM     53  H   UNL A   1      42.857  27.456  29.210  1.00  0.00     0.167 HD
ATOM     54  C   UNL A   1      38.246  32.916  30.598  1.00  0.00     0.037 A 
ATOM     55  C   UNL A   1      44.629  29.794  29.277  1.00  0.00     0.037 A 
ATOM     56  C   UNL A   1      39.574  33.361  31.035  1.00  0.00     0.049 A 
ATOM     57  C   UNL A   1      44.518  31.300  29.144  1.00  0.00     0.074 A 
ATOM     58  C   UNL A   1      40.332  33.192  32.182  1.00  0.00     0.029 A 
ATOM     59  N   UNL A   1      40.444  33.852  30.077  1.00  0.00    -0.354 N 
ATOM     60  N   UNL A   1      43.614  32.030  29.738  1.00  0.00    -0.248 NA
ATOM     61  C   UNL A   1      45.364  32.088  28.245  1.00  0.00     0.031 C 
ATOM     62  C   UNL A   1      41.682  33.535  31.874  1.00  0.00     0.029 A 
ATOM     63  C   UNL A   1      41.740  33.922  30.548  1.00  0.00     0.049 A 
ATOM     64  H   UNL A   1      40.171  34.118  29.168  1.00  0.00     0.167 HD
ATOM     65  C   UNL A   1      43.688  33.313  29.270  1.00  0.00     0.074 A 
ATOM     66  C   UNL A   1      44.807  33.307  28.346  1.00  0.00     0.031 C 
ATOM     67  C   UNL A   1      42.804  34.287  29.627  1.00  0.00     0.037 A 
BRANCH  54  68
ATOM     68  C   UNL A   1      36.957  33.453  31.192  1.00  0.00     0.064 A 
ATOM     69  C   UNL A   1      36.681  33.272  32.566  1.00  0.00     0.173 A 
ATOM     70  C   UNL A   1      35.923  34.093  30.480  1.00  0.00     0.173 A 
ATOM     71  F   UNL A   1      37.600  32.776  33.406  1.00  0.00    -0.203 F 
ATOM     72  C   UNL A   1      35.448  33.600  33.142  1.00  0.00     0.198 A 
ATOM     73  C   UNL A   1      34.674  34.378  31.041  1.00  0.00     0.198 A 
ATOM     74  F   UNL A   1      36.091  34.544  29.237  1.00  0.00    -0.203 F 
ATOM     75  F   UNL A   1      35.252  33.397  34.452  1.00  0.00    -0.200 F 
ATOM     76  C   UNL A   1      34.431  34.120  32.371  1.00  0.00     0.200 A 
ATOM     77  F   UNL A   1      33.712  34.916  30.277  1.00  0.00    -0.200 F 
ATOM     78  F   UNL A   1      33.240  34.404  32.911  1.00  0.00    -0.200 F 
ENDBRANCH  54  68
BRANCH  55  79
ATOM     79  C   UNL A   1      45.033  28.863  28.186  1.00  0.00     0.064 A 
ATOM     80  C   UNL A   1      45.836  27.755  28.525  1.00  0.00     0.173 A 
ATOM     81  C   UNL A   1      44.333  28.810  26.976  1.00  0.00     0.173 A 
ATOM     82  F   UNL A   1      46.533  27.759  29.673  1.00  0.00    -0.203 F 
ATOM     83  C   UNL A   1      45.821  26.591  27.761  1.00  0.00     0.198 A 
ATOM     84  C   UNL A   1      44.341  27.648  26.200  1.00  0.00     0.198 A 
ATOM     85  F   UNL A   1      43.532  29.820  26.610  1.00  0.00    -0.203 F 
ATOM     86  F   UNL A   1      46.490  25.507  28.180  1.00  0.00    -0.200 F 
ATOM     87  C   UNL A   1      45.047  26.528  26.615  1.00  0.00     0.200 A 
ATOM     88  F   UNL A   1      43.570  27.577  25.106  1.00  0.00    -0.200 F 
ATOM     89  F   UNL A   1      44.942  25.377  25.936  1.00  0.00    -0.200 F 
ENDBRANCH  55  79
BRANCH  67  90
ATOM     90  C   UNL A   1      42.899  35.689  29.115  1.00  0.00     0.064 A 
ATOM     91  C   UNL A   1      43.404  36.730  29.908  1.00  0.00     0.173 A 
ATOM     92  C   UNL A   1      42.367  36.053  27.862  1.00  0.00     0.173 A 
ATOM     93  F   UNL A   1      43.907  36.476  31.126  1.00  0.00    -0.203 F 
ATOM     94  C   UNL A   1      43.390  38.053  29.467  1.00  0.00     0.198 A 
ATOM     95  C   UNL A   1      42.307  37.380  27.447  1.00  0.00     0.198 A 
ATOM     96  F   UNL A   1      41.915  35.126  27.004  1.00  0.00    -0.203 F 
ATOM     97  F   UNL A   1      43.920  39.016  30.235  1.00  0.00    -0.200 F 
ATOM     98  C   UNL A   1      42.825  38.380  28.246  1.00  0.00     0.200 A 
ATOM     99  F   UNL A   1      41.745  37.683  26.267  1.00  0.00    -0.200 F 
ATOM    100  F   UNL A   1      42.785  39.656  27.838  1.00  0.00    -0.200 F 
ENDBRANCH  67  90
ENDBRANCH  41  42
ENDBRANCH  33  36
ENDBRANCH  31  32
ENDBRANCH  30  31
ENDBRANCH   1  30
TORSDOF 14
ENDMDL
MODEL 3
REMARK VINA RESULT:     -13.7      3.242      9.607
REMARK SMILES Cc1cccc(-n2c(C)cc(/C=N\c3ccc(O)c(C(=O)NCCCNC(=O)c4ccc(-c5c6nc(c(-c7c(F)c(F)c(F)c(F)c7F)c7ccc([nH]7)c(-c7c(F)c(F)c(F)c(F)c7F)c7nc(c(-c8c(F)c(F)c(F)c(F)c8F)c8ccc5[nH]8)C=C7)C=C6)cc4)c3)c2C)c1
REMARK SMILES IDX 23 1 22 2 20 3 21 4 19 6 14 7 15 8 92 9 16 10 17 11 13 12
REMARK SMILES IDX 12 13 11 14 7 15 8 16 93 17 9 18 10 19 94 20 6 21 1 22 2 23
REMARK SMILES IDX 3 24 95 25 4 26 5 27 18 28 24 30 25 31 26 32 27 33 28 35
REMARK SMILES IDX 29 36 30 37 91 38 31 39 90 40 32 41 33 42 34 43 84 44 35 45
REMARK SMILES IDX 89 46 83 47 85 48 36 49 88 50 82 51 81 52 37 54 69 55 49 56
REMARK SMILES IDX 68 57 50 58 53 59 67 60 86 61 51 62 52 63 66 65 87 66 54 67
REMARK SMILES IDX 38 68 39 69 47 70 40 71 41 72 45 73 48 74 42 75 43 76 46 77
REMARK SMILES IDX 44 78 70 79 71 80 79 81 72 82 73 83 77 84 80 85 74 86 75 87
REMARK SMILES IDX 78 88 76 89 55 90 56 91 64 92 57 93 58 94 62 95 65 96 59 97
REMARK SMILES IDX 60 98 63 99 61 100
REMARK H PARENT 22 5 18 29 26 34 85 53 53 64
REMARK Flexibility Score: inf
ROOT
ATOM      1  C   UNL A   1      31.612  29.792  25.632  1.00  0.00     0.118 C 
ENDROOT
BRANCH   1   2
ATOM      2  N   UNL A   1      31.294  30.026  24.236  1.00  0.00    -0.352 N 
ATOM      3  C   UNL A   1      30.906  29.177  23.221  1.00  0.00     0.255 C 
ATOM      4  O   UNL A   1      30.637  29.705  22.138  1.00  0.00    -0.269 OA
ATOM      5  H   UNL A   1      31.370  30.967  23.961  1.00  0.00     0.163 HD
BRANCH   3   6
ATOM      6  C   UNL A   1      30.824  27.683  23.341  1.00  0.00     0.083 A 
ATOM      7  C   UNL A   1      29.948  25.775  24.577  1.00  0.00     0.064 A 
ATOM      8  C   UNL A   1      30.429  24.903  23.606  1.00  0.00     0.032 A 
ATOM      9  C   UNL A   1      29.991  27.160  24.344  1.00  0.00     0.046 A 
ATOM     10  C   UNL A   1      31.276  25.392  22.629  1.00  0.00     0.049 A 
ATOM     11  C   UNL A   1      31.598  26.745  22.650  1.00  0.00     0.128 A 
BRANCH   7  12
ATOM     12  N   UNL A   1      29.502  25.294  25.810  1.00  0.00    -0.256 NA
ATOM     13  C   UNL A   1      30.129  24.348  26.458  1.00  0.00     0.121 C 
BRANCH  13  14
ATOM     14  C   UNL A   1      31.359  23.598  26.149  1.00  0.00     0.014 A 
ATOM     15  N   UNL A   1      33.452  22.911  25.588  1.00  0.00    -0.318 N 
ATOM     16  C   UNL A   1      32.691  21.770  25.783  1.00  0.00     0.021 A 
ATOM     17  C   UNL A   1      32.687  24.007  26.006  1.00  0.00     0.029 A 
ATOM     18  C   UNL A   1      33.257  20.391  25.756  1.00  0.00     0.065 C 
ATOM     19  C   UNL A   1      31.404  22.172  26.081  1.00  0.00     0.033 A 
ATOM     20  C   UNL A   1      33.294  25.351  26.159  1.00  0.00     0.065 C 
BRANCH  15  21
ATOM     21  C   UNL A   1      34.756  22.961  24.999  1.00  0.00     0.046 A 
ATOM     22  C   UNL A   1      38.377  22.340  26.055  1.00  0.00     0.044 C 
ATOM     23  C   UNL A   1      37.157  22.613  25.224  1.00  0.00    -0.049 A 
ATOM     24  C   UNL A   1      37.287  22.693  23.831  1.00  0.00     0.003 A 
ATOM     25  C   UNL A   1      35.886  22.752  25.807  1.00  0.00     0.030 A 
ATOM     26  C   UNL A   1      36.176  22.954  23.034  1.00  0.00     0.002 A 
ATOM     27  C   UNL A   1      34.918  23.103  23.618  1.00  0.00     0.026 A 
ENDBRANCH  15  21
ENDBRANCH  13  14
ENDBRANCH   7  12
BRANCH  11  28
ATOM     28  O   UNL A   1      32.894  26.982  22.252  1.00  0.00    -0.507 OA
ATOM     29  H   UNL A   1      33.424  27.596  22.722  1.00  0.00     0.293 HD
ENDBRANCH  11  28
ENDBRANCH   3   6
ENDBRANCH   1   2
BRANCH   1  30
ATOM     30  C   UNL A   1      32.964  30.260  26.093  1.00  0.00     0.042 C 
BRANCH  30  31
ATOM     31  C   UNL A   1      33.117  30.318  27.588  1.00  0.00     0.118 C 
BRANCH  31  32
ATOM     32  N   UNL A   1      33.935  31.424  28.092  1.00  0.00    -0.352 N 
ATOM     33  C   UNL A   1      35.220  31.393  28.621  1.00  0.00     0.251 C 
ATOM     34  H   UNL A   1      33.515  32.314  28.052  1.00  0.00     0.163 HD
ATOM     35  O   UNL A   1      35.784  32.437  28.937  1.00  0.00    -0.269 OA
BRANCH  33  36
ATOM     36  C   UNL A   1      35.965  30.108  28.652  1.00  0.00     0.039 A 
ATOM     37  C   UNL A   1      36.328  29.573  29.891  1.00  0.00     0.014 A 
ATOM     38  C   UNL A   1      36.588  29.657  27.503  1.00  0.00     0.014 A 
ATOM     39  C   UNL A   1      37.521  28.861  29.991  1.00  0.00     0.010 A 
ATOM     40  C   UNL A   1      37.873  29.193  27.630  1.00  0.00     0.010 A 
ATOM     41  C   UNL A   1      38.364  28.827  28.885  1.00  0.00    -0.014 A 
BRANCH  41  42
ATOM     42  C   UNL A   1      39.782  28.493  28.923  1.00  0.00     0.031 A 
ATOM     43  C   UNL A   1      40.218  27.126  28.560  1.00  0.00     0.074 A 
ATOM     44  C   UNL A   1      40.693  29.479  29.082  1.00  0.00     0.049 A 
ATOM     45  N   UNL A   1      41.396  26.649  28.772  1.00  0.00    -0.248 NA
ATOM     46  C   UNL A   1      39.326  26.164  27.925  1.00  0.00     0.031 C 
ATOM     47  C   UNL A   1      42.126  29.420  28.801  1.00  0.00     0.029 A 
ATOM     48  N   UNL A   1      40.522  30.722  29.716  1.00  0.00    -0.354 N 
ATOM     49  C   UNL A   1      41.510  25.466  28.075  1.00  0.00     0.074 A 
ATOM     50  C   UNL A   1      40.176  25.189  27.605  1.00  0.00     0.031 C 
ATOM     51  C   UNL A   1      42.746  30.371  29.516  1.00  0.00     0.029 A 
ATOM     52  C   UNL A   1      41.750  30.970  30.385  1.00  0.00     0.049 A 
ATOM     53  H   UNL A   1      39.723  31.297  29.701  1.00  0.00     0.167 HD
ATOM     54  C   UNL A   1      42.753  24.929  27.893  1.00  0.00     0.037 A 
ATOM     55  C   UNL A   1      41.797  30.967  31.750  1.00  0.00     0.037 A 
ATOM     56  C   UNL A   1      43.752  25.670  28.671  1.00  0.00     0.049 A 
ATOM     57  C   UNL A   1      42.624  29.847  32.351  1.00  0.00     0.074 A 
ATOM     58  C   UNL A   1      44.693  26.644  28.376  1.00  0.00     0.029 A 
ATOM     59  N   UNL A   1      43.651  25.647  30.051  1.00  0.00    -0.354 N 
ATOM     60  N   UNL A   1      43.230  28.922  31.657  1.00  0.00    -0.248 NA
ATOM     61  C   UNL A   1      42.745  29.627  33.793  1.00  0.00     0.031 C 
ATOM     62  C   UNL A   1      45.106  27.243  29.604  1.00  0.00     0.029 A 
ATOM     63  C   UNL A   1      44.428  26.625  30.639  1.00  0.00     0.049 A 
ATOM     64  H   UNL A   1      43.091  25.011  30.553  1.00  0.00     0.167 HD
ATOM     65  C   UNL A   1      43.734  27.976  32.508  1.00  0.00     0.074 A 
ATOM     66  C   UNL A   1      43.418  28.465  33.837  1.00  0.00     0.031 C 
ATOM     67  C   UNL A   1      44.333  26.831  32.074  1.00  0.00     0.037 A 
BRANCH  54  68
ATOM     68  C   UNL A   1      43.118  23.871  26.868  1.00  0.00     0.064 A 
ATOM     69  C   UNL A   1      42.766  22.521  27.088  1.00  0.00     0.173 A 
ATOM     70  C   UNL A   1      43.858  24.086  25.688  1.00  0.00     0.173 A 
ATOM     71  F   UNL A   1      41.973  22.160  28.105  1.00  0.00    -0.203 F 
ATOM     72  C   UNL A   1      43.209  21.478  26.265  1.00  0.00     0.198 A 
ATOM     73  C   UNL A   1      44.341  23.043  24.892  1.00  0.00     0.198 A 
ATOM     74  F   UNL A   1      44.086  25.307  25.205  1.00  0.00    -0.203 F 
ATOM     75  F   UNL A   1      42.841  20.218  26.534  1.00  0.00    -0.200 F 
ATOM     76  C   UNL A   1      44.027  21.736  25.186  1.00  0.00     0.200 A 
ATOM     77  F   UNL A   1      45.108  23.324  23.827  1.00  0.00    -0.200 F 
ATOM     78  F   UNL A   1      44.478  20.738  24.416  1.00  0.00    -0.200 F 
ENDBRANCH  54  68
BRANCH  55  79
ATOM     79  C   UNL A   1      40.557  31.535  32.349  1.00  0.00     0.064 A 
ATOM     80  C   UNL A   1      40.336  32.922  32.222  1.00  0.00     0.173 A 
ATOM     81  C   UNL A   1      39.454  30.728  32.645  1.00  0.00     0.173 A 
ATOM     82  F   UNL A   1      41.363  33.741  31.944  1.00  0.00    -0.203 F 
ATOM     83  C   UNL A   1      39.049  33.453  32.244  1.00  0.00     0.198 A 
ATOM     84  C   UNL A   1      38.167  31.270  32.690  1.00  0.00     0.198 A 
ATOM     85  F   UNL A   1      39.593  29.399  32.752  1.00  0.00    -0.203 F 
ATOM     86  F   UNL A   1      38.859  34.755  31.986  1.00  0.00    -0.200 F 
ATOM     87  C   UNL A   1      37.962  32.620  32.446  1.00  0.00     0.200 A 
ATOM     88  F   UNL A   1      37.112  30.460  32.858  1.00  0.00    -0.200 F 
ATOM     89  F   UNL A   1      36.716  33.107  32.358  1.00  0.00    -0.200 F 
ENDBRANCH  55  79
BRANCH  67  90
ATOM     90  C   UNL A   1      44.887  25.807  33.013  1.00  0.00     0.064 A 
ATOM     91  C   UNL A   1      44.072  25.139  33.939  1.00  0.00     0.173 A 
ATOM     92  C   UNL A   1      46.272  25.560  33.099  1.00  0.00     0.173 A 
ATOM     93  F   UNL A   1      42.745  25.335  33.944  1.00  0.00    -0.203 F 
ATOM     94  C   UNL A   1      44.610  24.266  34.885  1.00  0.00     0.198 A 
ATOM     95  C   UNL A   1      46.811  24.729  34.077  1.00  0.00     0.198 A 
ATOM     96  F   UNL A   1      47.130  26.102  32.222  1.00  0.00    -0.203 F 
ATOM     97  F   UNL A   1      43.795  23.614  35.726  1.00  0.00    -0.200 F 
ATOM     98  C   UNL A   1      45.979  24.077  34.967  1.00  0.00     0.200 A 
ATOM     99  F   UNL A   1      48.140  24.564  34.153  1.00  0.00    -0.200 F 
ATOM    100  F   UNL A   1      46.496  23.261  35.896  1.00  0.00    -0.200 F 
ENDBRANCH  67  90
ENDBRANCH  41  42
ENDBRANCH  33  36
ENDBRANCH  31  32
ENDBRANCH  30  31
ENDBRANCH   1  30
TORSDOF 14
ENDMDL
