MODEL 1
REMARK VINA RESULT:     -12.4      0.000      0.000
REMARK SMILES O=C(/C=C/c1ccc(C(=O)NC2CC2)cc1)NC1(C(=O)NCCCNC(=O)c2ccc(-c3c4nc(c(-c5c(F)c(F)c(F)c(F)c5F)c5ccc([nH]5)c(-c5c(F)c(F)c(F)c(F)c5F)c5nc(c(-c6c(F)c(F)c(F)c(F)c6F)c6ccc3[nH]6)C=C5)C=C4)cc2)CCCC1
REMARK SMILES IDX 19 1 20 2 21 3 18 5 91 6 94 7 92 8 93 9 17 10 1 11 2 12 3 14
REMARK SMILES IDX 4 15 5 16 6 17 16 18 7 19 15 20 8 21 9 22 10 23 11 24 12 26
REMARK SMILES IDX 13 27 14 28 22 29 23 30 24 31 25 32 26 33 27 35 28 36 29 37
REMARK SMILES IDX 90 38 30 39 89 40 31 41 32 42 33 43 83 44 34 45 88 46 82 47
REMARK SMILES IDX 84 48 35 49 87 50 81 51 80 52 36 54 68 55 48 56 67 57 49 58
REMARK SMILES IDX 52 59 66 60 85 61 50 62 51 63 65 65 86 66 53 67 37 68 38 69
REMARK SMILES IDX 46 70 39 71 40 72 44 73 47 74 41 75 42 76 45 77 43 78 69 79
REMARK SMILES IDX 70 80 78 81 71 82 72 83 76 84 79 85 73 86 74 87 77 88 75 89
REMARK SMILES IDX 54 90 55 91 63 92 56 93 57 94 61 95 64 96 58 97 59 98 62 99
REMARK SMILES IDX 60 100
REMARK H PARENT 21 4 17 13 11 25 25 34 84 53 52 64
REMARK Flexibility Score: inf
ROOT
ATOM      1  C   UNL A   1      35.317  22.239  23.896  1.00  0.00     0.245 C 
ATOM      2  O   UNL A   1      35.401  23.102  23.005  1.00  0.00    -0.272 OA
ATOM      3  N   UNL A   1      36.460  21.555  24.142  1.00  0.00    -0.354 N 
ATOM      4  H   UNL A   1      37.232  21.858  23.612  1.00  0.00     0.163 HD
ENDROOT
BRANCH   1   5
ATOM      5  C   UNL A   1      33.942  21.975  24.603  1.00  0.00     0.119 C 
ATOM      6  C   UNL A   1      34.006  20.943  25.742  1.00  0.00     0.038 C 
ATOM      7  C   UNL A   1      32.881  21.478  23.614  1.00  0.00     0.038 C 
ATOM      8  C   UNL A   1      33.097  19.773  25.344  1.00  0.00     0.003 C 
ATOM      9  C   UNL A   1      32.644  20.007  23.911  1.00  0.00     0.003 C 
BRANCH   5  10
ATOM     10  N   UNL A   1      33.604  23.340  25.066  1.00  0.00    -0.338 N 
ATOM     11  O   UNL A   1      31.683  22.959  26.266  1.00  0.00    -0.270 OA
ATOM     12  C   UNL A   1      32.525  23.721  25.798  1.00  0.00     0.244 C 
ATOM     13  H   UNL A   1      34.233  24.054  24.814  1.00  0.00     0.164 HD
BRANCH  12  14
ATOM     14  C   UNL A   1      32.443  25.167  26.106  1.00  0.00     0.072 C 
ATOM     15  C   UNL A   1      33.396  26.095  25.900  1.00  0.00     0.014 C 
BRANCH  15  16
ATOM     16  C   UNL A   1      33.129  27.496  26.247  1.00  0.00    -0.025 A 
ATOM     17  C   UNL A   1      33.945  28.528  25.783  1.00  0.00     0.009 A 
ATOM     18  C   UNL A   1      32.023  27.821  27.034  1.00  0.00     0.009 A 
ATOM     19  C   UNL A   1      33.600  29.866  26.035  1.00  0.00     0.014 A 
ATOM     20  C   UNL A   1      31.682  29.153  27.282  1.00  0.00     0.014 A 
ATOM     21  C   UNL A   1      32.443  30.202  26.764  1.00  0.00     0.039 A 
BRANCH  21  22
ATOM     22  C   UNL A   1      32.118  31.659  26.913  1.00  0.00     0.251 C 
ATOM     23  O   UNL A   1      31.082  32.092  26.403  1.00  0.00    -0.269 OA
ATOM     24  N   UNL A   1      32.900  32.560  27.609  1.00  0.00    -0.349 N 
ATOM     25  H   UNL A   1      32.541  33.476  27.634  1.00  0.00     0.164 HD
BRANCH  24  26
ATOM     26  C   UNL A   1      34.134  32.396  28.295  1.00  0.00     0.082 C 
ATOM     27  C   UNL A   1      35.310  33.295  28.029  1.00  0.00     0.027 C 
ATOM     28  C   UNL A   1      34.569  33.405  29.326  1.00  0.00     0.027 C 
ENDBRANCH  24  26
ENDBRANCH  21  22
ENDBRANCH  15  16
ENDBRANCH  12  14
ENDBRANCH   5  10
ENDBRANCH   1   5
BRANCH   3  29
ATOM     29  C   UNL A   1      36.751  20.462  25.039  1.00  0.00     0.117 C 
BRANCH  29  30
ATOM     30  C   UNL A   1      38.140  19.897  24.804  1.00  0.00     0.042 C 
BRANCH  30  31
ATOM     31  C   UNL A   1      39.070  20.121  25.984  1.00  0.00     0.118 C 
BRANCH  31  32
ATOM     32  N   UNL A   1      40.207  19.207  25.964  1.00  0.00    -0.352 N 
ATOM     33  C   UNL A   1      41.555  19.446  26.025  1.00  0.00     0.251 C 
ATOM     34  H   UNL A   1      39.965  18.255  25.895  1.00  0.00     0.163 HD
ATOM     35  O   UNL A   1      42.340  18.546  25.739  1.00  0.00    -0.269 OA
BRANCH  33  36
ATOM     36  C   UNL A   1      42.069  20.772  26.423  1.00  0.00     0.039 A 
ATOM     37  C   UNL A   1      42.389  21.695  25.424  1.00  0.00     0.014 A 
ATOM     38  C   UNL A   1      42.270  21.100  27.765  1.00  0.00     0.014 A 
ATOM     39  C   UNL A   1      42.848  22.963  25.778  1.00  0.00     0.010 A 
ATOM     40  C   UNL A   1      42.617  22.397  28.119  1.00  0.00     0.010 A 
ATOM     41  C   UNL A   1      42.924  23.339  27.130  1.00  0.00    -0.014 A 
BRANCH  41  42
ATOM     42  C   UNL A   1      43.307  24.720  27.512  1.00  0.00     0.031 A 
ATOM     43  C   UNL A   1      44.748  25.145  27.507  1.00  0.00     0.074 A 
ATOM     44  C   UNL A   1      42.349  25.575  27.915  1.00  0.00     0.049 A 
ATOM     45  N   UNL A   1      45.267  26.310  27.801  1.00  0.00    -0.248 NA
ATOM     46  C   UNL A   1      45.744  24.119  27.157  1.00  0.00     0.031 C 
ATOM     47  C   UNL A   1      40.927  25.248  28.043  1.00  0.00     0.029 A 
ATOM     48  N   UNL A   1      42.422  26.891  28.294  1.00  0.00    -0.354 N 
ATOM     49  C   UNL A   1      46.642  26.153  27.686  1.00  0.00     0.074 A 
ATOM     50  C   UNL A   1      46.883  24.764  27.361  1.00  0.00     0.031 C 
ATOM     51  C   UNL A   1      40.257  26.344  28.427  1.00  0.00     0.029 A 
ATOM     52  C   UNL A   1      41.205  27.438  28.612  1.00  0.00     0.049 A 
ATOM     53  H   UNL A   1      43.268  27.394  28.332  1.00  0.00     0.167 HD
ATOM     54  C   UNL A   1      47.614  27.088  27.813  1.00  0.00     0.037 A 
ATOM     55  C   UNL A   1      40.887  28.685  29.008  1.00  0.00     0.037 A 
ATOM     56  C   UNL A   1      47.361  28.472  28.121  1.00  0.00     0.049 A 
ATOM     57  C   UNL A   1      41.978  29.711  29.117  1.00  0.00     0.074 A 
ATOM     58  C   UNL A   1      48.261  29.520  28.195  1.00  0.00     0.029 A 
ATOM     59  N   UNL A   1      46.111  28.999  28.419  1.00  0.00    -0.354 N 
ATOM     60  N   UNL A   1      43.266  29.577  28.909  1.00  0.00    -0.248 NA
ATOM     61  C   UNL A   1      41.570  31.067  29.502  1.00  0.00     0.031 C 
ATOM     62  C   UNL A   1      47.568  30.665  28.603  1.00  0.00     0.029 A 
ATOM     63  C   UNL A   1      46.222  30.349  28.714  1.00  0.00     0.049 A 
ATOM     64  H   UNL A   1      45.269  28.488  28.422  1.00  0.00     0.167 HD
ATOM     65  C   UNL A   1      43.820  30.832  29.120  1.00  0.00     0.074 A 
ATOM     66  C   UNL A   1      42.721  31.720  29.444  1.00  0.00     0.031 C 
ATOM     67  C   UNL A   1      45.120  31.215  29.055  1.00  0.00     0.037 A 
BRANCH  54  68
ATOM     68  C   UNL A   1      49.037  26.640  27.629  1.00  0.00     0.064 A 
ATOM     69  C   UNL A   1      49.615  26.501  26.356  1.00  0.00     0.173 A 
ATOM     70  C   UNL A   1      49.842  26.357  28.743  1.00  0.00     0.173 A 
ATOM     71  F   UNL A   1      48.889  26.748  25.254  1.00  0.00    -0.203 F 
ATOM     72  C   UNL A   1      50.926  26.056  26.205  1.00  0.00     0.198 A 
ATOM     73  C   UNL A   1      51.165  25.948  28.590  1.00  0.00     0.198 A 
ATOM     74  F   UNL A   1      49.347  26.475  29.984  1.00  0.00    -0.203 F 
ATOM     75  F   UNL A   1      51.430  25.868  24.977  1.00  0.00    -0.200 F 
ATOM     76  C   UNL A   1      51.702  25.786  27.321  1.00  0.00     0.200 A 
ATOM     77  F   UNL A   1      51.918  25.701  29.670  1.00  0.00    -0.200 F 
ATOM     78  F   UNL A   1      52.964  25.360  27.174  1.00  0.00    -0.200 F 
ENDBRANCH  54  68
BRANCH  55  79
ATOM     79  C   UNL A   1      39.469  29.025  29.293  1.00  0.00     0.064 A 
ATOM     80  C   UNL A   1      38.607  29.449  28.273  1.00  0.00     0.173 A 
ATOM     81  C   UNL A   1      38.939  28.905  30.586  1.00  0.00     0.173 A 
ATOM     82  F   UNL A   1      39.070  29.593  27.022  1.00  0.00    -0.203 F 
ATOM     83  C   UNL A   1      37.274  29.755  28.537  1.00  0.00     0.198 A 
ATOM     84  C   UNL A   1      37.598  29.181  30.844  1.00  0.00     0.198 A 
ATOM     85  F   UNL A   1      39.720  28.493  31.597  1.00  0.00    -0.203 F 
ATOM     86  F   UNL A   1      36.482  30.195  27.551  1.00  0.00    -0.200 F 
ATOM     87  C   UNL A   1      36.768  29.612  29.821  1.00  0.00     0.200 A 
ATOM     88  F   UNL A   1      37.110  29.021  32.082  1.00  0.00    -0.200 F 
ATOM     89  F   UNL A   1      35.483  29.894  30.073  1.00  0.00    -0.200 F 
ENDBRANCH  55  79
BRANCH  67  90
ATOM     90  C   UNL A   1      45.416  32.663  29.329  1.00  0.00     0.064 A 
ATOM     91  C   UNL A   1      45.388  33.628  28.310  1.00  0.00     0.173 A 
ATOM     92  C   UNL A   1      45.727  33.091  30.629  1.00  0.00     0.173 A 
ATOM     93  F   UNL A   1      45.109  33.271  27.048  1.00  0.00    -0.203 F 
ATOM     94  C   UNL A   1      45.707  34.959  28.575  1.00  0.00     0.198 A 
ATOM     95  C   UNL A   1      46.007  34.429  30.896  1.00  0.00     0.198 A 
ATOM     96  F   UNL A   1      45.758  32.214  31.642  1.00  0.00    -0.203 F 
ATOM     97  F   UNL A   1      45.744  35.848  27.573  1.00  0.00    -0.200 F 
ATOM     98  C   UNL A   1      46.010  35.358  29.867  1.00  0.00     0.200 A 
ATOM     99  F   UNL A   1      46.283  34.816  32.149  1.00  0.00    -0.200 F 
ATOM    100  F   UNL A   1      46.318  36.637  30.119  1.00  0.00    -0.200 F 
ENDBRANCH  67  90
ENDBRANCH  41  42
ENDBRANCH  33  36
ENDBRANCH  31  32
ENDBRANCH  30  31
ENDBRANCH  29  30
ENDBRANCH   3  29
TORSDOF 15
ENDMDL
MODEL 2
REMARK VINA RESULT:     -12.3      4.725     11.073
REMARK SMILES O=C(/C=C/c1ccc(C(=O)NC2CC2)cc1)NC1(C(=O)NCCCNC(=O)c2ccc(-c3c4nc(c(-c5c(F)c(F)c(F)c(F)c5F)c5ccc([nH]5)c(-c5c(F)c(F)c(F)c(F)c5F)c5nc(c(-c6c(F)c(F)c(F)c(F)c6F)c6ccc3[nH]6)C=C5)C=C4)cc2)CCCC1
REMARK SMILES IDX 19 1 20 2 21 3 18 5 91 6 94 7 92 8 93 9 17 10 1 11 2 12 3 14
REMARK SMILES IDX 4 15 5 16 6 17 16 18 7 19 15 20 8 21 9 22 10 23 11 24 12 26
REMARK SMILES IDX 13 27 14 28 22 29 23 30 24 31 25 32 26 33 27 35 28 36 29 37
REMARK SMILES IDX 90 38 30 39 89 40 31 41 32 42 33 43 83 44 34 45 88 46 82 47
REMARK SMILES IDX 84 48 35 49 87 50 81 51 80 52 36 54 68 55 48 56 67 57 49 58
REMARK SMILES IDX 52 59 66 60 85 61 50 62 51 63 65 65 86 66 53 67 37 68 38 69
REMARK SMILES IDX 46 70 39 71 40 72 44 73 47 74 41 75 42 76 45 77 43 78 69 79
REMARK SMILES IDX 70 80 78 81 71 82 72 83 76 84 79 85 73 86 74 87 77 88 75 89
REMARK SMILES IDX 54 90 55 91 63 92 56 93 57 94 61 95 64 96 58 97 59 98 62 99
REMARK SMILES IDX 60 100
REMARK H PARENT 21 4 17 13 11 25 25 34 84 53 52 64
REMARK Flexibility Score: inf
ROOT
ATOM      1  C   UNL A   1      33.296  29.163  25.907  1.00  0.00     0.245 C 
ATOM      2  O   UNL A   1      34.348  28.893  26.512  1.00  0.00    -0.272 OA
ATOM      3  N   UNL A   1      32.636  30.254  26.361  1.00  0.00    -0.354 N 
ATOM      4  H   UNL A   1      33.097  30.729  27.090  1.00  0.00     0.163 HD
ENDROOT
BRANCH   1   5
ATOM      5  C   UNL A   1      32.799  28.229  24.749  1.00  0.00     0.119 C 
ATOM      6  C   UNL A   1      32.912  28.850  23.346  1.00  0.00     0.038 C 
ATOM      7  C   UNL A   1      31.332  27.822  24.937  1.00  0.00     0.038 C 
ATOM      8  C   UNL A   1      31.490  28.943  22.777  1.00  0.00     0.003 C 
ATOM      9  C   UNL A   1      30.522  28.564  23.887  1.00  0.00     0.003 C 
BRANCH   5  10
ATOM     10  N   UNL A   1      33.680  27.055  24.944  1.00  0.00    -0.338 N 
ATOM     11  O   UNL A   1      32.749  25.532  23.499  1.00  0.00    -0.270 OA
ATOM     12  C   UNL A   1      33.571  25.833  24.360  1.00  0.00     0.244 C 
ATOM     13  H   UNL A   1      34.431  27.174  25.569  1.00  0.00     0.164 HD
BRANCH  12  14
ATOM     14  C   UNL A   1      34.598  24.844  24.758  1.00  0.00     0.072 C 
ATOM     15  C   UNL A   1      34.985  23.755  24.069  1.00  0.00     0.014 C 
BRANCH  15  16
ATOM     16  C   UNL A   1      36.042  22.892  24.611  1.00  0.00    -0.025 A 
ATOM     17  C   UNL A   1      35.938  21.503  24.573  1.00  0.00     0.009 A 
ATOM     18  C   UNL A   1      37.196  23.462  25.155  1.00  0.00     0.009 A 
ATOM     19  C   UNL A   1      37.014  20.703  24.993  1.00  0.00     0.014 A 
ATOM     20  C   UNL A   1      38.264  22.663  25.571  1.00  0.00     0.014 A 
ATOM     21  C   UNL A   1      38.210  21.272  25.470  1.00  0.00     0.039 A 
BRANCH  21  22
ATOM     22  C   UNL A   1      39.329  20.338  25.822  1.00  0.00     0.251 C 
ATOM     23  O   UNL A   1      39.289  19.178  25.400  1.00  0.00    -0.269 OA
ATOM     24  N   UNL A   1      40.427  20.694  26.579  1.00  0.00    -0.349 N 
ATOM     25  H   UNL A   1      41.086  19.972  26.704  1.00  0.00     0.164 HD
BRANCH  24  26
ATOM     26  C   UNL A   1      40.773  21.919  27.211  1.00  0.00     0.082 C 
ATOM     27  C   UNL A   1      41.939  22.018  28.157  1.00  0.00     0.027 C 
ATOM     28  C   UNL A   1      42.023  22.655  26.805  1.00  0.00     0.027 C 
ENDBRANCH  24  26
ENDBRANCH  21  22
ENDBRANCH  15  16
ENDBRANCH  12  14
ENDBRANCH   5  10
ENDBRANCH   1   5
BRANCH   3  29
ATOM     29  C   UNL A   1      31.380  30.848  25.970  1.00  0.00     0.117 C 
BRANCH  29  30
ATOM     30  C   UNL A   1      31.278  32.294  26.422  1.00  0.00     0.042 C 
BRANCH  30  31
ATOM     31  C   UNL A   1      32.461  32.726  27.272  1.00  0.00     0.118 C 
BRANCH  31  32
ATOM     32  N   UNL A   1      32.372  34.131  27.656  1.00  0.00    -0.352 N 
ATOM     33  C   UNL A   1      33.027  34.840  28.629  1.00  0.00     0.251 C 
ATOM     34  H   UNL A   1      31.734  34.660  27.125  1.00  0.00     0.163 HD
ATOM     35  O   UNL A   1      32.615  35.954  28.942  1.00  0.00    -0.269 OA
BRANCH  33  36
ATOM     36  C   UNL A   1      34.211  34.277  29.306  1.00  0.00     0.039 A 
ATOM     37  C   UNL A   1      34.023  33.482  30.439  1.00  0.00     0.014 A 
ATOM     38  C   UNL A   1      35.505  34.552  28.855  1.00  0.00     0.014 A 
ATOM     39  C   UNL A   1      35.126  32.916  31.077  1.00  0.00     0.010 A 
ATOM     40  C   UNL A   1      36.592  33.897  29.420  1.00  0.00     0.010 A 
ATOM     41  C   UNL A   1      36.416  33.084  30.546  1.00  0.00    -0.014 A 
BRANCH  41  42
ATOM     42  C   UNL A   1      37.581  32.397  31.154  1.00  0.00     0.031 A 
ATOM     43  C   UNL A   1      38.067  32.779  32.524  1.00  0.00     0.074 A 
ATOM     44  C   UNL A   1      38.233  31.461  30.440  1.00  0.00     0.049 A 
ATOM     45  N   UNL A   1      39.062  32.282  33.216  1.00  0.00    -0.248 NA
ATOM     46  C   UNL A   1      37.367  33.886  33.194  1.00  0.00     0.031 C 
ATOM     47  C   UNL A   1      37.905  31.068  29.068  1.00  0.00     0.029 A 
ATOM     48  N   UNL A   1      39.305  30.669  30.764  1.00  0.00    -0.354 N 
ATOM     49  C   UNL A   1      39.113  33.023  34.390  1.00  0.00     0.074 A 
ATOM     50  C   UNL A   1      38.095  34.046  34.289  1.00  0.00     0.031 C 
ATOM     51  C   UNL A   1      38.729  30.082  28.684  1.00  0.00     0.029 A 
ATOM     52  C   UNL A   1      39.668  29.801  29.765  1.00  0.00     0.049 A 
ATOM     53  H   UNL A   1      39.770  30.720  31.631  1.00  0.00     0.167 HD
ATOM     54  C   UNL A   1      39.918  32.848  35.465  1.00  0.00     0.037 A 
ATOM     55  C   UNL A   1      40.647  28.879  29.726  1.00  0.00     0.037 A 
ATOM     56  C   UNL A   1      40.917  31.815  35.561  1.00  0.00     0.049 A 
ATOM     57  C   UNL A   1      41.510  28.686  30.940  1.00  0.00     0.074 A 
ATOM     58  C   UNL A   1      41.732  31.498  36.633  1.00  0.00     0.029 A 
ATOM     59  N   UNL A   1      41.246  30.937  34.536  1.00  0.00    -0.354 N 
ATOM     60  N   UNL A   1      41.486  29.325  32.085  1.00  0.00    -0.248 NA
ATOM     61  C   UNL A   1      42.529  27.632  30.862  1.00  0.00     0.031 C 
ATOM     62  C   UNL A   1      42.600  30.474  36.234  1.00  0.00     0.029 A 
ATOM     63  C   UNL A   1      42.278  30.103  34.938  1.00  0.00     0.049 A 
ATOM     64  H   UNL A   1      40.811  30.913  33.653  1.00  0.00     0.167 HD
ATOM     65  C   UNL A   1      42.471  28.742  32.869  1.00  0.00     0.074 A 
ATOM     66  C   UNL A   1      43.054  27.677  32.077  1.00  0.00     0.031 C 
ATOM     67  C   UNL A   1      42.860  29.060  34.130  1.00  0.00     0.037 A 
BRANCH  54  68
ATOM     68  C   UNL A   1      39.755  33.801  36.616  1.00  0.00     0.064 A 
ATOM     69  C   UNL A   1      40.420  35.038  36.658  1.00  0.00     0.173 A 
ATOM     70  C   UNL A   1      38.912  33.481  37.691  1.00  0.00     0.173 A 
ATOM     71  F   UNL A   1      41.249  35.393  35.663  1.00  0.00    -0.203 F 
ATOM     72  C   UNL A   1      40.281  35.894  37.747  1.00  0.00     0.198 A 
ATOM     73  C   UNL A   1      38.744  34.357  38.762  1.00  0.00     0.198 A 
ATOM     74  F   UNL A   1      38.247  32.316  37.706  1.00  0.00    -0.203 F 
ATOM     75  F   UNL A   1      40.980  37.038  37.792  1.00  0.00    -0.200 F 
ATOM     76  C   UNL A   1      39.439  35.557  38.795  1.00  0.00     0.200 A 
ATOM     77  F   UNL A   1      37.919  34.035  39.766  1.00  0.00    -0.200 F 
ATOM     78  F   UNL A   1      39.304  36.383  39.841  1.00  0.00    -0.200 F 
ENDBRANCH  54  68
BRANCH  55  79
ATOM     79  C   UNL A   1      40.829  28.054  28.504  1.00  0.00     0.064 A 
ATOM     80  C   UNL A   1      40.136  26.848  28.334  1.00  0.00     0.173 A 
ATOM     81  C   UNL A   1      41.679  28.469  27.467  1.00  0.00     0.173 A 
ATOM     82  F   UNL A   1      39.324  26.401  29.304  1.00  0.00    -0.203 F 
ATOM     83  C   UNL A   1      40.297  26.080  27.183  1.00  0.00     0.198 A 
ATOM     84  C   UNL A   1      41.814  27.718  26.302  1.00  0.00     0.198 A 
ATOM     85  F   UNL A   1      42.357  29.621  27.575  1.00  0.00    -0.203 F 
ATOM     86  F   UNL A   1      39.652  24.912  27.063  1.00  0.00    -0.200 F 
ATOM     87  C   UNL A   1      41.129  26.520  26.164  1.00  0.00     0.200 A 
ATOM     88  F   UNL A   1      42.603  28.157  25.312  1.00  0.00    -0.200 F 
ATOM     89  F   UNL A   1      41.272  25.789  25.050  1.00  0.00    -0.200 F 
ENDBRANCH  55  79
BRANCH  67  90
ATOM     90  C   UNL A   1      43.963  28.232  34.729  1.00  0.00     0.064 A 
ATOM     91  C   UNL A   1      43.698  27.046  35.431  1.00  0.00     0.173 A 
ATOM     92  C   UNL A   1      45.303  28.629  34.595  1.00  0.00     0.173 A 
ATOM     93  F   UNL A   1      42.435  26.629  35.599  1.00  0.00    -0.203 F 
ATOM     94  C   UNL A   1      44.729  26.315  36.017  1.00  0.00     0.198 A 
ATOM     95  C   UNL A   1      46.334  27.874  35.148  1.00  0.00     0.198 A 
ATOM     96  F   UNL A   1      45.614  29.749  33.925  1.00  0.00    -0.203 F 
ATOM     97  F   UNL A   1      44.445  25.226  36.744  1.00  0.00    -0.200 F 
ATOM     98  C   UNL A   1      46.045  26.726  35.870  1.00  0.00     0.200 A 
ATOM     99  F   UNL A   1      47.606  28.264  34.990  1.00  0.00    -0.200 F 
ATOM    100  F   UNL A   1      47.035  26.022  36.435  1.00  0.00    -0.200 F 
ENDBRANCH  67  90
ENDBRANCH  41  42
ENDBRANCH  33  36
ENDBRANCH  31  32
ENDBRANCH  30  31
ENDBRANCH  29  30
ENDBRANCH   3  29
TORSDOF 15
ENDMDL
MODEL 3
REMARK VINA RESULT:     -12.2      1.007      7.258
REMARK SMILES O=C(/C=C/c1ccc(C(=O)NC2CC2)cc1)NC1(C(=O)NCCCNC(=O)c2ccc(-c3c4nc(c(-c5c(F)c(F)c(F)c(F)c5F)c5ccc([nH]5)c(-c5c(F)c(F)c(F)c(F)c5F)c5nc(c(-c6c(F)c(F)c(F)c(F)c6F)c6ccc3[nH]6)C=C5)C=C4)cc2)CCCC1
REMARK SMILES IDX 19 1 20 2 21 3 18 5 91 6 94 7 92 8 93 9 17 10 1 11 2 12 3 14
REMARK SMILES IDX 4 15 5 16 6 17 16 18 7 19 15 20 8 21 9 22 10 23 11 24 12 26
REMARK SMILES IDX 13 27 14 28 22 29 23 30 24 31 25 32 26 33 27 35 28 36 29 37
REMARK SMILES IDX 90 38 30 39 89 40 31 41 32 42 33 43 83 44 34 45 88 46 82 47
REMARK SMILES IDX 84 48 35 49 87 50 81 51 80 52 36 54 68 55 48 56 67 57 49 58
REMARK SMILES IDX 52 59 66 60 85 61 50 62 51 63 65 65 86 66 53 67 37 68 38 69
REMARK SMILES IDX 46 70 39 71 40 72 44 73 47 74 41 75 42 76 45 77 43 78 69 79
REMARK SMILES IDX 70 80 78 81 71 82 72 83 76 84 79 85 73 86 74 87 77 88 75 89
REMARK SMILES IDX 54 90 55 91 63 92 56 93 57 94 61 95 64 96 58 97 59 98 62 99
REMARK SMILES IDX 60 100
REMARK H PARENT 21 4 17 13 11 25 25 34 84 53 52 64
REMARK Flexibility Score: inf
ROOT
ATOM      1  C   UNL A   1      36.047  22.491  25.777  1.00  0.00     0.245 C 
ATOM      2  O   UNL A   1      36.552  23.569  26.138  1.00  0.00    -0.272 OA
ATOM      3  N   UNL A   1      36.933  21.503  25.511  1.00  0.00    -0.354 N 
ATOM      4  H   UNL A   1      37.872  21.747  25.680  1.00  0.00     0.163 HD
ENDROOT
BRANCH   1   5
ATOM      5  C   UNL A   1      34.492  22.374  25.608  1.00  0.00     0.119 C 
ATOM      6  C   UNL A   1      33.826  21.381  26.575  1.00  0.00     0.038 C 
ATOM      7  C   UNL A   1      34.107  21.937  24.189  1.00  0.00     0.038 C 
ATOM      8  C   UNL A   1      33.180  20.282  25.721  1.00  0.00     0.003 C 
ATOM      9  C   UNL A   1      33.610  20.504  24.279  1.00  0.00     0.003 C 
BRANCH   5  10
ATOM     10  N   UNL A   1      34.084  23.778  25.835  1.00  0.00    -0.338 N 
ATOM     11  O   UNL A   1      31.800  23.580  25.977  1.00  0.00    -0.270 OA
ATOM     12  C   UNL A   1      32.821  24.263  25.958  1.00  0.00     0.244 C 
ATOM     13  H   UNL A   1      34.812  24.438  25.905  1.00  0.00     0.164 HD
BRANCH  12  14
ATOM     14  C   UNL A   1      32.717  25.725  26.170  1.00  0.00     0.072 C 
ATOM     15  C   UNL A   1      33.608  26.663  25.799  1.00  0.00     0.014 C 
BRANCH  15  16
ATOM     16  C   UNL A   1      33.327  28.077  26.073  1.00  0.00    -0.025 A 
ATOM     17  C   UNL A   1      32.641  28.873  25.157  1.00  0.00     0.009 A 
ATOM     18  C   UNL A   1      33.724  28.644  27.286  1.00  0.00     0.009 A 
ATOM     19  C   UNL A   1      32.286  30.189  25.494  1.00  0.00     0.014 A 
ATOM     20  C   UNL A   1      33.368  29.954  27.618  1.00  0.00     0.014 A 
ATOM     21  C   UNL A   1      32.616  30.743  26.746  1.00  0.00     0.039 A 
BRANCH  21  22
ATOM     22  C   UNL A   1      32.126  32.128  27.042  1.00  0.00     0.251 C 
ATOM     23  O   UNL A   1      30.958  32.417  26.764  1.00  0.00    -0.269 OA
ATOM     24  N   UNL A   1      32.894  33.114  27.630  1.00  0.00    -0.349 N 
ATOM     25  H   UNL A   1      32.420  33.964  27.778  1.00  0.00     0.164 HD
BRANCH  24  26
ATOM     26  C   UNL A   1      34.248  33.115  28.059  1.00  0.00     0.082 C 
ATOM     27  C   UNL A   1      34.990  34.396  28.326  1.00  0.00     0.027 C 
ATOM     28  C   UNL A   1      34.598  33.513  29.469  1.00  0.00     0.027 C 
ENDBRANCH  24  26
ENDBRANCH  21  22
ENDBRANCH  15  16
ENDBRANCH  12  14
ENDBRANCH   5  10
ENDBRANCH   1   5
BRANCH   3  29
ATOM     29  C   UNL A   1      36.752  20.156  25.023  1.00  0.00     0.117 C 
BRANCH  29  30
ATOM     30  C   UNL A   1      38.078  19.435  24.861  1.00  0.00     0.042 C 
BRANCH  30  31
ATOM     31  C   UNL A   1      39.165  19.999  25.761  1.00  0.00     0.118 C 
BRANCH  31  32
ATOM     32  N   UNL A   1      40.248  19.044  25.973  1.00  0.00    -0.352 N 
ATOM     33  C   UNL A   1      41.597  19.233  26.127  1.00  0.00     0.251 C 
ATOM     34  H   UNL A   1      39.961  18.103  26.012  1.00  0.00     0.163 HD
ATOM     35  O   UNL A   1      42.353  18.269  26.041  1.00  0.00    -0.269 OA
BRANCH  33  36
ATOM     36  C   UNL A   1      42.145  20.578  26.385  1.00  0.00     0.039 A 
ATOM     37  C   UNL A   1      42.559  21.355  25.299  1.00  0.00     0.014 A 
ATOM     38  C   UNL A   1      42.287  21.068  27.685  1.00  0.00     0.014 A 
ATOM     39  C   UNL A   1      43.054  22.640  25.518  1.00  0.00     0.010 A 
ATOM     40  C   UNL A   1      42.671  22.387  27.894  1.00  0.00     0.010 A 
ATOM     41  C   UNL A   1      43.072  23.182  26.814  1.00  0.00    -0.014 A 
BRANCH  41  42
ATOM     42  C   UNL A   1      43.494  24.585  27.042  1.00  0.00     0.031 A 
ATOM     43  C   UNL A   1      42.515  25.610  27.541  1.00  0.00     0.074 A 
ATOM     44  C   UNL A   1      44.757  24.943  26.744  1.00  0.00     0.049 A 
ATOM     45  N   UNL A   1      42.708  26.878  27.806  1.00  0.00    -0.248 NA
ATOM     46  C   UNL A   1      41.127  25.164  27.739  1.00  0.00     0.031 C 
ATOM     47  C   UNL A   1      45.772  24.055  26.173  1.00  0.00     0.029 A 
ATOM     48  N   UNL A   1      45.405  26.144  26.878  1.00  0.00    -0.354 N 
ATOM     49  C   UNL A   1      41.470  27.379  28.185  1.00  0.00     0.074 A 
ATOM     50  C   UNL A   1      40.518  26.297  28.053  1.00  0.00     0.031 C 
ATOM     51  C   UNL A   1      46.925  24.728  26.046  1.00  0.00     0.029 A 
ATOM     52  C   UNL A   1      46.721  26.104  26.488  1.00  0.00     0.049 A 
ATOM     53  H   UNL A   1      44.968  26.957  27.222  1.00  0.00     0.167 HD
ATOM     54  C   UNL A   1      41.160  28.620  28.631  1.00  0.00     0.037 A 
ATOM     55  C   UNL A   1      47.659  27.068  26.488  1.00  0.00     0.037 A 
ATOM     56  C   UNL A   1      42.120  29.684  28.773  1.00  0.00     0.049 A 
ATOM     57  C   UNL A   1      47.298  28.431  27.010  1.00  0.00     0.074 A 
ATOM     58  C   UNL A   1      41.931  30.954  29.288  1.00  0.00     0.029 A 
ATOM     59  N   UNL A   1      43.452  29.604  28.386  1.00  0.00    -0.354 N 
ATOM     60  N   UNL A   1      46.147  28.867  27.461  1.00  0.00    -0.248 NA
ATOM     61  C   UNL A   1      48.373  29.431  27.036  1.00  0.00     0.031 C 
ATOM     62  C   UNL A   1      43.130  31.664  29.151  1.00  0.00     0.029 A 
ATOM     63  C   UNL A   1      44.087  30.815  28.617  1.00  0.00     0.049 A 
ATOM     64  H   UNL A   1      43.881  28.805  28.003  1.00  0.00     0.167 HD
ATOM     65  C   UNL A   1      46.360  30.185  27.840  1.00  0.00     0.074 A 
ATOM     66  C   UNL A   1      47.761  30.465  27.592  1.00  0.00     0.031 C 
ATOM     67  C   UNL A   1      45.478  31.083  28.346  1.00  0.00     0.037 A 
BRANCH  54  68
ATOM     68  C   UNL A   1      39.725  28.893  28.983  1.00  0.00     0.064 A 
ATOM     69  C   UNL A   1      39.227  28.698  30.282  1.00  0.00     0.173 A 
ATOM     70  C   UNL A   1      38.833  29.370  28.010  1.00  0.00     0.173 A 
ATOM     71  F   UNL A   1      40.031  28.232  31.250  1.00  0.00    -0.203 F 
ATOM     72  C   UNL A   1      37.887  28.927  30.582  1.00  0.00     0.198 A 
ATOM     73  C   UNL A   1      37.501  29.635  28.322  1.00  0.00     0.198 A 
ATOM     74  F   UNL A   1      39.250  29.580  26.753  1.00  0.00    -0.203 F 
ATOM     75  F   UNL A   1      37.423  28.668  31.813  1.00  0.00    -0.200 F 
ATOM     76  C   UNL A   1      37.026  29.402  29.604  1.00  0.00     0.200 A 
ATOM     77  F   UNL A   1      36.674  30.108  27.380  1.00  0.00    -0.200 F 
ATOM     78  F   UNL A   1      35.737  29.625  29.895  1.00  0.00    -0.200 F 
ENDBRANCH  54  68
BRANCH  55  79
ATOM     79  C   UNL A   1      49.030  26.759  26.008  1.00  0.00     0.064 A 
ATOM     80  C   UNL A   1      49.981  26.176  26.857  1.00  0.00     0.173 A 
ATOM     81  C   UNL A   1      49.410  27.012  24.681  1.00  0.00     0.173 A 
ATOM     82  F   UNL A   1      49.670  25.929  28.138  1.00  0.00    -0.203 F 
ATOM     83  C   UNL A   1      51.262  25.873  26.403  1.00  0.00     0.198 A 
ATOM     84  C   UNL A   1      50.681  26.679  24.219  1.00  0.00     0.198 A 
ATOM     85  F   UNL A   1      48.534  27.558  23.824  1.00  0.00    -0.203 F 
ATOM     86  F   UNL A   1      52.163  25.352  27.247  1.00  0.00    -0.200 F 
ATOM     87  C   UNL A   1      51.609  26.116  25.082  1.00  0.00     0.200 A 
ATOM     88  F   UNL A   1      51.004  26.897  22.937  1.00  0.00    -0.200 F 
ATOM     89  F   UNL A   1      52.837  25.812  24.642  1.00  0.00    -0.200 F 
ENDBRANCH  55  79
BRANCH  67  90
ATOM     90  C   UNL A   1      46.012  32.449  28.674  1.00  0.00     0.064 A 
ATOM     91  C   UNL A   1      46.074  33.469  27.711  1.00  0.00     0.173 A 
ATOM     92  C   UNL A   1      46.465  32.743  29.970  1.00  0.00     0.173 A 
ATOM     93  F   UNL A   1      45.666  33.237  26.454  1.00  0.00    -0.203 F 
ATOM     94  C   UNL A   1      46.613  34.716  28.022  1.00  0.00     0.198 A 
ATOM     95  C   UNL A   1      46.966  34.004  30.286  1.00  0.00     0.198 A 
ATOM     96  F   UNL A   1      46.420  31.810  30.931  1.00  0.00    -0.203 F 
ATOM     97  F   UNL A   1      46.728  35.649  27.067  1.00  0.00    -0.200 F 
ATOM     98  C   UNL A   1      47.052  34.983  29.309  1.00  0.00     0.200 A 
ATOM     99  F   UNL A   1      47.375  34.265  31.535  1.00  0.00    -0.200 F 
ATOM    100  F   UNL A   1      47.571  36.183  29.605  1.00  0.00    -0.200 F 
ENDBRANCH  67  90
ENDBRANCH  41  42
ENDBRANCH  33  36
ENDBRANCH  31  32
ENDBRANCH  30  31
ENDBRANCH  29  30
ENDBRANCH   3  29
TORSDOF 15
ENDMDL
