MODEL 1
REMARK VINA RESULT:     -12.5      0.000      0.000
REMARK SMILES CC[C@@H](C(=O)NCCCNC(=O)c1ccc(-c2c3nc(c(-c4c(F)c(F)c(F)c(F)c4F)c4ccc([nH]4)c(-c4c(F)c(F)c(F)c(F)c4F)c4nc(c(-c5c(F)c(F)c(F)c(F)c5F)c5ccc2[nH]5)C=C4)C=C3)cc1)N1CCN(Cc2cccc(C)c2)C(=O)C1=O
REMARK SMILES IDX 7 1 6 2 4 3 5 4 3 6 2 7 1 8 76 9 77 10 90 11 78 12 88 13
REMARK SMILES IDX 91 14 79 15 89 16 80 17 81 18 82 19 87 20 83 21 85 22 84 23
REMARK SMILES IDX 86 24 8 25 9 26 10 27 11 28 12 30 13 31 14 32 75 33 15 34
REMARK SMILES IDX 74 35 16 36 17 37 18 38 68 39 19 40 73 41 67 42 69 43 20 44
REMARK SMILES IDX 72 45 66 46 65 47 21 49 53 50 33 51 52 52 34 53 37 54 51 55
REMARK SMILES IDX 70 56 35 57 36 58 50 60 71 61 38 62 22 63 23 64 31 65 24 66
REMARK SMILES IDX 25 67 29 68 32 69 26 70 27 71 30 72 28 73 54 74 55 75 63 76
REMARK SMILES IDX 56 77 57 78 61 79 64 80 58 81 59 82 62 83 60 84 39 85 40 86
REMARK SMILES IDX 48 87 41 88 42 89 46 90 49 91 43 92 44 93 47 94 45 95
REMARK H PARENT 6 5 10 29 69 48 37 59
REMARK Flexibility Score: inf
ROOT
ATOM      1  C   UNL A   1      31.203  31.113  26.384  1.00  0.00     0.117 C 
ENDROOT
BRANCH   1   2
ATOM      2  N   UNL A   1      30.956  30.679  25.014  1.00  0.00    -0.354 N 
ATOM      3  C   UNL A   1      31.313  29.535  24.349  1.00  0.00     0.242 C 
ATOM      4  O   UNL A   1      31.032  29.465  23.149  1.00  0.00    -0.273 OA
ATOM      5  H   UNL A   1      30.442  31.320  24.472  1.00  0.00     0.163 HD
BRANCH   3   6
ATOM      6  C   UNL A   1      32.097  28.410  25.070  1.00  0.00     0.174 C 
BRANCH   6   7
ATOM      7  C   UNL A   1      33.520  28.900  25.424  1.00  0.00     0.032 C 
ATOM      8  C   UNL A   1      34.043  28.584  26.807  1.00  0.00     0.006 C 
ENDBRANCH   6   7
BRANCH   6   9
ATOM      9  N   UNL A   1      32.118  27.186  24.215  1.00  0.00    -0.321 N 
ATOM     10  C   UNL A   1      33.220  26.884  23.310  1.00  0.00     0.142 C 
ATOM     11  C   UNL A   1      31.149  26.178  24.399  1.00  0.00     0.312 C 
ATOM     12  C   UNL A   1      33.670  25.454  23.571  1.00  0.00     0.142 C 
ATOM     13  C   UNL A   1      31.307  24.880  23.499  1.00  0.00     0.312 C 
ATOM     14  O   UNL A   1      30.266  26.245  25.245  1.00  0.00    -0.263 OA
ATOM     15  N   UNL A   1      32.620  24.562  23.124  1.00  0.00    -0.328 N 
ATOM     16  O   UNL A   1      30.326  24.216  23.187  1.00  0.00    -0.263 OA
BRANCH  15  17
ATOM     17  C   UNL A   1      32.948  23.341  22.386  1.00  0.00     0.155 C 
BRANCH  17  18
ATOM     18  C   UNL A   1      33.202  22.138  23.278  1.00  0.00    -0.028 A 
ATOM     19  C   UNL A   1      32.267  21.099  23.360  1.00  0.00     0.005 A 
ATOM     20  C   UNL A   1      34.392  22.020  24.017  1.00  0.00     0.009 A 
ATOM     21  C   UNL A   1      32.528  19.971  24.141  1.00  0.00     0.001 A 
ATOM     22  C   UNL A   1      34.707  20.849  24.719  1.00  0.00    -0.051 A 
ATOM     23  C   UNL A   1      33.750  19.837  24.803  1.00  0.00     0.003 A 
ATOM     24  C   UNL A   1      36.048  20.690  25.374  1.00  0.00     0.044 C 
ENDBRANCH  17  18
ENDBRANCH  15  17
ENDBRANCH   6   9
ENDBRANCH   3   6
ENDBRANCH   1   2
BRANCH   1  25
ATOM     25  C   UNL A   1      31.373  32.632  26.483  1.00  0.00     0.042 C 
BRANCH  25  26
ATOM     26  C   UNL A   1      32.608  33.081  27.257  1.00  0.00     0.118 C 
BRANCH  26  27
ATOM     27  N   UNL A   1      32.488  34.449  27.729  1.00  0.00    -0.352 N 
ATOM     28  C   UNL A   1      33.100  35.077  28.787  1.00  0.00     0.251 C 
ATOM     29  H   UNL A   1      31.871  35.015  27.210  1.00  0.00     0.163 HD
ATOM     30  O   UNL A   1      32.695  36.180  29.145  1.00  0.00    -0.269 OA
BRANCH  28  31
ATOM     31  C   UNL A   1      34.229  34.446  29.519  1.00  0.00     0.039 A 
ATOM     32  C   UNL A   1      35.519  34.568  28.988  1.00  0.00     0.014 A 
ATOM     33  C   UNL A   1      34.031  33.677  30.669  1.00  0.00     0.014 A 
ATOM     34  C   UNL A   1      36.606  33.960  29.627  1.00  0.00     0.010 A 
ATOM     35  C   UNL A   1      35.125  33.127  31.344  1.00  0.00     0.010 A 
ATOM     36  C   UNL A   1      36.423  33.249  30.822  1.00  0.00    -0.014 A 
BRANCH  36  37
ATOM     37  C   UNL A   1      37.568  32.601  31.516  1.00  0.00     0.031 A 
ATOM     38  C   UNL A   1      38.293  31.449  30.872  1.00  0.00     0.074 A 
ATOM     39  C   UNL A   1      37.924  33.005  32.751  1.00  0.00     0.049 A 
ATOM     40  N   UNL A   1      39.265  30.711  31.349  1.00  0.00    -0.248 NA
ATOM     41  C   UNL A   1      37.851  31.058  29.525  1.00  0.00     0.031 C 
ATOM     42  C   UNL A   1      37.274  34.072  33.513  1.00  0.00     0.029 A 
ATOM     43  N   UNL A   1      38.912  32.553  33.591  1.00  0.00    -0.354 N 
ATOM     44  C   UNL A   1      39.524  29.752  30.378  1.00  0.00     0.074 A 
ATOM     45  C   UNL A   1      38.591  29.982  29.297  1.00  0.00     0.031 C 
ATOM     46  C   UNL A   1      37.885  34.198  34.703  1.00  0.00     0.029 A 
ATOM     47  C   UNL A   1      38.950  33.204  34.800  1.00  0.00     0.049 A 
ATOM     48  H   UNL A   1      39.535  31.829  33.350  1.00  0.00     0.167 HD
ATOM     49  C   UNL A   1      40.466  28.778  30.379  1.00  0.00     0.037 A 
ATOM     50  C   UNL A   1      39.748  33.017  35.869  1.00  0.00     0.037 A 
ATOM     51  C   UNL A   1      41.438  28.583  31.423  1.00  0.00     0.049 A 
ATOM     52  C   UNL A   1      40.820  31.964  35.822  1.00  0.00     0.074 A 
ATOM     53  C   UNL A   1      42.494  27.688  31.462  1.00  0.00     0.029 A 
ATOM     54  N   UNL A   1      41.476  29.300  32.608  1.00  0.00    -0.354 N 
ATOM     55  N   UNL A   1      41.105  31.117  34.863  1.00  0.00    -0.248 NA
ATOM     56  C   UNL A   1      41.689  31.845  37.002  1.00  0.00     0.031 C 
ATOM     57  C   UNL A   1      43.152  27.840  32.687  1.00  0.00     0.029 A 
ATOM     58  C   UNL A   1      42.526  28.854  33.394  1.00  0.00     0.049 A 
ATOM     59  H   UNL A   1      40.850  30.018  32.855  1.00  0.00     0.167 HD
ATOM     60  C   UNL A   1      42.196  30.384  35.313  1.00  0.00     0.074 A 
ATOM     61  C   UNL A   1      42.532  30.894  36.626  1.00  0.00     0.031 C 
ATOM     62  C   UNL A   1      42.856  29.378  34.693  1.00  0.00     0.037 A 
BRANCH  49  63
ATOM     63  C   UNL A   1      40.504  27.842  29.208  1.00  0.00     0.064 A 
ATOM     64  C   UNL A   1      39.682  26.707  29.148  1.00  0.00     0.173 A 
ATOM     65  C   UNL A   1      41.326  28.119  28.106  1.00  0.00     0.173 A 
ATOM     66  F   UNL A   1      38.884  26.396  30.181  1.00  0.00    -0.203 F 
ATOM     67  C   UNL A   1      39.698  25.872  28.034  1.00  0.00     0.198 A 
ATOM     68  C   UNL A   1      41.323  27.294  26.984  1.00  0.00     0.198 A 
ATOM     69  F   UNL A   1      42.126  29.197  28.112  1.00  0.00    -0.203 F 
ATOM     70  F   UNL A   1      38.930  24.773  28.013  1.00  0.00    -0.200 F 
ATOM     71  C   UNL A   1      40.512  26.169  26.951  1.00  0.00     0.200 A 
ATOM     72  F   UNL A   1      42.100  27.589  25.934  1.00  0.00    -0.200 F 
ATOM     73  F   UNL A   1      40.517  25.369  25.876  1.00  0.00    -0.200 F 
ENDBRANCH  49  63
BRANCH  50  74
ATOM     74  C   UNL A   1      39.577  33.864  37.077  1.00  0.00     0.064 A 
ATOM     75  C   UNL A   1      38.760  33.449  38.138  1.00  0.00     0.173 A 
ATOM     76  C   UNL A   1      40.212  35.108  37.189  1.00  0.00     0.173 A 
ATOM     77  F   UNL A   1      38.114  32.276  38.065  1.00  0.00    -0.203 F 
ATOM     78  C   UNL A   1      38.569  34.256  39.257  1.00  0.00     0.198 A 
ATOM     79  C   UNL A   1      40.040  35.905  38.319  1.00  0.00     0.198 A 
ATOM     80  F   UNL A   1      41.005  35.549  36.201  1.00  0.00    -0.203 F 
ATOM     81  F   UNL A   1      37.749  33.855  40.238  1.00  0.00    -0.200 F 
ATOM     82  C   UNL A   1      39.212  35.481  39.349  1.00  0.00     0.200 A 
ATOM     83  F   UNL A   1      40.671  37.083  38.410  1.00  0.00    -0.200 F 
ATOM     84  F   UNL A   1      39.028  36.257  40.425  1.00  0.00    -0.200 F 
ENDBRANCH  50  74
BRANCH  62  85
ATOM     85  C   UNL A   1      44.029  28.779  35.411  1.00  0.00     0.064 A 
ATOM     86  C   UNL A   1      43.885  27.652  36.233  1.00  0.00     0.173 A 
ATOM     87  C   UNL A   1      45.314  29.313  35.242  1.00  0.00     0.173 A 
ATOM     88  F   UNL A   1      42.672  27.116  36.437  1.00  0.00    -0.203 F 
ATOM     89  C   UNL A   1      44.986  27.092  36.876  1.00  0.00     0.198 A 
ATOM     90  C   UNL A   1      46.416  28.737  35.868  1.00  0.00     0.198 A 
ATOM     91  F   UNL A   1      45.503  30.388  34.461  1.00  0.00    -0.203 F 
ATOM     92  F   UNL A   1      44.822  26.039  37.687  1.00  0.00    -0.200 F 
ATOM     93  C   UNL A   1      46.251  27.631  36.688  1.00  0.00     0.200 A 
ATOM     94  F   UNL A   1      47.639  29.252  35.679  1.00  0.00    -0.200 F 
ATOM     95  F   UNL A   1      47.310  27.087  37.303  1.00  0.00    -0.200 F 
ENDBRANCH  62  85
ENDBRANCH  36  37
ENDBRANCH  28  31
ENDBRANCH  26  27
ENDBRANCH  25  26
ENDBRANCH   1  25
TORSDOF 14
ENDMDL
MODEL 2
REMARK VINA RESULT:     -12.4      5.553     11.175
REMARK SMILES CC[C@@H](C(=O)NCCCNC(=O)c1ccc(-c2c3nc(c(-c4c(F)c(F)c(F)c(F)c4F)c4ccc([nH]4)c(-c4c(F)c(F)c(F)c(F)c4F)c4nc(c(-c5c(F)c(F)c(F)c(F)c5F)c5ccc2[nH]5)C=C4)C=C3)cc1)N1CCN(Cc2cccc(C)c2)C(=O)C1=O
REMARK SMILES IDX 7 1 6 2 4 3 5 4 3 6 2 7 1 8 76 9 77 10 90 11 78 12 88 13
REMARK SMILES IDX 91 14 79 15 89 16 80 17 81 18 82 19 87 20 83 21 85 22 84 23
REMARK SMILES IDX 86 24 8 25 9 26 10 27 11 28 12 30 13 31 14 32 75 33 15 34
REMARK SMILES IDX 74 35 16 36 17 37 18 38 68 39 19 40 73 41 67 42 69 43 20 44
REMARK SMILES IDX 72 45 66 46 65 47 21 49 53 50 33 51 52 52 34 53 37 54 51 55
REMARK SMILES IDX 70 56 35 57 36 58 50 60 71 61 38 62 22 63 23 64 31 65 24 66
REMARK SMILES IDX 25 67 29 68 32 69 26 70 27 71 30 72 28 73 54 74 55 75 63 76
REMARK SMILES IDX 56 77 57 78 61 79 64 80 58 81 59 82 62 83 60 84 39 85 40 86
REMARK SMILES IDX 48 87 41 88 42 89 46 90 49 91 43 92 44 93 47 94 45 95
REMARK H PARENT 6 5 10 29 69 48 37 59
REMARK Flexibility Score: inf
ROOT
ATOM      1  C   UNL A   1      36.584  19.979  25.034  1.00  0.00     0.117 C 
ENDROOT
BRANCH   1   2
ATOM      2  N   UNL A   1      36.578  21.270  25.713  1.00  0.00    -0.354 N 
ATOM      3  C   UNL A   1      35.811  22.390  25.522  1.00  0.00     0.242 C 
ATOM      4  O   UNL A   1      36.079  23.384  26.203  1.00  0.00    -0.273 OA
ATOM      5  H   UNL A   1      37.240  21.350  26.437  1.00  0.00     0.163 HD
BRANCH   3   6
ATOM      6  C   UNL A   1      34.699  22.415  24.443  1.00  0.00     0.174 C 
BRANCH   6   7
ATOM      7  C   UNL A   1      35.289  22.859  23.086  1.00  0.00     0.032 C 
ATOM      8  C   UNL A   1      36.796  22.933  22.970  1.00  0.00     0.006 C 
ENDBRANCH   6   7
BRANCH   6   9
ATOM      9  N   UNL A   1      33.586  23.302  24.893  1.00  0.00    -0.321 N 
ATOM     10  C   UNL A   1      33.352  24.619  24.312  1.00  0.00     0.142 C 
ATOM     11  C   UNL A   1      32.599  22.810  25.772  1.00  0.00     0.312 C 
ATOM     12  C   UNL A   1      31.886  24.710  23.916  1.00  0.00     0.142 C 
ATOM     13  C   UNL A   1      31.413  23.804  26.123  1.00  0.00     0.312 C 
ATOM     14  O   UNL A   1      32.598  21.663  26.201  1.00  0.00    -0.263 OA
ATOM     15  N   UNL A   1      31.093  24.738  25.127  1.00  0.00    -0.328 N 
ATOM     16  O   UNL A   1      30.827  23.719  27.195  1.00  0.00    -0.263 OA
BRANCH  15  17
ATOM     17  C   UNL A   1      29.957  25.653  25.250  1.00  0.00     0.155 C 
BRANCH  17  18
ATOM     18  C   UNL A   1      30.306  27.102  24.954  1.00  0.00    -0.028 A 
ATOM     19  C   UNL A   1      31.195  27.805  25.776  1.00  0.00     0.005 A 
ATOM     20  C   UNL A   1      29.775  27.762  23.831  1.00  0.00     0.009 A 
ATOM     21  C   UNL A   1      31.554  29.120  25.469  1.00  0.00     0.001 A 
ATOM     22  C   UNL A   1      30.208  29.041  23.460  1.00  0.00    -0.051 A 
ATOM     23  C   UNL A   1      31.078  29.730  24.307  1.00  0.00     0.003 A 
ATOM     24  C   UNL A   1      29.740  29.663  22.176  1.00  0.00     0.044 C 
ENDBRANCH  17  18
ENDBRANCH  15  17
ENDBRANCH   6   9
ENDBRANCH   3   6
ENDBRANCH   1   2
BRANCH   1  25
ATOM     25  C   UNL A   1      38.006  19.477  24.768  1.00  0.00     0.042 C 
BRANCH  25  26
ATOM     26  C   UNL A   1      39.051  19.990  25.754  1.00  0.00     0.118 C 
BRANCH  26  27
ATOM     27  N   UNL A   1      40.155  19.059  25.910  1.00  0.00    -0.352 N 
ATOM     28  C   UNL A   1      41.498  19.300  26.080  1.00  0.00     0.251 C 
ATOM     29  H   UNL A   1      39.903  18.108  25.892  1.00  0.00     0.163 HD
ATOM     30  O   UNL A   1      42.291  18.369  25.976  1.00  0.00    -0.269 OA
BRANCH  28  31
ATOM     31  C   UNL A   1      42.013  20.663  26.370  1.00  0.00     0.039 A 
ATOM     32  C   UNL A   1      42.273  21.008  27.702  1.00  0.00     0.014 A 
ATOM     33  C   UNL A   1      42.171  21.626  25.370  1.00  0.00     0.014 A 
ATOM     34  C   UNL A   1      42.727  22.293  28.023  1.00  0.00     0.010 A 
ATOM     35  C   UNL A   1      42.688  22.886  25.681  1.00  0.00     0.010 A 
ATOM     36  C   UNL A   1      42.957  23.239  27.014  1.00  0.00    -0.014 A 
BRANCH  36  37
ATOM     37  C   UNL A   1      43.445  24.607  27.337  1.00  0.00     0.031 A 
ATOM     38  C   UNL A   1      42.498  25.639  27.892  1.00  0.00     0.074 A 
ATOM     39  C   UNL A   1      44.723  24.947  27.080  1.00  0.00     0.049 A 
ATOM     40  N   UNL A   1      42.717  26.902  28.167  1.00  0.00    -0.248 NA
ATOM     41  C   UNL A   1      41.116  25.203  28.145  1.00  0.00     0.031 C 
ATOM     42  C   UNL A   1      45.732  24.063  26.496  1.00  0.00     0.029 A 
ATOM     43  N   UNL A   1      45.389  26.134  27.263  1.00  0.00    -0.354 N 
ATOM     44  C   UNL A   1      41.497  27.414  28.592  1.00  0.00     0.074 A 
ATOM     45  C   UNL A   1      40.535  26.336  28.511  1.00  0.00     0.031 C 
ATOM     46  C   UNL A   1      46.889  24.735  26.376  1.00  0.00     0.029 A 
ATOM     47  C   UNL A   1      46.698  26.103  26.849  1.00  0.00     0.049 A 
ATOM     48  H   UNL A   1      44.967  26.933  27.655  1.00  0.00     0.167 HD
ATOM     49  C   UNL A   1      41.208  28.664  29.025  1.00  0.00     0.037 A 
ATOM     50  C   UNL A   1      47.636  27.069  26.843  1.00  0.00     0.037 A 
ATOM     51  C   UNL A   1      42.173  29.722  29.166  1.00  0.00     0.049 A 
ATOM     52  C   UNL A   1      47.302  28.434  27.379  1.00  0.00     0.074 A 
ATOM     53  C   UNL A   1      41.993  30.991  29.693  1.00  0.00     0.029 A 
ATOM     54  N   UNL A   1      43.503  29.634  28.785  1.00  0.00    -0.354 N 
ATOM     55  N   UNL A   1      46.165  28.880  27.852  1.00  0.00    -0.248 NA
ATOM     56  C   UNL A   1      48.386  29.428  27.391  1.00  0.00     0.031 C 
ATOM     57  C   UNL A   1      43.205  31.681  29.600  1.00  0.00     0.029 A 
ATOM     58  C   UNL A   1      44.149  30.831  29.047  1.00  0.00     0.049 A 
ATOM     59  H   UNL A   1      43.924  28.839  28.385  1.00  0.00     0.167 HD
ATOM     60  C   UNL A   1      46.401  30.193  28.237  1.00  0.00     0.074 A 
ATOM     61  C   UNL A   1      47.793  30.470  27.956  1.00  0.00     0.031 C 
ATOM     62  C   UNL A   1      45.538  31.089  28.773  1.00  0.00     0.037 A 
BRANCH  49  63
ATOM     63  C   UNL A   1      39.786  28.965  29.390  1.00  0.00     0.064 A 
ATOM     64  C   UNL A   1      38.858  29.403  28.433  1.00  0.00     0.173 A 
ATOM     65  C   UNL A   1      39.330  28.753  30.700  1.00  0.00     0.173 A 
ATOM     66  F   UNL A   1      39.248  29.627  27.169  1.00  0.00    -0.203 F 
ATOM     67  C   UNL A   1      37.530  29.636  28.780  1.00  0.00     0.198 A 
ATOM     68  C   UNL A   1      37.996  28.965  31.038  1.00  0.00     0.198 A 
ATOM     69  F   UNL A   1      40.177  28.328  31.650  1.00  0.00    -0.203 F 
ATOM     70  F   UNL A   1      36.669  30.087  27.857  1.00  0.00    -0.200 F 
ATOM     71  C   UNL A   1      37.098  29.411  30.079  1.00  0.00     0.200 A 
ATOM     72  F   UNL A   1      37.578  28.736  32.290  1.00  0.00    -0.200 F 
ATOM     73  F   UNL A   1      35.817  29.626  30.407  1.00  0.00    -0.200 F 
ENDBRANCH  49  63
BRANCH  50  74
ATOM     74  C   UNL A   1      48.997  26.776  26.325  1.00  0.00     0.064 A 
ATOM     75  C   UNL A   1      49.331  27.036  24.989  1.00  0.00     0.173 A 
ATOM     76  C   UNL A   1      49.983  26.217  27.149  1.00  0.00     0.173 A 
ATOM     77  F   UNL A   1      48.412  27.549  24.157  1.00  0.00    -0.203 F 
ATOM     78  C   UNL A   1      50.596  26.729  24.491  1.00  0.00     0.198 A 
ATOM     79  C   UNL A   1      51.255  25.932  26.657  1.00  0.00     0.198 A 
ATOM     80  F   UNL A   1      49.713  25.951  28.436  1.00  0.00    -0.203 F 
ATOM     81  F   UNL A   1      50.875  26.948  23.199  1.00  0.00    -0.200 F 
ATOM     82  C   UNL A   1      51.558  26.182  25.326  1.00  0.00     0.200 A 
ATOM     83  F   UNL A   1      52.186  25.414  27.468  1.00  0.00    -0.200 F 
ATOM     84  F   UNL A   1      52.774  25.887  24.847  1.00  0.00    -0.200 F 
ENDBRANCH  50  74
BRANCH  62  85
ATOM     85  C   UNL A   1      46.079  32.443  29.121  1.00  0.00     0.064 A 
ATOM     86  C   UNL A   1      46.037  33.505  28.205  1.00  0.00     0.173 A 
ATOM     87  C   UNL A   1      46.607  32.692  30.395  1.00  0.00     0.173 A 
ATOM     88  F   UNL A   1      45.555  33.310  26.968  1.00  0.00    -0.203 F 
ATOM     89  C   UNL A   1      46.523  34.764  28.548  1.00  0.00     0.198 A 
ATOM     90  C   UNL A   1      47.070  33.958  30.743  1.00  0.00     0.198 A 
ATOM     91  F   UNL A   1      46.665  31.710  31.308  1.00  0.00    -0.203 F 
ATOM     92  F   UNL A   1      46.507  35.754  27.646  1.00  0.00    -0.200 F 
ATOM     93  C   UNL A   1      47.032  34.991  29.818  1.00  0.00     0.200 A 
ATOM     94  F   UNL A   1      47.555  34.179  31.973  1.00  0.00    -0.200 F 
ATOM     95  F   UNL A   1      47.494  36.205  30.148  1.00  0.00    -0.200 F 
ENDBRANCH  62  85
ENDBRANCH  36  37
ENDBRANCH  28  31
ENDBRANCH  26  27
ENDBRANCH  25  26
ENDBRANCH   1  25
TORSDOF 14
ENDMDL
MODEL 3
REMARK VINA RESULT:     -12.4      1.025      2.057
REMARK SMILES CC[C@@H](C(=O)NCCCNC(=O)c1ccc(-c2c3nc(c(-c4c(F)c(F)c(F)c(F)c4F)c4ccc([nH]4)c(-c4c(F)c(F)c(F)c(F)c4F)c4nc(c(-c5c(F)c(F)c(F)c(F)c5F)c5ccc2[nH]5)C=C4)C=C3)cc1)N1CCN(Cc2cccc(C)c2)C(=O)C1=O
REMARK SMILES IDX 7 1 6 2 4 3 5 4 3 6 2 7 1 8 76 9 77 10 90 11 78 12 88 13
REMARK SMILES IDX 91 14 79 15 89 16 80 17 81 18 82 19 87 20 83 21 85 22 84 23
REMARK SMILES IDX 86 24 8 25 9 26 10 27 11 28 12 30 13 31 14 32 75 33 15 34
REMARK SMILES IDX 74 35 16 36 17 37 18 38 68 39 19 40 73 41 67 42 69 43 20 44
REMARK SMILES IDX 72 45 66 46 65 47 21 49 53 50 33 51 52 52 34 53 37 54 51 55
REMARK SMILES IDX 70 56 35 57 36 58 50 60 71 61 38 62 22 63 23 64 31 65 24 66
REMARK SMILES IDX 25 67 29 68 32 69 26 70 27 71 30 72 28 73 54 74 55 75 63 76
REMARK SMILES IDX 56 77 57 78 61 79 64 80 58 81 59 82 62 83 60 84 39 85 40 86
REMARK SMILES IDX 48 87 41 88 42 89 46 90 49 91 43 92 44 93 47 94 45 95
REMARK H PARENT 6 5 10 29 69 48 37 59
REMARK Flexibility Score: inf
ROOT
ATOM      1  C   UNL A   1      31.170  30.915  26.276  1.00  0.00     0.117 C 
ENDROOT
BRANCH   1   2
ATOM      2  N   UNL A   1      31.809  30.338  25.098  1.00  0.00    -0.354 N 
ATOM      3  C   UNL A   1      32.706  29.311  24.967  1.00  0.00     0.242 C 
ATOM      4  O   UNL A   1      33.146  29.082  23.836  1.00  0.00    -0.273 OA
ATOM      5  H   UNL A   1      31.548  30.761  24.248  1.00  0.00     0.163 HD
BRANCH   3   6
ATOM      6  C   UNL A   1      33.192  28.519  26.207  1.00  0.00     0.174 C 
BRANCH   6   7
ATOM      7  C   UNL A   1      34.698  28.776  26.440  1.00  0.00     0.032 C 
ATOM      8  C   UNL A   1      35.078  29.900  27.378  1.00  0.00     0.006 C 
ENDBRANCH   6   7
BRANCH   6   9
ATOM      9  N   UNL A   1      32.888  27.069  26.026  1.00  0.00    -0.321 N 
ATOM     10  C   UNL A   1      33.805  26.156  25.355  1.00  0.00     0.142 C 
ATOM     11  C   UNL A   1      31.775  26.494  26.673  1.00  0.00     0.312 C 
ATOM     12  C   UNL A   1      34.006  24.943  26.251  1.00  0.00     0.142 C 
ATOM     13  C   UNL A   1      31.585  24.929  26.485  1.00  0.00     0.312 C 
ATOM     14  O   UNL A   1      31.021  27.129  27.400  1.00  0.00    -0.263 OA
ATOM     15  N   UNL A   1      32.765  24.198  26.288  1.00  0.00    -0.328 N 
ATOM     16  O   UNL A   1      30.469  24.427  26.534  1.00  0.00    -0.263 OA
BRANCH  15  17
ATOM     17  C   UNL A   1      32.774  22.736  26.205  1.00  0.00     0.155 C 
BRANCH  17  18
ATOM     18  C   UNL A   1      32.507  22.203  24.807  1.00  0.00    -0.028 A 
ATOM     19  C   UNL A   1      32.454  23.071  23.710  1.00  0.00     0.005 A 
ATOM     20  C   UNL A   1      32.340  20.826  24.574  1.00  0.00     0.009 A 
ATOM     21  C   UNL A   1      32.262  22.570  22.420  1.00  0.00     0.001 A 
ATOM     22  C   UNL A   1      32.251  20.307  23.276  1.00  0.00    -0.051 A 
ATOM     23  C   UNL A   1      32.179  21.194  22.201  1.00  0.00     0.003 A 
ATOM     24  C   UNL A   1      32.226  18.824  23.047  1.00  0.00     0.044 C 
ENDBRANCH  17  18
ENDBRANCH  15  17
ENDBRANCH   6   9
ENDBRANCH   3   6
ENDBRANCH   1   2
BRANCH   1  25
ATOM     25  C   UNL A   1      31.356  32.434  26.343  1.00  0.00     0.042 C 
BRANCH  25  26
ATOM     26  C   UNL A   1      32.549  32.888  27.178  1.00  0.00     0.118 C 
BRANCH  26  27
ATOM     27  N   UNL A   1      32.410  34.263  27.624  1.00  0.00    -0.352 N 
ATOM     28  C   UNL A   1      33.027  34.924  28.659  1.00  0.00     0.251 C 
ATOM     29  H   UNL A   1      31.776  34.807  27.103  1.00  0.00     0.163 HD
ATOM     30  O   UNL A   1      32.607  36.026  29.001  1.00  0.00    -0.269 OA
BRANCH  28  31
ATOM     31  C   UNL A   1      34.179  34.329  29.386  1.00  0.00     0.039 A 
ATOM     32  C   UNL A   1      35.453  34.434  28.817  1.00  0.00     0.014 A 
ATOM     33  C   UNL A   1      34.016  33.608  30.572  1.00  0.00     0.014 A 
ATOM     34  C   UNL A   1      36.560  33.858  29.451  1.00  0.00     0.010 A 
ATOM     35  C   UNL A   1      35.129  33.091  31.240  1.00  0.00     0.010 A 
ATOM     36  C   UNL A   1      36.412  33.197  30.679  1.00  0.00    -0.014 A 
BRANCH  36  37
ATOM     37  C   UNL A   1      37.579  32.584  31.369  1.00  0.00     0.031 A 
ATOM     38  C   UNL A   1      38.322  31.439  30.732  1.00  0.00     0.074 A 
ATOM     39  C   UNL A   1      37.940  33.012  32.594  1.00  0.00     0.049 A 
ATOM     40  N   UNL A   1      39.316  30.729  31.207  1.00  0.00    -0.248 NA
ATOM     41  C   UNL A   1      37.874  31.020  29.395  1.00  0.00     0.031 C 
ATOM     42  C   UNL A   1      37.275  34.075  33.349  1.00  0.00     0.029 A 
ATOM     43  N   UNL A   1      38.947  32.593  33.429  1.00  0.00    -0.354 N 
ATOM     44  C   UNL A   1      39.585  29.763  30.246  1.00  0.00     0.074 A 
ATOM     45  C   UNL A   1      38.635  29.958  29.173  1.00  0.00     0.031 C 
ATOM     46  C   UNL A   1      37.896  34.230  34.530  1.00  0.00     0.029 A 
ATOM     47  C   UNL A   1      38.984  33.261  34.628  1.00  0.00     0.049 A 
ATOM     48  H   UNL A   1      39.583  31.879  33.190  1.00  0.00     0.167 HD
ATOM     49  C   UNL A   1      40.548  28.810  30.250  1.00  0.00     0.037 A 
ATOM     50  C   UNL A   1      39.797  33.106  35.691  1.00  0.00     0.037 A 
ATOM     51  C   UNL A   1      41.535  28.650  31.285  1.00  0.00     0.049 A 
ATOM     52  C   UNL A   1      40.891  32.075  35.646  1.00  0.00     0.074 A 
ATOM     53  C   UNL A   1      42.611  27.779  31.325  1.00  0.00     0.029 A 
ATOM     54  N   UNL A   1      41.571  29.384  32.461  1.00  0.00    -0.354 N 
ATOM     55  N   UNL A   1      41.184  31.223  34.695  1.00  0.00    -0.248 NA
ATOM     56  C   UNL A   1      41.776  31.992  36.818  1.00  0.00     0.031 C 
ATOM     57  C   UNL A   1      43.279  27.962  32.540  1.00  0.00     0.029 A 
ATOM     58  C   UNL A   1      42.638  28.971  33.241  1.00  0.00     0.049 A 
ATOM     59  H   UNL A   1      40.931  30.091  32.705  1.00  0.00     0.167 HD
ATOM     60  C   UNL A   1      42.296  30.520  35.143  1.00  0.00     0.074 A 
ATOM     61  C   UNL A   1      42.635  31.054  36.444  1.00  0.00     0.031 C 
ATOM     62  C   UNL A   1      42.972  29.519  34.529  1.00  0.00     0.037 A 
BRANCH  49  63
ATOM     63  C   UNL A   1      40.593  27.859  29.092  1.00  0.00     0.064 A 
ATOM     64  C   UNL A   1      41.475  28.049  28.018  1.00  0.00     0.173 A 
ATOM     65  C   UNL A   1      39.787  26.711  29.087  1.00  0.00     0.173 A 
ATOM     66  F   UNL A   1      42.260  29.135  27.975  1.00  0.00    -0.203 F 
ATOM     67  C   UNL A   1      41.534  27.133  26.971  1.00  0.00     0.198 A 
ATOM     68  C   UNL A   1      39.865  25.785  28.050  1.00  0.00     0.198 A 
ATOM     69  F   UNL A   1      38.931  26.479  30.094  1.00  0.00    -0.203 F 
ATOM     70  F   UNL A   1      42.361  27.352  25.939  1.00  0.00    -0.200 F 
ATOM     71  C   UNL A   1      40.736  25.999  26.991  1.00  0.00     0.200 A 
ATOM     72  F   UNL A   1      39.102  24.684  28.075  1.00  0.00    -0.200 F 
ATOM     73  F   UNL A   1      40.803  25.114  25.987  1.00  0.00    -0.200 F 
ENDBRANCH  49  63
BRANCH  50  74
ATOM     74  C   UNL A   1      39.621  33.965  36.890  1.00  0.00     0.064 A 
ATOM     75  C   UNL A   1      38.846  33.536  37.976  1.00  0.00     0.173 A 
ATOM     76  C   UNL A   1      40.209  35.235  36.967  1.00  0.00     0.173 A 
ATOM     77  F   UNL A   1      38.245  32.337  37.937  1.00  0.00    -0.203 F 
ATOM     78  C   UNL A   1      38.649  34.353  39.087  1.00  0.00     0.198 A 
ATOM     79  C   UNL A   1      40.031  36.043  38.088  1.00  0.00     0.198 A 
ATOM     80  F   UNL A   1      40.961  35.690  35.953  1.00  0.00    -0.203 F 
ATOM     81  F   UNL A   1      37.869  33.936  40.093  1.00  0.00    -0.200 F 
ATOM     82  C   UNL A   1      39.245  35.604  39.144  1.00  0.00     0.200 A 
ATOM     83  F   UNL A   1      40.617  37.246  38.146  1.00  0.00    -0.200 F 
ATOM     84  F   UNL A   1      39.056  36.390  40.212  1.00  0.00    -0.200 F 
ENDBRANCH  50  74
BRANCH  62  85
ATOM     85  C   UNL A   1      44.164  28.956  35.241  1.00  0.00     0.064 A 
ATOM     86  C   UNL A   1      45.442  29.512  35.080  1.00  0.00     0.173 A 
ATOM     87  C   UNL A   1      44.021  27.877  36.124  1.00  0.00     0.173 A 
ATOM     88  F   UNL A   1      45.630  30.536  34.234  1.00  0.00    -0.203 F 
ATOM     89  C   UNL A   1      46.538  28.994  35.765  1.00  0.00     0.198 A 
ATOM     90  C   UNL A   1      45.114  27.376  36.824  1.00  0.00     0.198 A 
ATOM     91  F   UNL A   1      42.818  27.314  36.315  1.00  0.00    -0.203 F 
ATOM     92  F   UNL A   1      47.756  29.515  35.569  1.00  0.00    -0.200 F 
ATOM     93  C   UNL A   1      46.372  27.931  36.641  1.00  0.00     0.200 A 
ATOM     94  F   UNL A   1      44.953  26.354  37.678  1.00  0.00    -0.200 F 
ATOM     95  F   UNL A   1      47.427  27.437  37.304  1.00  0.00    -0.200 F 
ENDBRANCH  62  85
ENDBRANCH  36  37
ENDBRANCH  28  31
ENDBRANCH  26  27
ENDBRANCH  25  26
ENDBRANCH   1  25
TORSDOF 14
ENDMDL
