MODEL 1
REMARK VINA RESULT:     -11.9      0.000      0.000
REMARK SMILES O=C(CCNC(=O)C1CCCC1)NCCCNC(=O)c1ccc(-c2c3nc(c(-c4c(F)c(F)c(F)c(F)c4F)c4ccc([nH]4)c(-c4c(F)c(F)c(F)c(F)c4F)c4nc(c(-c5c(F)c(F)c(F)c(F)c5F)c5ccc2[nH]5)C=C4)C=C3)cc1
REMARK SMILES IDX 14 1 13 2 1 3 2 4 3 6 4 7 5 8 6 9 7 11 8 12 9 13 12 14 10 15
REMARK SMILES IDX 11 16 15 17 16 18 17 19 18 20 19 22 20 23 21 24 82 25 22 26
REMARK SMILES IDX 81 27 23 28 24 29 25 30 75 31 26 32 80 33 74 34 76 35 27 36
REMARK SMILES IDX 79 37 73 38 72 39 28 41 60 42 40 43 59 44 41 45 44 46 58 47
REMARK SMILES IDX 77 48 42 49 43 50 57 52 78 53 45 54 29 55 30 56 38 57 31 58
REMARK SMILES IDX 32 59 36 60 39 61 33 62 34 63 37 64 35 65 61 66 62 67 70 68
REMARK SMILES IDX 63 69 64 70 68 71 71 72 65 73 66 74 69 75 67 76 46 77 47 78
REMARK SMILES IDX 55 79 48 80 49 81 53 82 56 83 50 84 51 85 54 86 52 87
REMARK H PARENT 13 5 5 10 17 21 76 40 44 51
REMARK Flexibility Score: inf
ROOT
ATOM      1  C   UNL A   1      31.731  30.509  26.589  1.00  0.00     0.117 C 
ENDROOT
BRANCH   1   2
ATOM      2  N   UNL A   1      32.104  30.119  25.244  1.00  0.00    -0.356 N 
ATOM      3  O   UNL A   1      31.073  28.063  25.267  1.00  0.00    -0.275 OA
ATOM      4  C   UNL A   1      31.698  28.934  24.674  1.00  0.00     0.221 C 
ATOM      5  H   UNL A   1      32.670  30.727  24.717  1.00  0.00     0.163 HD
BRANCH   4   6
ATOM      6  C   UNL A   1      32.068  28.807  23.215  1.00  0.00     0.121 C 
BRANCH   6   7
ATOM      7  C   UNL A   1      30.909  29.253  22.326  1.00  0.00     0.125 C 
BRANCH   7   8
ATOM      8  N   UNL A   1      29.693  28.492  22.598  1.00  0.00    -0.355 N 
ATOM      9  C   UNL A   1      28.432  28.883  22.921  1.00  0.00     0.223 C 
ATOM     10  H   UNL A   1      29.808  27.516  22.534  1.00  0.00     0.163 HD
ATOM     11  O   UNL A   1      27.651  27.998  23.280  1.00  0.00    -0.275 OA
BRANCH   9  12
ATOM     12  C   UNL A   1      27.965  30.327  22.814  1.00  0.00     0.078 C 
ATOM     13  C   UNL A   1      28.700  31.333  23.686  1.00  0.00     0.013 C 
ATOM     14  C   UNL A   1      28.036  30.864  21.385  1.00  0.00     0.013 C 
ATOM     15  C   UNL A   1      28.527  32.666  22.976  1.00  0.00     0.001 C 
ATOM     16  C   UNL A   1      28.359  32.349  21.496  1.00  0.00     0.001 C 
ENDBRANCH   9  12
ENDBRANCH   7   8
ENDBRANCH   6   7
ENDBRANCH   4   6
ENDBRANCH   1   2
BRANCH   1  17
ATOM     17  C   UNL A   1      31.507  32.010  26.714  1.00  0.00     0.042 C 
BRANCH  17  18
ATOM     18  C   UNL A   1      32.728  32.795  27.179  1.00  0.00     0.118 C 
BRANCH  18  19
ATOM     19  N   UNL A   1      32.418  34.159  27.584  1.00  0.00    -0.352 N 
ATOM     20  C   UNL A   1      32.981  34.936  28.568  1.00  0.00     0.251 C 
ATOM     21  H   UNL A   1      31.695  34.591  27.075  1.00  0.00     0.163 HD
ATOM     22  O   UNL A   1      32.477  36.020  28.851  1.00  0.00    -0.269 OA
BRANCH  20  23
ATOM     23  C   UNL A   1      34.164  34.460  29.319  1.00  0.00     0.039 A 
ATOM     24  C   UNL A   1      33.968  33.867  30.569  1.00  0.00     0.014 A 
ATOM     25  C   UNL A   1      35.456  34.592  28.806  1.00  0.00     0.014 A 
ATOM     26  C   UNL A   1      35.057  33.337  31.265  1.00  0.00     0.010 A 
ATOM     27  C   UNL A   1      36.529  33.990  29.461  1.00  0.00     0.010 A 
ATOM     28  C   UNL A   1      36.340  33.350  30.695  1.00  0.00    -0.014 A 
BRANCH  28  29
ATOM     29  C   UNL A   1      37.483  32.677  31.366  1.00  0.00     0.031 A 
ATOM     30  C   UNL A   1      38.193  31.528  30.704  1.00  0.00     0.074 A 
ATOM     31  C   UNL A   1      37.847  33.066  32.605  1.00  0.00     0.049 A 
ATOM     32  N   UNL A   1      39.177  30.791  31.157  1.00  0.00    -0.248 NA
ATOM     33  C   UNL A   1      37.721  31.141  29.366  1.00  0.00     0.031 C 
ATOM     34  C   UNL A   1      37.208  34.133  33.376  1.00  0.00     0.029 A 
ATOM     35  N   UNL A   1      38.836  32.603  33.438  1.00  0.00    -0.354 N 
ATOM     36  C   UNL A   1      39.433  29.851  30.168  1.00  0.00     0.074 A 
ATOM     37  C   UNL A   1      38.465  30.074  29.115  1.00  0.00     0.031 C 
ATOM     38  C   UNL A   1      37.837  34.263  34.554  1.00  0.00     0.029 A 
ATOM     39  C   UNL A   1      38.893  33.260  34.643  1.00  0.00     0.049 A 
ATOM     40  H   UNL A   1      39.447  31.871  33.194  1.00  0.00     0.167 HD
ATOM     41  C   UNL A   1      40.401  28.904  30.130  1.00  0.00     0.037 A 
ATOM     42  C   UNL A   1      39.699  33.070  35.705  1.00  0.00     0.037 A 
ATOM     43  C   UNL A   1      41.372  28.694  31.173  1.00  0.00     0.049 A 
ATOM     44  C   UNL A   1      40.753  31.996  35.646  1.00  0.00     0.074 A 
ATOM     45  C   UNL A   1      42.427  27.798  31.201  1.00  0.00     0.029 A 
ATOM     46  N   UNL A   1      41.401  29.383  32.377  1.00  0.00    -0.354 N 
ATOM     47  N   UNL A   1      41.033  31.164  34.673  1.00  0.00    -0.248 NA
ATOM     48  C   UNL A   1      41.607  31.842  36.831  1.00  0.00     0.031 C 
ATOM     49  C   UNL A   1      43.057  27.903  32.446  1.00  0.00     0.029 A 
ATOM     50  C   UNL A   1      42.438  28.910  33.168  1.00  0.00     0.049 A 
ATOM     51  H   UNL A   1      40.778  30.101  32.633  1.00  0.00     0.167 HD
ATOM     52  C   UNL A   1      42.112  30.410  35.114  1.00  0.00     0.074 A 
ATOM     53  C   UNL A   1      42.447  30.896  36.436  1.00  0.00     0.031 C 
ATOM     54  C   UNL A   1      42.767  29.405  34.481  1.00  0.00     0.037 A 
BRANCH  41  55
ATOM     55  C   UNL A   1      40.461  28.017  28.918  1.00  0.00     0.064 A 
ATOM     56  C   UNL A   1      39.740  26.815  28.847  1.00  0.00     0.173 A 
ATOM     57  C   UNL A   1      41.212  28.395  27.795  1.00  0.00     0.173 A 
ATOM     58  F   UNL A   1      39.011  26.401  29.895  1.00  0.00    -0.203 F 
ATOM     59  C   UNL A   1      39.795  26.009  27.712  1.00  0.00     0.198 A 
ATOM     60  C   UNL A   1      41.237  27.605  26.647  1.00  0.00     0.198 A 
ATOM     61  F   UNL A   1      41.913  29.539  27.802  1.00  0.00    -0.203 F 
ATOM     62  F   UNL A   1      39.139  24.841  27.690  1.00  0.00    -0.200 F 
ATOM     63  C   UNL A   1      40.537  26.409  26.611  1.00  0.00     0.200 A 
ATOM     64  F   UNL A   1      41.941  28.001  25.578  1.00  0.00    -0.200 F 
ATOM     65  F   UNL A   1      40.580  25.639  25.515  1.00  0.00    -0.200 F 
ENDBRANCH  41  55
BRANCH  42  66
ATOM     66  C   UNL A   1      39.554  33.927  36.912  1.00  0.00     0.064 A 
ATOM     67  C   UNL A   1      38.787  33.507  38.007  1.00  0.00     0.173 A 
ATOM     68  C   UNL A   1      40.167  35.186  36.991  1.00  0.00     0.173 A 
ATOM     69  F   UNL A   1      38.162  32.320  37.972  1.00  0.00    -0.203 F 
ATOM     70  C   UNL A   1      38.618  34.323  39.124  1.00  0.00     0.198 A 
ATOM     71  C   UNL A   1      40.025  35.987  38.122  1.00  0.00     0.198 A 
ATOM     72  F   UNL A   1      40.917  35.634  35.973  1.00  0.00    -0.203 F 
ATOM     73  F   UNL A   1      37.835  33.919  40.134  1.00  0.00    -0.200 F 
ATOM     74  C   UNL A   1      39.242  35.559  39.184  1.00  0.00     0.200 A 
ATOM     75  F   UNL A   1      40.645  37.174  38.182  1.00  0.00    -0.200 F 
ATOM     76  F   UNL A   1      39.082  36.343  40.259  1.00  0.00    -0.200 F 
ENDBRANCH  42  66
BRANCH  54  77
ATOM     77  C   UNL A   1      43.939  28.789  35.191  1.00  0.00     0.064 A 
ATOM     78  C   UNL A   1      43.786  27.705  36.068  1.00  0.00     0.173 A 
ATOM     79  C   UNL A   1      45.238  29.268  34.962  1.00  0.00     0.173 A 
ATOM     80  F   UNL A   1      42.565  27.217  36.334  1.00  0.00    -0.203 F 
ATOM     81  C   UNL A   1      44.886  27.147  36.715  1.00  0.00     0.198 A 
ATOM     82  C   UNL A   1      46.338  28.685  35.583  1.00  0.00     0.198 A 
ATOM     83  F   UNL A   1      45.442  30.298  34.127  1.00  0.00    -0.203 F 
ATOM     84  F   UNL A   1      44.710  26.148  37.592  1.00  0.00    -0.200 F 
ATOM     85  C   UNL A   1      46.161  27.631  36.466  1.00  0.00     0.200 A 
ATOM     86  F   UNL A   1      47.572  29.144  35.327  1.00  0.00    -0.200 F 
ATOM     87  F   UNL A   1      47.219  27.087  37.082  1.00  0.00    -0.200 F 
ENDBRANCH  54  77
ENDBRANCH  28  29
ENDBRANCH  20  23
ENDBRANCH  18  19
ENDBRANCH  17  18
ENDBRANCH   1  17
TORSDOF 13
ENDMDL
MODEL 2
REMARK VINA RESULT:     -11.9      0.506      7.808
REMARK SMILES O=C(CCNC(=O)C1CCCC1)NCCCNC(=O)c1ccc(-c2c3nc(c(-c4c(F)c(F)c(F)c(F)c4F)c4ccc([nH]4)c(-c4c(F)c(F)c(F)c(F)c4F)c4nc(c(-c5c(F)c(F)c(F)c(F)c5F)c5ccc2[nH]5)C=C4)C=C3)cc1
REMARK SMILES IDX 14 1 13 2 1 3 2 4 3 6 4 7 5 8 6 9 7 11 8 12 9 13 12 14 10 15
REMARK SMILES IDX 11 16 15 17 16 18 17 19 18 20 19 22 20 23 21 24 82 25 22 26
REMARK SMILES IDX 81 27 23 28 24 29 25 30 75 31 26 32 80 33 74 34 76 35 27 36
REMARK SMILES IDX 79 37 73 38 72 39 28 41 60 42 40 43 59 44 41 45 44 46 58 47
REMARK SMILES IDX 77 48 42 49 43 50 57 52 78 53 45 54 29 55 30 56 38 57 31 58
REMARK SMILES IDX 32 59 36 60 39 61 33 62 34 63 37 64 35 65 61 66 62 67 70 68
REMARK SMILES IDX 63 69 64 70 68 71 71 72 65 73 66 74 69 75 67 76 46 77 47 78
REMARK SMILES IDX 55 79 48 80 49 81 53 82 56 83 50 84 51 85 54 86 52 87
REMARK H PARENT 13 5 5 10 17 21 76 40 44 51
REMARK Flexibility Score: inf
ROOT
ATOM      1  C   UNL A   1      31.472  30.643  26.432  1.00  0.00     0.117 C 
ENDROOT
BRANCH   1   2
ATOM      2  N   UNL A   1      31.829  30.202  25.099  1.00  0.00    -0.356 N 
ATOM      3  O   UNL A   1      31.155  28.017  25.351  1.00  0.00    -0.275 OA
ATOM      4  C   UNL A   1      31.594  28.922  24.651  1.00  0.00     0.221 C 
ATOM      5  H   UNL A   1      32.257  30.844  24.489  1.00  0.00     0.163 HD
BRANCH   4   6
ATOM      6  C   UNL A   1      31.899  28.729  23.184  1.00  0.00     0.121 C 
BRANCH   6   7
ATOM      7  C   UNL A   1      30.741  29.234  22.325  1.00  0.00     0.125 C 
BRANCH   7   8
ATOM      8  N   UNL A   1      29.501  28.519  22.610  1.00  0.00    -0.355 N 
ATOM      9  C   UNL A   1      28.249  28.956  22.905  1.00  0.00     0.223 C 
ATOM     10  H   UNL A   1      29.589  27.538  22.583  1.00  0.00     0.163 HD
ATOM     11  O   UNL A   1      27.440  28.108  23.287  1.00  0.00    -0.275 OA
BRANCH   9  12
ATOM     12  C   UNL A   1      27.826  30.408  22.740  1.00  0.00     0.078 C 
ATOM     13  C   UNL A   1      28.515  31.413  23.650  1.00  0.00     0.013 C 
ATOM     14  C   UNL A   1      28.016  30.919  21.313  1.00  0.00     0.013 C 
ATOM     15  C   UNL A   1      28.427  32.737  22.907  1.00  0.00     0.001 C 
ATOM     16  C   UNL A   1      28.364  32.398  21.424  1.00  0.00     0.001 C 
ENDBRANCH   9  12
ENDBRANCH   7   8
ENDBRANCH   6   7
ENDBRANCH   4   6
ENDBRANCH   1   2
BRANCH   1  17
ATOM     17  C   UNL A   1      31.409  32.160  26.541  1.00  0.00     0.042 C 
BRANCH  17  18
ATOM     18  C   UNL A   1      32.624  32.798  27.205  1.00  0.00     0.118 C 
BRANCH  18  19
ATOM     19  N   UNL A   1      32.389  34.166  27.647  1.00  0.00    -0.352 N 
ATOM     20  C   UNL A   1      33.012  34.892  28.633  1.00  0.00     0.251 C 
ATOM     21  H   UNL A   1      31.674  34.643  27.167  1.00  0.00     0.163 HD
ATOM     22  O   UNL A   1      32.568  35.992  28.953  1.00  0.00    -0.269 OA
BRANCH  20  23
ATOM     23  C   UNL A   1      34.190  34.344  29.343  1.00  0.00     0.039 A 
ATOM     24  C   UNL A   1      33.982  33.591  30.501  1.00  0.00     0.014 A 
ATOM     25  C   UNL A   1      35.490  34.565  28.879  1.00  0.00     0.014 A 
ATOM     26  C   UNL A   1      35.068  32.995  31.146  1.00  0.00     0.010 A 
ATOM     27  C   UNL A   1      36.561  33.902  29.474  1.00  0.00     0.010 A 
ATOM     28  C   UNL A   1      36.361  33.104  30.611  1.00  0.00    -0.014 A 
BRANCH  28  29
ATOM     29  C   UNL A   1      37.505  32.370  31.215  1.00  0.00     0.031 A 
ATOM     30  C   UNL A   1      38.022  32.744  32.576  1.00  0.00     0.074 A 
ATOM     31  C   UNL A   1      38.117  31.399  30.508  1.00  0.00     0.049 A 
ATOM     32  N   UNL A   1      39.038  32.250  33.241  1.00  0.00    -0.248 NA
ATOM     33  C   UNL A   1      37.323  33.833  33.275  1.00  0.00     0.031 C 
ATOM     34  C   UNL A   1      37.744  30.975  29.158  1.00  0.00     0.029 A 
ATOM     35  N   UNL A   1      39.188  30.599  30.821  1.00  0.00    -0.354 N 
ATOM     36  C   UNL A   1      39.103  32.971  34.425  1.00  0.00     0.074 A 
ATOM     37  C   UNL A   1      38.062  33.975  34.365  1.00  0.00     0.031 C 
ATOM     38  C   UNL A   1      38.552  29.976  28.771  1.00  0.00     0.029 A 
ATOM     39  C   UNL A   1      39.529  29.719  29.823  1.00  0.00     0.049 A 
ATOM     40  H   UNL A   1      39.666  30.651  31.680  1.00  0.00     0.167 HD
ATOM     41  C   UNL A   1      39.939  32.797  35.477  1.00  0.00     0.037 A 
ATOM     42  C   UNL A   1      40.523  28.812  29.758  1.00  0.00     0.037 A 
ATOM     43  C   UNL A   1      40.964  31.788  35.541  1.00  0.00     0.049 A 
ATOM     44  C   UNL A   1      41.451  28.654  30.933  1.00  0.00     0.074 A 
ATOM     45  C   UNL A   1      41.824  31.497  36.585  1.00  0.00     0.029 A 
ATOM     46  N   UNL A   1      41.276  30.911  34.511  1.00  0.00    -0.354 N 
ATOM     47  N   UNL A   1      41.455  29.292  32.077  1.00  0.00    -0.248 NA
ATOM     48  C   UNL A   1      42.511  27.644  30.806  1.00  0.00     0.031 C 
ATOM     49  C   UNL A   1      42.695  30.485  36.168  1.00  0.00     0.029 A 
ATOM     50  C   UNL A   1      42.336  30.098  34.887  1.00  0.00     0.049 A 
ATOM     51  H   UNL A   1      40.814  30.872  33.643  1.00  0.00     0.167 HD
ATOM     52  C   UNL A   1      42.491  28.741  32.819  1.00  0.00     0.074 A 
ATOM     53  C   UNL A   1      43.084  27.705  32.000  1.00  0.00     0.031 C 
ATOM     54  C   UNL A   1      42.915  29.065  34.066  1.00  0.00     0.037 A 
BRANCH  41  55
ATOM     55  C   UNL A   1      39.781  33.722  36.652  1.00  0.00     0.064 A 
ATOM     56  C   UNL A   1      40.427  34.967  36.702  1.00  0.00     0.173 A 
ATOM     57  C   UNL A   1      38.939  33.379  37.721  1.00  0.00     0.173 A 
ATOM     58  F   UNL A   1      41.250  35.343  35.711  1.00  0.00    -0.203 F 
ATOM     59  C   UNL A   1      40.261  35.819  37.792  1.00  0.00     0.198 A 
ATOM     60  C   UNL A   1      38.748  34.248  38.793  1.00  0.00     0.198 A 
ATOM     61  F   UNL A   1      38.289  32.205  37.721  1.00  0.00    -0.203 F 
ATOM     62  F   UNL A   1      40.930  36.979  37.840  1.00  0.00    -0.200 F 
ATOM     63  C   UNL A   1      39.417  35.462  38.831  1.00  0.00     0.200 A 
ATOM     64  F   UNL A   1      37.918  33.909  39.788  1.00  0.00    -0.200 F 
ATOM     65  F   UNL A   1      39.249  36.287  39.874  1.00  0.00    -0.200 F 
ENDBRANCH  41  55
BRANCH  42  66
ATOM     66  C   UNL A   1      40.683  27.969  28.544  1.00  0.00     0.064 A 
ATOM     67  C   UNL A   1      41.452  28.407  27.457  1.00  0.00     0.173 A 
ATOM     68  C   UNL A   1      40.061  26.716  28.438  1.00  0.00     0.173 A 
ATOM     69  F   UNL A   1      42.050  29.607  27.500  1.00  0.00    -0.203 F 
ATOM     70  C   UNL A   1      41.573  27.636  26.302  1.00  0.00     0.198 A 
ATOM     71  C   UNL A   1      40.210  25.931  27.296  1.00  0.00     0.198 A 
ATOM     72  F   UNL A   1      39.317  26.247  29.450  1.00  0.00    -0.203 F 
ATOM     73  F   UNL A   1      42.271  28.104  25.258  1.00  0.00    -0.200 F 
ATOM     74  C   UNL A   1      40.958  26.397  26.225  1.00  0.00     0.200 A 
ATOM     75  F   UNL A   1      39.627  24.726  27.233  1.00  0.00    -0.200 F 
ATOM     76  F   UNL A   1      41.078  25.654  25.116  1.00  0.00    -0.200 F 
ENDBRANCH  42  66
BRANCH  54  77
ATOM     77  C   UNL A   1      44.048  28.264  34.641  1.00  0.00     0.064 A 
ATOM     78  C   UNL A   1      45.383  28.676  34.517  1.00  0.00     0.173 A 
ATOM     79  C   UNL A   1      43.791  27.083  35.355  1.00  0.00     0.173 A 
ATOM     80  F   UNL A   1      45.686  29.789  33.832  1.00  0.00    -0.203 F 
ATOM     81  C   UNL A   1      46.420  27.920  35.059  1.00  0.00     0.198 A 
ATOM     82  C   UNL A   1      44.826  26.349  35.926  1.00  0.00     0.198 A 
ATOM     83  F   UNL A   1      42.532  26.647  35.510  1.00  0.00    -0.203 F 
ATOM     84  F   UNL A   1      47.692  28.304  34.881  1.00  0.00    -0.200 F 
ATOM     85  C   UNL A   1      46.140  26.763  35.770  1.00  0.00     0.200 A 
ATOM     86  F   UNL A   1      44.552  25.240  36.627  1.00  0.00    -0.200 F 
ATOM     87  F   UNL A   1      47.138  26.041  36.298  1.00  0.00    -0.200 F 
ENDBRANCH  54  77
ENDBRANCH  28  29
ENDBRANCH  20  23
ENDBRANCH  18  19
ENDBRANCH  17  18
ENDBRANCH   1  17
TORSDOF 13
ENDMDL
MODEL 3
REMARK VINA RESULT:     -11.7      1.435      2.747
REMARK SMILES O=C(CCNC(=O)C1CCCC1)NCCCNC(=O)c1ccc(-c2c3nc(c(-c4c(F)c(F)c(F)c(F)c4F)c4ccc([nH]4)c(-c4c(F)c(F)c(F)c(F)c4F)c4nc(c(-c5c(F)c(F)c(F)c(F)c5F)c5ccc2[nH]5)C=C4)C=C3)cc1
REMARK SMILES IDX 14 1 13 2 1 3 2 4 3 6 4 7 5 8 6 9 7 11 8 12 9 13 12 14 10 15
REMARK SMILES IDX 11 16 15 17 16 18 17 19 18 20 19 22 20 23 21 24 82 25 22 26
REMARK SMILES IDX 81 27 23 28 24 29 25 30 75 31 26 32 80 33 74 34 76 35 27 36
REMARK SMILES IDX 79 37 73 38 72 39 28 41 60 42 40 43 59 44 41 45 44 46 58 47
REMARK SMILES IDX 77 48 42 49 43 50 57 52 78 53 45 54 29 55 30 56 38 57 31 58
REMARK SMILES IDX 32 59 36 60 39 61 33 62 34 63 37 64 35 65 61 66 62 67 70 68
REMARK SMILES IDX 63 69 64 70 68 71 71 72 65 73 66 74 69 75 67 76 46 77 47 78
REMARK SMILES IDX 55 79 48 80 49 81 53 82 56 83 50 84 51 85 54 86 52 87
REMARK H PARENT 13 5 5 10 17 21 76 40 44 51
REMARK Flexibility Score: inf
ROOT
ATOM      1  C   UNL A   1      31.753  30.558  26.398  1.00  0.00     0.117 C 
ENDROOT
BRANCH   1   2
ATOM      2  N   UNL A   1      31.526  30.238  25.003  1.00  0.00    -0.356 N 
ATOM      3  O   UNL A   1      31.474  27.953  25.259  1.00  0.00    -0.275 OA
ATOM      4  C   UNL A   1      31.357  28.948  24.554  1.00  0.00     0.221 C 
ATOM      5  H   UNL A   1      31.491  30.973  24.350  1.00  0.00     0.163 HD
BRANCH   4   6
ATOM      6  C   UNL A   1      30.976  28.861  23.095  1.00  0.00     0.121 C 
BRANCH   6   7
ATOM      7  C   UNL A   1      30.633  27.422  22.715  1.00  0.00     0.125 C 
BRANCH   7   8
ATOM      8  N   UNL A   1      31.504  26.919  21.656  1.00  0.00    -0.355 N 
ATOM      9  C   UNL A   1      32.523  26.020  21.671  1.00  0.00     0.223 C 
ATOM     10  H   UNL A   1      31.317  27.301  20.768  1.00  0.00     0.163 HD
ATOM     11  O   UNL A   1      33.204  25.936  20.646  1.00  0.00    -0.275 OA
BRANCH   9  12
ATOM     12  C   UNL A   1      32.807  25.118  22.863  1.00  0.00     0.078 C 
ATOM     13  C   UNL A   1      33.289  23.712  22.537  1.00  0.00     0.013 C 
ATOM     14  C   UNL A   1      33.837  25.714  23.821  1.00  0.00     0.013 C 
ATOM     15  C   UNL A   1      34.069  23.273  23.765  1.00  0.00     0.001 C 
ATOM     16  C   UNL A   1      34.609  24.541  24.411  1.00  0.00     0.001 C 
ENDBRANCH   9  12
ENDBRANCH   7   8
ENDBRANCH   6   7
ENDBRANCH   4   6
ENDBRANCH   1   2
BRANCH   1  17
ATOM     17  C   UNL A   1      31.495  32.027  26.703  1.00  0.00     0.042 C 
BRANCH  17  18
ATOM     18  C   UNL A   1      32.715  32.792  27.205  1.00  0.00     0.118 C 
BRANCH  18  19
ATOM     19  N   UNL A   1      32.416  34.163  27.597  1.00  0.00    -0.352 N 
ATOM     20  C   UNL A   1      32.987  34.945  28.571  1.00  0.00     0.251 C 
ATOM     21  H   UNL A   1      31.694  34.595  27.085  1.00  0.00     0.163 HD
ATOM     22  O   UNL A   1      32.492  36.037  28.844  1.00  0.00    -0.269 OA
BRANCH  20  23
ATOM     23  C   UNL A   1      34.169  34.469  29.324  1.00  0.00     0.039 A 
ATOM     24  C   UNL A   1      33.970  33.866  30.568  1.00  0.00     0.014 A 
ATOM     25  C   UNL A   1      35.463  34.610  28.817  1.00  0.00     0.014 A 
ATOM     26  C   UNL A   1      35.058  33.335  31.265  1.00  0.00     0.010 A 
ATOM     27  C   UNL A   1      36.535  34.007  29.472  1.00  0.00     0.010 A 
ATOM     28  C   UNL A   1      36.344  33.357  30.700  1.00  0.00    -0.014 A 
BRANCH  28  29
ATOM     29  C   UNL A   1      37.487  32.684  31.372  1.00  0.00     0.031 A 
ATOM     30  C   UNL A   1      38.198  31.538  30.708  1.00  0.00     0.074 A 
ATOM     31  C   UNL A   1      37.849  33.071  32.611  1.00  0.00     0.049 A 
ATOM     32  N   UNL A   1      39.183  30.800  31.161  1.00  0.00    -0.248 NA
ATOM     33  C   UNL A   1      37.729  31.153  29.369  1.00  0.00     0.031 C 
ATOM     34  C   UNL A   1      37.207  34.136  33.384  1.00  0.00     0.029 A 
ATOM     35  N   UNL A   1      38.837  32.607  33.444  1.00  0.00    -0.354 N 
ATOM     36  C   UNL A   1      39.440  29.863  30.169  1.00  0.00     0.074 A 
ATOM     37  C   UNL A   1      38.473  30.087  29.116  1.00  0.00     0.031 C 
ATOM     38  C   UNL A   1      37.835  34.264  34.563  1.00  0.00     0.029 A 
ATOM     39  C   UNL A   1      38.892  33.261  34.651  1.00  0.00     0.049 A 
ATOM     40  H   UNL A   1      39.449  31.876  33.200  1.00  0.00     0.167 HD
ATOM     41  C   UNL A   1      40.410  28.917  30.130  1.00  0.00     0.037 A 
ATOM     42  C   UNL A   1      39.697  33.070  35.714  1.00  0.00     0.037 A 
ATOM     43  C   UNL A   1      41.380  28.705  31.174  1.00  0.00     0.049 A 
ATOM     44  C   UNL A   1      40.752  31.998  35.653  1.00  0.00     0.074 A 
ATOM     45  C   UNL A   1      42.435  27.811  31.202  1.00  0.00     0.029 A 
ATOM     46  N   UNL A   1      41.406  29.392  32.380  1.00  0.00    -0.354 N 
ATOM     47  N   UNL A   1      41.034  31.167  34.680  1.00  0.00    -0.248 NA
ATOM     48  C   UNL A   1      41.604  31.841  36.840  1.00  0.00     0.031 C 
ATOM     49  C   UNL A   1      43.063  27.913  32.448  1.00  0.00     0.029 A 
ATOM     50  C   UNL A   1      42.443  28.918  33.171  1.00  0.00     0.049 A 
ATOM     51  H   UNL A   1      40.782  30.108  32.637  1.00  0.00     0.167 HD
ATOM     52  C   UNL A   1      42.113  30.414  35.120  1.00  0.00     0.074 A 
ATOM     53  C   UNL A   1      42.446  30.897  36.444  1.00  0.00     0.031 C 
ATOM     54  C   UNL A   1      42.770  29.410  34.486  1.00  0.00     0.037 A 
BRANCH  41  55
ATOM     55  C   UNL A   1      40.472  28.032  28.917  1.00  0.00     0.064 A 
ATOM     56  C   UNL A   1      39.752  26.830  28.843  1.00  0.00     0.173 A 
ATOM     57  C   UNL A   1      41.224  28.414  27.795  1.00  0.00     0.173 A 
ATOM     58  F   UNL A   1      39.023  26.413  29.889  1.00  0.00    -0.203 F 
ATOM     59  C   UNL A   1      39.809  26.027  27.706  1.00  0.00     0.198 A 
ATOM     60  C   UNL A   1      41.251  27.626  26.646  1.00  0.00     0.198 A 
ATOM     61  F   UNL A   1      41.924  29.558  27.806  1.00  0.00    -0.203 F 
ATOM     62  F   UNL A   1      39.155  24.857  27.680  1.00  0.00    -0.200 F 
ATOM     63  C   UNL A   1      40.552  26.429  26.607  1.00  0.00     0.200 A 
ATOM     64  F   UNL A   1      41.955  28.025  25.578  1.00  0.00    -0.200 F 
ATOM     65  F   UNL A   1      40.597  25.661  25.509  1.00  0.00    -0.200 F 
ENDBRANCH  41  55
BRANCH  42  66
ATOM     66  C   UNL A   1      39.550  33.924  36.923  1.00  0.00     0.064 A 
ATOM     67  C   UNL A   1      38.787  33.498  38.019  1.00  0.00     0.173 A 
ATOM     68  C   UNL A   1      40.156  35.187  37.003  1.00  0.00     0.173 A 
ATOM     69  F   UNL A   1      38.169  32.308  37.983  1.00  0.00    -0.203 F 
ATOM     70  C   UNL A   1      38.616  34.312  39.137  1.00  0.00     0.198 A 
ATOM     71  C   UNL A   1      40.012  35.985  38.135  1.00  0.00     0.198 A 
ATOM     72  F   UNL A   1      40.900  35.640  35.984  1.00  0.00    -0.203 F 
ATOM     73  F   UNL A   1      37.838  33.901  40.148  1.00  0.00    -0.200 F 
ATOM     74  C   UNL A   1      39.233  35.551  39.197  1.00  0.00     0.200 A 
ATOM     75  F   UNL A   1      40.624  37.175  38.196  1.00  0.00    -0.200 F 
ATOM     76  F   UNL A   1      39.071  36.332  40.275  1.00  0.00    -0.200 F 
ENDBRANCH  42  66
BRANCH  54  77
ATOM     77  C   UNL A   1      43.941  28.794  35.195  1.00  0.00     0.064 A 
ATOM     78  C   UNL A   1      45.248  29.274  35.021  1.00  0.00     0.173 A 
ATOM     79  C   UNL A   1      43.749  27.729  36.089  1.00  0.00     0.173 A 
ATOM     80  F   UNL A   1      45.491  30.280  34.168  1.00  0.00    -0.203 F 
ATOM     81  C   UNL A   1      46.321  28.690  35.690  1.00  0.00     0.198 A 
ATOM     82  C   UNL A   1      44.818  27.171  36.782  1.00  0.00     0.198 A 
ATOM     83  F   UNL A   1      42.519  27.235  36.298  1.00  0.00    -0.203 F 
ATOM     84  F   UNL A   1      47.568  29.128  35.466  1.00  0.00    -0.200 F 
ATOM     85  C   UNL A   1      46.104  27.645  36.576  1.00  0.00     0.200 A 
ATOM     86  F   UNL A   1      44.605  26.172  37.651  1.00  0.00    -0.200 F 
ATOM     87  F   UNL A   1      47.137  27.090  37.225  1.00  0.00    -0.200 F 
ENDBRANCH  54  77
ENDBRANCH  28  29
ENDBRANCH  20  23
ENDBRANCH  18  19
ENDBRANCH  17  18
ENDBRANCH   1  17
TORSDOF 13
ENDMDL
