MODEL 1
REMARK VINA RESULT:     -11.7      0.000      0.000
REMARK SMILES CC(C)[C@H](C[NH+](C)C)NC(=O)c1csc(/C=C/C(=O)NCCCNC(=O)c2ccc(-c3c4nc(c(-c5c(F)c(F)c(F)c(F)c5F)c5ccc([nH]5)c(-c5c(F)c(F)c(F)c(F)c5F)c5nc(c(-c6c(F)c(F)c(F)c(F)c6F)c6ccc3[nH]6)C=C5)C=C4)cc2)c1
REMARK SMILES IDX 18 1 19 2 20 3 17 5 16 6 15 7 12 8 13 9 90 10 14 11 10 12
REMARK SMILES IDX 9 13 11 15 4 16 2 17 1 18 3 19 5 20 6 21 7 22 8 23 21 25
REMARK SMILES IDX 22 26 23 27 24 28 25 29 26 31 27 32 28 33 89 34 29 35 88 36
REMARK SMILES IDX 30 37 31 38 32 39 82 40 33 41 87 42 81 43 83 44 34 45 86 46
REMARK SMILES IDX 80 47 79 48 35 50 67 51 47 52 66 53 48 54 51 55 65 56 84 57
REMARK SMILES IDX 49 58 50 59 64 61 85 62 52 63 36 64 37 65 45 66 38 67 39 68
REMARK SMILES IDX 43 69 46 70 40 71 41 72 44 73 42 74 68 75 69 76 77 77 70 78
REMARK SMILES IDX 71 79 75 80 78 81 72 82 73 83 76 84 74 85 53 86 54 87 62 88
REMARK SMILES IDX 55 89 56 90 60 91 63 92 57 93 58 94 61 95 59 96
REMARK H PARENT 20 4 9 14 6 24 24 30 83 49 51 60
REMARK Flexibility Score: inf
ROOT
ATOM      1  C   UNL A   1      33.760  29.290  27.072  1.00  0.00     0.244 C 
ATOM      2  O   UNL A   1      34.980  29.237  27.207  1.00  0.00    -0.270 OA
ATOM      3  N   UNL A   1      33.140  30.499  27.042  1.00  0.00    -0.352 N 
ATOM      4  H   UNL A   1      33.728  31.267  27.228  1.00  0.00     0.163 HD
ENDROOT
BRANCH   1   5
ATOM      5  C   UNL A   1      32.997  28.043  26.855  1.00  0.00     0.072 C 
ATOM      6  C   UNL A   1      32.764  27.531  25.640  1.00  0.00     0.024 C 
BRANCH   6   7
ATOM      7  C   UNL A   1      32.041  26.323  25.414  1.00  0.00     0.028 A 
ATOM      8  C   UNL A   1      31.024  24.236  25.846  1.00  0.00     0.051 A 
ATOM      9  C   UNL A   1      30.888  24.331  24.478  1.00  0.00     0.079 A 
ATOM     10  C   UNL A   1      31.641  25.414  26.379  1.00  0.00     0.033 A 
ATOM     11  S   UNL A   1      31.579  25.762  23.853  1.00  0.00    -0.144 S 
BRANCH   8  12
ATOM     12  C   UNL A   1      30.605  23.093  26.646  1.00  0.00     0.252 C 
ATOM     13  N   UNL A   1      31.381  21.961  26.593  1.00  0.00    -0.343 N 
ATOM     14  H   UNL A   1      31.065  21.205  27.137  1.00  0.00     0.164 HD
ATOM     15  O   UNL A   1      29.652  23.159  27.413  1.00  0.00    -0.269 OA
BRANCH  13  16
ATOM     16  C   UNL A   1      32.618  21.724  25.836  1.00  0.00     0.139 C 
BRANCH  16  17
ATOM     17  C   UNL A   1      32.275  20.816  24.616  1.00  0.00     0.011 C 
ATOM     18  C   UNL A   1      32.560  21.537  23.297  1.00  0.00     0.010 C 
ATOM     19  C   UNL A   1      32.944  19.439  24.619  1.00  0.00     0.010 C 
ENDBRANCH  16  17
BRANCH  16  20
ATOM     20  C   UNL A   1      33.819  21.268  26.735  1.00  0.00     0.287 C 
BRANCH  20  21
ATOM     21  N   UNL A   1      35.045  22.100  26.693  1.00  0.00    -0.338 N 
ATOM     22  C   UNL A   1      36.023  21.510  25.772  1.00  0.00     0.332 C 
ATOM     23  C   UNL A   1      34.753  23.466  26.236  1.00  0.00     0.332 C 
ATOM     24  H   UNL A   1      35.418  22.137  27.642  1.00  0.00     0.347 HD
ENDBRANCH  20  21
ENDBRANCH  16  20
ENDBRANCH  13  16
ENDBRANCH   8  12
ENDBRANCH   6   7
ENDBRANCH   1   5
BRANCH   3  25
ATOM     25  C   UNL A   1      31.752  30.851  26.784  1.00  0.00     0.118 C 
BRANCH  25  26
ATOM     26  C   UNL A   1      31.532  32.359  26.875  1.00  0.00     0.042 C 
BRANCH  26  27
ATOM     27  C   UNL A   1      32.816  33.152  27.111  1.00  0.00     0.118 C 
BRANCH  27  28
ATOM     28  N   UNL A   1      32.558  34.443  27.733  1.00  0.00    -0.352 N 
ATOM     29  C   UNL A   1      33.098  35.007  28.863  1.00  0.00     0.251 C 
ATOM     30  H   UNL A   1      31.892  34.999  27.271  1.00  0.00     0.163 HD
ATOM     31  O   UNL A   1      32.593  36.024  29.328  1.00  0.00    -0.269 OA
BRANCH  29  32
ATOM     32  C   UNL A   1      34.272  34.404  29.532  1.00  0.00     0.039 A 
ATOM     33  C   UNL A   1      34.066  33.651  30.692  1.00  0.00     0.014 A 
ATOM     34  C   UNL A   1      35.572  34.625  29.067  1.00  0.00     0.014 A 
ATOM     35  C   UNL A   1      35.155  33.081  31.357  1.00  0.00     0.010 A 
ATOM     36  C   UNL A   1      36.651  34.007  29.696  1.00  0.00     0.010 A 
ATOM     37  C   UNL A   1      36.455  33.234  30.850  1.00  0.00    -0.014 A 
BRANCH  37  38
ATOM     38  C   UNL A   1      37.619  32.598  31.517  1.00  0.00     0.031 A 
ATOM     39  C   UNL A   1      38.336  31.452  30.860  1.00  0.00     0.074 A 
ATOM     40  C   UNL A   1      37.989  33.010  32.745  1.00  0.00     0.049 A 
ATOM     41  N   UNL A   1      39.313  30.712  31.322  1.00  0.00    -0.248 NA
ATOM     42  C   UNL A   1      37.877  31.073  29.516  1.00  0.00     0.031 C 
ATOM     43  C   UNL A   1      37.348  34.085  33.503  1.00  0.00     0.029 A 
ATOM     44  N   UNL A   1      38.987  32.564  33.575  1.00  0.00    -0.354 N 
ATOM     45  C   UNL A   1      39.572  29.771  30.334  1.00  0.00     0.074 A 
ATOM     46  C   UNL A   1      38.623  30.006  29.267  1.00  0.00     0.031 C 
ATOM     47  C   UNL A   1      37.972  34.220  34.684  1.00  0.00     0.029 A 
ATOM     48  C   UNL A   1      39.034  33.223  34.779  1.00  0.00     0.049 A 
ATOM     49  H   UNL A   1      39.608  31.840  33.332  1.00  0.00     0.167 HD
ATOM     50  C   UNL A   1      40.530  28.812  30.309  1.00  0.00     0.037 A 
ATOM     51  C   UNL A   1      39.837  33.037  35.844  1.00  0.00     0.037 A 
ATOM     52  C   UNL A   1      41.489  28.597  31.360  1.00  0.00     0.049 A 
ATOM     53  C   UNL A   1      40.898  31.974  35.789  1.00  0.00     0.074 A 
ATOM     54  C   UNL A   1      42.529  27.683  31.409  1.00  0.00     0.029 A 
ATOM     55  N   UNL A   1      41.527  29.308  32.552  1.00  0.00    -0.354 N 
ATOM     56  N   UNL A   1      41.168  31.123  34.828  1.00  0.00    -0.248 NA
ATOM     57  C   UNL A   1      41.772  31.848  36.964  1.00  0.00     0.031 C 
ATOM     58  C   UNL A   1      43.174  27.819  32.642  1.00  0.00     0.029 A 
ATOM     59  C   UNL A   1      42.564  28.844  33.346  1.00  0.00     0.049 A 
ATOM     60  H   UNL A   1      40.909  30.034  32.796  1.00  0.00     0.167 HD
ATOM     61  C   UNL A   1      42.252  30.379  35.270  1.00  0.00     0.074 A 
ATOM     62  C   UNL A   1      42.601  30.887  36.581  1.00  0.00     0.031 C 
ATOM     63  C   UNL A   1      42.899  29.364  34.647  1.00  0.00     0.037 A 
BRANCH  50  64
ATOM     64  C   UNL A   1      40.587  27.923  29.102  1.00  0.00     0.064 A 
ATOM     65  C   UNL A   1      39.799  26.766  29.006  1.00  0.00     0.173 A 
ATOM     66  C   UNL A   1      41.415  28.244  28.017  1.00  0.00     0.173 A 
ATOM     67  F   UNL A   1      39.000  26.408  30.022  1.00  0.00    -0.203 F 
ATOM     68  C   UNL A   1      39.861  25.947  27.881  1.00  0.00     0.198 A 
ATOM     69  C   UNL A   1      41.453  27.438  26.881  1.00  0.00     0.198 A 
ATOM     70  F   UNL A   1      42.183  29.343  28.053  1.00  0.00    -0.203 F 
ATOM     71  F   UNL A   1      39.136  24.821  27.833  1.00  0.00    -0.200 F 
ATOM     72  C   UNL A   1      40.683  26.287  26.818  1.00  0.00     0.200 A 
ATOM     73  F   UNL A   1      42.239  27.774  25.848  1.00  0.00    -0.200 F 
ATOM     74  F   UNL A   1      40.738  25.501  25.733  1.00  0.00    -0.200 F 
ENDBRANCH  50  64
BRANCH  51  75
ATOM     75  C   UNL A   1      39.678  33.898  37.044  1.00  0.00     0.064 A 
ATOM     76  C   UNL A   1      40.297  35.153  37.115  1.00  0.00     0.173 A 
ATOM     77  C   UNL A   1      38.899  33.489  38.135  1.00  0.00     0.173 A 
ATOM     78  F   UNL A   1      41.069  35.577  36.104  1.00  0.00    -0.203 F 
ATOM     79  C   UNL A   1      40.154  35.962  38.240  1.00  0.00     0.198 A 
ATOM     80  C   UNL A   1      38.735  34.310  39.249  1.00  0.00     0.198 A 
ATOM     81  F   UNL A   1      38.281  32.298  38.112  1.00  0.00    -0.203 F 
ATOM     82  F   UNL A   1      40.786  37.142  38.299  1.00  0.00    -0.200 F 
ATOM     83  C   UNL A   1      39.367  35.542  39.303  1.00  0.00     0.200 A 
ATOM     84  F   UNL A   1      37.963  33.907  40.268  1.00  0.00    -0.200 F 
ATOM     85  F   UNL A   1      39.224  36.324  40.382  1.00  0.00    -0.200 F 
ENDBRANCH  51  75
BRANCH  63  86
ATOM     86  C   UNL A   1      44.067  28.754  35.363  1.00  0.00     0.064 A 
ATOM     87  C   UNL A   1      45.372  29.231  35.178  1.00  0.00     0.173 A 
ATOM     88  C   UNL A   1      43.872  27.704  36.273  1.00  0.00     0.173 A 
ATOM     89  F   UNL A   1      45.611  30.222  34.305  1.00  0.00    -0.203 F 
ATOM     90  C   UNL A   1      46.444  28.665  35.863  1.00  0.00     0.198 A 
ATOM     91  C   UNL A   1      44.942  27.158  36.975  1.00  0.00     0.198 A 
ATOM     92  F   UNL A   1      42.641  27.216  36.488  1.00  0.00    -0.203 F 
ATOM     93  F   UNL A   1      47.689  29.109  35.639  1.00  0.00    -0.200 F 
ATOM     94  C   UNL A   1      46.228  27.634  36.765  1.00  0.00     0.200 A 
ATOM     95  F   UNL A   1      44.731  26.169  37.855  1.00  0.00    -0.200 F 
ATOM     96  F   UNL A   1      47.260  27.095  37.428  1.00  0.00    -0.200 F 
ENDBRANCH  63  86
ENDBRANCH  37  38
ENDBRANCH  29  32
ENDBRANCH  27  28
ENDBRANCH  26  27
ENDBRANCH  25  26
ENDBRANCH   3  25
TORSDOF 16
ENDMDL
MODEL 2
REMARK VINA RESULT:     -11.6      5.337     10.654
REMARK SMILES CC(C)[C@H](C[NH+](C)C)NC(=O)c1csc(/C=C/C(=O)NCCCNC(=O)c2ccc(-c3c4nc(c(-c5c(F)c(F)c(F)c(F)c5F)c5ccc([nH]5)c(-c5c(F)c(F)c(F)c(F)c5F)c5nc(c(-c6c(F)c(F)c(F)c(F)c6F)c6ccc3[nH]6)C=C5)C=C4)cc2)c1
REMARK SMILES IDX 18 1 19 2 20 3 17 5 16 6 15 7 12 8 13 9 90 10 14 11 10 12
REMARK SMILES IDX 9 13 11 15 4 16 2 17 1 18 3 19 5 20 6 21 7 22 8 23 21 25
REMARK SMILES IDX 22 26 23 27 24 28 25 29 26 31 27 32 28 33 89 34 29 35 88 36
REMARK SMILES IDX 30 37 31 38 32 39 82 40 33 41 87 42 81 43 83 44 34 45 86 46
REMARK SMILES IDX 80 47 79 48 35 50 67 51 47 52 66 53 48 54 51 55 65 56 84 57
REMARK SMILES IDX 49 58 50 59 64 61 85 62 52 63 36 64 37 65 45 66 38 67 39 68
REMARK SMILES IDX 43 69 46 70 40 71 41 72 44 73 42 74 68 75 69 76 77 77 70 78
REMARK SMILES IDX 71 79 75 80 78 81 72 82 73 83 76 84 74 85 53 86 54 87 62 88
REMARK SMILES IDX 55 89 56 90 60 91 63 92 57 93 58 94 61 95 59 96
REMARK H PARENT 20 4 9 14 6 24 24 30 83 49 51 60
REMARK Flexibility Score: inf
ROOT
ATOM      1  C   UNL A   1      37.680  23.262  25.750  1.00  0.00     0.244 C 
ATOM      2  O   UNL A   1      38.405  24.115  26.257  1.00  0.00    -0.270 OA
ATOM      3  N   UNL A   1      38.224  22.099  25.303  1.00  0.00    -0.352 N 
ATOM      4  H   UNL A   1      39.207  22.064  25.341  1.00  0.00     0.163 HD
ENDROOT
BRANCH   1   5
ATOM      5  C   UNL A   1      36.218  23.478  25.712  1.00  0.00     0.072 C 
ATOM      6  C   UNL A   1      35.598  24.097  24.699  1.00  0.00     0.024 C 
BRANCH   6   7
ATOM      7  C   UNL A   1      34.188  24.302  24.640  1.00  0.00     0.028 A 
ATOM      8  C   UNL A   1      32.005  24.893  25.319  1.00  0.00     0.051 A 
ATOM      9  C   UNL A   1      31.765  24.317  24.090  1.00  0.00     0.079 A 
ATOM     10  C   UNL A   1      33.410  24.928  25.599  1.00  0.00     0.033 A 
ATOM     11  S   UNL A   1      33.194  23.747  23.349  1.00  0.00    -0.144 S 
BRANCH   8  12
ATOM     12  C   UNL A   1      30.974  25.395  26.218  1.00  0.00     0.252 C 
ATOM     13  N   UNL A   1      30.897  26.754  26.398  1.00  0.00    -0.343 N 
ATOM     14  H   UNL A   1      30.197  27.061  27.018  1.00  0.00     0.164 HD
ATOM     15  O   UNL A   1      30.144  24.652  26.725  1.00  0.00    -0.269 OA
BRANCH  13  16
ATOM     16  C   UNL A   1      31.716  27.815  25.792  1.00  0.00     0.139 C 
BRANCH  16  17
ATOM     17  C   UNL A   1      32.367  28.642  26.941  1.00  0.00     0.011 C 
ATOM     18  C   UNL A   1      33.885  28.449  26.965  1.00  0.00     0.010 C 
ATOM     19  C   UNL A   1      32.026  30.134  26.946  1.00  0.00     0.010 C 
ENDBRANCH  16  17
BRANCH  16  20
ATOM     20  C   UNL A   1      30.959  28.628  24.685  1.00  0.00     0.287 C 
BRANCH  20  21
ATOM     21  N   UNL A   1      31.414  28.442  23.285  1.00  0.00    -0.338 N 
ATOM     22  C   UNL A   1      32.792  27.938  23.268  1.00  0.00     0.332 C 
ATOM     23  C   UNL A   1      30.566  27.481  22.567  1.00  0.00     0.332 C 
ATOM     24  H   UNL A   1      31.354  29.351  22.825  1.00  0.00     0.347 HD
ENDBRANCH  20  21
ENDBRANCH  16  20
ENDBRANCH  13  16
ENDBRANCH   8  12
ENDBRANCH   6   7
ENDBRANCH   1   5
BRANCH   3  25
ATOM     25  C   UNL A   1      37.597  20.897  24.777  1.00  0.00     0.118 C 
BRANCH  25  26
ATOM     26  C   UNL A   1      38.488  19.672  24.972  1.00  0.00     0.042 C 
BRANCH  26  27
ATOM     27  C   UNL A   1      39.451  19.797  26.151  1.00  0.00     0.118 C 
BRANCH  27  28
ATOM     28  N   UNL A   1      40.663  19.014  25.954  1.00  0.00    -0.352 N 
ATOM     29  C   UNL A   1      41.979  19.405  25.943  1.00  0.00     0.251 C 
ATOM     30  H   UNL A   1      40.516  18.053  25.807  1.00  0.00     0.163 HD
ATOM     31  O   UNL A   1      42.838  18.618  25.558  1.00  0.00    -0.269 OA
BRANCH  29  32
ATOM     32  C   UNL A   1      42.378  20.762  26.378  1.00  0.00     0.039 A 
ATOM     33  C   UNL A   1      42.376  21.053  27.747  1.00  0.00     0.014 A 
ATOM     34  C   UNL A   1      42.690  21.763  25.454  1.00  0.00     0.014 A 
ATOM     35  C   UNL A   1      42.732  22.329  28.190  1.00  0.00     0.010 A 
ATOM     36  C   UNL A   1      43.104  23.018  25.900  1.00  0.00     0.010 A 
ATOM     37  C   UNL A   1      43.123  23.315  27.271  1.00  0.00    -0.014 A 
BRANCH  37  38
ATOM     38  C   UNL A   1      43.549  24.663  27.726  1.00  0.00     0.031 A 
ATOM     39  C   UNL A   1      42.523  25.706  28.071  1.00  0.00     0.074 A 
ATOM     40  C   UNL A   1      44.860  24.969  27.764  1.00  0.00     0.049 A 
ATOM     41  N   UNL A   1      42.695  26.962  28.399  1.00  0.00    -0.248 NA
ATOM     42  C   UNL A   1      41.114  25.287  28.015  1.00  0.00     0.031 C 
ATOM     43  C   UNL A   1      45.949  24.057  27.415  1.00  0.00     0.029 A 
ATOM     44  N   UNL A   1      45.497  26.137  28.102  1.00  0.00    -0.354 N 
ATOM     45  C   UNL A   1      41.421  27.485  28.572  1.00  0.00     0.074 A 
ATOM     46  C   UNL A   1      40.484  26.424  28.270  1.00  0.00     0.031 C 
ATOM     47  C   UNL A   1      47.120  24.697  27.563  1.00  0.00     0.029 A 
ATOM     48  C   UNL A   1      46.863  26.070  27.986  1.00  0.00     0.049 A 
ATOM     49  H   UNL A   1      45.019  26.946  28.397  1.00  0.00     0.167 HD
ATOM     50  C   UNL A   1      41.064  28.731  28.968  1.00  0.00     0.037 A 
ATOM     51  C   UNL A   1      47.803  27.013  28.189  1.00  0.00     0.037 A 
ATOM     52  C   UNL A   1      41.998  29.777  29.292  1.00  0.00     0.049 A 
ATOM     53  C   UNL A   1      47.384  28.386  28.636  1.00  0.00     0.074 A 
ATOM     54  C   UNL A   1      41.738  31.059  29.749  1.00  0.00     0.029 A 
ATOM     55  N   UNL A   1      43.378  29.661  29.195  1.00  0.00    -0.354 N 
ATOM     56  N   UNL A   1      46.177  28.855  28.845  1.00  0.00    -0.248 NA
ATOM     57  C   UNL A   1      48.456  29.359  28.883  1.00  0.00     0.031 C 
ATOM     58  C   UNL A   1      42.958  31.727  29.896  1.00  0.00     0.029 A 
ATOM     59  C   UNL A   1      43.980  30.852  29.571  1.00  0.00     0.049 A 
ATOM     60  H   UNL A   1      43.857  28.853  28.903  1.00  0.00     0.167 HD
ATOM     61  C   UNL A   1      46.345  30.165  29.269  1.00  0.00     0.074 A 
ATOM     62  C   UNL A   1      47.772  30.415  29.300  1.00  0.00     0.031 C 
ATOM     63  C   UNL A   1      45.402  31.081  29.600  1.00  0.00     0.037 A 
BRANCH  50  64
ATOM     64  C   UNL A   1      39.598  29.030  29.074  1.00  0.00     0.064 A 
ATOM     65  C   UNL A   1      38.839  29.385  27.948  1.00  0.00     0.173 A 
ATOM     66  C   UNL A   1      38.936  28.934  30.307  1.00  0.00     0.173 A 
ATOM     67  F   UNL A   1      39.427  29.503  26.748  1.00  0.00    -0.203 F 
ATOM     68  C   UNL A   1      37.479  29.661  28.059  1.00  0.00     0.198 A 
ATOM     69  C   UNL A   1      37.569  29.183  30.408  1.00  0.00     0.198 A 
ATOM     70  F   UNL A   1      39.613  28.593  31.413  1.00  0.00    -0.203 F 
ATOM     71  F   UNL A   1      36.785  30.045  26.978  1.00  0.00    -0.200 F 
ATOM     72  C   UNL A   1      36.844  29.554  29.287  1.00  0.00     0.200 A 
ATOM     73  F   UNL A   1      36.955  29.069  31.594  1.00  0.00    -0.200 F 
ATOM     74  F   UNL A   1      35.533  29.816  29.390  1.00  0.00    -0.200 F 
ENDBRANCH  50  64
BRANCH  51  75
ATOM     75  C   UNL A   1      49.236  26.679  27.988  1.00  0.00     0.064 A 
ATOM     76  C   UNL A   1      50.066  26.395  29.081  1.00  0.00     0.173 A 
ATOM     77  C   UNL A   1      49.799  26.626  26.705  1.00  0.00     0.173 A 
ATOM     78  F   UNL A   1      49.577  26.454  30.327  1.00  0.00    -0.203 F 
ATOM     79  C   UNL A   1      51.412  26.084  28.898  1.00  0.00     0.198 A 
ATOM     80  C   UNL A   1      51.139  26.290  26.522  1.00  0.00     0.198 A 
ATOM     81  F   UNL A   1      49.043  26.884  25.628  1.00  0.00    -0.203 F 
ATOM     82  F   UNL A   1      52.194  25.853  29.961  1.00  0.00    -0.200 F 
ATOM     83  C   UNL A   1      51.945  26.025  27.619  1.00  0.00     0.200 A 
ATOM     84  F   UNL A   1      51.647  26.220  25.284  1.00  0.00    -0.200 F 
ATOM     85  F   UNL A   1      53.238  25.719  27.443  1.00  0.00    -0.200 F 
ENDBRANCH  51  75
BRANCH  63  86
ATOM     86  C   UNL A   1      45.883  32.428  30.050  1.00  0.00     0.064 A 
ATOM     87  C   UNL A   1      46.055  33.486  29.146  1.00  0.00     0.173 A 
ATOM     88  C   UNL A   1      46.139  32.673  31.408  1.00  0.00     0.173 A 
ATOM     89  F   UNL A   1      45.838  33.296  27.836  1.00  0.00    -0.203 F 
ATOM     90  C   UNL A   1      46.485  34.736  29.583  1.00  0.00     0.198 A 
ATOM     91  C   UNL A   1      46.545  33.931  31.844  1.00  0.00     0.198 A 
ATOM     92  F   UNL A   1      45.986  31.694  32.312  1.00  0.00    -0.203 F 
ATOM     93  F   UNL A   1      46.682  35.722  28.696  1.00  0.00    -0.200 F 
ATOM     94  C   UNL A   1      46.724  34.959  30.930  1.00  0.00     0.200 A 
ATOM     95  F   UNL A   1      46.765  34.148  33.148  1.00  0.00    -0.200 F 
ATOM     96  F   UNL A   1      47.132  36.165  31.348  1.00  0.00    -0.200 F 
ENDBRANCH  63  86
ENDBRANCH  37  38
ENDBRANCH  29  32
ENDBRANCH  27  28
ENDBRANCH  26  27
ENDBRANCH  25  26
ENDBRANCH   3  25
TORSDOF 16
ENDMDL
MODEL 3
REMARK VINA RESULT:     -11.6      0.160      1.590
REMARK SMILES CC(C)[C@H](C[NH+](C)C)NC(=O)c1csc(/C=C/C(=O)NCCCNC(=O)c2ccc(-c3c4nc(c(-c5c(F)c(F)c(F)c(F)c5F)c5ccc([nH]5)c(-c5c(F)c(F)c(F)c(F)c5F)c5nc(c(-c6c(F)c(F)c(F)c(F)c6F)c6ccc3[nH]6)C=C5)C=C4)cc2)c1
REMARK SMILES IDX 18 1 19 2 20 3 17 5 16 6 15 7 12 8 13 9 90 10 14 11 10 12
REMARK SMILES IDX 9 13 11 15 4 16 2 17 1 18 3 19 5 20 6 21 7 22 8 23 21 25
REMARK SMILES IDX 22 26 23 27 24 28 25 29 26 31 27 32 28 33 89 34 29 35 88 36
REMARK SMILES IDX 30 37 31 38 32 39 82 40 33 41 87 42 81 43 83 44 34 45 86 46
REMARK SMILES IDX 80 47 79 48 35 50 67 51 47 52 66 53 48 54 51 55 65 56 84 57
REMARK SMILES IDX 49 58 50 59 64 61 85 62 52 63 36 64 37 65 45 66 38 67 39 68
REMARK SMILES IDX 43 69 46 70 40 71 41 72 44 73 42 74 68 75 69 76 77 77 70 78
REMARK SMILES IDX 71 79 75 80 78 81 72 82 73 83 76 84 74 85 53 86 54 87 62 88
REMARK SMILES IDX 55 89 56 90 60 91 63 92 57 93 58 94 61 95 59 96
REMARK H PARENT 20 4 9 14 6 24 24 30 83 49 51 60
REMARK Flexibility Score: inf
ROOT
ATOM      1  C   UNL A   1      33.645  29.405  27.145  1.00  0.00     0.244 C 
ATOM      2  O   UNL A   1      34.850  29.314  27.369  1.00  0.00    -0.270 OA
ATOM      3  N   UNL A   1      33.075  30.635  27.037  1.00  0.00    -0.352 N 
ATOM      4  H   UNL A   1      33.677  31.386  27.242  1.00  0.00     0.163 HD
ENDROOT
BRANCH   1   5
ATOM      5  C   UNL A   1      32.853  28.180  26.911  1.00  0.00     0.072 C 
ATOM      6  C   UNL A   1      32.820  27.547  25.731  1.00  0.00     0.024 C 
BRANCH   6   7
ATOM      7  C   UNL A   1      32.071  26.357  25.491  1.00  0.00     0.028 A 
ATOM      8  C   UNL A   1      31.040  24.270  25.890  1.00  0.00     0.051 A 
ATOM      9  C   UNL A   1      30.855  24.415  24.532  1.00  0.00     0.079 A 
ATOM     10  C   UNL A   1      31.693  25.421  26.439  1.00  0.00     0.033 A 
ATOM     11  S   UNL A   1      31.544  25.857  23.931  1.00  0.00    -0.144 S 
BRANCH   8  12
ATOM     12  C   UNL A   1      30.633  23.106  26.666  1.00  0.00     0.252 C 
ATOM     13  N   UNL A   1      31.426  21.987  26.594  1.00  0.00    -0.343 N 
ATOM     14  H   UNL A   1      31.118  21.216  27.123  1.00  0.00     0.164 HD
ATOM     15  O   UNL A   1      29.676  23.143  27.429  1.00  0.00    -0.269 OA
BRANCH  13  16
ATOM     16  C   UNL A   1      32.670  21.782  25.839  1.00  0.00     0.139 C 
BRANCH  16  17
ATOM     17  C   UNL A   1      32.372  20.794  24.671  1.00  0.00     0.011 C 
ATOM     18  C   UNL A   1      32.462  21.501  23.317  1.00  0.00     0.010 C 
ATOM     19  C   UNL A   1      33.224  19.523  24.658  1.00  0.00     0.010 C 
ENDBRANCH  16  17
BRANCH  16  20
ATOM     20  C   UNL A   1      33.901  21.442  26.749  1.00  0.00     0.287 C 
BRANCH  20  21
ATOM     21  N   UNL A   1      35.115  22.277  26.578  1.00  0.00    -0.338 N 
ATOM     22  C   UNL A   1      36.127  21.541  25.812  1.00  0.00     0.332 C 
ATOM     23  C   UNL A   1      34.815  23.523  25.861  1.00  0.00     0.332 C 
ATOM     24  H   UNL A   1      35.460  22.502  27.511  1.00  0.00     0.347 HD
ENDBRANCH  20  21
ENDBRANCH  16  20
ENDBRANCH  13  16
ENDBRANCH   8  12
ENDBRANCH   6   7
ENDBRANCH   1   5
BRANCH   3  25
ATOM     25  C   UNL A   1      31.723  31.026  26.670  1.00  0.00     0.118 C 
BRANCH  25  26
ATOM     26  C   UNL A   1      31.538  32.540  26.755  1.00  0.00     0.042 C 
BRANCH  26  27
ATOM     27  C   UNL A   1      32.813  33.292  27.133  1.00  0.00     0.118 C 
BRANCH  27  28
ATOM     28  N   UNL A   1      32.529  34.554  27.802  1.00  0.00    -0.352 N 
ATOM     29  C   UNL A   1      33.052  35.084  28.955  1.00  0.00     0.251 C 
ATOM     30  H   UNL A   1      31.855  35.115  27.356  1.00  0.00     0.163 HD
ATOM     31  O   UNL A   1      32.526  36.074  29.455  1.00  0.00    -0.269 OA
BRANCH  29  32
ATOM     32  C   UNL A   1      34.232  34.477  29.609  1.00  0.00     0.039 A 
ATOM     33  C   UNL A   1      34.048  33.785  30.811  1.00  0.00     0.014 A 
ATOM     34  C   UNL A   1      35.519  34.636  29.087  1.00  0.00     0.014 A 
ATOM     35  C   UNL A   1      35.144  33.213  31.462  1.00  0.00     0.010 A 
ATOM     36  C   UNL A   1      36.603  34.015  29.706  1.00  0.00     0.010 A 
ATOM     37  C   UNL A   1      36.427  33.303  30.902  1.00  0.00    -0.014 A 
BRANCH  37  38
ATOM     38  C   UNL A   1      37.597  32.663  31.555  1.00  0.00     0.031 A 
ATOM     39  C   UNL A   1      38.285  31.496  30.904  1.00  0.00     0.074 A 
ATOM     40  C   UNL A   1      37.998  33.091  32.767  1.00  0.00     0.049 A 
ATOM     41  N   UNL A   1      39.261  30.750  31.358  1.00  0.00    -0.248 NA
ATOM     42  C   UNL A   1      37.793  31.100  29.576  1.00  0.00     0.031 C 
ATOM     43  C   UNL A   1      37.387  34.187  33.520  1.00  0.00     0.029 A 
ATOM     44  N   UNL A   1      39.007  32.646  33.585  1.00  0.00    -0.354 N 
ATOM     45  C   UNL A   1      39.488  29.789  30.381  1.00  0.00     0.074 A 
ATOM     46  C   UNL A   1      38.520  30.019  29.331  1.00  0.00     0.031 C 
ATOM     47  C   UNL A   1      38.038  34.334  34.685  1.00  0.00     0.029 A 
ATOM     48  C   UNL A   1      39.088  33.325  34.775  1.00  0.00     0.049 A 
ATOM     49  H   UNL A   1      39.613  31.909  33.341  1.00  0.00     0.167 HD
ATOM     50  C   UNL A   1      40.432  28.817  30.354  1.00  0.00     0.037 A 
ATOM     51  C   UNL A   1      39.911  33.146  35.827  1.00  0.00     0.037 A 
ATOM     52  C   UNL A   1      41.410  28.607  31.388  1.00  0.00     0.049 A 
ATOM     53  C   UNL A   1      40.956  32.068  35.769  1.00  0.00     0.074 A 
ATOM     54  C   UNL A   1      42.438  27.681  31.432  1.00  0.00     0.029 A 
ATOM     55  N   UNL A   1      41.482  29.339  32.566  1.00  0.00    -0.354 N 
ATOM     56  N   UNL A   1      41.194  31.197  34.818  1.00  0.00    -0.248 NA
ATOM     57  C   UNL A   1      41.853  31.950  36.927  1.00  0.00     0.031 C 
ATOM     58  C   UNL A   1      43.111  27.829  32.649  1.00  0.00     0.029 A 
ATOM     59  C   UNL A   1      42.529  28.874  33.347  1.00  0.00     0.049 A 
ATOM     60  H   UNL A   1      40.879  30.076  32.810  1.00  0.00     0.167 HD
ATOM     61  C   UNL A   1      42.278  30.446  35.250  1.00  0.00     0.074 A 
ATOM     62  C   UNL A   1      42.661  30.971  36.544  1.00  0.00     0.031 C 
ATOM     63  C   UNL A   1      42.898  29.412  34.632  1.00  0.00     0.037 A 
BRANCH  50  64
ATOM     64  C   UNL A   1      40.452  27.907  29.161  1.00  0.00     0.064 A 
ATOM     65  C   UNL A   1      41.269  28.172  28.051  1.00  0.00     0.173 A 
ATOM     66  C   UNL A   1      39.671  26.743  29.138  1.00  0.00     0.173 A 
ATOM     67  F   UNL A   1      42.025  29.279  28.018  1.00  0.00    -0.203 F 
ATOM     68  C   UNL A   1      41.279  27.321  26.949  1.00  0.00     0.198 A 
ATOM     69  C   UNL A   1      39.706  25.878  28.046  1.00  0.00     0.198 A 
ATOM     70  F   UNL A   1      38.879  26.438  30.176  1.00  0.00    -0.203 F 
ATOM     71  F   UNL A   1      42.029  27.620  25.879  1.00  0.00    -0.200 F 
ATOM     72  C   UNL A   1      40.502  26.172  26.950  1.00  0.00     0.200 A 
ATOM     73  F   UNL A   1      38.964  24.762  28.053  1.00  0.00    -0.200 F 
ATOM     74  F   UNL A   1      40.516  25.351  25.890  1.00  0.00    -0.200 F 
ENDBRANCH  50  64
BRANCH  51  75
ATOM     75  C   UNL A   1      39.788  34.029  37.014  1.00  0.00     0.064 A 
ATOM     76  C   UNL A   1      38.973  33.669  38.096  1.00  0.00     0.173 A 
ATOM     77  C   UNL A   1      40.489  35.241  37.098  1.00  0.00     0.173 A 
ATOM     78  F   UNL A   1      38.267  32.530  38.052  1.00  0.00    -0.203 F 
ATOM     79  C   UNL A   1      38.851  34.496  39.211  1.00  0.00     0.198 A 
ATOM     80  C   UNL A   1      40.387  36.054  38.224  1.00  0.00     0.198 A 
ATOM     81  F   UNL A   1      41.288  35.626  36.091  1.00  0.00    -0.203 F 
ATOM     82  F   UNL A   1      38.036  34.146  40.215  1.00  0.00    -0.200 F 
ATOM     83  C   UNL A   1      39.564  35.684  39.277  1.00  0.00     0.200 A 
ATOM     84  F   UNL A   1      41.088  37.194  38.290  1.00  0.00    -0.200 F 
ATOM     85  F   UNL A   1      39.453  36.475  40.352  1.00  0.00    -0.200 F 
ENDBRANCH  51  75
BRANCH  63  86
ATOM     86  C   UNL A   1      44.073  28.798  35.334  1.00  0.00     0.064 A 
ATOM     87  C   UNL A   1      45.379  29.262  35.122  1.00  0.00     0.173 A 
ATOM     88  C   UNL A   1      43.884  27.759  36.257  1.00  0.00     0.173 A 
ATOM     89  F   UNL A   1      45.611  30.243  34.236  1.00  0.00    -0.203 F 
ATOM     90  C   UNL A   1      46.457  28.694  35.795  1.00  0.00     0.198 A 
ATOM     91  C   UNL A   1      44.961  27.210  36.947  1.00  0.00     0.198 A 
ATOM     92  F   UNL A   1      42.653  27.283  36.497  1.00  0.00    -0.203 F 
ATOM     93  F   UNL A   1      47.702  29.124  35.546  1.00  0.00    -0.200 F 
ATOM     94  C   UNL A   1      46.247  27.673  36.710  1.00  0.00     0.200 A 
ATOM     95  F   UNL A   1      44.756  26.231  37.839  1.00  0.00    -0.200 F 
ATOM     96  F   UNL A   1      47.286  27.132  37.361  1.00  0.00    -0.200 F 
ENDBRANCH  63  86
ENDBRANCH  37  38
ENDBRANCH  29  32
ENDBRANCH  27  28
ENDBRANCH  26  27
ENDBRANCH  25  26
ENDBRANCH   3  25
TORSDOF 16
ENDMDL
