MODEL 1
REMARK VINA RESULT:     -12.9      0.000      0.000
REMARK SMILES Cc1c([C@@H](C)NC(=O)c2ccn([C@H](C)C(=O)NCCCNC(=O)c3ccc(-c4c5nc(c(-c6c(F)c(F)c(F)c(F)c6F)c6ccc([nH]6)c(-c6c(F)c(F)c(F)c(F)c6F)c6nc(c(-c7c(F)c(F)c(F)c(F)c7F)c7ccc4[nH]7)C=C6)C=C5)cc3)n2)cnn1C
REMARK SMILES IDX 18 1 17 2 15 3 16 4 13 6 14 7 12 8 9 9 10 10 87 11 11 12
REMARK SMILES IDX 7 13 6 14 8 16 4 17 5 18 3 19 1 20 2 21 90 22 88 23 89 24
REMARK SMILES IDX 91 25 19 26 20 27 21 28 22 29 23 31 24 32 25 33 86 34 26 35
REMARK SMILES IDX 85 36 27 37 28 38 29 39 79 40 30 41 84 42 78 43 80 44 31 45
REMARK SMILES IDX 83 46 77 47 76 48 32 50 64 51 44 52 63 53 45 54 48 55 62 56
REMARK SMILES IDX 81 57 46 58 47 59 61 61 82 62 49 63 33 64 34 65 42 66 35 67
REMARK SMILES IDX 36 68 40 69 43 70 37 71 38 72 41 73 39 74 65 75 66 76 74 77
REMARK SMILES IDX 67 78 68 79 72 80 75 81 69 82 70 83 73 84 71 85 50 86 51 87
REMARK SMILES IDX 59 88 52 89 53 90 57 91 60 92 54 93 55 94 58 95 56 96
REMARK H PARENT 17 5 6 15 21 30 80 49 48 60
REMARK Flexibility Score: inf
ROOT
ATOM      1  C   UNL A   1      36.870  20.851  24.801  1.00  0.00     0.117 C 
ENDROOT
BRANCH   1   2
ATOM      2  N   UNL A   1      35.781  20.831  25.760  1.00  0.00    -0.354 N 
ATOM      3  C   UNL A   1      34.442  21.051  25.584  1.00  0.00     0.244 C 
ATOM      4  O   UNL A   1      33.724  20.920  26.581  1.00  0.00    -0.273 OA
ATOM      5  H   UNL A   1      36.047  20.625  26.685  1.00  0.00     0.163 HD
BRANCH   3   6
ATOM      6  C   UNL A   1      33.865  21.573  24.270  1.00  0.00     0.193 C 
ATOM      7  C   UNL A   1      32.510  20.910  24.007  1.00  0.00     0.044 C 
BRANCH   6   8
ATOM      8  N   UNL A   1      33.898  23.031  24.179  1.00  0.00    -0.260 N 
ATOM      9  C   UNL A   1      33.557  24.944  23.285  1.00  0.00     0.150 A 
ATOM     10  C   UNL A   1      34.381  25.160  24.420  1.00  0.00     0.056 A 
ATOM     11  N   UNL A   1      33.269  23.637  23.154  1.00  0.00    -0.167 NA
ATOM     12  C   UNL A   1      34.523  23.925  25.008  1.00  0.00     0.110 A 
BRANCH   9  13
ATOM     13  C   UNL A   1      33.007  25.955  22.373  1.00  0.00     0.272 C 
ATOM     14  N   UNL A   1      31.813  26.559  22.679  1.00  0.00    -0.344 N 
ATOM     15  H   UNL A   1      31.401  27.072  21.947  1.00  0.00     0.164 HD
ATOM     16  O   UNL A   1      33.558  26.260  21.315  1.00  0.00    -0.267 OA
BRANCH  14  17
ATOM     17  C   UNL A   1      31.069  26.555  23.926  1.00  0.00     0.113 C 
ATOM     18  C   UNL A   1      29.611  26.173  23.689  1.00  0.00     0.036 C 
BRANCH  17  19
ATOM     19  C   UNL A   1      31.224  27.907  24.558  1.00  0.00     0.015 A 
ATOM     20  C   UNL A   1      32.621  27.518  26.746  1.00  0.00     0.067 C 
ATOM     21  C   UNL A   1      31.869  28.300  25.728  1.00  0.00     0.040 A 
ATOM     22  N   UNL A   1      31.688  29.662  25.811  1.00  0.00    -0.273 N 
ATOM     23  C   UNL A   1      30.697  29.112  24.038  1.00  0.00     0.141 A 
ATOM     24  N   UNL A   1      30.990  30.173  24.786  1.00  0.00    -0.181 NA
ATOM     25  C   UNL A   1      32.157  30.554  26.847  1.00  0.00     0.174 C 
ENDBRANCH  17  19
ENDBRANCH  14  17
ENDBRANCH   9  13
ENDBRANCH   6   8
ENDBRANCH   3   6
ENDBRANCH   1   2
BRANCH   1  26
ATOM     26  C   UNL A   1      37.865  19.708  24.979  1.00  0.00     0.042 C 
BRANCH  26  27
ATOM     27  C   UNL A   1      39.127  20.175  25.672  1.00  0.00     0.118 C 
BRANCH  27  28
ATOM     28  N   UNL A   1      40.173  19.146  25.703  1.00  0.00    -0.352 N 
ATOM     29  C   UNL A   1      41.532  19.303  25.934  1.00  0.00     0.251 C 
ATOM     30  H   UNL A   1      39.871  18.224  25.538  1.00  0.00     0.163 HD
ATOM     31  O   UNL A   1      42.329  18.433  25.656  1.00  0.00    -0.269 OA
BRANCH  29  32
ATOM     32  C   UNL A   1      41.975  20.578  26.523  1.00  0.00     0.039 A 
ATOM     33  C   UNL A   1      42.511  21.607  25.744  1.00  0.00     0.014 A 
ATOM     34  C   UNL A   1      41.746  20.750  27.881  1.00  0.00     0.014 A 
ATOM     35  C   UNL A   1      42.726  22.848  26.338  1.00  0.00     0.010 A 
ATOM     36  C   UNL A   1      41.737  22.012  28.395  1.00  0.00     0.010 A 
ATOM     37  C   UNL A   1      42.315  23.042  27.662  1.00  0.00    -0.014 A 
BRANCH  37  38
ATOM     38  C   UNL A   1      42.404  24.335  28.324  1.00  0.00     0.031 A 
ATOM     39  C   UNL A   1      41.236  25.231  28.110  1.00  0.00     0.074 A 
ATOM     40  C   UNL A   1      43.323  24.548  29.293  1.00  0.00     0.049 A 
ATOM     41  N   UNL A   1      41.214  26.391  27.539  1.00  0.00    -0.248 NA
ATOM     42  C   UNL A   1      39.900  24.723  28.467  1.00  0.00     0.031 C 
ATOM     43  C   UNL A   1      44.296  23.590  29.843  1.00  0.00     0.029 A 
ATOM     44  N   UNL A   1      43.494  25.629  30.096  1.00  0.00    -0.354 N 
ATOM     45  C   UNL A   1      39.901  26.847  27.649  1.00  0.00     0.074 A 
ATOM     46  C   UNL A   1      39.112  25.709  28.032  1.00  0.00     0.031 C 
ATOM     47  C   UNL A   1      44.759  24.041  31.028  1.00  0.00     0.029 A 
ATOM     48  C   UNL A   1      44.270  25.390  31.224  1.00  0.00     0.049 A 
ATOM     49  H   UNL A   1      43.099  26.508  29.896  1.00  0.00     0.167 HD
ATOM     50  C   UNL A   1      39.626  28.182  27.680  1.00  0.00     0.037 A 
ATOM     51  C   UNL A   1      44.466  26.237  32.263  1.00  0.00     0.037 A 
ATOM     52  C   UNL A   1      40.759  28.945  27.217  1.00  0.00     0.049 A 
ATOM     53  C   UNL A   1      44.075  27.591  31.802  1.00  0.00     0.074 A 
ATOM     54  C   UNL A   1      41.476  29.012  26.038  1.00  0.00     0.029 A 
ATOM     55  N   UNL A   1      41.552  29.538  28.169  1.00  0.00    -0.354 N 
ATOM     56  N   UNL A   1      44.716  28.258  30.881  1.00  0.00    -0.248 NA
ATOM     57  C   UNL A   1      42.701  28.009  32.031  1.00  0.00     0.031 C 
ATOM     58  C   UNL A   1      42.832  29.199  26.442  1.00  0.00     0.029 A 
ATOM     59  C   UNL A   1      42.859  29.306  27.833  1.00  0.00     0.049 A 
ATOM     60  H   UNL A   1      41.236  30.040  28.955  1.00  0.00     0.167 HD
ATOM     61  C   UNL A   1      43.723  28.870  30.131  1.00  0.00     0.074 A 
ATOM     62  C   UNL A   1      42.514  28.762  30.943  1.00  0.00     0.031 C 
ATOM     63  C   UNL A   1      43.914  29.135  28.805  1.00  0.00     0.037 A 
BRANCH  50  64
ATOM     64  C   UNL A   1      38.524  28.826  28.502  1.00  0.00     0.064 A 
ATOM     65  C   UNL A   1      37.724  29.819  27.895  1.00  0.00     0.173 A 
ATOM     66  C   UNL A   1      38.424  28.753  29.907  1.00  0.00     0.173 A 
ATOM     67  F   UNL A   1      37.727  29.982  26.563  1.00  0.00    -0.203 F 
ATOM     68  C   UNL A   1      36.985  30.738  28.645  1.00  0.00     0.198 A 
ATOM     69  C   UNL A   1      37.640  29.638  30.649  1.00  0.00     0.198 A 
ATOM     70  F   UNL A   1      39.153  27.907  30.640  1.00  0.00    -0.203 F 
ATOM     71  F   UNL A   1      36.362  31.751  28.028  1.00  0.00    -0.200 F 
ATOM     72  C   UNL A   1      36.954  30.654  30.023  1.00  0.00     0.200 A 
ATOM     73  F   UNL A   1      37.633  29.544  31.987  1.00  0.00    -0.200 F 
ATOM     74  F   UNL A   1      36.307  31.575  30.749  1.00  0.00    -0.200 F 
ENDBRANCH  50  64
BRANCH  51  75
ATOM     75  C   UNL A   1      44.673  25.902  33.690  1.00  0.00     0.064 A 
ATOM     76  C   UNL A   1      43.592  25.591  34.527  1.00  0.00     0.173 A 
ATOM     77  C   UNL A   1      45.959  25.620  34.192  1.00  0.00     0.173 A 
ATOM     78  F   UNL A   1      42.335  25.787  34.103  1.00  0.00    -0.203 F 
ATOM     79  C   UNL A   1      43.784  25.012  35.787  1.00  0.00     0.198 A 
ATOM     80  C   UNL A   1      46.150  25.047  35.451  1.00  0.00     0.198 A 
ATOM     81  F   UNL A   1      47.048  25.806  33.432  1.00  0.00    -0.203 F 
ATOM     82  F   UNL A   1      42.724  24.673  36.534  1.00  0.00    -0.200 F 
ATOM     83  C   UNL A   1      45.062  24.731  36.243  1.00  0.00     0.200 A 
ATOM     84  F   UNL A   1      47.389  24.743  35.863  1.00  0.00    -0.200 F 
ATOM     85  F   UNL A   1      45.243  24.119  37.421  1.00  0.00    -0.200 F 
ENDBRANCH  51  75
BRANCH  63  86
ATOM     86  C   UNL A   1      45.312  29.018  28.264  1.00  0.00     0.064 A 
ATOM     87  C   UNL A   1      45.848  27.846  27.699  1.00  0.00     0.173 A 
ATOM     88  C   UNL A   1      46.085  30.182  28.177  1.00  0.00     0.173 A 
ATOM     89  F   UNL A   1      45.135  26.715  27.652  1.00  0.00    -0.203 F 
ATOM     90  C   UNL A   1      47.113  27.835  27.115  1.00  0.00     0.198 A 
ATOM     91  C   UNL A   1      47.333  30.178  27.559  1.00  0.00     0.198 A 
ATOM     92  F   UNL A   1      45.603  31.343  28.647  1.00  0.00    -0.203 F 
ATOM     93  F   UNL A   1      47.603  26.701  26.593  1.00  0.00    -0.200 F 
ATOM     94  C   UNL A   1      47.851  29.004  27.038  1.00  0.00     0.200 A 
ATOM     95  F   UNL A   1      48.021  31.322  27.444  1.00  0.00    -0.200 F 
ATOM     96  F   UNL A   1      49.049  29.005  26.437  1.00  0.00    -0.200 F 
ENDBRANCH  63  86
ENDBRANCH  37  38
ENDBRANCH  29  32
ENDBRANCH  27  28
ENDBRANCH  26  27
ENDBRANCH   1  26
TORSDOF 14
ENDMDL
MODEL 2
REMARK VINA RESULT:     -12.7      2.480      7.087
REMARK SMILES Cc1c([C@@H](C)NC(=O)c2ccn([C@H](C)C(=O)NCCCNC(=O)c3ccc(-c4c5nc(c(-c6c(F)c(F)c(F)c(F)c6F)c6ccc([nH]6)c(-c6c(F)c(F)c(F)c(F)c6F)c6nc(c(-c7c(F)c(F)c(F)c(F)c7F)c7ccc4[nH]7)C=C6)C=C5)cc3)n2)cnn1C
REMARK SMILES IDX 18 1 17 2 15 3 16 4 13 6 14 7 12 8 9 9 10 10 87 11 11 12
REMARK SMILES IDX 7 13 6 14 8 16 4 17 5 18 3 19 1 20 2 21 90 22 88 23 89 24
REMARK SMILES IDX 91 25 19 26 20 27 21 28 22 29 23 31 24 32 25 33 86 34 26 35
REMARK SMILES IDX 85 36 27 37 28 38 29 39 79 40 30 41 84 42 78 43 80 44 31 45
REMARK SMILES IDX 83 46 77 47 76 48 32 50 64 51 44 52 63 53 45 54 48 55 62 56
REMARK SMILES IDX 81 57 46 58 47 59 61 61 82 62 49 63 33 64 34 65 42 66 35 67
REMARK SMILES IDX 36 68 40 69 43 70 37 71 38 72 41 73 39 74 65 75 66 76 74 77
REMARK SMILES IDX 67 78 68 79 72 80 75 81 69 82 70 83 73 84 71 85 50 86 51 87
REMARK SMILES IDX 59 88 52 89 53 90 57 91 60 92 54 93 55 94 58 95 56 96
REMARK H PARENT 17 5 6 15 21 30 80 49 48 60
REMARK Flexibility Score: inf
ROOT
ATOM      1  C   UNL A   1      37.355  22.011  25.128  1.00  0.00     0.117 C 
ENDROOT
BRANCH   1   2
ATOM      2  N   UNL A   1      36.286  21.986  26.110  1.00  0.00    -0.354 N 
ATOM      3  C   UNL A   1      35.031  21.446  26.037  1.00  0.00     0.244 C 
ATOM      4  O   UNL A   1      34.334  21.528  27.055  1.00  0.00    -0.273 OA
ATOM      5  H   UNL A   1      36.498  22.427  26.964  1.00  0.00     0.163 HD
BRANCH   3   6
ATOM      6  C   UNL A   1      34.450  20.898  24.736  1.00  0.00     0.193 C 
ATOM      7  C   UNL A   1      33.851  19.512  24.988  1.00  0.00     0.044 C 
BRANCH   6   8
ATOM      8  N   UNL A   1      33.586  21.859  24.055  1.00  0.00    -0.260 N 
ATOM      9  C   UNL A   1      33.006  23.771  23.292  1.00  0.00     0.150 A 
ATOM     10  C   UNL A   1      31.878  22.920  23.169  1.00  0.00     0.056 A 
ATOM     11  N   UNL A   1      34.042  23.107  23.833  1.00  0.00    -0.167 NA
ATOM     12  C   UNL A   1      32.304  21.686  23.603  1.00  0.00     0.110 A 
BRANCH   9  13
ATOM     13  C   UNL A   1      33.124  25.170  22.858  1.00  0.00     0.272 C 
ATOM     14  N   UNL A   1      32.285  26.114  23.398  1.00  0.00    -0.344 N 
ATOM     15  H   UNL A   1      32.274  26.981  22.932  1.00  0.00     0.164 HD
ATOM     16  O   UNL A   1      33.924  25.530  21.996  1.00  0.00    -0.267 OA
BRANCH  14  17
ATOM     17  C   UNL A   1      31.414  26.021  24.555  1.00  0.00     0.113 C 
ATOM     18  C   UNL A   1      29.950  25.936  24.131  1.00  0.00     0.036 C 
BRANCH  17  19
ATOM     19  C   UNL A   1      31.698  27.200  25.440  1.00  0.00     0.015 A 
ATOM     20  C   UNL A   1      30.954  29.315  24.075  1.00  0.00     0.067 C 
ATOM     21  C   UNL A   1      31.505  28.563  25.235  1.00  0.00     0.040 A 
ATOM     22  N   UNL A   1      31.947  29.177  26.384  1.00  0.00    -0.273 N 
ATOM     23  C   UNL A   1      32.261  27.126  26.736  1.00  0.00     0.141 A 
ATOM     24  N   UNL A   1      32.397  28.318  27.312  1.00  0.00    -0.181 NA
ATOM     25  C   UNL A   1      31.971  30.593  26.678  1.00  0.00     0.174 C 
ENDBRANCH  17  19
ENDBRANCH  14  17
ENDBRANCH   9  13
ENDBRANCH   6   8
ENDBRANCH   3   6
ENDBRANCH   1   2
BRANCH   1  26
ATOM     26  C   UNL A   1      38.514  21.075  25.460  1.00  0.00     0.042 C 
BRANCH  26  27
ATOM     27  C   UNL A   1      39.555  21.765  26.315  1.00  0.00     0.118 C 
BRANCH  27  28
ATOM     28  N   UNL A   1      40.901  21.702  25.733  1.00  0.00    -0.352 N 
ATOM     29  C   UNL A   1      41.884  22.681  25.725  1.00  0.00     0.251 C 
ATOM     30  H   UNL A   1      41.137  20.856  25.290  1.00  0.00     0.163 HD
ATOM     31  O   UNL A   1      42.836  22.621  24.977  1.00  0.00    -0.269 OA
BRANCH  29  32
ATOM     32  C   UNL A   1      41.722  23.810  26.658  1.00  0.00     0.039 A 
ATOM     33  C   UNL A   1      42.313  23.815  27.924  1.00  0.00     0.014 A 
ATOM     34  C   UNL A   1      41.031  24.917  26.182  1.00  0.00     0.014 A 
ATOM     35  C   UNL A   1      42.277  24.991  28.670  1.00  0.00     0.010 A 
ATOM     36  C   UNL A   1      41.198  26.117  26.805  1.00  0.00     0.010 A 
ATOM     37  C   UNL A   1      41.733  26.142  28.088  1.00  0.00    -0.014 A 
BRANCH  37  38
ATOM     38  C   UNL A   1      41.753  27.436  28.754  1.00  0.00     0.031 A 
ATOM     39  C   UNL A   1      42.870  28.332  28.351  1.00  0.00     0.074 A 
ATOM     40  C   UNL A   1      40.667  27.876  29.430  1.00  0.00     0.049 A 
ATOM     41  N   UNL A   1      43.821  28.803  29.090  1.00  0.00    -0.248 NA
ATOM     42  C   UNL A   1      43.020  28.650  26.921  1.00  0.00     0.031 C 
ATOM     43  C   UNL A   1      39.362  27.211  29.577  1.00  0.00     0.029 A 
ATOM     44  N   UNL A   1      40.448  29.080  30.017  1.00  0.00    -0.354 N 
ATOM     45  C   UNL A   1      44.570  29.640  28.263  1.00  0.00     0.074 A 
ATOM     46  C   UNL A   1      44.161  29.343  26.917  1.00  0.00     0.031 C 
ATOM     47  C   UNL A   1      38.436  28.109  29.976  1.00  0.00     0.029 A 
ATOM     48  C   UNL A   1      39.113  29.349  30.296  1.00  0.00     0.049 A 
ATOM     49  H   UNL A   1      41.174  29.710  30.228  1.00  0.00     0.167 HD
ATOM     50  C   UNL A   1      45.262  30.694  28.779  1.00  0.00     0.037 A 
ATOM     51  C   UNL A   1      38.600  30.525  30.728  1.00  0.00     0.037 A 
ATOM     52  C   UNL A   1      45.402  30.559  30.209  1.00  0.00     0.049 A 
ATOM     53  C   UNL A   1      39.730  31.327  31.256  1.00  0.00     0.074 A 
ATOM     54  C   UNL A   1      45.981  29.630  31.050  1.00  0.00     0.029 A 
ATOM     55  N   UNL A   1      44.556  31.299  30.998  1.00  0.00    -0.354 N 
ATOM     56  N   UNL A   1      40.413  31.007  32.322  1.00  0.00    -0.248 NA
ATOM     57  C   UNL A   1      40.401  32.232  30.335  1.00  0.00     0.031 C 
ATOM     58  C   UNL A   1      45.104  29.551  32.173  1.00  0.00     0.029 A 
ATOM     59  C   UNL A   1      44.080  30.483  31.988  1.00  0.00     0.049 A 
ATOM     60  H   UNL A   1      44.331  32.250  30.873  1.00  0.00     0.167 HD
ATOM     61  C   UNL A   1      41.728  31.310  32.003  1.00  0.00     0.074 A 
ATOM     62  C   UNL A   1      41.647  32.150  30.812  1.00  0.00     0.031 C 
ATOM     63  C   UNL A   1      42.759  30.607  32.559  1.00  0.00     0.037 A 
BRANCH  50  64
ATOM     64  C   UNL A   1      45.451  32.034  28.091  1.00  0.00     0.064 A 
ATOM     65  C   UNL A   1      44.303  32.770  27.723  1.00  0.00     0.173 A 
ATOM     66  C   UNL A   1      46.657  32.472  27.503  1.00  0.00     0.173 A 
ATOM     67  F   UNL A   1      43.099  32.454  28.222  1.00  0.00    -0.203 F 
ATOM     68  C   UNL A   1      44.345  33.775  26.754  1.00  0.00     0.198 A 
ATOM     69  C   UNL A   1      46.703  33.514  26.577  1.00  0.00     0.198 A 
ATOM     70  F   UNL A   1      47.824  31.853  27.704  1.00  0.00    -0.203 F 
ATOM     71  F   UNL A   1      43.206  34.340  26.332  1.00  0.00    -0.200 F 
ATOM     72  C   UNL A   1      45.544  34.138  26.172  1.00  0.00     0.200 A 
ATOM     73  F   UNL A   1      47.876  33.844  26.018  1.00  0.00    -0.200 F 
ATOM     74  F   UNL A   1      45.580  35.050  25.192  1.00  0.00    -0.200 F 
ENDBRANCH  50  64
BRANCH  51  75
ATOM     75  C   UNL A   1      37.270  31.106  30.436  1.00  0.00     0.064 A 
ATOM     76  C   UNL A   1      36.369  31.410  31.467  1.00  0.00     0.173 A 
ATOM     77  C   UNL A   1      36.964  31.623  29.161  1.00  0.00     0.173 A 
ATOM     78  F   UNL A   1      36.613  30.995  32.718  1.00  0.00    -0.203 F 
ATOM     79  C   UNL A   1      35.237  32.202  31.240  1.00  0.00     0.198 A 
ATOM     80  C   UNL A   1      35.833  32.409  28.935  1.00  0.00     0.198 A 
ATOM     81  F   UNL A   1      37.809  31.455  28.133  1.00  0.00    -0.203 F 
ATOM     82  F   UNL A   1      34.430  32.522  32.262  1.00  0.00    -0.200 F 
ATOM     83  C   UNL A   1      34.976  32.708  29.978  1.00  0.00     0.200 A 
ATOM     84  F   UNL A   1      35.614  32.926  27.718  1.00  0.00    -0.200 F 
ATOM     85  F   UNL A   1      33.928  33.518  29.775  1.00  0.00    -0.200 F 
ENDBRANCH  51  75
BRANCH  63  86
ATOM     86  C   UNL A   1      42.446  29.713  33.727  1.00  0.00     0.064 A 
ATOM     87  C   UNL A   1      42.074  28.361  33.612  1.00  0.00     0.173 A 
ATOM     88  C   UNL A   1      42.679  30.206  35.016  1.00  0.00     0.173 A 
ATOM     89  F   UNL A   1      41.928  27.785  32.414  1.00  0.00    -0.203 F 
ATOM     90  C   UNL A   1      41.905  27.557  34.737  1.00  0.00     0.198 A 
ATOM     91  C   UNL A   1      42.547  29.391  36.138  1.00  0.00     0.198 A 
ATOM     92  F   UNL A   1      43.091  31.472  35.185  1.00  0.00    -0.203 F 
ATOM     93  F   UNL A   1      41.541  26.273  34.599  1.00  0.00    -0.200 F 
ATOM     94  C   UNL A   1      42.150  28.071  35.999  1.00  0.00     0.200 A 
ATOM     95  F   UNL A   1      42.833  29.880  37.352  1.00  0.00    -0.200 F 
ATOM     96  F   UNL A   1      42.031  27.287  37.080  1.00  0.00    -0.200 F 
ENDBRANCH  63  86
ENDBRANCH  37  38
ENDBRANCH  29  32
ENDBRANCH  27  28
ENDBRANCH  26  27
ENDBRANCH   1  26
TORSDOF 14
ENDMDL
MODEL 3
REMARK VINA RESULT:     -12.5      2.844      7.925
REMARK SMILES Cc1c([C@@H](C)NC(=O)c2ccn([C@H](C)C(=O)NCCCNC(=O)c3ccc(-c4c5nc(c(-c6c(F)c(F)c(F)c(F)c6F)c6ccc([nH]6)c(-c6c(F)c(F)c(F)c(F)c6F)c6nc(c(-c7c(F)c(F)c(F)c(F)c7F)c7ccc4[nH]7)C=C6)C=C5)cc3)n2)cnn1C
REMARK SMILES IDX 18 1 17 2 15 3 16 4 13 6 14 7 12 8 9 9 10 10 87 11 11 12
REMARK SMILES IDX 7 13 6 14 8 16 4 17 5 18 3 19 1 20 2 21 90 22 88 23 89 24
REMARK SMILES IDX 91 25 19 26 20 27 21 28 22 29 23 31 24 32 25 33 86 34 26 35
REMARK SMILES IDX 85 36 27 37 28 38 29 39 79 40 30 41 84 42 78 43 80 44 31 45
REMARK SMILES IDX 83 46 77 47 76 48 32 50 64 51 44 52 63 53 45 54 48 55 62 56
REMARK SMILES IDX 81 57 46 58 47 59 61 61 82 62 49 63 33 64 34 65 42 66 35 67
REMARK SMILES IDX 36 68 40 69 43 70 37 71 38 72 41 73 39 74 65 75 66 76 74 77
REMARK SMILES IDX 67 78 68 79 72 80 75 81 69 82 70 83 73 84 71 85 50 86 51 87
REMARK SMILES IDX 59 88 52 89 53 90 57 91 60 92 54 93 55 94 58 95 56 96
REMARK H PARENT 17 5 6 15 21 30 80 49 48 60
REMARK Flexibility Score: inf
ROOT
ATOM      1  C   UNL A   1      34.113  28.615  26.545  1.00  0.00     0.117 C 
ENDROOT
BRANCH   1   2
ATOM      2  N   UNL A   1      34.028  28.626  25.096  1.00  0.00    -0.354 N 
ATOM      3  C   UNL A   1      32.936  28.620  24.273  1.00  0.00     0.244 C 
ATOM      4  O   UNL A   1      33.157  28.683  23.059  1.00  0.00    -0.273 OA
ATOM      5  H   UNL A   1      34.896  28.640  24.631  1.00  0.00     0.163 HD
BRANCH   3   6
ATOM      6  C   UNL A   1      31.518  28.402  24.797  1.00  0.00     0.193 C 
ATOM      7  C   UNL A   1      30.579  29.440  24.178  1.00  0.00     0.044 C 
BRANCH   6   8
ATOM      8  N   UNL A   1      31.090  27.008  24.704  1.00  0.00    -0.260 N 
ATOM      9  C   UNL A   1      30.966  24.955  25.293  1.00  0.00     0.150 A 
ATOM     10  C   UNL A   1      30.376  25.051  24.006  1.00  0.00     0.056 A 
ATOM     11  N   UNL A   1      31.396  26.161  25.706  1.00  0.00    -0.167 NA
ATOM     12  C   UNL A   1      30.410  26.388  23.688  1.00  0.00     0.110 A 
BRANCH   9  13
ATOM     13  C   UNL A   1      31.075  23.761  26.141  1.00  0.00     0.272 C 
ATOM     14  N   UNL A   1      31.759  22.665  25.675  1.00  0.00    -0.344 N 
ATOM     15  H   UNL A   1      31.631  21.838  26.194  1.00  0.00     0.164 HD
ATOM     16  O   UNL A   1      30.543  23.686  27.248  1.00  0.00    -0.267 OA
BRANCH  14  17
ATOM     17  C   UNL A   1      32.644  22.548  24.531  1.00  0.00     0.113 C 
ATOM     18  C   UNL A   1      32.318  21.300  23.715  1.00  0.00     0.036 C 
BRANCH  17  19
ATOM     19  C   UNL A   1      34.056  22.561  25.039  1.00  0.00     0.015 A 
ATOM     20  C   UNL A   1      34.770  25.086  25.104  1.00  0.00     0.067 C 
ATOM     21  C   UNL A   1      34.932  23.617  25.275  1.00  0.00     0.040 A 
ATOM     22  N   UNL A   1      36.093  23.040  25.737  1.00  0.00    -0.273 N 
ATOM     23  C   UNL A   1      34.804  21.413  25.391  1.00  0.00     0.141 A 
ATOM     24  N   UNL A   1      36.027  21.702  25.827  1.00  0.00    -0.181 NA
ATOM     25  C   UNL A   1      37.319  23.703  26.121  1.00  0.00     0.174 C 
ENDBRANCH  17  19
ENDBRANCH  14  17
ENDBRANCH   9  13
ENDBRANCH   6   8
ENDBRANCH   3   6
ENDBRANCH   1   2
BRANCH   1  26
ATOM     26  C   UNL A   1      33.722  29.942  27.191  1.00  0.00     0.042 C 
BRANCH  26  27
ATOM     27  C   UNL A   1      34.942  30.728  27.622  1.00  0.00     0.118 C 
BRANCH  27  28
ATOM     28  N   UNL A   1      34.627  31.771  28.605  1.00  0.00    -0.352 N 
ATOM     29  C   UNL A   1      35.162  31.953  29.872  1.00  0.00     0.251 C 
ATOM     30  H   UNL A   1      33.948  32.428  28.329  1.00  0.00     0.163 HD
ATOM     31  O   UNL A   1      34.628  32.668  30.692  1.00  0.00    -0.269 OA
BRANCH  29  32
ATOM     32  C   UNL A   1      36.406  31.231  30.191  1.00  0.00     0.039 A 
ATOM     33  C   UNL A   1      36.407  29.880  30.548  1.00  0.00     0.014 A 
ATOM     34  C   UNL A   1      37.592  31.931  30.027  1.00  0.00     0.014 A 
ATOM     35  C   UNL A   1      37.629  29.219  30.646  1.00  0.00     0.010 A 
ATOM     36  C   UNL A   1      38.757  31.237  29.896  1.00  0.00     0.010 A 
ATOM     37  C   UNL A   1      38.797  29.906  30.296  1.00  0.00    -0.014 A 
BRANCH  37  38
ATOM     38  C   UNL A   1      40.101  29.262  30.267  1.00  0.00     0.031 A 
ATOM     39  C   UNL A   1      40.738  29.072  31.598  1.00  0.00     0.074 A 
ATOM     40  C   UNL A   1      40.524  28.619  29.154  1.00  0.00     0.049 A 
ATOM     41  N   UNL A   1      41.851  29.569  32.028  1.00  0.00    -0.248 NA
ATOM     42  C   UNL A   1      39.984  28.337  32.627  1.00  0.00     0.031 C 
ATOM     43  C   UNL A   1      39.798  28.430  27.887  1.00  0.00     0.029 A 
ATOM     44  N   UNL A   1      41.642  27.873  28.963  1.00  0.00    -0.354 N 
ATOM     45  C   UNL A   1      42.039  29.042  33.305  1.00  0.00     0.074 A 
ATOM     46  C   UNL A   1      40.777  28.472  33.692  1.00  0.00     0.031 C 
ATOM     47  C   UNL A   1      40.370  27.433  27.179  1.00  0.00     0.029 A 
ATOM     48  C   UNL A   1      41.598  27.050  27.843  1.00  0.00     0.049 A 
ATOM     49  H   UNL A   1      42.418  27.911  29.567  1.00  0.00     0.167 HD
ATOM     50  C   UNL A   1      43.292  28.883  33.818  1.00  0.00     0.037 A 
ATOM     51  C   UNL A   1      42.499  26.096  27.508  1.00  0.00     0.037 A 
ATOM     52  C   UNL A   1      44.252  29.649  33.061  1.00  0.00     0.049 A 
ATOM     53  C   UNL A   1      43.732  26.367  28.285  1.00  0.00     0.074 A 
ATOM     54  C   UNL A   1      44.425  30.989  32.775  1.00  0.00     0.029 A 
ATOM     55  N   UNL A   1      45.020  28.971  32.148  1.00  0.00    -0.354 N 
ATOM     56  N   UNL A   1      44.486  27.418  28.109  1.00  0.00    -0.248 NA
ATOM     57  C   UNL A   1      43.873  25.709  29.575  1.00  0.00     0.031 C 
ATOM     58  C   UNL A   1      44.892  31.020  31.427  1.00  0.00     0.029 A 
ATOM     59  C   UNL A   1      45.046  29.703  30.991  1.00  0.00     0.049 A 
ATOM     60  H   UNL A   1      45.473  28.109  32.298  1.00  0.00     0.167 HD
ATOM     61  C   UNL A   1      44.862  27.802  29.388  1.00  0.00     0.074 A 
ATOM     62  C   UNL A   1      44.539  26.659  30.237  1.00  0.00     0.031 C 
ATOM     63  C   UNL A   1      45.119  29.113  29.675  1.00  0.00     0.037 A 
BRANCH  50  64
ATOM     64  C   UNL A   1      43.727  27.739  34.716  1.00  0.00     0.064 A 
ATOM     65  C   UNL A   1      43.568  26.417  34.248  1.00  0.00     0.173 A 
ATOM     66  C   UNL A   1      43.985  27.858  36.099  1.00  0.00     0.173 A 
ATOM     67  F   UNL A   1      43.326  26.175  32.950  1.00  0.00    -0.203 F 
ATOM     68  C   UNL A   1      43.546  25.320  35.113  1.00  0.00     0.198 A 
ATOM     69  C   UNL A   1      44.017  26.754  36.951  1.00  0.00     0.198 A 
ATOM     70  F   UNL A   1      44.107  29.038  36.711  1.00  0.00    -0.203 F 
ATOM     71  F   UNL A   1      43.243  24.104  34.637  1.00  0.00    -0.200 F 
ATOM     72  C   UNL A   1      43.758  25.491  36.467  1.00  0.00     0.200 A 
ATOM     73  F   UNL A   1      44.216  26.944  38.264  1.00  0.00    -0.200 F 
ATOM     74  F   UNL A   1      43.666  24.454  37.309  1.00  0.00    -0.200 F 
ENDBRANCH  50  64
BRANCH  51  75
ATOM     75  C   UNL A   1      42.257  24.816  26.806  1.00  0.00     0.064 A 
ATOM     76  C   UNL A   1      43.063  24.414  25.730  1.00  0.00     0.173 A 
ATOM     77  C   UNL A   1      41.400  23.837  27.348  1.00  0.00     0.173 A 
ATOM     78  F   UNL A   1      43.939  25.273  25.189  1.00  0.00    -0.203 F 
ATOM     79  C   UNL A   1      43.029  23.105  25.238  1.00  0.00     0.198 A 
ATOM     80  C   UNL A   1      41.363  22.532  26.853  1.00  0.00     0.198 A 
ATOM     81  F   UNL A   1      40.654  24.104  28.430  1.00  0.00    -0.203 F 
ATOM     82  F   UNL A   1      43.857  22.741  24.248  1.00  0.00    -0.200 F 
ATOM     83  C   UNL A   1      42.187  22.163  25.806  1.00  0.00     0.200 A 
ATOM     84  F   UNL A   1      40.573  21.621  27.439  1.00  0.00    -0.200 F 
ATOM     85  F   UNL A   1      42.199  20.894  25.377  1.00  0.00    -0.200 F 
ENDBRANCH  51  75
BRANCH  63  86
ATOM     86  C   UNL A   1      45.268  30.065  28.520  1.00  0.00     0.064 A 
ATOM     87  C   UNL A   1      44.209  30.799  27.957  1.00  0.00     0.173 A 
ATOM     88  C   UNL A   1      46.561  30.356  28.068  1.00  0.00     0.173 A 
ATOM     89  F   UNL A   1      42.956  30.654  28.401  1.00  0.00    -0.203 F 
ATOM     90  C   UNL A   1      44.433  31.748  26.961  1.00  0.00     0.198 A 
ATOM     91  C   UNL A   1      46.788  31.330  27.100  1.00  0.00     0.198 A 
ATOM     92  F   UNL A   1      47.617  29.727  28.608  1.00  0.00    -0.203 F 
ATOM     93  F   UNL A   1      43.403  32.427  26.434  1.00  0.00    -0.200 F 
ATOM     94  C   UNL A   1      45.724  32.018  26.539  1.00  0.00     0.200 A 
ATOM     95  F   UNL A   1      48.042  31.623  26.731  1.00  0.00    -0.200 F 
ATOM     96  F   UNL A   1      45.945  32.961  25.613  1.00  0.00    -0.200 F 
ENDBRANCH  63  86
ENDBRANCH  37  38
ENDBRANCH  29  32
ENDBRANCH  27  28
ENDBRANCH  26  27
ENDBRANCH   1  26
TORSDOF 14
ENDMDL
