MODEL 1
REMARK VINA RESULT:     -13.0      0.000      0.000
REMARK SMILES CCc1cc(=O)oc2c3c(cc(OCC(=O)NCC(=O)NCCCNC(=O)c4ccc(-c5c6nc(c(-c7c(F)c(F)c(F)c(F)c7F)c7ccc([nH]7)c(-c7c(F)c(F)c(F)c(F)c7F)c7nc(c(-c8c(F)c(F)c(F)c(F)c8F)c8ccc5[nH]8)C=C7)C=C6)cc4)c12)OC(C)(C)CC3
REMARK SMILES IDX 19 1 20 2 21 3 18 5 17 6 15 7 16 8 14 10 13 11 12 12 3 13
REMARK SMILES IDX 4 14 91 15 5 16 8 17 6 18 7 19 9 20 11 21 10 22 97 23 92 24
REMARK SMILES IDX 96 25 93 26 94 27 95 28 2 29 1 30 22 31 23 32 24 33 25 34
REMARK SMILES IDX 26 35 27 37 28 38 29 39 90 40 30 41 89 42 31 43 32 44 33 45
REMARK SMILES IDX 83 46 34 47 88 48 82 49 84 50 35 51 87 52 81 53 80 54 36 56
REMARK SMILES IDX 68 57 48 58 67 59 49 60 52 61 66 62 85 63 50 64 51 65 65 67
REMARK SMILES IDX 86 68 53 69 37 70 38 71 46 72 39 73 40 74 44 75 47 76 41 77
REMARK SMILES IDX 42 78 45 79 43 80 69 81 70 82 78 83 71 84 72 85 76 86 79 87
REMARK SMILES IDX 73 88 74 89 77 90 75 91 54 92 55 93 63 94 56 95 57 96 61 97
REMARK SMILES IDX 64 98 58 99 59 100 62 101 60 102
REMARK H PARENT 21 4 17 9 25 36 84 55 52 66
REMARK Flexibility Score: inf
ROOT
ATOM      1  C   UNL A   1      39.920  22.218  26.673  1.00  0.00     0.239 C 
ATOM      2  O   UNL A   1      39.858  23.427  26.903  1.00  0.00    -0.273 OA
ATOM      3  N   UNL A   1      41.076  21.554  26.986  1.00  0.00    -0.355 N 
ATOM      4  H   UNL A   1      41.850  22.113  27.226  1.00  0.00     0.163 HD
ENDROOT
BRANCH   1   5
ATOM      5  C   UNL A   1      38.713  21.447  26.118  1.00  0.00     0.216 C 
BRANCH   5   6
ATOM      6  N   UNL A   1      38.154  22.086  24.937  1.00  0.00    -0.344 N 
ATOM      7  C   UNL A   1      37.189  23.044  24.858  1.00  0.00     0.258 C 
ATOM      8  O   UNL A   1      36.946  23.532  23.753  1.00  0.00    -0.271 OA
ATOM      9  H   UNL A   1      38.525  21.784  24.076  1.00  0.00     0.164 HD
BRANCH   7  10
ATOM     10  C   UNL A   1      36.444  23.515  26.124  1.00  0.00     0.329 C 
BRANCH  10  11
ATOM     11  O   UNL A   1      35.258  22.836  26.518  1.00  0.00    -0.483 OA
BRANCH  11  12
ATOM     12  C   UNL A   1      34.558  22.093  25.603  1.00  0.00     0.135 A 
ATOM     13  C   UNL A   1      32.854  24.035  25.236  1.00  0.00    -0.026 A 
ATOM     14  C   UNL A   1      31.731  24.393  24.588  1.00  0.00     0.098 A 
ATOM     15  C   UNL A   1      33.422  22.677  24.983  1.00  0.00     0.063 A 
ATOM     16  C   UNL A   1      31.043  23.572  23.594  1.00  0.00     0.336 A 
ATOM     17  C   UNL A   1      32.687  21.839  24.117  1.00  0.00     0.149 A 
ATOM     18  O   UNL A   1      30.092  24.016  22.962  1.00  0.00    -0.246 OA
ATOM     19  O   UNL A   1      31.535  22.299  23.432  1.00  0.00    -0.422 OA
ATOM     20  C   UNL A   1      32.989  20.480  23.907  1.00  0.00     0.038 A 
ATOM     21  C   UNL A   1      34.901  20.757  25.335  1.00  0.00     0.094 A 
ATOM     22  C   UNL A   1      34.087  19.944  24.558  1.00  0.00     0.130 A 
ATOM     23  C   UNL A   1      32.080  19.599  23.109  1.00  0.00     0.047 C 
ATOM     24  O   UNL A   1      34.424  18.619  24.535  1.00  0.00    -0.487 OA
ATOM     25  C   UNL A   1      32.703  18.237  22.847  1.00  0.00     0.053 C 
ATOM     26  C   UNL A   1      33.406  17.699  24.100  1.00  0.00     0.104 C 
ATOM     27  C   UNL A   1      34.150  16.403  23.755  1.00  0.00     0.056 C 
ATOM     28  C   UNL A   1      32.443  17.392  25.262  1.00  0.00     0.056 C 
BRANCH  13  29
ATOM     29  C   UNL A   1      33.401  25.035  26.233  1.00  0.00     0.033 C 
ATOM     30  C   UNL A   1      34.008  26.267  25.568  1.00  0.00     0.009 C 
ENDBRANCH  13  29
ENDBRANCH  11  12
ENDBRANCH  10  11
ENDBRANCH   7  10
ENDBRANCH   5   6
ENDBRANCH   1   5
BRANCH   3  31
ATOM     31  C   UNL A   1      41.287  20.124  27.004  1.00  0.00     0.117 C 
BRANCH  31  32
ATOM     32  C   UNL A   1      41.971  19.592  25.757  1.00  0.00     0.042 C 
BRANCH  32  33
ATOM     33  C   UNL A   1      43.162  18.678  26.020  1.00  0.00     0.118 C 
BRANCH  33  34
ATOM     34  N   UNL A   1      44.075  18.538  24.890  1.00  0.00    -0.352 N 
ATOM     35  C   UNL A   1      44.947  19.404  24.273  1.00  0.00     0.251 C 
ATOM     36  H   UNL A   1      44.064  17.639  24.487  1.00  0.00     0.163 HD
ATOM     37  O   UNL A   1      45.600  18.989  23.318  1.00  0.00    -0.269 OA
BRANCH  35  38
ATOM     38  C   UNL A   1      45.096  20.825  24.673  1.00  0.00     0.039 A 
ATOM     39  C   UNL A   1      44.659  21.818  23.779  1.00  0.00     0.014 A 
ATOM     40  C   UNL A   1      45.668  21.208  25.882  1.00  0.00     0.014 A 
ATOM     41  C   UNL A   1      44.698  23.169  24.135  1.00  0.00     0.010 A 
ATOM     42  C   UNL A   1      45.649  22.547  26.269  1.00  0.00     0.010 A 
ATOM     43  C   UNL A   1      45.173  23.540  25.397  1.00  0.00    -0.014 A 
BRANCH  43  44
ATOM     44  C   UNL A   1      45.308  24.961  25.802  1.00  0.00     0.031 A 
ATOM     45  C   UNL A   1      46.670  25.587  25.771  1.00  0.00     0.074 A 
ATOM     46  C   UNL A   1      44.255  25.656  26.268  1.00  0.00     0.049 A 
ATOM     47  N   UNL A   1      47.055  26.756  26.209  1.00  0.00    -0.248 NA
ATOM     48  C   UNL A   1      47.749  24.773  25.187  1.00  0.00     0.031 C 
ATOM     49  C   UNL A   1      42.887  25.158  26.336  1.00  0.00     0.029 A 
ATOM     50  N   UNL A   1      44.173  26.917  26.805  1.00  0.00    -0.354 N 
ATOM     51  C   UNL A   1      48.417  26.817  25.956  1.00  0.00     0.074 A 
ATOM     52  C   UNL A   1      48.806  25.543  25.392  1.00  0.00     0.031 C 
ATOM     53  C   UNL A   1      42.102  26.084  26.909  1.00  0.00     0.029 A 
ATOM     54  C   UNL A   1      42.920  27.234  27.273  1.00  0.00     0.049 A 
ATOM     55  H   UNL A   1      44.938  27.535  26.849  1.00  0.00     0.167 HD
ATOM     56  C   UNL A   1      49.261  27.858  26.145  1.00  0.00     0.037 A 
ATOM     57  C   UNL A   1      42.484  28.322  27.934  1.00  0.00     0.037 A 
ATOM     58  C   UNL A   1      48.862  29.123  26.698  1.00  0.00     0.049 A 
ATOM     59  C   UNL A   1      43.453  29.443  28.194  1.00  0.00     0.074 A 
ATOM     60  C   UNL A   1      49.624  30.259  26.893  1.00  0.00     0.029 A 
ATOM     61  N   UNL A   1      47.582  29.414  27.151  1.00  0.00    -0.354 N 
ATOM     62  N   UNL A   1      44.727  29.516  27.894  1.00  0.00    -0.248 NA
ATOM     63  C   UNL A   1      42.922  30.638  28.861  1.00  0.00     0.031 C 
ATOM     64  C   UNL A   1      48.819  31.224  27.507  1.00  0.00     0.029 A 
ATOM     65  C   UNL A   1      47.540  30.707  27.648  1.00  0.00     0.049 A 
ATOM     66  H   UNL A   1      46.818  28.794  27.124  1.00  0.00     0.167 HD
ATOM     67  C   UNL A   1      45.141  30.778  28.294  1.00  0.00     0.074 A 
ATOM     68  C   UNL A   1      43.980  31.437  28.857  1.00  0.00     0.031 C 
ATOM     69  C   UNL A   1      46.369  31.344  28.197  1.00  0.00     0.037 A 
BRANCH  56  70
ATOM     70  C   UNL A   1      50.693  27.653  25.749  1.00  0.00     0.064 A 
ATOM     71  C   UNL A   1      51.120  27.834  24.424  1.00  0.00     0.173 A 
ATOM     72  C   UNL A   1      51.647  27.260  26.699  1.00  0.00     0.173 A 
ATOM     73  F   UNL A   1      50.242  28.188  23.473  1.00  0.00    -0.203 F 
ATOM     74  C   UNL A   1      52.441  27.591  24.058  1.00  0.00     0.198 A 
ATOM     75  C   UNL A   1      52.974  27.050  26.335  1.00  0.00     0.198 A 
ATOM     76  F   UNL A   1      51.290  27.071  27.978  1.00  0.00    -0.203 F 
ATOM     77  F   UNL A   1      52.811  27.708  22.775  1.00  0.00    -0.200 F 
ATOM     78  C   UNL A   1      53.368  27.205  25.014  1.00  0.00     0.200 A 
ATOM     79  F   UNL A   1      53.870  26.684  27.261  1.00  0.00    -0.200 F 
ATOM     80  F   UNL A   1      54.639  26.970  24.660  1.00  0.00    -0.200 F 
ENDBRANCH  56  70
BRANCH  57  81
ATOM     81  C   UNL A   1      41.066  28.416  28.373  1.00  0.00     0.064 A 
ATOM     82  C   UNL A   1      40.081  28.944  27.526  1.00  0.00     0.173 A 
ATOM     83  C   UNL A   1      40.666  27.986  29.647  1.00  0.00     0.173 A 
ATOM     84  F   UNL A   1      40.418  29.385  26.305  1.00  0.00    -0.203 F 
ATOM     85  C   UNL A   1      38.757  29.060  27.943  1.00  0.00     0.198 A 
ATOM     86  C   UNL A   1      39.335  28.080  30.054  1.00  0.00     0.198 A 
ATOM     87  F   UNL A   1      41.565  27.467  30.495  1.00  0.00    -0.203 F 
ATOM     88  F   UNL A   1      37.846  29.609  27.129  1.00  0.00    -0.200 F 
ATOM     89  C   UNL A   1      38.383  28.624  29.205  1.00  0.00     0.200 A 
ATOM     90  F   UNL A   1      38.976  27.647  31.271  1.00  0.00    -0.200 F 
ATOM     91  F   UNL A   1      37.110  28.736  29.606  1.00  0.00    -0.200 F 
ENDBRANCH  57  81
BRANCH  69  92
ATOM     92  C   UNL A   1      46.506  32.761  28.668  1.00  0.00     0.064 A 
ATOM     93  C   UNL A   1      46.874  33.067  29.986  1.00  0.00     0.173 A 
ATOM     94  C   UNL A   1      46.300  33.825  27.778  1.00  0.00     0.173 A 
ATOM     95  F   UNL A   1      47.065  32.085  30.880  1.00  0.00    -0.203 F 
ATOM     96  C   UNL A   1      47.006  34.389  30.401  1.00  0.00     0.198 A 
ATOM     97  C   UNL A   1      46.463  35.144  28.188  1.00  0.00     0.198 A 
ATOM     98  F   UNL A   1      45.951  33.583  26.505  1.00  0.00    -0.203 F 
ATOM     99  F   UNL A   1      47.310  34.661  31.678  1.00  0.00    -0.200 F 
ATOM    100  C   UNL A   1      46.809  35.426  29.501  1.00  0.00     0.200 A 
ATOM    101  F   UNL A   1      46.286  36.143  27.312  1.00  0.00    -0.200 F 
ATOM    102  F   UNL A   1      46.944  36.697  29.900  1.00  0.00    -0.200 F 
ENDBRANCH  69  92
ENDBRANCH  43  44
ENDBRANCH  35  38
ENDBRANCH  33  34
ENDBRANCH  32  33
ENDBRANCH  31  32
ENDBRANCH   3  31
TORSDOF 15
ENDMDL
MODEL 2
REMARK VINA RESULT:     -12.9      1.398      3.630
REMARK SMILES CCc1cc(=O)oc2c3c(cc(OCC(=O)NCC(=O)NCCCNC(=O)c4ccc(-c5c6nc(c(-c7c(F)c(F)c(F)c(F)c7F)c7ccc([nH]7)c(-c7c(F)c(F)c(F)c(F)c7F)c7nc(c(-c8c(F)c(F)c(F)c(F)c8F)c8ccc5[nH]8)C=C7)C=C6)cc4)c12)OC(C)(C)CC3
REMARK SMILES IDX 19 1 20 2 21 3 18 5 17 6 15 7 16 8 14 10 13 11 12 12 3 13
REMARK SMILES IDX 4 14 91 15 5 16 8 17 6 18 7 19 9 20 11 21 10 22 97 23 92 24
REMARK SMILES IDX 96 25 93 26 94 27 95 28 2 29 1 30 22 31 23 32 24 33 25 34
REMARK SMILES IDX 26 35 27 37 28 38 29 39 90 40 30 41 89 42 31 43 32 44 33 45
REMARK SMILES IDX 83 46 34 47 88 48 82 49 84 50 35 51 87 52 81 53 80 54 36 56
REMARK SMILES IDX 68 57 48 58 67 59 49 60 52 61 66 62 85 63 50 64 51 65 65 67
REMARK SMILES IDX 86 68 53 69 37 70 38 71 46 72 39 73 40 74 44 75 47 76 41 77
REMARK SMILES IDX 42 78 45 79 43 80 69 81 70 82 78 83 71 84 72 85 76 86 79 87
REMARK SMILES IDX 73 88 74 89 77 90 75 91 54 92 55 93 63 94 56 95 57 96 61 97
REMARK SMILES IDX 64 98 58 99 59 100 62 101 60 102
REMARK H PARENT 21 4 17 9 25 36 84 55 52 66
REMARK Flexibility Score: inf
ROOT
ATOM      1  C   UNL A   1      39.266  22.360  26.329  1.00  0.00     0.239 C 
ATOM      2  O   UNL A   1      39.143  23.579  26.456  1.00  0.00    -0.273 OA
ATOM      3  N   UNL A   1      40.422  21.772  26.770  1.00  0.00    -0.355 N 
ATOM      4  H   UNL A   1      41.156  22.381  27.014  1.00  0.00     0.163 HD
ENDROOT
BRANCH   1   5
ATOM      5  C   UNL A   1      38.130  21.496  25.761  1.00  0.00     0.216 C 
BRANCH   5   6
ATOM      6  N   UNL A   1      37.823  21.839  24.381  1.00  0.00    -0.344 N 
ATOM      7  C   UNL A   1      36.909  22.728  23.903  1.00  0.00     0.258 C 
ATOM      8  O   UNL A   1      36.895  22.950  22.691  1.00  0.00    -0.271 OA
ATOM      9  H   UNL A   1      38.350  21.362  23.699  1.00  0.00     0.164 HD
BRANCH   7  10
ATOM     10  C   UNL A   1      35.940  23.450  24.861  1.00  0.00     0.329 C 
BRANCH  10  11
ATOM     11  O   UNL A   1      34.654  23.829  24.384  1.00  0.00    -0.483 OA
BRANCH  11  12
ATOM     12  C   UNL A   1      33.837  24.608  25.161  1.00  0.00     0.135 A 
ATOM     13  C   UNL A   1      32.155  22.639  25.478  1.00  0.00    -0.026 A 
ATOM     14  C   UNL A   1      30.977  22.288  26.024  1.00  0.00     0.098 A 
ATOM     15  C   UNL A   1      32.655  24.030  25.694  1.00  0.00     0.063 A 
ATOM     16  C   UNL A   1      30.160  23.151  26.876  1.00  0.00     0.336 A 
ATOM     17  C   UNL A   1      31.806  24.900  26.412  1.00  0.00     0.149 A 
ATOM     18  O   UNL A   1      29.158  22.718  27.431  1.00  0.00    -0.246 OA
ATOM     19  O   UNL A   1      30.598  24.448  26.999  1.00  0.00    -0.422 OA
ATOM     20  C   UNL A   1      32.047  26.279  26.555  1.00  0.00     0.038 A 
ATOM     21  C   UNL A   1      34.112  25.971  25.368  1.00  0.00     0.094 A 
ATOM     22  C   UNL A   1      33.195  26.807  25.991  1.00  0.00     0.130 A 
ATOM     23  C   UNL A   1      31.032  27.181  27.184  1.00  0.00     0.047 C 
ATOM     24  O   UNL A   1      33.492  28.141  25.956  1.00  0.00    -0.487 OA
ATOM     25  C   UNL A   1      31.585  28.578  27.414  1.00  0.00     0.053 C 
ATOM     26  C   UNL A   1      32.408  29.053  26.209  1.00  0.00     0.104 C 
ATOM     27  C   UNL A   1      33.074  30.395  26.539  1.00  0.00     0.056 C 
ATOM     28  C   UNL A   1      31.573  29.247  24.930  1.00  0.00     0.056 C 
BRANCH  13  29
ATOM     29  C   UNL A   1      32.836  21.592  24.622  1.00  0.00     0.033 C 
ATOM     30  C   UNL A   1      33.636  20.583  25.440  1.00  0.00     0.009 C 
ENDBRANCH  13  29
ENDBRANCH  11  12
ENDBRANCH  10  11
ENDBRANCH   7  10
ENDBRANCH   5   6
ENDBRANCH   1   5
BRANCH   3  31
ATOM     31  C   UNL A   1      40.684  20.358  26.918  1.00  0.00     0.117 C 
BRANCH  31  32
ATOM     32  C   UNL A   1      41.452  19.755  25.754  1.00  0.00     0.042 C 
BRANCH  32  33
ATOM     33  C   UNL A   1      42.611  18.849  26.152  1.00  0.00     0.118 C 
BRANCH  33  34
ATOM     34  N   UNL A   1      43.601  18.641  25.099  1.00  0.00    -0.352 N 
ATOM     35  C   UNL A   1      44.550  19.456  24.527  1.00  0.00     0.251 C 
ATOM     36  H   UNL A   1      43.587  17.731  24.723  1.00  0.00     0.163 HD
ATOM     37  O   UNL A   1      45.257  18.988  23.638  1.00  0.00    -0.269 OA
BRANCH  35  38
ATOM     38  C   UNL A   1      44.722  20.882  24.898  1.00  0.00     0.039 A 
ATOM     39  C   UNL A   1      44.325  21.863  23.972  1.00  0.00     0.014 A 
ATOM     40  C   UNL A   1      45.278  21.282  26.109  1.00  0.00     0.014 A 
ATOM     41  C   UNL A   1      44.386  23.221  24.297  1.00  0.00     0.010 A 
ATOM     42  C   UNL A   1      45.279  22.629  26.464  1.00  0.00     0.010 A 
ATOM     43  C   UNL A   1      44.843  23.612  25.561  1.00  0.00    -0.014 A 
BRANCH  43  44
ATOM     44  C   UNL A   1      45.001  25.038  25.935  1.00  0.00     0.031 A 
ATOM     45  C   UNL A   1      46.371  25.645  25.879  1.00  0.00     0.074 A 
ATOM     46  C   UNL A   1      43.962  25.757  26.397  1.00  0.00     0.049 A 
ATOM     47  N   UNL A   1      46.776  26.818  26.289  1.00  0.00    -0.248 NA
ATOM     48  C   UNL A   1      47.433  24.806  25.301  1.00  0.00     0.031 C 
ATOM     49  C   UNL A   1      42.588  25.278  26.488  1.00  0.00     0.029 A 
ATOM     50  N   UNL A   1      43.901  27.029  26.908  1.00  0.00    -0.354 N 
ATOM     51  C   UNL A   1      48.136  26.855  26.022  1.00  0.00     0.074 A 
ATOM     52  C   UNL A   1      48.502  25.565  25.481  1.00  0.00     0.031 C 
ATOM     53  C   UNL A   1      41.821  26.226  27.049  1.00  0.00     0.029 A 
ATOM     54  C   UNL A   1      42.658  27.372  27.381  1.00  0.00     0.049 A 
ATOM     55  H   UNL A   1      44.675  27.638  26.933  1.00  0.00     0.167 HD
ATOM     56  C   UNL A   1      48.995  27.888  26.182  1.00  0.00     0.037 A 
ATOM     57  C   UNL A   1      42.242  28.480  28.025  1.00  0.00     0.037 A 
ATOM     58  C   UNL A   1      48.618  29.169  26.713  1.00  0.00     0.049 A 
ATOM     59  C   UNL A   1      43.229  29.592  28.252  1.00  0.00     0.074 A 
ATOM     60  C   UNL A   1      49.397  30.299  26.877  1.00  0.00     0.029 A 
ATOM     61  N   UNL A   1      47.346  29.487  27.172  1.00  0.00    -0.354 N 
ATOM     62  N   UNL A   1      44.501  29.642  27.939  1.00  0.00    -0.248 NA
ATOM     63  C   UNL A   1      42.719  30.808  28.900  1.00  0.00     0.031 C 
ATOM     64  C   UNL A   1      48.610  31.287  27.479  1.00  0.00     0.029 A 
ATOM     65  C   UNL A   1      47.326  30.790  27.643  1.00  0.00     0.049 A 
ATOM     66  H   UNL A   1      46.574  28.877  27.164  1.00  0.00     0.167 HD
ATOM     67  C   UNL A   1      44.935  30.907  28.309  1.00  0.00     0.074 A 
ATOM     68  C   UNL A   1      43.788  31.592  28.870  1.00  0.00     0.031 C 
ATOM     69  C   UNL A   1      46.170  31.453  28.189  1.00  0.00     0.037 A 
BRANCH  56  70
ATOM     70  C   UNL A   1      50.420  27.656  25.777  1.00  0.00     0.064 A 
ATOM     71  C   UNL A   1      50.834  27.793  24.442  1.00  0.00     0.173 A 
ATOM     72  C   UNL A   1      51.381  27.282  26.727  1.00  0.00     0.173 A 
ATOM     73  F   UNL A   1      49.949  28.128  23.491  1.00  0.00    -0.203 F 
ATOM     74  C   UNL A   1      52.148  27.525  24.069  1.00  0.00     0.198 A 
ATOM     75  C   UNL A   1      52.701  27.047  26.356  1.00  0.00     0.198 A 
ATOM     76  F   UNL A   1      51.036  27.136  28.016  1.00  0.00    -0.203 F 
ATOM     77  F   UNL A   1      52.506  27.599  22.779  1.00  0.00    -0.200 F 
ATOM     78  C   UNL A   1      53.082  27.158  25.026  1.00  0.00     0.200 A 
ATOM     79  F   UNL A   1      53.604  26.699  27.283  1.00  0.00    -0.200 F 
ATOM     80  F   UNL A   1      54.346  26.898  24.666  1.00  0.00    -0.200 F 
ENDBRANCH  56  70
BRANCH  57  81
ATOM     81  C   UNL A   1      40.830  28.601  28.475  1.00  0.00     0.064 A 
ATOM     82  C   UNL A   1      40.462  28.292  29.791  1.00  0.00     0.173 A 
ATOM     83  C   UNL A   1      39.819  29.023  27.598  1.00  0.00     0.173 A 
ATOM     84  F   UNL A   1      41.390  27.867  30.662  1.00  0.00    -0.203 F 
ATOM     85  C   UNL A   1      39.135  28.378  30.209  1.00  0.00     0.198 A 
ATOM     86  C   UNL A   1      38.495  29.131  28.024  1.00  0.00     0.198 A 
ATOM     87  F   UNL A   1      40.116  29.337  26.329  1.00  0.00    -0.203 F 
ATOM     88  F   UNL A   1      38.806  28.033  31.461  1.00  0.00    -0.200 F 
ATOM     89  C   UNL A   1      38.153  28.801  29.327  1.00  0.00     0.200 A 
ATOM     90  F   UNL A   1      37.551  29.553  27.171  1.00  0.00    -0.200 F 
ATOM     91  F   UNL A   1      36.878  28.883  29.729  1.00  0.00    -0.200 F 
ENDBRANCH  57  81
BRANCH  69  92
ATOM     92  C   UNL A   1      46.330  32.878  28.631  1.00  0.00     0.064 A 
ATOM     93  C   UNL A   1      46.103  33.950  27.758  1.00  0.00     0.173 A 
ATOM     94  C   UNL A   1      46.681  33.171  29.957  1.00  0.00     0.173 A 
ATOM     95  F   UNL A   1      45.782  33.721  26.475  1.00  0.00    -0.203 F 
ATOM     96  C   UNL A   1      46.247  35.266  28.190  1.00  0.00     0.198 A 
ATOM     97  C   UNL A   1      46.793  34.487  30.394  1.00  0.00     0.198 A 
ATOM     98  F   UNL A   1      46.904  32.179  30.833  1.00  0.00    -0.203 F 
ATOM     99  F   UNL A   1      46.074  36.275  27.326  1.00  0.00    -0.200 F 
ATOM    100  C   UNL A   1      46.583  35.533  29.509  1.00  0.00     0.200 A 
ATOM    101  F   UNL A   1      47.105  34.743  31.673  1.00  0.00    -0.200 F 
ATOM    102  F   UNL A   1      46.713  36.799  29.925  1.00  0.00    -0.200 F 
ENDBRANCH  69  92
ENDBRANCH  43  44
ENDBRANCH  35  38
ENDBRANCH  33  34
ENDBRANCH  32  33
ENDBRANCH  31  32
ENDBRANCH   3  31
TORSDOF 15
ENDMDL
MODEL 3
REMARK VINA RESULT:     -12.9      3.876      8.944
REMARK SMILES CCc1cc(=O)oc2c3c(cc(OCC(=O)NCC(=O)NCCCNC(=O)c4ccc(-c5c6nc(c(-c7c(F)c(F)c(F)c(F)c7F)c7ccc([nH]7)c(-c7c(F)c(F)c(F)c(F)c7F)c7nc(c(-c8c(F)c(F)c(F)c(F)c8F)c8ccc5[nH]8)C=C7)C=C6)cc4)c12)OC(C)(C)CC3
REMARK SMILES IDX 19 1 20 2 21 3 18 5 17 6 15 7 16 8 14 10 13 11 12 12 3 13
REMARK SMILES IDX 4 14 91 15 5 16 8 17 6 18 7 19 9 20 11 21 10 22 97 23 92 24
REMARK SMILES IDX 96 25 93 26 94 27 95 28 2 29 1 30 22 31 23 32 24 33 25 34
REMARK SMILES IDX 26 35 27 37 28 38 29 39 90 40 30 41 89 42 31 43 32 44 33 45
REMARK SMILES IDX 83 46 34 47 88 48 82 49 84 50 35 51 87 52 81 53 80 54 36 56
REMARK SMILES IDX 68 57 48 58 67 59 49 60 52 61 66 62 85 63 50 64 51 65 65 67
REMARK SMILES IDX 86 68 53 69 37 70 38 71 46 72 39 73 40 74 44 75 47 76 41 77
REMARK SMILES IDX 42 78 45 79 43 80 69 81 70 82 78 83 71 84 72 85 76 86 79 87
REMARK SMILES IDX 73 88 74 89 77 90 75 91 54 92 55 93 63 94 56 95 57 96 61 97
REMARK SMILES IDX 64 98 58 99 59 100 62 101 60 102
REMARK H PARENT 21 4 17 9 25 36 84 55 52 66
REMARK Flexibility Score: inf
ROOT
ATOM      1  C   UNL A   1      30.994  26.131  24.443  1.00  0.00     0.239 C 
ATOM      2  O   UNL A   1      31.147  25.604  23.340  1.00  0.00    -0.273 OA
ATOM      3  N   UNL A   1      31.694  27.276  24.720  1.00  0.00    -0.355 N 
ATOM      4  H   UNL A   1      32.403  27.520  24.083  1.00  0.00     0.163 HD
ENDROOT
BRANCH   1   5
ATOM      5  C   UNL A   1      29.991  25.574  25.464  1.00  0.00     0.216 C 
BRANCH   5   6
ATOM      6  N   UNL A   1      30.653  24.861  26.545  1.00  0.00    -0.344 N 
ATOM      7  C   UNL A   1      31.216  23.621  26.534  1.00  0.00     0.258 C 
ATOM      8  O   UNL A   1      31.832  23.255  27.537  1.00  0.00    -0.271 OA
ATOM      9  H   UNL A   1      30.702  25.342  27.403  1.00  0.00     0.164 HD
BRANCH   7  10
ATOM     10  C   UNL A   1      31.102  22.717  25.289  1.00  0.00     0.329 C 
BRANCH  10  11
ATOM     11  O   UNL A   1      32.249  22.526  24.469  1.00  0.00    -0.483 OA
BRANCH  11  12
ATOM     12  C   UNL A   1      33.087  21.467  24.699  1.00  0.00     0.135 A 
ATOM     13  C   UNL A   1      35.180  23.024  24.626  1.00  0.00    -0.026 A 
ATOM     14  C   UNL A   1      36.523  23.051  24.691  1.00  0.00     0.098 A 
ATOM     15  C   UNL A   1      34.483  21.713  24.790  1.00  0.00     0.063 A 
ATOM     16  C   UNL A   1      37.368  21.892  24.975  1.00  0.00     0.336 A 
ATOM     17  C   UNL A   1      35.307  20.577  24.939  1.00  0.00     0.149 A 
ATOM     18  O   UNL A   1      38.576  22.020  25.134  1.00  0.00    -0.246 OA
ATOM     19  O   UNL A   1      36.716  20.685  25.046  1.00  0.00    -0.422 OA
ATOM     20  C   UNL A   1      34.819  19.257  24.934  1.00  0.00     0.038 A 
ATOM     21  C   UNL A   1      32.596  20.151  24.769  1.00  0.00     0.094 A 
ATOM     22  C   UNL A   1      33.454  19.061  24.810  1.00  0.00     0.130 A 
ATOM     23  C   UNL A   1      35.753  18.086  24.930  1.00  0.00     0.047 C 
ATOM     24  O   UNL A   1      32.862  17.836  24.676  1.00  0.00    -0.487 OA
ATOM     25  C   UNL A   1      35.012  16.774  25.128  1.00  0.00     0.053 C 
ATOM     26  C   UNL A   1      33.717  16.740  24.305  1.00  0.00     0.104 C 
ATOM     27  C   UNL A   1      32.924  15.472  24.648  1.00  0.00     0.056 C 
ATOM     28  C   UNL A   1      33.953  16.747  22.783  1.00  0.00     0.056 C 
BRANCH  13  29
ATOM     29  C   UNL A   1      34.497  24.339  24.314  1.00  0.00     0.033 C 
ATOM     30  C   UNL A   1      34.441  25.280  25.513  1.00  0.00     0.009 C 
ENDBRANCH  13  29
ENDBRANCH  11  12
ENDBRANCH  10  11
ENDBRANCH   7  10
ENDBRANCH   5   6
ENDBRANCH   1   5
BRANCH   3  31
ATOM     31  C   UNL A   1      31.506  28.166  25.844  1.00  0.00     0.117 C 
BRANCH  31  32
ATOM     32  C   UNL A   1      32.388  27.837  27.037  1.00  0.00     0.042 C 
BRANCH  32  33
ATOM     33  C   UNL A   1      33.749  28.523  27.036  1.00  0.00     0.118 C 
BRANCH  33  34
ATOM     34  N   UNL A   1      33.733  29.892  27.541  1.00  0.00    -0.352 N 
ATOM     35  C   UNL A   1      34.675  30.672  28.171  1.00  0.00     0.251 C 
ATOM     36  H   UNL A   1      32.873  30.351  27.402  1.00  0.00     0.163 HD
ATOM     37  O   UNL A   1      34.363  31.818  28.486  1.00  0.00    -0.269 OA
BRANCH  35  38
ATOM     38  C   UNL A   1      36.026  30.178  28.531  1.00  0.00     0.039 A 
ATOM     39  C   UNL A   1      37.028  30.199  27.545  1.00  0.00     0.014 A 
ATOM     40  C   UNL A   1      36.331  29.677  29.793  1.00  0.00     0.014 A 
ATOM     41  C   UNL A   1      38.340  29.823  27.848  1.00  0.00     0.010 A 
ATOM     42  C   UNL A   1      37.649  29.365  30.119  1.00  0.00     0.010 A 
ATOM     43  C   UNL A   1      38.664  29.425  29.150  1.00  0.00    -0.014 A 
BRANCH  43  44
ATOM     44  C   UNL A   1      40.019  28.944  29.512  1.00  0.00     0.031 A 
ATOM     45  C   UNL A   1      40.919  29.858  30.289  1.00  0.00     0.074 A 
ATOM     46  C   UNL A   1      40.472  27.751  29.086  1.00  0.00     0.049 A 
ATOM     47  N   UNL A   1      42.182  29.715  30.594  1.00  0.00    -0.248 NA
ATOM     48  C   UNL A   1      40.319  31.114  30.766  1.00  0.00     0.031 C 
ATOM     49  C   UNL A   1      39.688  26.778  28.335  1.00  0.00     0.029 A 
ATOM     50  N   UNL A   1      41.708  27.165  29.193  1.00  0.00    -0.354 N 
ATOM     51  C   UNL A   1      42.525  30.860  31.296  1.00  0.00     0.074 A 
ATOM     52  C   UNL A   1      41.362  31.719  31.310  1.00  0.00     0.031 C 
ATOM     53  C   UNL A   1      40.463  25.729  28.018  1.00  0.00     0.029 A 
ATOM     54  C   UNL A   1      41.809  25.968  28.524  1.00  0.00     0.049 A 
ATOM     55  H   UNL A   1      42.452  27.564  29.700  1.00  0.00     0.167 HD
ATOM     56  C   UNL A   1      43.698  31.152  31.903  1.00  0.00     0.037 A 
ATOM     57  C   UNL A   1      42.869  25.163  28.328  1.00  0.00     0.037 A 
ATOM     58  C   UNL A   1      44.845  30.287  31.890  1.00  0.00     0.049 A 
ATOM     59  C   UNL A   1      44.183  25.538  28.958  1.00  0.00     0.074 A 
ATOM     60  C   UNL A   1      46.069  30.464  32.510  1.00  0.00     0.029 A 
ATOM     61  N   UNL A   1      44.909  29.076  31.214  1.00  0.00    -0.354 N 
ATOM     62  N   UNL A   1      44.482  26.594  29.673  1.00  0.00    -0.248 NA
ATOM     63  C   UNL A   1      45.298  24.600  28.774  1.00  0.00     0.031 C 
ATOM     64  C   UNL A   1      46.890  29.384  32.170  1.00  0.00     0.029 A 
ATOM     65  C   UNL A   1      46.161  28.506  31.381  1.00  0.00     0.049 A 
ATOM     66  H   UNL A   1      44.174  28.681  30.692  1.00  0.00     0.167 HD
ATOM     67  C   UNL A   1      45.803  26.430  30.062  1.00  0.00     0.074 A 
ATOM     68  C   UNL A   1      46.247  25.169  29.503  1.00  0.00     0.031 C 
ATOM     69  C   UNL A   1      46.577  27.246  30.820  1.00  0.00     0.037 A 
BRANCH  56  70
ATOM     70  C   UNL A   1      43.782  32.465  32.625  1.00  0.00     0.064 A 
ATOM     71  C   UNL A   1      43.436  32.579  33.981  1.00  0.00     0.173 A 
ATOM     72  C   UNL A   1      44.200  33.623  31.954  1.00  0.00     0.173 A 
ATOM     73  F   UNL A   1      43.010  31.505  34.663  1.00  0.00    -0.203 F 
ATOM     74  C   UNL A   1      43.469  33.812  34.627  1.00  0.00     0.198 A 
ATOM     75  C   UNL A   1      44.262  34.848  32.612  1.00  0.00     0.198 A 
ATOM     76  F   UNL A   1      44.539  33.568  30.657  1.00  0.00    -0.203 F 
ATOM     77  F   UNL A   1      43.072  33.908  35.904  1.00  0.00    -0.200 F 
ATOM     78  C   UNL A   1      43.887  34.944  33.944  1.00  0.00     0.200 A 
ATOM     79  F   UNL A   1      44.673  35.939  31.953  1.00  0.00    -0.200 F 
ATOM     80  F   UNL A   1      43.915  36.130  34.566  1.00  0.00    -0.200 F 
ENDBRANCH  56  70
BRANCH  57  81
ATOM     81  C   UNL A   1      42.729  23.918  27.526  1.00  0.00     0.064 A 
ATOM     82  C   UNL A   1      42.273  22.729  28.112  1.00  0.00     0.173 A 
ATOM     83  C   UNL A   1      43.053  23.890  26.161  1.00  0.00     0.173 A 
ATOM     84  F   UNL A   1      41.969  22.702  29.418  1.00  0.00    -0.203 F 
ATOM     85  C   UNL A   1      42.167  21.554  27.370  1.00  0.00     0.198 A 
ATOM     86  C   UNL A   1      42.923  22.719  25.415  1.00  0.00     0.198 A 
ATOM     87  F   UNL A   1      43.488  25.000  25.549  1.00  0.00    -0.203 F 
ATOM     88  F   UNL A   1      41.771  20.422  27.967  1.00  0.00    -0.200 F 
ATOM     89  C   UNL A   1      42.488  21.550  26.022  1.00  0.00     0.200 A 
ATOM     90  F   UNL A   1      43.223  22.722  24.108  1.00  0.00    -0.200 F 
ATOM     91  F   UNL A   1      42.386  20.420  25.310  1.00  0.00    -0.200 F 
ENDBRANCH  57  81
BRANCH  69  92
ATOM     92  C   UNL A   1      47.968  26.775  31.126  1.00  0.00     0.064 A 
ATOM     93  C   UNL A   1      48.244  25.964  32.235  1.00  0.00     0.173 A 
ATOM     94  C   UNL A   1      49.031  27.113  30.275  1.00  0.00     0.173 A 
ATOM     95  F   UNL A   1      47.264  25.629  33.088  1.00  0.00    -0.203 F 
ATOM     96  C   UNL A   1      49.541  25.528  32.495  1.00  0.00     0.198 A 
ATOM     97  C   UNL A   1      50.320  26.650  30.521  1.00  0.00     0.198 A 
ATOM     98  F   UNL A   1      48.817  27.883  29.197  1.00  0.00    -0.203 F 
ATOM     99  F   UNL A   1      49.792  24.796  33.589  1.00  0.00    -0.200 F 
ATOM    100  C   UNL A   1      50.575  25.864  31.635  1.00  0.00     0.200 A 
ATOM    101  F   UNL A   1      51.315  26.964  29.680  1.00  0.00    -0.200 F 
ATOM    102  F   UNL A   1      51.820  25.438  31.883  1.00  0.00    -0.200 F 
ENDBRANCH  69  92
ENDBRANCH  43  44
ENDBRANCH  35  38
ENDBRANCH  33  34
ENDBRANCH  32  33
ENDBRANCH  31  32
ENDBRANCH   3  31
TORSDOF 15
ENDMDL
