MODEL 1
REMARK VINA RESULT:     -12.9      0.000      0.000
REMARK SMILES CC1(C)CCC[C@@H]1Nc1nc2c(cc1C(=O)NCCCNC(=O)c1ccc(-c3c4nc(c(-c5c(F)c(F)c(F)c(F)c5F)c5ccc([nH]5)c(-c5c(F)c(F)c(F)c(F)c5F)c5nc(c(-c6c(F)c(F)c(F)c(F)c6F)c6ccc3[nH]6)C=C5)C=C4)cc1)CCC2
REMARK SMILES IDX 19 1 18 2 17 3 15 4 16 5 14 7 9 8 10 9 11 10 13 11 12 12
REMARK SMILES IDX 89 13 87 14 88 15 8 16 7 18 1 19 2 20 3 21 4 22 5 23 6 24
REMARK SMILES IDX 20 25 21 26 22 27 23 29 24 30 25 31 86 32 26 33 85 34 27 35
REMARK SMILES IDX 28 36 29 37 79 38 30 39 84 40 78 41 80 42 31 43 83 44 77 45
REMARK SMILES IDX 76 46 32 48 64 49 44 50 63 51 45 52 48 53 62 54 81 55 46 56
REMARK SMILES IDX 47 57 61 59 82 60 49 61 33 62 34 63 42 64 35 65 36 66 40 67
REMARK SMILES IDX 43 68 37 69 38 70 41 71 39 72 65 73 66 74 74 75 67 76 68 77
REMARK SMILES IDX 72 78 75 79 69 80 70 81 73 82 71 83 50 84 51 85 59 86 52 87
REMARK SMILES IDX 53 88 57 89 60 90 54 91 55 92 58 93 56 94
REMARK H PARENT 17 6 8 17 21 28 80 47 48 58
REMARK Flexibility Score: inf
ROOT
ATOM      1  C   UNL A   1      31.524  31.331  26.656  1.00  0.00     0.042 C 
ENDROOT
BRANCH   1   2
ATOM      2  C   UNL A   1      31.868  29.948  26.120  1.00  0.00     0.118 C 
BRANCH   2   3
ATOM      3  N   UNL A   1      32.963  29.879  25.187  1.00  0.00    -0.352 N 
ATOM      4  C   UNL A   1      33.051  29.152  24.025  1.00  0.00     0.255 C 
ATOM      5  O   UNL A   1      33.950  29.466  23.239  1.00  0.00    -0.269 OA
ATOM      6  H   UNL A   1      33.752  30.423  25.412  1.00  0.00     0.163 HD
BRANCH   4   7
ATOM      7  C   UNL A   1      32.252  27.931  23.737  1.00  0.00     0.082 A 
ATOM      8  C   UNL A   1      30.967  27.811  23.176  1.00  0.00     0.139 A 
ATOM      9  N   UNL A   1      30.338  26.604  23.080  1.00  0.00    -0.235 NA
ATOM     10  C   UNL A   1      31.008  25.513  23.481  1.00  0.00     0.046 A 
ATOM     11  C   UNL A   1      32.922  26.744  24.125  1.00  0.00     0.023 A 
ATOM     12  C   UNL A   1      32.287  25.529  23.990  1.00  0.00    -0.025 A 
ATOM     13  C   UNL A   1      30.488  24.109  23.363  1.00  0.00     0.057 C 
ATOM     14  C   UNL A   1      32.782  24.150  24.268  1.00  0.00     0.038 C 
ATOM     15  C   UNL A   1      31.466  23.355  24.276  1.00  0.00     0.011 C 
BRANCH   8  16
ATOM     16  N   UNL A   1      30.142  28.781  22.662  1.00  0.00    -0.366 N 
ATOM     17  H   UNL A   1      30.085  28.848  21.682  1.00  0.00     0.162 HD
BRANCH  16  18
ATOM     18  C   UNL A   1      29.346  29.717  23.436  1.00  0.00     0.086 C 
ATOM     19  C   UNL A   1      26.969  28.712  23.159  1.00  0.00     0.013 C 
ATOM     20  C   UNL A   1      27.907  29.875  22.847  1.00  0.00    -0.015 C 
ATOM     21  C   UNL A   1      27.864  30.097  21.321  1.00  0.00     0.013 C 
ATOM     22  C   UNL A   1      27.446  31.140  23.588  1.00  0.00     0.008 C 
ATOM     23  C   UNL A   1      28.670  32.054  23.601  1.00  0.00     0.003 C 
ATOM     24  C   UNL A   1      29.891  31.149  23.395  1.00  0.00     0.025 C 
ENDBRANCH  16  18
ENDBRANCH   8  16
ENDBRANCH   4   7
ENDBRANCH   2   3
ENDBRANCH   1   2
BRANCH   1  25
ATOM     25  C   UNL A   1      32.715  32.276  26.811  1.00  0.00     0.118 C 
BRANCH  25  26
ATOM     26  N   UNL A   1      32.409  33.579  27.396  1.00  0.00    -0.352 N 
ATOM     27  C   UNL A   1      33.011  34.318  28.387  1.00  0.00     0.251 C 
ATOM     28  H   UNL A   1      31.618  34.014  27.003  1.00  0.00     0.163 HD
ATOM     29  O   UNL A   1      32.499  35.373  28.757  1.00  0.00    -0.269 OA
BRANCH  27  30
ATOM     30  C   UNL A   1      34.240  33.847  29.055  1.00  0.00     0.039 A 
ATOM     31  C   UNL A   1      35.472  34.430  28.729  1.00  0.00     0.014 A 
ATOM     32  C   UNL A   1      34.192  32.790  29.957  1.00  0.00     0.014 A 
ATOM     33  C   UNL A   1      36.642  33.993  29.360  1.00  0.00     0.010 A 
ATOM     34  C   UNL A   1      35.333  32.422  30.654  1.00  0.00     0.010 A 
ATOM     35  C   UNL A   1      36.572  33.001  30.347  1.00  0.00    -0.014 A 
BRANCH  35  36
ATOM     36  C   UNL A   1      37.774  32.457  31.025  1.00  0.00     0.031 A 
ATOM     37  C   UNL A   1      38.535  31.343  30.359  1.00  0.00     0.074 A 
ATOM     38  C   UNL A   1      38.099  32.863  32.265  1.00  0.00     0.049 A 
ATOM     39  N   UNL A   1      39.469  30.567  30.844  1.00  0.00    -0.248 NA
ATOM     40  C   UNL A   1      38.152  31.026  28.972  1.00  0.00     0.031 C 
ATOM     41  C   UNL A   1      37.415  33.910  33.022  1.00  0.00     0.029 A 
ATOM     42  N   UNL A   1      39.079  32.420  33.119  1.00  0.00    -0.354 N 
ATOM     43  C   UNL A   1      39.759  29.658  29.836  1.00  0.00     0.074 A 
ATOM     44  C   UNL A   1      38.857  29.930  28.740  1.00  0.00     0.031 C 
ATOM     45  C   UNL A   1      38.003  34.038  34.223  1.00  0.00     0.029 A 
ATOM     46  C   UNL A   1      39.077  33.056  34.335  1.00  0.00     0.049 A 
ATOM     47  H   UNL A   1      39.720  31.711  32.882  1.00  0.00     0.167 HD
ATOM     48  C   UNL A   1      40.718  28.704  29.812  1.00  0.00     0.037 A 
ATOM     49  C   UNL A   1      39.853  32.857  35.419  1.00  0.00     0.037 A 
ATOM     50  C   UNL A   1      41.646  28.479  30.886  1.00  0.00     0.049 A 
ATOM     51  C   UNL A   1      40.908  31.782  35.376  1.00  0.00     0.074 A 
ATOM     52  C   UNL A   1      42.704  27.592  30.938  1.00  0.00     0.029 A 
ATOM     53  N   UNL A   1      41.628  29.162  32.094  1.00  0.00    -0.354 N 
ATOM     54  N   UNL A   1      41.212  30.961  34.399  1.00  0.00    -0.248 NA
ATOM     55  C   UNL A   1      41.723  31.602  36.585  1.00  0.00     0.031 C 
ATOM     56  C   UNL A   1      43.308  27.714  32.193  1.00  0.00     0.029 A 
ATOM     57  C   UNL A   1      42.648  28.702  32.908  1.00  0.00     0.049 A 
ATOM     58  H   UNL A   1      40.987  29.867  32.335  1.00  0.00     0.167 HD
ATOM     59  C   UNL A   1      42.263  30.184  34.864  1.00  0.00     0.074 A 
ATOM     60  C   UNL A   1      42.556  30.639  36.208  1.00  0.00     0.031 C 
ATOM     61  C   UNL A   1      42.924  29.180  34.238  1.00  0.00     0.037 A 
BRANCH  48  62
ATOM     62  C   UNL A   1      40.831  27.859  28.577  1.00  0.00     0.064 A 
ATOM     63  C   UNL A   1      40.140  26.644  28.458  1.00  0.00     0.173 A 
ATOM     64  C   UNL A   1      41.607  28.281  27.488  1.00  0.00     0.173 A 
ATOM     65  F   UNL A   1      39.393  26.189  29.476  1.00  0.00    -0.203 F 
ATOM     66  C   UNL A   1      40.245  25.868  27.307  1.00  0.00     0.198 A 
ATOM     67  C   UNL A   1      41.685  27.518  26.325  1.00  0.00     0.198 A 
ATOM     68  F   UNL A   1      42.285  29.437  27.547  1.00  0.00    -0.203 F 
ATOM     69  F   UNL A   1      39.616  24.686  27.239  1.00  0.00    -0.200 F 
ATOM     70  C   UNL A   1      41.010  26.309  26.239  1.00  0.00     0.200 A 
ATOM     71  F   UNL A   1      42.415  27.951  25.288  1.00  0.00    -0.200 F 
ATOM     72  F   UNL A   1      41.104  25.566  25.128  1.00  0.00    -0.200 F 
ENDBRANCH  48  62
BRANCH  49  73
ATOM     73  C   UNL A   1      39.691  33.725  36.613  1.00  0.00     0.064 A 
ATOM     74  C   UNL A   1      40.357  34.956  36.692  1.00  0.00     0.173 A 
ATOM     75  C   UNL A   1      38.858  33.365  37.683  1.00  0.00     0.173 A 
ATOM     76  F   UNL A   1      41.179  35.334  35.703  1.00  0.00    -0.203 F 
ATOM     77  C   UNL A   1      40.203  35.791  37.796  1.00  0.00     0.198 A 
ATOM     78  C   UNL A   1      38.687  34.212  38.778  1.00  0.00     0.198 A 
ATOM     79  F   UNL A   1      38.197  32.199  37.657  1.00  0.00    -0.203 F 
ATOM     80  F   UNL A   1      40.875  36.949  37.857  1.00  0.00    -0.200 F 
ATOM     81  C   UNL A   1      39.362  35.422  38.835  1.00  0.00     0.200 A 
ATOM     82  F   UNL A   1      37.864  33.858  39.774  1.00  0.00    -0.200 F 
ATOM     83  F   UNL A   1      39.206  36.230  39.892  1.00  0.00    -0.200 F 
ENDBRANCH  49  73
BRANCH  61  84
ATOM     84  C   UNL A   1      44.034  28.503  34.983  1.00  0.00     0.064 A 
ATOM     85  C   UNL A   1      43.807  27.329  35.714  1.00  0.00     0.173 A 
ATOM     86  C   UNL A   1      45.354  28.966  34.870  1.00  0.00     0.173 A 
ATOM     87  F   UNL A   1      42.560  26.856  35.860  1.00  0.00    -0.203 F 
ATOM     88  C   UNL A   1      44.863  26.641  36.304  1.00  0.00     0.198 A 
ATOM     89  C   UNL A   1      46.410  28.261  35.438  1.00  0.00     0.198 A 
ATOM     90  F   UNL A   1      45.621  30.081  34.172  1.00  0.00    -0.203 F 
ATOM     91  F   UNL A   1      44.622  25.529  37.013  1.00  0.00    -0.200 F 
ATOM     92  C   UNL A   1      46.163  27.099  36.154  1.00  0.00     0.200 A 
ATOM     93  F   UNL A   1      47.668  28.695  35.277  1.00  0.00    -0.200 F 
ATOM     94  F   UNL A   1      47.181  26.419  36.698  1.00  0.00    -0.200 F 
ENDBRANCH  61  84
ENDBRANCH  35  36
ENDBRANCH  27  30
ENDBRANCH  25  26
ENDBRANCH   1  25
TORSDOF 12
ENDMDL
MODEL 2
REMARK VINA RESULT:     -12.8      1.100      1.684
REMARK SMILES CC1(C)CCC[C@@H]1Nc1nc2c(cc1C(=O)NCCCNC(=O)c1ccc(-c3c4nc(c(-c5c(F)c(F)c(F)c(F)c5F)c5ccc([nH]5)c(-c5c(F)c(F)c(F)c(F)c5F)c5nc(c(-c6c(F)c(F)c(F)c(F)c6F)c6ccc3[nH]6)C=C5)C=C4)cc1)CCC2
REMARK SMILES IDX 19 1 18 2 17 3 15 4 16 5 14 7 9 8 10 9 11 10 13 11 12 12
REMARK SMILES IDX 89 13 87 14 88 15 8 16 7 18 1 19 2 20 3 21 4 22 5 23 6 24
REMARK SMILES IDX 20 25 21 26 22 27 23 29 24 30 25 31 86 32 26 33 85 34 27 35
REMARK SMILES IDX 28 36 29 37 79 38 30 39 84 40 78 41 80 42 31 43 83 44 77 45
REMARK SMILES IDX 76 46 32 48 64 49 44 50 63 51 45 52 48 53 62 54 81 55 46 56
REMARK SMILES IDX 47 57 61 59 82 60 49 61 33 62 34 63 42 64 35 65 36 66 40 67
REMARK SMILES IDX 43 68 37 69 38 70 41 71 39 72 65 73 66 74 74 75 67 76 68 77
REMARK SMILES IDX 72 78 75 79 69 80 70 81 73 82 71 83 50 84 51 85 59 86 52 87
REMARK SMILES IDX 53 88 57 89 60 90 54 91 55 92 58 93 56 94
REMARK H PARENT 17 6 8 17 21 28 80 47 48 58
REMARK Flexibility Score: inf
ROOT
ATOM      1  C   UNL A   1      33.746  31.912  27.266  1.00  0.00     0.042 C 
ENDROOT
BRANCH   1   2
ATOM      2  C   UNL A   1      33.824  30.393  27.306  1.00  0.00     0.118 C 
BRANCH   2   3
ATOM      3  N   UNL A   1      32.612  29.700  27.658  1.00  0.00    -0.352 N 
ATOM      4  C   UNL A   1      32.121  28.523  27.147  1.00  0.00     0.255 C 
ATOM      5  O   UNL A   1      31.228  27.966  27.793  1.00  0.00    -0.269 OA
ATOM      6  H   UNL A   1      32.063  30.126  28.355  1.00  0.00     0.163 HD
BRANCH   4   7
ATOM      7  C   UNL A   1      32.474  27.977  25.810  1.00  0.00     0.082 A 
ATOM      8  C   UNL A   1      32.190  28.486  24.530  1.00  0.00     0.139 A 
ATOM      9  N   UNL A   1      32.503  27.791  23.397  1.00  0.00    -0.235 NA
ATOM     10  C   UNL A   1      33.152  26.626  23.535  1.00  0.00     0.046 A 
ATOM     11  C   UNL A   1      33.179  26.750  25.897  1.00  0.00     0.023 A 
ATOM     12  C   UNL A   1      33.518  26.077  24.744  1.00  0.00    -0.025 A 
ATOM     13  C   UNL A   1      33.638  25.785  22.390  1.00  0.00     0.057 C 
ATOM     14  C   UNL A   1      34.294  24.816  24.561  1.00  0.00     0.038 C 
ATOM     15  C   UNL A   1      33.950  24.462  23.104  1.00  0.00     0.011 C 
BRANCH   8  16
ATOM     16  N   UNL A   1      31.590  29.668  24.170  1.00  0.00    -0.366 N 
ATOM     17  H   UNL A   1      32.168  30.364  23.782  1.00  0.00     0.162 HD
BRANCH  16  18
ATOM     18  C   UNL A   1      30.180  29.983  24.311  1.00  0.00     0.086 C 
ATOM     19  C   UNL A   1      29.088  27.999  23.042  1.00  0.00     0.013 C 
ATOM     20  C   UNL A   1      29.356  29.502  23.074  1.00  0.00    -0.015 C 
ATOM     21  C   UNL A   1      29.969  29.885  21.711  1.00  0.00     0.013 C 
ATOM     22  C   UNL A   1      28.043  30.268  23.306  1.00  0.00     0.008 C 
ATOM     23  C   UNL A   1      28.477  31.649  23.794  1.00  0.00     0.003 C 
ATOM     24  C   UNL A   1      29.899  31.489  24.345  1.00  0.00     0.025 C 
ENDBRANCH  16  18
ENDBRANCH   8  16
ENDBRANCH   4   7
ENDBRANCH   2   3
ENDBRANCH   1   2
BRANCH   1  25
ATOM     25  C   UNL A   1      32.329  32.485  27.284  1.00  0.00     0.118 C 
BRANCH  25  26
ATOM     26  N   UNL A   1      32.228  33.896  27.649  1.00  0.00    -0.352 N 
ATOM     27  C   UNL A   1      32.986  34.701  28.466  1.00  0.00     0.251 C 
ATOM     28  H   UNL A   1      31.469  34.361  27.228  1.00  0.00     0.163 HD
ATOM     29  O   UNL A   1      32.636  35.862  28.674  1.00  0.00    -0.269 OA
BRANCH  27  30
ATOM     30  C   UNL A   1      34.193  34.187  29.142  1.00  0.00     0.039 A 
ATOM     31  C   UNL A   1      35.461  34.541  28.659  1.00  0.00     0.014 A 
ATOM     32  C   UNL A   1      34.082  33.308  30.213  1.00  0.00     0.014 A 
ATOM     33  C   UNL A   1      36.611  34.062  29.295  1.00  0.00     0.010 A 
ATOM     34  C   UNL A   1      35.218  32.912  30.905  1.00  0.00     0.010 A 
ATOM     35  C   UNL A   1      36.493  33.264  30.440  1.00  0.00    -0.014 A 
BRANCH  35  36
ATOM     36  C   UNL A   1      37.664  32.683  31.140  1.00  0.00     0.031 A 
ATOM     37  C   UNL A   1      38.399  31.541  30.492  1.00  0.00     0.074 A 
ATOM     38  C   UNL A   1      37.984  33.085  32.383  1.00  0.00     0.049 A 
ATOM     39  N   UNL A   1      39.299  30.738  30.995  1.00  0.00    -0.248 NA
ATOM     40  C   UNL A   1      38.028  31.230  29.100  1.00  0.00     0.031 C 
ATOM     41  C   UNL A   1      37.323  34.159  33.124  1.00  0.00     0.029 A 
ATOM     42  N   UNL A   1      38.935  32.614  33.255  1.00  0.00    -0.354 N 
ATOM     43  C   UNL A   1      39.574  29.814  29.997  1.00  0.00     0.074 A 
ATOM     44  C   UNL A   1      38.699  30.110  28.886  1.00  0.00     0.031 C 
ATOM     45  C   UNL A   1      37.895  34.274  34.334  1.00  0.00     0.029 A 
ATOM     46  C   UNL A   1      38.935  33.258  34.468  1.00  0.00     0.049 A 
ATOM     47  H   UNL A   1      39.555  31.884  33.031  1.00  0.00     0.167 HD
ATOM     48  C   UNL A   1      40.501  28.829  29.994  1.00  0.00     0.037 A 
ATOM     49  C   UNL A   1      39.687  33.039  35.564  1.00  0.00     0.037 A 
ATOM     50  C   UNL A   1      41.404  28.579  31.083  1.00  0.00     0.049 A 
ATOM     51  C   UNL A   1      40.705  31.930  35.544  1.00  0.00     0.074 A 
ATOM     52  C   UNL A   1      42.431  27.658  31.157  1.00  0.00     0.029 A 
ATOM     53  N   UNL A   1      41.390  29.268  32.287  1.00  0.00    -0.354 N 
ATOM     54  N   UNL A   1      40.997  31.094  34.576  1.00  0.00    -0.248 NA
ATOM     55  C   UNL A   1      41.495  31.729  36.767  1.00  0.00     0.031 C 
ATOM     56  C   UNL A   1      43.019  27.766  32.420  1.00  0.00     0.029 A 
ATOM     57  C   UNL A   1      42.381  28.780  33.119  1.00  0.00     0.049 A 
ATOM     58  H   UNL A   1      40.769  29.996  32.514  1.00  0.00     0.167 HD
ATOM     59  C   UNL A   1      42.015  30.285  35.062  1.00  0.00     0.074 A 
ATOM     60  C   UNL A   1      42.301  30.737  36.408  1.00  0.00     0.031 C 
ATOM     61  C   UNL A   1      42.652  29.256  34.452  1.00  0.00     0.037 A 
BRANCH  48  62
ATOM     62  C   UNL A   1      40.606  27.973  28.764  1.00  0.00     0.064 A 
ATOM     63  C   UNL A   1      39.892  26.771  28.649  1.00  0.00     0.173 A 
ATOM     64  C   UNL A   1      41.396  28.373  27.677  1.00  0.00     0.173 A 
ATOM     65  F   UNL A   1      39.130  26.337  29.665  1.00  0.00    -0.203 F 
ATOM     66  C   UNL A   1      39.989  25.985  27.503  1.00  0.00     0.198 A 
ATOM     67  C   UNL A   1      41.467  27.601  26.520  1.00  0.00     0.198 A 
ATOM     68  F   UNL A   1      42.097  29.516  27.733  1.00  0.00    -0.203 F 
ATOM     69  F   UNL A   1      39.338  24.816  27.439  1.00  0.00    -0.200 F 
ATOM     70  C   UNL A   1      40.769  26.404  26.438  1.00  0.00     0.200 A 
ATOM     71  F   UNL A   1      42.212  28.013  25.485  1.00  0.00    -0.200 F 
ATOM     72  F   UNL A   1      40.855  25.652  25.332  1.00  0.00    -0.200 F 
ENDBRANCH  48  62
BRANCH  49  73
ATOM     73  C   UNL A   1      39.534  33.918  36.752  1.00  0.00     0.064 A 
ATOM     74  C   UNL A   1      38.752  33.510  37.842  1.00  0.00     0.173 A 
ATOM     75  C   UNL A   1      40.175  35.162  36.840  1.00  0.00     0.173 A 
ATOM     76  F   UNL A   1      38.103  32.338  37.795  1.00  0.00    -0.203 F 
ATOM     77  C   UNL A   1      38.611  34.314  38.970  1.00  0.00     0.198 A 
ATOM     78  C   UNL A   1      40.052  35.957  37.980  1.00  0.00     0.198 A 
ATOM     79  F   UNL A   1      40.936  35.599  35.826  1.00  0.00    -0.203 F 
ATOM     80  F   UNL A   1      37.833  33.911  39.985  1.00  0.00    -0.200 F 
ATOM     81  C   UNL A   1      39.268  35.533  39.042  1.00  0.00     0.200 A 
ATOM     82  F   UNL A   1      40.697  37.129  38.051  1.00  0.00    -0.200 F 
ATOM     83  F   UNL A   1      39.140  36.302  40.133  1.00  0.00    -0.200 F 
ENDBRANCH  49  73
BRANCH  61  84
ATOM     84  C   UNL A   1      43.727  28.546  35.218  1.00  0.00     0.064 A 
ATOM     85  C   UNL A   1      43.429  27.454  36.043  1.00  0.00     0.173 A 
ATOM     86  C   UNL A   1      45.075  28.888  35.035  1.00  0.00     0.173 A 
ATOM     87  F   UNL A   1      42.153  27.098  36.257  1.00  0.00    -0.203 F 
ATOM     88  C   UNL A   1      44.444  26.727  36.656  1.00  0.00     0.198 A 
ATOM     89  C   UNL A   1      46.089  28.142  35.628  1.00  0.00     0.198 A 
ATOM     90  F   UNL A   1      45.409  29.921  34.245  1.00  0.00    -0.203 F 
ATOM     91  F   UNL A   1      44.137  25.695  37.456  1.00  0.00    -0.200 F 
ATOM     92  C   UNL A   1      45.772  27.062  36.438  1.00  0.00     0.200 A 
ATOM     93  F   UNL A   1      47.372  28.457  35.401  1.00  0.00    -0.200 F 
ATOM     94  F   UNL A   1      46.748  26.342  37.006  1.00  0.00    -0.200 F 
ENDBRANCH  61  84
ENDBRANCH  35  36
ENDBRANCH  27  30
ENDBRANCH  25  26
ENDBRANCH   1  25
TORSDOF 12
ENDMDL
MODEL 3
REMARK VINA RESULT:     -12.8      1.125      2.327
REMARK SMILES CC1(C)CCC[C@@H]1Nc1nc2c(cc1C(=O)NCCCNC(=O)c1ccc(-c3c4nc(c(-c5c(F)c(F)c(F)c(F)c5F)c5ccc([nH]5)c(-c5c(F)c(F)c(F)c(F)c5F)c5nc(c(-c6c(F)c(F)c(F)c(F)c6F)c6ccc3[nH]6)C=C5)C=C4)cc1)CCC2
REMARK SMILES IDX 19 1 18 2 17 3 15 4 16 5 14 7 9 8 10 9 11 10 13 11 12 12
REMARK SMILES IDX 89 13 87 14 88 15 8 16 7 18 1 19 2 20 3 21 4 22 5 23 6 24
REMARK SMILES IDX 20 25 21 26 22 27 23 29 24 30 25 31 86 32 26 33 85 34 27 35
REMARK SMILES IDX 28 36 29 37 79 38 30 39 84 40 78 41 80 42 31 43 83 44 77 45
REMARK SMILES IDX 76 46 32 48 64 49 44 50 63 51 45 52 48 53 62 54 81 55 46 56
REMARK SMILES IDX 47 57 61 59 82 60 49 61 33 62 34 63 42 64 35 65 36 66 40 67
REMARK SMILES IDX 43 68 37 69 38 70 41 71 39 72 65 73 66 74 74 75 67 76 68 77
REMARK SMILES IDX 72 78 75 79 69 80 70 81 73 82 71 83 50 84 51 85 59 86 52 87
REMARK SMILES IDX 53 88 57 89 60 90 54 91 55 92 58 93 56 94
REMARK H PARENT 17 6 8 17 21 28 80 47 48 58
REMARK Flexibility Score: inf
ROOT
ATOM      1  C   UNL A   1      33.708  31.950  27.378  1.00  0.00     0.042 C 
ENDROOT
BRANCH   1   2
ATOM      2  C   UNL A   1      33.761  30.434  27.257  1.00  0.00     0.118 C 
BRANCH   2   3
ATOM      3  N   UNL A   1      32.562  29.723  27.619  1.00  0.00    -0.352 N 
ATOM      4  C   UNL A   1      32.094  28.530  27.123  1.00  0.00     0.255 C 
ATOM      5  O   UNL A   1      31.213  27.963  27.777  1.00  0.00    -0.269 OA
ATOM      6  H   UNL A   1      32.005  30.146  28.311  1.00  0.00     0.163 HD
BRANCH   4   7
ATOM      7  C   UNL A   1      32.457  27.974  25.792  1.00  0.00     0.082 A 
ATOM      8  C   UNL A   1      32.174  28.468  24.506  1.00  0.00     0.139 A 
ATOM      9  N   UNL A   1      32.497  27.766  23.382  1.00  0.00    -0.235 NA
ATOM     10  C   UNL A   1      33.155  26.607  23.533  1.00  0.00     0.046 A 
ATOM     11  C   UNL A   1      33.172  26.754  25.894  1.00  0.00     0.023 A 
ATOM     12  C   UNL A   1      33.523  26.073  24.749  1.00  0.00    -0.025 A 
ATOM     13  C   UNL A   1      33.653  25.760  22.397  1.00  0.00     0.057 C 
ATOM     14  C   UNL A   1      34.310  24.818  24.580  1.00  0.00     0.038 C 
ATOM     15  C   UNL A   1      33.975  24.447  23.126  1.00  0.00     0.011 C 
BRANCH   8  16
ATOM     16  N   UNL A   1      31.565  29.642  24.133  1.00  0.00    -0.366 N 
ATOM     17  H   UNL A   1      32.136  30.334  23.729  1.00  0.00     0.162 HD
BRANCH  16  18
ATOM     18  C   UNL A   1      30.155  29.952  24.282  1.00  0.00     0.086 C 
ATOM     19  C   UNL A   1      29.060  27.902  23.126  1.00  0.00     0.013 C 
ATOM     20  C   UNL A   1      29.315  29.406  23.083  1.00  0.00    -0.015 C 
ATOM     21  C   UNL A   1      29.904  29.728  21.694  1.00  0.00     0.013 C 
ATOM     22  C   UNL A   1      28.000  30.172  23.299  1.00  0.00     0.008 C 
ATOM     23  C   UNL A   1      28.429  31.578  23.714  1.00  0.00     0.003 C 
ATOM     24  C   UNL A   1      29.861  31.456  24.249  1.00  0.00     0.025 C 
ENDBRANCH  16  18
ENDBRANCH   8  16
ENDBRANCH   4   7
ENDBRANCH   2   3
ENDBRANCH   1   2
BRANCH   1  25
ATOM     25  C   UNL A   1      32.311  32.559  27.250  1.00  0.00     0.118 C 
BRANCH  25  26
ATOM     26  N   UNL A   1      32.196  33.956  27.660  1.00  0.00    -0.352 N 
ATOM     27  C   UNL A   1      32.941  34.740  28.509  1.00  0.00     0.251 C 
ATOM     28  H   UNL A   1      31.438  34.430  27.246  1.00  0.00     0.163 HD
ATOM     29  O   UNL A   1      32.579  35.891  28.751  1.00  0.00    -0.269 OA
BRANCH  27  30
ATOM     30  C   UNL A   1      34.145  34.214  29.180  1.00  0.00     0.039 A 
ATOM     31  C   UNL A   1      35.413  34.520  28.667  1.00  0.00     0.014 A 
ATOM     32  C   UNL A   1      34.029  33.368  30.278  1.00  0.00     0.014 A 
ATOM     33  C   UNL A   1      36.561  34.028  29.298  1.00  0.00     0.010 A 
ATOM     34  C   UNL A   1      35.165  32.961  30.962  1.00  0.00     0.010 A 
ATOM     35  C   UNL A   1      36.441  33.265  30.467  1.00  0.00    -0.014 A 
BRANCH  35  36
ATOM     36  C   UNL A   1      37.608  32.674  31.164  1.00  0.00     0.031 A 
ATOM     37  C   UNL A   1      38.338  31.533  30.508  1.00  0.00     0.074 A 
ATOM     38  C   UNL A   1      37.928  33.065  32.411  1.00  0.00     0.049 A 
ATOM     39  N   UNL A   1      39.233  30.721  31.007  1.00  0.00    -0.248 NA
ATOM     40  C   UNL A   1      37.967  31.234  29.114  1.00  0.00     0.031 C 
ATOM     41  C   UNL A   1      37.271  34.136  33.158  1.00  0.00     0.029 A 
ATOM     42  N   UNL A   1      38.875  32.583  33.280  1.00  0.00    -0.354 N 
ATOM     43  C   UNL A   1      39.505  29.803  30.002  1.00  0.00     0.074 A 
ATOM     44  C   UNL A   1      38.633  30.112  28.892  1.00  0.00     0.031 C 
ATOM     45  C   UNL A   1      37.843  34.239  34.370  1.00  0.00     0.029 A 
ATOM     46  C   UNL A   1      38.877  33.217  34.498  1.00  0.00     0.049 A 
ATOM     47  H   UNL A   1      39.492  31.851  33.052  1.00  0.00     0.167 HD
ATOM     48  C   UNL A   1      40.427  28.813  29.993  1.00  0.00     0.037 A 
ATOM     49  C   UNL A   1      39.626  32.986  35.594  1.00  0.00     0.037 A 
ATOM     50  C   UNL A   1      41.327  28.551  31.082  1.00  0.00     0.049 A 
ATOM     51  C   UNL A   1      40.639  31.872  35.566  1.00  0.00     0.074 A 
ATOM     52  C   UNL A   1      42.349  27.624  31.150  1.00  0.00     0.029 A 
ATOM     53  N   UNL A   1      41.315  29.231  32.290  1.00  0.00    -0.354 N 
ATOM     54  N   UNL A   1      40.928  31.041  34.592  1.00  0.00    -0.248 NA
ATOM     55  C   UNL A   1      41.426  31.658  36.789  1.00  0.00     0.031 C 
ATOM     56  C   UNL A   1      42.935  27.719  32.415  1.00  0.00     0.029 A 
ATOM     57  C   UNL A   1      42.302  28.731  33.121  1.00  0.00     0.049 A 
ATOM     58  H   UNL A   1      40.697  29.961  32.522  1.00  0.00     0.167 HD
ATOM     59  C   UNL A   1      41.940  30.223  35.074  1.00  0.00     0.074 A 
ATOM     60  C   UNL A   1      42.227  30.664  36.423  1.00  0.00     0.031 C 
ATOM     61  C   UNL A   1      42.573  29.196  34.457  1.00  0.00     0.037 A 
BRANCH  48  62
ATOM     62  C   UNL A   1      40.529  27.967  28.757  1.00  0.00     0.064 A 
ATOM     63  C   UNL A   1      41.341  28.346  27.678  1.00  0.00     0.173 A 
ATOM     64  C   UNL A   1      39.839  26.749  28.663  1.00  0.00     0.173 A 
ATOM     65  F   UNL A   1      42.012  29.507  27.713  1.00  0.00    -0.203 F 
ATOM     66  C   UNL A   1      41.436  27.552  26.538  1.00  0.00     0.198 A 
ATOM     67  C   UNL A   1      39.961  25.942  27.535  1.00  0.00     0.198 A 
ATOM     68  F   UNL A   1      39.052  26.337  29.668  1.00  0.00    -0.203 F 
ATOM     69  F   UNL A   1      42.178  27.962  25.499  1.00  0.00    -0.200 F 
ATOM     70  C   UNL A   1      40.753  26.349  26.470  1.00  0.00     0.200 A 
ATOM     71  F   UNL A   1      39.310  24.772  27.474  1.00  0.00    -0.200 F 
ATOM     72  F   UNL A   1      40.852  25.581  25.376  1.00  0.00    -0.200 F 
ENDBRANCH  48  62
BRANCH  49  73
ATOM     73  C   UNL A   1      39.476  33.857  36.788  1.00  0.00     0.064 A 
ATOM     74  C   UNL A   1      38.689  33.445  37.873  1.00  0.00     0.173 A 
ATOM     75  C   UNL A   1      40.125  35.096  36.887  1.00  0.00     0.173 A 
ATOM     76  F   UNL A   1      38.033  32.278  37.815  1.00  0.00    -0.203 F 
ATOM     77  C   UNL A   1      38.551  34.242  39.007  1.00  0.00     0.198 A 
ATOM     78  C   UNL A   1      40.005  35.883  38.032  1.00  0.00     0.198 A 
ATOM     79  F   UNL A   1      40.891  35.536  35.878  1.00  0.00    -0.203 F 
ATOM     80  F   UNL A   1      37.768  33.836  40.016  1.00  0.00    -0.200 F 
ATOM     81  C   UNL A   1      39.215  35.456  39.089  1.00  0.00     0.200 A 
ATOM     82  F   UNL A   1      40.657  37.050  38.114  1.00  0.00    -0.200 F 
ATOM     83  F   UNL A   1      39.090  36.217  40.186  1.00  0.00    -0.200 F 
ENDBRANCH  49  73
BRANCH  61  84
ATOM     84  C   UNL A   1      43.644  28.475  35.219  1.00  0.00     0.064 A 
ATOM     85  C   UNL A   1      44.972  28.922  35.202  1.00  0.00     0.173 A 
ATOM     86  C   UNL A   1      43.318  27.402  36.063  1.00  0.00     0.173 A 
ATOM     87  F   UNL A   1      45.332  29.938  34.402  1.00  0.00    -0.203 F 
ATOM     88  C   UNL A   1      45.936  28.322  36.005  1.00  0.00     0.198 A 
ATOM     89  C   UNL A   1      44.279  26.822  36.884  1.00  0.00     0.198 A 
ATOM     90  F   UNL A   1      42.057  26.946  36.120  1.00  0.00    -0.203 F 
ATOM     91  F   UNL A   1      47.204  28.754  35.961  1.00  0.00    -0.200 F 
ATOM     92  C   UNL A   1      45.587  27.283  36.854  1.00  0.00     0.200 A 
ATOM     93  F   UNL A   1      43.936  25.830  37.718  1.00  0.00    -0.200 F 
ATOM     94  F   UNL A   1      46.512  26.725  37.648  1.00  0.00    -0.200 F 
ENDBRANCH  61  84
ENDBRANCH  35  36
ENDBRANCH  27  30
ENDBRANCH  25  26
ENDBRANCH   1  25
TORSDOF 12
ENDMDL
