MODEL 1
REMARK VINA RESULT:     -12.9      0.000      0.000
REMARK SMILES O=C(NCCCNC(=O)[C@H]1CCCCN1C(=O)c1cn2ccccc2n1)c1ccc(-c2c3nc(c(-c4c(F)c(F)c(F)c(F)c4F)c4ccc([nH]4)c(-c4c(F)c(F)c(F)c(F)c4F)c4nc(c(-c5c(F)c(F)c(F)c(F)c5F)c5ccc2[nH]5)C=C4)C=C3)cc1
REMARK SMILES IDX 5 1 4 2 3 3 1 4 2 5 27 7 28 8 89 9 29 10 88 11 30 12 31 13
REMARK SMILES IDX 32 14 82 15 33 16 87 17 81 18 83 19 34 20 86 21 80 22 79 23
REMARK SMILES IDX 35 25 67 26 47 27 66 28 48 29 51 30 65 31 84 32 49 33 50 34
REMARK SMILES IDX 64 36 85 37 52 38 36 39 37 40 45 41 38 42 39 43 43 44 46 45
REMARK SMILES IDX 40 46 41 47 44 48 42 49 68 50 69 51 77 52 70 53 71 54 75 55
REMARK SMILES IDX 78 56 72 57 73 58 76 59 74 60 53 61 54 62 62 63 55 64 56 65
REMARK SMILES IDX 60 66 63 67 57 68 58 69 61 70 59 71 6 72 7 73 8 74 9 76
REMARK SMILES IDX 10 77 11 78 15 79 12 80 14 81 13 82 16 83 17 84 18 85 19 86
REMARK SMILES IDX 26 87 20 88 25 89 21 90 24 91 22 92 23 93
REMARK H PARENT 3 6 83 24 51 35 7 75
REMARK Flexibility Score: inf
ROOT
ATOM      1  C   UNL A   1      32.052  28.196  26.981  1.00  0.00     0.042 C 
ENDROOT
BRANCH   1   2
ATOM      2  C   UNL A   1      32.879  29.102  26.074  1.00  0.00     0.118 C 
BRANCH   2   3
ATOM      3  N   UNL A   1      32.620  30.514  26.291  1.00  0.00    -0.352 N 
ATOM      4  O   UNL A   1      32.806  32.540  27.251  1.00  0.00    -0.269 OA
ATOM      5  C   UNL A   1      33.269  31.411  27.105  1.00  0.00     0.251 C 
ATOM      6  H   UNL A   1      31.865  30.885  25.778  1.00  0.00     0.163 HD
BRANCH   5   7
ATOM      7  C   UNL A   1      34.506  31.034  27.834  1.00  0.00     0.039 A 
ATOM      8  C   UNL A   1      34.727  29.732  28.294  1.00  0.00     0.014 A 
ATOM      9  C   UNL A   1      35.502  32.005  27.999  1.00  0.00     0.014 A 
ATOM     10  C   UNL A   1      35.898  29.428  28.994  1.00  0.00     0.010 A 
ATOM     11  C   UNL A   1      36.693  31.689  28.662  1.00  0.00     0.010 A 
ATOM     12  C   UNL A   1      36.889  30.404  29.185  1.00  0.00    -0.014 A 
BRANCH  12  13
ATOM     13  C   UNL A   1      38.142  30.048  29.898  1.00  0.00     0.031 A 
ATOM     14  C   UNL A   1      38.386  30.502  31.308  1.00  0.00     0.074 A 
ATOM     15  C   UNL A   1      39.061  29.288  29.275  1.00  0.00     0.049 A 
ATOM     16  N   UNL A   1      39.374  30.198  32.113  1.00  0.00    -0.248 NA
ATOM     17  C   UNL A   1      37.399  31.423  31.890  1.00  0.00     0.031 C 
ATOM     18  C   UNL A   1      38.969  28.815  27.893  1.00  0.00     0.029 A 
ATOM     19  N   UNL A   1      40.243  28.762  29.732  1.00  0.00    -0.354 N 
ATOM     20  C   UNL A   1      39.140  30.903  33.285  1.00  0.00     0.074 A 
ATOM     21  C   UNL A   1      37.919  31.656  33.088  1.00  0.00     0.031 C 
ATOM     22  C   UNL A   1      40.027  28.032  27.628  1.00  0.00     0.029 A 
ATOM     23  C   UNL A   1      40.872  27.955  28.817  1.00  0.00     0.049 A 
ATOM     24  H   UNL A   1      40.606  28.947  30.628  1.00  0.00     0.167 HD
ATOM     25  C   UNL A   1      39.875  30.917  34.422  1.00  0.00     0.037 A 
ATOM     26  C   UNL A   1      41.990  27.218  28.931  1.00  0.00     0.037 A 
ATOM     27  C   UNL A   1      41.073  30.152  34.643  1.00  0.00     0.049 A 
ATOM     28  C   UNL A   1      42.753  27.203  30.221  1.00  0.00     0.074 A 
ATOM     29  C   UNL A   1      41.847  30.065  35.788  1.00  0.00     0.029 A 
ATOM     30  N   UNL A   1      41.672  29.341  33.693  1.00  0.00    -0.354 N 
ATOM     31  N   UNL A   1      42.489  27.828  31.341  1.00  0.00    -0.248 NA
ATOM     32  C   UNL A   1      43.969  26.377  30.262  1.00  0.00     0.031 C 
ATOM     33  C   UNL A   1      42.922  29.206  35.528  1.00  0.00     0.029 A 
ATOM     34  C   UNL A   1      42.810  28.753  34.225  1.00  0.00     0.049 A 
ATOM     35  H   UNL A   1      41.340  29.201  32.777  1.00  0.00     0.167 HD
ATOM     36  C   UNL A   1      43.497  27.467  32.222  1.00  0.00     0.074 A 
ATOM     37  C   UNL A   1      44.378  26.564  31.511  1.00  0.00     0.031 C 
ATOM     38  C   UNL A   1      43.673  27.855  33.508  1.00  0.00     0.037 A 
BRANCH  25  39
ATOM     39  C   UNL A   1      39.397  31.798  35.532  1.00  0.00     0.064 A 
ATOM     40  C   UNL A   1      38.500  31.325  36.499  1.00  0.00     0.173 A 
ATOM     41  C   UNL A   1      39.867  33.114  35.648  1.00  0.00     0.173 A 
ATOM     42  F   UNL A   1      38.013  30.078  36.414  1.00  0.00    -0.203 F 
ATOM     43  C   UNL A   1      38.082  32.144  37.543  1.00  0.00     0.198 A 
ATOM     44  C   UNL A   1      39.454  33.928  36.699  1.00  0.00     0.198 A 
ATOM     45  F   UNL A   1      40.720  33.610  34.739  1.00  0.00    -0.203 F 
ATOM     46  F   UNL A   1      37.202  31.684  38.442  1.00  0.00    -0.200 F 
ATOM     47  C   UNL A   1      38.561  33.443  37.644  1.00  0.00     0.200 A 
ATOM     48  F   UNL A   1      39.910  35.184  36.793  1.00  0.00    -0.200 F 
ATOM     49  F   UNL A   1      38.152  34.231  38.648  1.00  0.00    -0.200 F 
ENDBRANCH  25  39
BRANCH  26  50
ATOM     50  C   UNL A   1      42.425  26.382  27.789  1.00  0.00     0.064 A 
ATOM     51  C   UNL A   1      43.401  26.849  26.899  1.00  0.00     0.173 A 
ATOM     52  C   UNL A   1      41.897  25.102  27.584  1.00  0.00     0.173 A 
ATOM     53  F   UNL A   1      43.918  28.077  27.056  1.00  0.00    -0.203 F 
ATOM     54  C   UNL A   1      43.834  26.060  25.837  1.00  0.00     0.198 A 
ATOM     55  C   UNL A   1      42.336  24.312  26.526  1.00  0.00     0.198 A 
ATOM     56  F   UNL A   1      40.957  24.624  28.413  1.00  0.00    -0.203 F 
ATOM     57  F   UNL A   1      44.762  26.529  24.991  1.00  0.00    -0.200 F 
ATOM     58  C   UNL A   1      43.304  24.791  25.654  1.00  0.00     0.200 A 
ATOM     59  F   UNL A   1      41.822  23.087  26.348  1.00  0.00    -0.200 F 
ATOM     60  F   UNL A   1      43.723  24.031  24.633  1.00  0.00    -0.200 F 
ENDBRANCH  26  50
BRANCH  38  61
ATOM     61  C   UNL A   1      44.858  27.297  34.228  1.00  0.00     0.064 A 
ATOM     62  C   UNL A   1      46.085  27.975  34.230  1.00  0.00     0.173 A 
ATOM     63  C   UNL A   1      44.761  26.093  34.938  1.00  0.00     0.173 A 
ATOM     64  F   UNL A   1      46.222  29.124  33.551  1.00  0.00    -0.203 F 
ATOM     65  C   UNL A   1      47.180  27.461  34.919  1.00  0.00     0.198 A 
ATOM     66  C   UNL A   1      45.857  25.585  35.631  1.00  0.00     0.198 A 
ATOM     67  F   UNL A   1      43.608  25.410  34.955  1.00  0.00    -0.203 F 
ATOM     68  F   UNL A   1      48.350  28.115  34.898  1.00  0.00    -0.200 F 
ATOM     69  C   UNL A   1      47.065  26.270  35.621  1.00  0.00     0.200 A 
ATOM     70  F   UNL A   1      45.747  24.432  36.303  1.00  0.00    -0.200 F 
ATOM     71  F   UNL A   1      48.121  25.775  36.280  1.00  0.00    -0.200 F 
ENDBRANCH  38  61
ENDBRANCH  12  13
ENDBRANCH   5   7
ENDBRANCH   2   3
ENDBRANCH   1   2
BRANCH   1  72
ATOM     72  C   UNL A   1      31.091  27.255  26.262  1.00  0.00     0.117 C 
BRANCH  72  73
ATOM     73  N   UNL A   1      31.402  25.859  26.501  1.00  0.00    -0.354 N 
ATOM     74  C   UNL A   1      32.330  25.049  25.910  1.00  0.00     0.242 C 
ATOM     75  H   UNL A   1      30.860  25.426  27.200  1.00  0.00     0.163 HD
ATOM     76  O   UNL A   1      32.394  23.888  26.323  1.00  0.00    -0.273 OA
BRANCH  74  77
ATOM     77  C   UNL A   1      33.263  25.592  24.795  1.00  0.00     0.174 C 
ATOM     78  C   UNL A   1      34.603  24.830  24.746  1.00  0.00     0.035 C 
ATOM     79  N   UNL A   1      32.651  25.562  23.451  1.00  0.00    -0.325 N 
ATOM     80  C   UNL A   1      34.475  23.431  24.129  1.00  0.00     0.004 C 
ATOM     81  C   UNL A   1      32.419  24.224  22.906  1.00  0.00     0.121 C 
ATOM     82  C   UNL A   1      33.739  23.468  22.791  1.00  0.00     0.022 C 
BRANCH  79  83
ATOM     83  C   UNL A   1      32.625  26.751  22.706  1.00  0.00     0.274 C 
ATOM     84  O   UNL A   1      33.593  27.104  22.035  1.00  0.00    -0.267 OA
BRANCH  83  85
ATOM     85  C   UNL A   1      31.428  27.600  22.772  1.00  0.00     0.147 A 
ATOM     86  C   UNL A   1      31.328  28.943  22.446  1.00  0.00     0.127 A 
ATOM     87  N   UNL A   1      30.174  27.099  23.086  1.00  0.00    -0.223 NA
ATOM     88  N   UNL A   1      29.999  29.262  22.556  1.00  0.00    -0.306 N 
ATOM     89  C   UNL A   1      29.339  28.106  22.953  1.00  0.00     0.137 A 
ATOM     90  C   UNL A   1      29.360  30.477  22.321  1.00  0.00     0.093 A 
ATOM     91  C   UNL A   1      27.929  28.196  23.126  1.00  0.00     0.048 A 
ATOM     92  C   UNL A   1      28.028  30.557  22.485  1.00  0.00     0.018 A 
ATOM     93  C   UNL A   1      27.300  29.367  22.902  1.00  0.00     0.005 A 
ENDBRANCH  83  85
ENDBRANCH  79  83
ENDBRANCH  74  77
ENDBRANCH  72  73
ENDBRANCH   1  72
TORSDOF 12
ENDMDL
MODEL 2
REMARK VINA RESULT:     -12.8      1.792      2.665
REMARK SMILES O=C(NCCCNC(=O)[C@H]1CCCCN1C(=O)c1cn2ccccc2n1)c1ccc(-c2c3nc(c(-c4c(F)c(F)c(F)c(F)c4F)c4ccc([nH]4)c(-c4c(F)c(F)c(F)c(F)c4F)c4nc(c(-c5c(F)c(F)c(F)c(F)c5F)c5ccc2[nH]5)C=C4)C=C3)cc1
REMARK SMILES IDX 5 1 4 2 3 3 1 4 2 5 27 7 28 8 89 9 29 10 88 11 30 12 31 13
REMARK SMILES IDX 32 14 82 15 33 16 87 17 81 18 83 19 34 20 86 21 80 22 79 23
REMARK SMILES IDX 35 25 67 26 47 27 66 28 48 29 51 30 65 31 84 32 49 33 50 34
REMARK SMILES IDX 64 36 85 37 52 38 36 39 37 40 45 41 38 42 39 43 43 44 46 45
REMARK SMILES IDX 40 46 41 47 44 48 42 49 68 50 69 51 77 52 70 53 71 54 75 55
REMARK SMILES IDX 78 56 72 57 73 58 76 59 74 60 53 61 54 62 62 63 55 64 56 65
REMARK SMILES IDX 60 66 63 67 57 68 58 69 61 70 59 71 6 72 7 73 8 74 9 76
REMARK SMILES IDX 10 77 11 78 15 79 12 80 14 81 13 82 16 83 17 84 18 85 19 86
REMARK SMILES IDX 26 87 20 88 25 89 21 90 24 91 22 92 23 93
REMARK H PARENT 3 6 83 24 51 35 7 75
REMARK Flexibility Score: inf
ROOT
ATOM      1  C   UNL A   1      31.704  31.959  26.873  1.00  0.00     0.042 C 
ENDROOT
BRANCH   1   2
ATOM      2  C   UNL A   1      32.801  33.018  26.829  1.00  0.00     0.118 C 
BRANCH   2   3
ATOM      3  N   UNL A   1      32.490  34.192  27.624  1.00  0.00    -0.352 N 
ATOM      4  O   UNL A   1      32.582  35.606  29.370  1.00  0.00    -0.269 OA
ATOM      5  C   UNL A   1      33.085  34.660  28.770  1.00  0.00     0.251 C 
ATOM      6  H   UNL A   1      31.739  34.736  27.290  1.00  0.00     0.163 HD
BRANCH   5   7
ATOM      7  C   UNL A   1      34.311  34.025  29.315  1.00  0.00     0.039 A 
ATOM      8  C   UNL A   1      35.591  34.484  28.990  1.00  0.00     0.014 A 
ATOM      9  C   UNL A   1      34.165  32.978  30.235  1.00  0.00     0.014 A 
ATOM     10  C   UNL A   1      36.717  33.842  29.511  1.00  0.00     0.010 A 
ATOM     11  C   UNL A   1      35.293  32.364  30.791  1.00  0.00     0.010 A 
ATOM     12  C   UNL A   1      36.578  32.776  30.414  1.00  0.00    -0.014 A 
BRANCH  12  13
ATOM     13  C   UNL A   1      37.789  32.134  30.984  1.00  0.00     0.031 A 
ATOM     14  C   UNL A   1      38.246  32.447  32.380  1.00  0.00     0.074 A 
ATOM     15  C   UNL A   1      38.472  31.242  30.243  1.00  0.00     0.049 A 
ATOM     16  N   UNL A   1      39.218  31.903  33.070  1.00  0.00    -0.248 NA
ATOM     17  C   UNL A   1      37.525  33.512  33.092  1.00  0.00     0.031 C 
ATOM     18  C   UNL A   1      38.163  30.880  28.860  1.00  0.00     0.029 A 
ATOM     19  N   UNL A   1      39.557  30.464  30.559  1.00  0.00    -0.354 N 
ATOM     20  C   UNL A   1      39.240  32.570  34.286  1.00  0.00     0.074 A 
ATOM     21  C   UNL A   1      38.187  33.565  34.241  1.00  0.00     0.031 C 
ATOM     22  C   UNL A   1      39.009  29.917  28.461  1.00  0.00     0.029 A 
ATOM     23  C   UNL A   1      39.923  29.602  29.556  1.00  0.00     0.049 A 
ATOM     24  H   UNL A   1      40.029  30.519  31.422  1.00  0.00     0.167 HD
ATOM     25  C   UNL A   1      40.060  32.370  35.344  1.00  0.00     0.037 A 
ATOM     26  C   UNL A   1      40.871  28.650  29.529  1.00  0.00     0.037 A 
ATOM     27  C   UNL A   1      41.089  31.368  35.415  1.00  0.00     0.049 A 
ATOM     28  C   UNL A   1      41.726  28.406  30.736  1.00  0.00     0.074 A 
ATOM     29  C   UNL A   1      41.928  31.061  36.474  1.00  0.00     0.029 A 
ATOM     30  N   UNL A   1      41.422  30.510  34.379  1.00  0.00    -0.354 N 
ATOM     31  N   UNL A   1      41.697  29.005  31.900  1.00  0.00    -0.248 NA
ATOM     32  C   UNL A   1      42.744  27.351  30.624  1.00  0.00     0.031 C 
ATOM     33  C   UNL A   1      42.776  30.019  36.074  1.00  0.00     0.029 A 
ATOM     34  C   UNL A   1      42.458  29.676  34.772  1.00  0.00     0.049 A 
ATOM     35  H   UNL A   1      40.988  30.494  33.496  1.00  0.00     0.167 HD
ATOM     36  C   UNL A   1      42.683  28.397  32.662  1.00  0.00     0.074 A 
ATOM     37  C   UNL A   1      43.293  27.379  31.832  1.00  0.00     0.031 C 
ATOM     38  C   UNL A   1      43.050  28.665  33.938  1.00  0.00     0.037 A 
BRANCH  25  39
ATOM     39  C   UNL A   1      39.874  33.263  36.530  1.00  0.00     0.064 A 
ATOM     40  C   UNL A   1      40.605  34.450  36.665  1.00  0.00     0.173 A 
ATOM     41  C   UNL A   1      38.934  32.945  37.520  1.00  0.00     0.173 A 
ATOM     42  F   UNL A   1      41.528  34.783  35.748  1.00  0.00    -0.203 F 
ATOM     43  C   UNL A   1      40.407  35.288  37.758  1.00  0.00     0.198 A 
ATOM     44  C   UNL A   1      38.731  33.790  38.608  1.00  0.00     0.198 A 
ATOM     45  F   UNL A   1      38.219  31.813  37.434  1.00  0.00    -0.203 F 
ATOM     46  F   UNL A   1      41.136  36.406  37.884  1.00  0.00    -0.200 F 
ATOM     47  C   UNL A   1      39.468  34.959  38.726  1.00  0.00     0.200 A 
ATOM     48  F   UNL A   1      37.831  33.469  39.547  1.00  0.00    -0.200 F 
ATOM     49  F   UNL A   1      39.283  35.766  39.780  1.00  0.00    -0.200 F 
ENDBRANCH  25  39
BRANCH  26  50
ATOM     50  C   UNL A   1      41.020  27.812  28.318  1.00  0.00     0.064 A 
ATOM     51  C   UNL A   1      41.878  28.208  27.283  1.00  0.00     0.173 A 
ATOM     52  C   UNL A   1      40.336  26.599  28.186  1.00  0.00     0.173 A 
ATOM     53  F   UNL A   1      42.539  29.372  27.369  1.00  0.00    -0.203 F 
ATOM     54  C   UNL A   1      42.044  27.414  26.152  1.00  0.00     0.198 A 
ATOM     55  C   UNL A   1      40.509  25.802  27.057  1.00  0.00     0.198 A 
ATOM     56  F   UNL A   1      39.503  26.190  29.154  1.00  0.00    -0.203 F 
ATOM     57  F   UNL A   1      42.862  27.816  25.169  1.00  0.00    -0.200 F 
ATOM     58  C   UNL A   1      41.363  26.211  26.041  1.00  0.00     0.200 A 
ATOM     59  F   UNL A   1      39.849  24.642  26.950  1.00  0.00    -0.200 F 
ATOM     60  F   UNL A   1      41.526  25.446  24.954  1.00  0.00    -0.200 F 
ENDBRANCH  26  50
BRANCH  38  61
ATOM     61  C   UNL A   1      44.154  27.839  34.514  1.00  0.00     0.064 A 
ATOM     62  C   UNL A   1      45.485  28.273  34.453  1.00  0.00     0.173 A 
ATOM     63  C   UNL A   1      43.878  26.623  35.153  1.00  0.00     0.173 A 
ATOM     64  F   UNL A   1      45.793  29.425  33.838  1.00  0.00    -0.203 F 
ATOM     65  C   UNL A   1      46.508  27.509  35.009  1.00  0.00     0.198 A 
ATOM     66  C   UNL A   1      44.903  25.865  35.713  1.00  0.00     0.198 A 
ATOM     67  F   UNL A   1      42.618  26.170  35.227  1.00  0.00    -0.203 F 
ATOM     68  F   UNL A   1      47.778  27.930  34.927  1.00  0.00    -0.200 F 
ATOM     69  C   UNL A   1      46.216  26.308  35.640  1.00  0.00     0.200 A 
ATOM     70  F   UNL A   1      44.621  24.703  36.318  1.00  0.00    -0.200 F 
ATOM     71  F   UNL A   1      47.202  25.573  36.172  1.00  0.00    -0.200 F 
ENDBRANCH  38  61
ENDBRANCH  12  13
ENDBRANCH   5   7
ENDBRANCH   2   3
ENDBRANCH   1   2
BRANCH   1  72
ATOM     72  C   UNL A   1      32.101  30.586  26.340  1.00  0.00     0.117 C 
BRANCH  72  73
ATOM     73  N   UNL A   1      31.712  29.512  27.235  1.00  0.00    -0.354 N 
ATOM     74  C   UNL A   1      31.726  28.159  27.045  1.00  0.00     0.242 C 
ATOM     75  H   UNL A   1      31.385  29.803  28.117  1.00  0.00     0.163 HD
ATOM     76  O   UNL A   1      31.350  27.464  27.993  1.00  0.00    -0.273 OA
BRANCH  74  77
ATOM     77  C   UNL A   1      32.221  27.549  25.707  1.00  0.00     0.174 C 
ATOM     78  C   UNL A   1      33.053  26.271  25.931  1.00  0.00     0.035 C 
ATOM     79  N   UNL A   1      31.127  27.244  24.761  1.00  0.00    -0.325 N 
ATOM     80  C   UNL A   1      32.196  25.056  26.310  1.00  0.00     0.004 C 
ATOM     81  C   UNL A   1      30.234  26.160  25.176  1.00  0.00     0.121 C 
ATOM     82  C   UNL A   1      31.024  24.867  25.348  1.00  0.00     0.022 C 
BRANCH  79  83
ATOM     83  C   UNL A   1      31.203  27.773  23.464  1.00  0.00     0.274 C 
ATOM     84  O   UNL A   1      31.989  27.318  22.635  1.00  0.00    -0.267 OA
BRANCH  83  85
ATOM     85  C   UNL A   1      30.353  28.919  23.118  1.00  0.00     0.147 A 
ATOM     86  C   UNL A   1      30.008  29.990  23.927  1.00  0.00     0.127 A 
ATOM     87  N   UNL A   1      29.857  29.121  21.839  1.00  0.00    -0.223 NA
ATOM     88  N   UNL A   1      29.301  30.854  23.132  1.00  0.00    -0.306 N 
ATOM     89  C   UNL A   1      29.232  30.278  21.871  1.00  0.00     0.137 A 
ATOM     90  C   UNL A   1      28.742  32.090  23.450  1.00  0.00     0.093 A 
ATOM     91  C   UNL A   1      28.543  31.010  20.863  1.00  0.00     0.048 A 
ATOM     92  C   UNL A   1      28.093  32.779  22.495  1.00  0.00     0.018 A 
ATOM     93  C   UNL A   1      27.999  32.207  21.159  1.00  0.00     0.005 A 
ENDBRANCH  83  85
ENDBRANCH  79  83
ENDBRANCH  74  77
ENDBRANCH  72  73
ENDBRANCH   1  72
TORSDOF 12
ENDMDL
MODEL 3
REMARK VINA RESULT:     -12.8      1.424      3.474
REMARK SMILES O=C(NCCCNC(=O)[C@H]1CCCCN1C(=O)c1cn2ccccc2n1)c1ccc(-c2c3nc(c(-c4c(F)c(F)c(F)c(F)c4F)c4ccc([nH]4)c(-c4c(F)c(F)c(F)c(F)c4F)c4nc(c(-c5c(F)c(F)c(F)c(F)c5F)c5ccc2[nH]5)C=C4)C=C3)cc1
REMARK SMILES IDX 5 1 4 2 3 3 1 4 2 5 27 7 28 8 89 9 29 10 88 11 30 12 31 13
REMARK SMILES IDX 32 14 82 15 33 16 87 17 81 18 83 19 34 20 86 21 80 22 79 23
REMARK SMILES IDX 35 25 67 26 47 27 66 28 48 29 51 30 65 31 84 32 49 33 50 34
REMARK SMILES IDX 64 36 85 37 52 38 36 39 37 40 45 41 38 42 39 43 43 44 46 45
REMARK SMILES IDX 40 46 41 47 44 48 42 49 68 50 69 51 77 52 70 53 71 54 75 55
REMARK SMILES IDX 78 56 72 57 73 58 76 59 74 60 53 61 54 62 62 63 55 64 56 65
REMARK SMILES IDX 60 66 63 67 57 68 58 69 61 70 59 71 6 72 7 73 8 74 9 76
REMARK SMILES IDX 10 77 11 78 15 79 12 80 14 81 13 82 16 83 17 84 18 85 19 86
REMARK SMILES IDX 26 87 20 88 25 89 21 90 24 91 22 92 23 93
REMARK H PARENT 3 6 83 24 51 35 7 75
REMARK Flexibility Score: inf
ROOT
ATOM      1  C   UNL A   1      33.138  27.912  24.927  1.00  0.00     0.042 C 
ENDROOT
BRANCH   1   2
ATOM      2  C   UNL A   1      33.671  29.328  24.730  1.00  0.00     0.118 C 
BRANCH   2   3
ATOM      3  N   UNL A   1      32.912  30.327  25.460  1.00  0.00    -0.352 N 
ATOM      4  O   UNL A   1      32.305  31.619  27.198  1.00  0.00    -0.269 OA
ATOM      5  C   UNL A   1      33.149  30.881  26.695  1.00  0.00     0.251 C 
ATOM      6  H   UNL A   1      32.106  30.659  25.000  1.00  0.00     0.163 HD
BRANCH   5   7
ATOM      7  C   UNL A   1      34.393  30.583  27.447  1.00  0.00     0.039 A 
ATOM      8  C   UNL A   1      34.686  29.298  27.915  1.00  0.00     0.014 A 
ATOM      9  C   UNL A   1      35.324  31.614  27.626  1.00  0.00     0.014 A 
ATOM     10  C   UNL A   1      35.861  29.069  28.636  1.00  0.00     0.010 A 
ATOM     11  C   UNL A   1      36.521  31.373  28.311  1.00  0.00     0.010 A 
ATOM     12  C   UNL A   1      36.787  30.104  28.842  1.00  0.00    -0.014 A 
BRANCH  12  13
ATOM     13  C   UNL A   1      38.046  29.828  29.578  1.00  0.00     0.031 A 
ATOM     14  C   UNL A   1      38.263  30.355  30.967  1.00  0.00     0.074 A 
ATOM     15  C   UNL A   1      38.997  29.074  28.995  1.00  0.00     0.049 A 
ATOM     16  N   UNL A   1      39.255  30.124  31.790  1.00  0.00    -0.248 NA
ATOM     17  C   UNL A   1      37.237  31.264  31.500  1.00  0.00     0.031 C 
ATOM     18  C   UNL A   1      38.933  28.536  27.636  1.00  0.00     0.029 A 
ATOM     19  N   UNL A   1      40.195  28.614  29.482  1.00  0.00    -0.354 N 
ATOM     20  C   UNL A   1      38.987  30.872  32.928  1.00  0.00     0.074 A 
ATOM     21  C   UNL A   1      37.740  31.571  32.689  1.00  0.00     0.031 C 
ATOM     22  C   UNL A   1      40.022  27.782  27.413  1.00  0.00     0.029 A 
ATOM     23  C   UNL A   1      40.860  27.791  28.609  1.00  0.00     0.049 A 
ATOM     24  H   UNL A   1      40.543  28.854  30.372  1.00  0.00     0.167 HD
ATOM     25  C   UNL A   1      39.711  30.966  34.067  1.00  0.00     0.037 A 
ATOM     26  C   UNL A   1      42.003  27.102  28.763  1.00  0.00     0.037 A 
ATOM     27  C   UNL A   1      40.935  30.257  34.329  1.00  0.00     0.049 A 
ATOM     28  C   UNL A   1      42.757  27.174  30.058  1.00  0.00     0.074 A 
ATOM     29  C   UNL A   1      41.703  30.251  35.483  1.00  0.00     0.029 A 
ATOM     30  N   UNL A   1      41.571  29.426  33.422  1.00  0.00    -0.354 N 
ATOM     31  N   UNL A   1      42.461  27.839  31.146  1.00  0.00    -0.248 NA
ATOM     32  C   UNL A   1      44.001  26.396  30.144  1.00  0.00     0.031 C 
ATOM     33  C   UNL A   1      42.811  29.421  35.268  1.00  0.00     0.029 A 
ATOM     34  C   UNL A   1      42.726  28.906  33.986  1.00  0.00     0.049 A 
ATOM     35  H   UNL A   1      41.251  29.233  32.511  1.00  0.00     0.167 HD
ATOM     36  C   UNL A   1      43.474  27.556  32.049  1.00  0.00     0.074 A 
ATOM     37  C   UNL A   1      44.394  26.656  31.385  1.00  0.00     0.031 C 
ATOM     38  C   UNL A   1      43.627  28.008  33.317  1.00  0.00     0.037 A 
BRANCH  25  39
ATOM     39  C   UNL A   1      39.193  31.879  35.133  1.00  0.00     0.064 A 
ATOM     40  C   UNL A   1      38.451  31.384  36.213  1.00  0.00     0.173 A 
ATOM     41  C   UNL A   1      39.470  33.252  35.089  1.00  0.00     0.173 A 
ATOM     42  F   UNL A   1      38.150  30.078  36.284  1.00  0.00    -0.203 F 
ATOM     43  C   UNL A   1      37.996  32.237  37.214  1.00  0.00     0.198 A 
ATOM     44  C   UNL A   1      39.020  34.102  36.097  1.00  0.00     0.198 A 
ATOM     45  F   UNL A   1      40.168  33.769  34.068  1.00  0.00    -0.203 F 
ATOM     46  F   UNL A   1      37.264  31.750  38.226  1.00  0.00    -0.200 F 
ATOM     47  C   UNL A   1      38.284  33.593  37.157  1.00  0.00     0.200 A 
ATOM     48  F   UNL A   1      39.291  35.413  36.038  1.00  0.00    -0.200 F 
ATOM     49  F   UNL A   1      37.839  34.413  38.119  1.00  0.00    -0.200 F 
ENDBRANCH  25  39
BRANCH  26  50
ATOM     50  C   UNL A   1      42.477  26.231  27.664  1.00  0.00     0.064 A 
ATOM     51  C   UNL A   1      43.433  26.698  26.751  1.00  0.00     0.173 A 
ATOM     52  C   UNL A   1      42.008  24.921  27.522  1.00  0.00     0.173 A 
ATOM     53  F   UNL A   1      43.894  27.954  26.848  1.00  0.00    -0.203 F 
ATOM     54  C   UNL A   1      43.903  25.878  25.729  1.00  0.00     0.198 A 
ATOM     55  C   UNL A   1      42.484  24.100  26.504  1.00  0.00     0.198 A 
ATOM     56  F   UNL A   1      41.089  24.442  28.374  1.00  0.00    -0.203 F 
ATOM     57  F   UNL A   1      44.810  26.347  24.861  1.00  0.00    -0.200 F 
ATOM     58  C   UNL A   1      43.431  24.579  25.608  1.00  0.00     0.200 A 
ATOM     59  F   UNL A   1      42.026  22.846  26.386  1.00  0.00    -0.200 F 
ATOM     60  F   UNL A   1      43.886  23.790  24.626  1.00  0.00    -0.200 F 
ENDBRANCH  26  50
BRANCH  38  61
ATOM     61  C   UNL A   1      44.826  27.528  34.068  1.00  0.00     0.064 A 
ATOM     62  C   UNL A   1      46.033  28.240  34.030  1.00  0.00     0.173 A 
ATOM     63  C   UNL A   1      44.762  26.367  34.850  1.00  0.00     0.173 A 
ATOM     64  F   UNL A   1      46.139  29.349  33.283  1.00  0.00    -0.203 F 
ATOM     65  C   UNL A   1      47.141  27.800  34.748  1.00  0.00     0.198 A 
ATOM     66  C   UNL A   1      45.871  25.933  35.571  1.00  0.00     0.198 A 
ATOM     67  F   UNL A   1      43.628  25.654  34.908  1.00  0.00    -0.203 F 
ATOM     68  F   UNL A   1      48.293  28.484  34.687  1.00  0.00    -0.200 F 
ATOM     69  C   UNL A   1      47.059  26.649  35.520  1.00  0.00     0.200 A 
ATOM     70  F   UNL A   1      45.793  24.820  36.312  1.00  0.00    -0.200 F 
ATOM     71  F   UNL A   1      48.128  26.225  36.207  1.00  0.00    -0.200 F 
ENDBRANCH  38  61
ENDBRANCH  12  13
ENDBRANCH   5   7
ENDBRANCH   2   3
ENDBRANCH   1   2
BRANCH   1  72
ATOM     72  C   UNL A   1      31.858  27.585  24.165  1.00  0.00     0.117 C 
BRANCH  72  73
ATOM     73  N   UNL A   1      30.852  26.972  25.012  1.00  0.00    -0.354 N 
ATOM     74  C   UNL A   1      30.890  25.804  25.720  1.00  0.00     0.242 C 
ATOM     75  H   UNL A   1      30.009  27.476  25.089  1.00  0.00     0.163 HD
ATOM     76  O   UNL A   1      29.886  25.525  26.380  1.00  0.00    -0.273 OA
BRANCH  74  77
ATOM     77  C   UNL A   1      32.154  24.904  25.703  1.00  0.00     0.174 C 
ATOM     78  C   UNL A   1      32.164  23.905  26.877  1.00  0.00     0.035 C 
ATOM     79  N   UNL A   1      32.324  24.156  24.441  1.00  0.00    -0.325 N 
ATOM     80  C   UNL A   1      31.183  22.742  26.682  1.00  0.00     0.004 C 
ATOM     81  C   UNL A   1      31.319  23.121  24.194  1.00  0.00     0.121 C 
ATOM     82  C   UNL A   1      31.348  22.085  25.313  1.00  0.00     0.022 C 
BRANCH  79  83
ATOM     83  C   UNL A   1      33.544  24.272  23.758  1.00  0.00     0.274 C 
ATOM     84  O   UNL A   1      33.605  24.789  22.644  1.00  0.00    -0.267 OA
BRANCH  83  85
ATOM     85  C   UNL A   1      34.757  23.722  24.379  1.00  0.00     0.147 A 
ATOM     86  C   UNL A   1      35.287  22.452  24.215  1.00  0.00     0.127 A 
ATOM     87  N   UNL A   1      35.609  24.488  25.160  1.00  0.00    -0.223 NA
ATOM     88  N   UNL A   1      36.477  22.447  24.896  1.00  0.00    -0.306 N 
ATOM     89  C   UNL A   1      36.625  23.709  25.459  1.00  0.00     0.137 A 
ATOM     90  C   UNL A   1      37.412  21.424  25.034  1.00  0.00     0.093 A 
ATOM     91  C   UNL A   1      37.807  23.943  26.217  1.00  0.00     0.048 A 
ATOM     92  C   UNL A   1      38.527  21.649  25.750  1.00  0.00     0.018 A 
ATOM     93  C   UNL A   1      38.718  22.960  26.356  1.00  0.00     0.005 A 
ENDBRANCH  83  85
ENDBRANCH  79  83
ENDBRANCH  74  77
ENDBRANCH  72  73
ENDBRANCH   1  72
TORSDOF 12
ENDMDL
