MODEL 1
REMARK VINA RESULT:     -13.8      0.000      0.000
REMARK SMILES O=C(NCCCNC(=O)[C@H]1CC=CC[C@@H]1C(=O)N[C@@H]1CCCN(c2ccccc2F)C1=O)c1ccc(-c2c3nc(c(-c4c(F)c(F)c(F)c(F)c4F)c4ccc([nH]4)c(-c4c(F)c(F)c(F)c(F)c4F)c4nc(c(-c5c(F)c(F)c(F)c(F)c5F)c5ccc2[nH]5)C=C4)C=C3)cc1
REMARK SMILES IDX 5 1 4 2 3 3 1 4 2 5 33 7 34 8 95 9 35 10 94 11 36 12 37 13
REMARK SMILES IDX 38 14 88 15 39 16 93 17 87 18 89 19 40 20 92 21 86 22 85 23
REMARK SMILES IDX 41 25 73 26 53 27 72 28 54 29 57 30 71 31 90 32 55 33 56 34
REMARK SMILES IDX 70 36 91 37 58 38 42 39 43 40 51 41 44 42 45 43 49 44 52 45
REMARK SMILES IDX 46 46 47 47 50 48 48 49 74 50 75 51 83 52 76 53 77 54 81 55
REMARK SMILES IDX 84 56 78 57 79 58 82 59 80 60 59 61 60 62 68 63 61 64 62 65
REMARK SMILES IDX 66 66 69 67 63 68 64 69 67 70 65 71 6 72 7 73 8 74 9 76
REMARK SMILES IDX 10 77 11 78 15 79 12 80 14 81 13 82 16 83 17 84 18 85 19 87
REMARK SMILES IDX 20 88 31 89 21 90 23 91 32 92 22 93 24 94 25 95 29 96 26 97
REMARK SMILES IDX 28 98 30 99 27 100
REMARK H PARENT 3 6 89 24 57 35 7 75 18 86
REMARK Flexibility Score: inf
ROOT
ATOM      1  C   UNL A   1      37.920  19.812  24.690  1.00  0.00     0.042 C 
ENDROOT
BRANCH   1   2
ATOM      2  C   UNL A   1      38.913  20.171  25.786  1.00  0.00     0.118 C 
BRANCH   2   3
ATOM      3  N   UNL A   1      40.013  19.212  25.860  1.00  0.00    -0.352 N 
ATOM      4  O   UNL A   1      42.153  18.510  25.843  1.00  0.00    -0.269 OA
ATOM      5  C   UNL A   1      41.357  19.415  26.059  1.00  0.00     0.251 C 
ATOM      6  H   UNL A   1      39.749  18.270  25.749  1.00  0.00     0.163 HD
BRANCH   5   7
ATOM      7  C   UNL A   1      41.844  20.727  26.537  1.00  0.00     0.039 A 
ATOM      8  C   UNL A   1      42.144  21.737  25.626  1.00  0.00     0.014 A 
ATOM      9  C   UNL A   1      41.961  20.965  27.910  1.00  0.00     0.014 A 
ATOM     10  C   UNL A   1      42.717  22.918  26.070  1.00  0.00     0.010 A 
ATOM     11  C   UNL A   1      42.426  22.203  28.364  1.00  0.00     0.010 A 
ATOM     12  C   UNL A   1      42.831  23.181  27.445  1.00  0.00    -0.014 A 
BRANCH  12  13
ATOM     13  C   UNL A   1      43.295  24.528  27.863  1.00  0.00     0.031 A 
ATOM     14  C   UNL A   1      44.743  24.913  27.802  1.00  0.00     0.074 A 
ATOM     15  C   UNL A   1      42.359  25.431  28.223  1.00  0.00     0.049 A 
ATOM     16  N   UNL A   1      45.292  26.075  28.055  1.00  0.00    -0.248 NA
ATOM     17  C   UNL A   1      45.705  23.869  27.415  1.00  0.00     0.031 C 
ATOM     18  C   UNL A   1      40.923  25.155  28.322  1.00  0.00     0.029 A 
ATOM     19  N   UNL A   1      42.459  26.766  28.521  1.00  0.00    -0.354 N 
ATOM     20  C   UNL A   1      46.657  25.900  27.870  1.00  0.00     0.074 A 
ATOM     21  C   UNL A   1      46.861  24.514  27.508  1.00  0.00     0.031 C 
ATOM     22  C   UNL A   1      40.270  26.299  28.567  1.00  0.00     0.029 A 
ATOM     23  C   UNL A   1      41.243  27.372  28.723  1.00  0.00     0.049 A 
ATOM     24  H   UNL A   1      43.318  27.242  28.584  1.00  0.00     0.167 HD
ATOM     25  C   UNL A   1      47.642  26.823  27.983  1.00  0.00     0.037 A 
ATOM     26  C   UNL A   1      40.942  28.652  29.009  1.00  0.00     0.037 A 
ATOM     27  C   UNL A   1      47.423  28.206  28.322  1.00  0.00     0.049 A 
ATOM     28  C   UNL A   1      42.061  29.641  29.147  1.00  0.00     0.074 A 
ATOM     29  C   UNL A   1      48.357  29.220  28.449  1.00  0.00     0.029 A 
ATOM     30  N   UNL A   1      46.182  28.772  28.580  1.00  0.00    -0.354 N 
ATOM     31  N   UNL A   1      43.346  29.463  28.964  1.00  0.00    -0.248 NA
ATOM     32  C   UNL A   1      41.692  31.006  29.545  1.00  0.00     0.031 C 
ATOM     33  C   UNL A   1      47.688  30.388  28.824  1.00  0.00     0.029 A 
ATOM     34  C   UNL A   1      46.331  30.116  28.883  1.00  0.00     0.049 A 
ATOM     35  H   UNL A   1      45.324  28.290  28.553  1.00  0.00     0.167 HD
ATOM     36  C   UNL A   1      43.939  30.690  29.215  1.00  0.00     0.074 A 
ATOM     37  C   UNL A   1      42.869  31.614  29.534  1.00  0.00     0.031 C 
ATOM     38  C   UNL A   1      45.253  31.020  29.194  1.00  0.00     0.037 A 
BRANCH  25  39
ATOM     39  C   UNL A   1      49.056  26.385  27.742  1.00  0.00     0.064 A 
ATOM     40  C   UNL A   1      49.935  26.197  28.820  1.00  0.00     0.173 A 
ATOM     41  C   UNL A   1      49.575  26.268  26.445  1.00  0.00     0.173 A 
ATOM     42  F   UNL A   1      49.490  26.305  30.081  1.00  0.00    -0.203 F 
ATOM     43  C   UNL A   1      51.285  25.931  28.607  1.00  0.00     0.198 A 
ATOM     44  C   UNL A   1      50.922  25.979  26.235  1.00  0.00     0.198 A 
ATOM     45  F   UNL A   1      48.775  26.431  25.380  1.00  0.00    -0.203 F 
ATOM     46  F   UNL A   1      52.113  25.797  29.653  1.00  0.00    -0.200 F 
ATOM     47  C   UNL A   1      51.777  25.824  27.316  1.00  0.00     0.200 A 
ATOM     48  F   UNL A   1      51.393  25.860  24.986  1.00  0.00    -0.200 F 
ATOM     49  F   UNL A   1      53.078  25.575  27.111  1.00  0.00    -0.200 F 
ENDBRANCH  25  39
BRANCH  26  50
ATOM     50  C   UNL A   1      39.523  29.059  29.180  1.00  0.00     0.064 A 
ATOM     51  C   UNL A   1      38.753  29.496  28.090  1.00  0.00     0.173 A 
ATOM     52  C   UNL A   1      38.914  29.041  30.441  1.00  0.00     0.173 A 
ATOM     53  F   UNL A   1      39.291  29.536  26.862  1.00  0.00    -0.203 F 
ATOM     54  C   UNL A   1      37.438  29.920  28.260  1.00  0.00     0.198 A 
ATOM     55  C   UNL A   1      37.587  29.434  30.605  1.00  0.00     0.198 A 
ATOM     56  F   UNL A   1      39.600  28.614  31.512  1.00  0.00    -0.203 F 
ATOM     57  F   UNL A   1      36.741  30.371  27.209  1.00  0.00    -0.200 F 
ATOM     58  C   UNL A   1      36.853  29.882  29.517  1.00  0.00     0.200 A 
ATOM     59  F   UNL A   1      37.016  29.370  31.816  1.00  0.00    -0.200 F 
ATOM     60  F   UNL A   1      35.582  30.272  29.677  1.00  0.00    -0.200 F 
ENDBRANCH  26  50
BRANCH  38  61
ATOM     61  C   UNL A   1      45.608  32.441  29.512  1.00  0.00     0.064 A 
ATOM     62  C   UNL A   1      45.866  32.831  30.834  1.00  0.00     0.173 A 
ATOM     63  C   UNL A   1      45.641  33.426  28.514  1.00  0.00     0.173 A 
ATOM     64  F   UNL A   1      45.839  31.926  31.824  1.00  0.00    -0.203 F 
ATOM     65  C   UNL A   1      46.137  34.160  31.148  1.00  0.00     0.198 A 
ATOM     66  C   UNL A   1      45.940  34.749  28.828  1.00  0.00     0.198 A 
ATOM     67  F   UNL A   1      45.415  33.099  27.233  1.00  0.00    -0.203 F 
ATOM     68  F   UNL A   1      46.353  34.515  32.421  1.00  0.00    -0.200 F 
ATOM     69  C   UNL A   1      46.180  35.116  30.144  1.00  0.00     0.200 A 
ATOM     70  F   UNL A   1      46.008  35.667  27.854  1.00  0.00    -0.200 F 
ATOM     71  F   UNL A   1      46.457  36.392  30.444  1.00  0.00    -0.200 F 
ENDBRANCH  38  61
ENDBRANCH  12  13
ENDBRANCH   5   7
ENDBRANCH   2   3
ENDBRANCH   1   2
BRANCH   1  72
ATOM     72  C   UNL A   1      36.502  20.216  25.063  1.00  0.00     0.117 C 
BRANCH  72  73
ATOM     73  N   UNL A   1      36.144  21.494  24.472  1.00  0.00    -0.356 N 
ATOM     74  C   UNL A   1      34.995  22.183  24.294  1.00  0.00     0.224 C 
ATOM     75  H   UNL A   1      36.927  21.973  24.115  1.00  0.00     0.163 HD
ATOM     76  O   UNL A   1      35.136  23.252  23.679  1.00  0.00    -0.275 OA
BRANCH  74  77
ATOM     77  C   UNL A   1      33.591  21.781  24.773  1.00  0.00     0.095 C 
ATOM     78  C   UNL A   1      33.429  20.791  25.928  1.00  0.00     0.041 C 
ATOM     79  C   UNL A   1      32.824  23.093  25.099  1.00  0.00     0.095 C 
ATOM     80  C   UNL A   1      33.742  21.411  27.263  1.00  0.00    -0.030 C 
ATOM     81  C   UNL A   1      33.421  23.731  26.374  1.00  0.00     0.041 C 
ATOM     82  C   UNL A   1      33.783  22.739  27.450  1.00  0.00    -0.030 C 
BRANCH  79  83
ATOM     83  C   UNL A   1      31.327  22.836  25.285  1.00  0.00     0.224 C 
ATOM     84  O   UNL A   1      30.896  21.835  25.862  1.00  0.00    -0.275 OA
ATOM     85  N   UNL A   1      30.388  23.695  24.821  1.00  0.00    -0.344 N 
ATOM     86  H   UNL A   1      29.465  23.376  24.938  1.00  0.00     0.164 HD
BRANCH  85  87
ATOM     87  C   UNL A   1      30.482  25.007  24.178  1.00  0.00     0.172 C 
ATOM     88  C   UNL A   1      31.329  24.856  22.917  1.00  0.00     0.037 C 
ATOM     89  C   UNL A   1      31.007  26.071  25.172  1.00  0.00     0.249 C 
ATOM     90  C   UNL A   1      31.648  26.215  22.332  1.00  0.00     0.025 C 
ATOM     91  N   UNL A   1      31.837  27.077  24.662  1.00  0.00    -0.308 N 
ATOM     92  O   UNL A   1      30.569  26.084  26.326  1.00  0.00    -0.272 OA
ATOM     93  C   UNL A   1      32.461  27.003  23.340  1.00  0.00     0.126 C 
BRANCH  91  94
ATOM     94  C   UNL A   1      32.322  28.100  25.540  1.00  0.00     0.080 A 
ATOM     95  C   UNL A   1      33.374  27.817  26.423  1.00  0.00     0.029 A 
ATOM     96  C   UNL A   1      31.786  29.398  25.539  1.00  0.00     0.146 A 
ATOM     97  C   UNL A   1      33.896  28.817  27.250  1.00  0.00     0.002 A 
ATOM     98  C   UNL A   1      32.301  30.394  26.364  1.00  0.00     0.041 A 
ATOM     99  F   UNL A   1      30.698  29.690  24.809  1.00  0.00    -0.205 F 
ATOM    100  C   UNL A   1      33.365  30.107  27.217  1.00  0.00     0.003 A 
ENDBRANCH  91  94
ENDBRANCH  85  87
ENDBRANCH  79  83
ENDBRANCH  74  77
ENDBRANCH  72  73
ENDBRANCH   1  72
TORSDOF 13
ENDMDL
MODEL 2
REMARK VINA RESULT:     -13.7      0.128      1.098
REMARK SMILES O=C(NCCCNC(=O)[C@H]1CC=CC[C@@H]1C(=O)N[C@@H]1CCCN(c2ccccc2F)C1=O)c1ccc(-c2c3nc(c(-c4c(F)c(F)c(F)c(F)c4F)c4ccc([nH]4)c(-c4c(F)c(F)c(F)c(F)c4F)c4nc(c(-c5c(F)c(F)c(F)c(F)c5F)c5ccc2[nH]5)C=C4)C=C3)cc1
REMARK SMILES IDX 5 1 4 2 3 3 1 4 2 5 33 7 34 8 95 9 35 10 94 11 36 12 37 13
REMARK SMILES IDX 38 14 88 15 39 16 93 17 87 18 89 19 40 20 92 21 86 22 85 23
REMARK SMILES IDX 41 25 73 26 53 27 72 28 54 29 57 30 71 31 90 32 55 33 56 34
REMARK SMILES IDX 70 36 91 37 58 38 42 39 43 40 51 41 44 42 45 43 49 44 52 45
REMARK SMILES IDX 46 46 47 47 50 48 48 49 74 50 75 51 83 52 76 53 77 54 81 55
REMARK SMILES IDX 84 56 78 57 79 58 82 59 80 60 59 61 60 62 68 63 61 64 62 65
REMARK SMILES IDX 66 66 69 67 63 68 64 69 67 70 65 71 6 72 7 73 8 74 9 76
REMARK SMILES IDX 10 77 11 78 15 79 12 80 14 81 13 82 16 83 17 84 18 85 19 87
REMARK SMILES IDX 20 88 31 89 21 90 23 91 32 92 22 93 24 94 25 95 29 96 26 97
REMARK SMILES IDX 28 98 30 99 27 100
REMARK H PARENT 3 6 89 24 57 35 7 75 18 86
REMARK Flexibility Score: inf
ROOT
ATOM      1  C   UNL A   1      37.859  19.846  24.642  1.00  0.00     0.042 C 
ENDROOT
BRANCH   1   2
ATOM      2  C   UNL A   1      38.841  20.193  25.751  1.00  0.00     0.118 C 
BRANCH   2   3
ATOM      3  N   UNL A   1      39.939  19.232  25.827  1.00  0.00    -0.352 N 
ATOM      4  O   UNL A   1      42.077  18.523  25.809  1.00  0.00    -0.269 OA
ATOM      5  C   UNL A   1      41.284  19.432  26.022  1.00  0.00     0.251 C 
ATOM      6  H   UNL A   1      39.672  18.290  25.722  1.00  0.00     0.163 HD
BRANCH   5   7
ATOM      7  C   UNL A   1      41.775  20.744  26.493  1.00  0.00     0.039 A 
ATOM      8  C   UNL A   1      41.999  21.776  25.583  1.00  0.00     0.014 A 
ATOM      9  C   UNL A   1      41.974  20.962  27.860  1.00  0.00     0.014 A 
ATOM     10  C   UNL A   1      42.577  22.960  26.012  1.00  0.00     0.010 A 
ATOM     11  C   UNL A   1      42.445  22.201  28.306  1.00  0.00     0.010 A 
ATOM     12  C   UNL A   1      42.773  23.202  27.381  1.00  0.00    -0.014 A 
BRANCH  12  13
ATOM     13  C   UNL A   1      43.237  24.550  27.794  1.00  0.00     0.031 A 
ATOM     14  C   UNL A   1      44.683  24.941  27.713  1.00  0.00     0.074 A 
ATOM     15  C   UNL A   1      42.303  25.450  28.168  1.00  0.00     0.049 A 
ATOM     16  N   UNL A   1      45.230  26.105  27.959  1.00  0.00    -0.248 NA
ATOM     17  C   UNL A   1      45.643  23.901  27.313  1.00  0.00     0.031 C 
ATOM     18  C   UNL A   1      40.869  25.169  28.286  1.00  0.00     0.029 A 
ATOM     19  N   UNL A   1      42.402  26.785  28.464  1.00  0.00    -0.354 N 
ATOM     20  C   UNL A   1      46.593  25.935  27.756  1.00  0.00     0.074 A 
ATOM     21  C   UNL A   1      46.798  24.550  27.391  1.00  0.00     0.031 C 
ATOM     22  C   UNL A   1      40.215  26.310  28.539  1.00  0.00     0.029 A 
ATOM     23  C   UNL A   1      41.187  27.386  28.683  1.00  0.00     0.049 A 
ATOM     24  H   UNL A   1      43.260  27.264  28.516  1.00  0.00     0.167 HD
ATOM     25  C   UNL A   1      47.576  26.861  27.857  1.00  0.00     0.037 A 
ATOM     26  C   UNL A   1      40.884  28.664  28.975  1.00  0.00     0.037 A 
ATOM     27  C   UNL A   1      47.357  28.243  28.199  1.00  0.00     0.049 A 
ATOM     28  C   UNL A   1      42.001  29.658  29.098  1.00  0.00     0.074 A 
ATOM     29  C   UNL A   1      48.289  29.261  28.314  1.00  0.00     0.029 A 
ATOM     30  N   UNL A   1      46.117  28.805  28.475  1.00  0.00    -0.354 N 
ATOM     31  N   UNL A   1      43.284  29.485  28.897  1.00  0.00    -0.248 NA
ATOM     32  C   UNL A   1      41.632  31.021  29.501  1.00  0.00     0.031 C 
ATOM     33  C   UNL A   1      47.621  30.426  28.699  1.00  0.00     0.029 A 
ATOM     34  C   UNL A   1      46.265  30.149  28.776  1.00  0.00     0.049 A 
ATOM     35  H   UNL A   1      45.261  28.320  28.458  1.00  0.00     0.167 HD
ATOM     36  C   UNL A   1      43.876  30.714  29.140  1.00  0.00     0.074 A 
ATOM     37  C   UNL A   1      42.807  31.634  29.475  1.00  0.00     0.031 C 
ATOM     38  C   UNL A   1      45.189  31.049  29.102  1.00  0.00     0.037 A 
BRANCH  25  39
ATOM     39  C   UNL A   1      48.989  26.429  27.596  1.00  0.00     0.064 A 
ATOM     40  C   UNL A   1      49.877  26.223  28.663  1.00  0.00     0.173 A 
ATOM     41  C   UNL A   1      49.497  26.335  26.293  1.00  0.00     0.173 A 
ATOM     42  F   UNL A   1      49.443  26.309  29.930  1.00  0.00    -0.203 F 
ATOM     43  C   UNL A   1      51.225  25.962  28.434  1.00  0.00     0.198 A 
ATOM     44  C   UNL A   1      50.842  26.051  26.067  1.00  0.00     0.198 A 
ATOM     45  F   UNL A   1      48.688  26.516  25.238  1.00  0.00    -0.203 F 
ATOM     46  F   UNL A   1      52.062  25.811  29.471  1.00  0.00    -0.200 F 
ATOM     47  C   UNL A   1      51.706  25.878  27.137  1.00  0.00     0.200 A 
ATOM     48  F   UNL A   1      51.303  25.954  24.812  1.00  0.00    -0.200 F 
ATOM     49  F   UNL A   1      53.006  25.634  26.918  1.00  0.00    -0.200 F 
ENDBRANCH  25  39
BRANCH  26  50
ATOM     50  C   UNL A   1      39.466  29.066  29.165  1.00  0.00     0.064 A 
ATOM     51  C   UNL A   1      38.694  29.544  28.094  1.00  0.00     0.173 A 
ATOM     52  C   UNL A   1      38.861  29.002  30.426  1.00  0.00     0.173 A 
ATOM     53  F   UNL A   1      39.227  29.629  26.866  1.00  0.00    -0.203 F 
ATOM     54  C   UNL A   1      37.379  29.962  28.284  1.00  0.00     0.198 A 
ATOM     55  C   UNL A   1      37.535  29.390  30.609  1.00  0.00     0.198 A 
ATOM     56  F   UNL A   1      39.551  28.536  31.478  1.00  0.00    -0.203 F 
ATOM     57  F   UNL A   1      36.679  30.452  27.252  1.00  0.00    -0.200 F 
ATOM     58  C   UNL A   1      36.798  29.878  29.540  1.00  0.00     0.200 A 
ATOM     59  F   UNL A   1      36.967  29.281  31.818  1.00  0.00    -0.200 F 
ATOM     60  F   UNL A   1      35.528  30.263  29.719  1.00  0.00    -0.200 F 
ENDBRANCH  26  50
BRANCH  38  61
ATOM     61  C   UNL A   1      45.542  32.471  29.416  1.00  0.00     0.064 A 
ATOM     62  C   UNL A   1      45.631  33.425  28.391  1.00  0.00     0.173 A 
ATOM     63  C   UNL A   1      45.843  32.878  30.724  1.00  0.00     0.173 A 
ATOM     64  F   UNL A   1      45.359  33.082  27.123  1.00  0.00    -0.203 F 
ATOM     65  C   UNL A   1      46.016  34.734  28.664  1.00  0.00     0.198 A 
ATOM     66  C   UNL A   1      46.200  34.196  30.997  1.00  0.00     0.198 A 
ATOM     67  F   UNL A   1      45.758  32.005  31.739  1.00  0.00    -0.203 F 
ATOM     68  F   UNL A   1      46.121  35.621  27.666  1.00  0.00    -0.200 F 
ATOM     69  C   UNL A   1      46.295  35.119  29.967  1.00  0.00     0.200 A 
ATOM     70  F   UNL A   1      46.443  34.573  32.259  1.00  0.00    -0.200 F 
ATOM     71  F   UNL A   1      46.649  36.384  30.231  1.00  0.00    -0.200 F 
ENDBRANCH  38  61
ENDBRANCH  12  13
ENDBRANCH   5   7
ENDBRANCH   2   3
ENDBRANCH   1   2
BRANCH   1  72
ATOM     72  C   UNL A   1      36.439  20.256  25.001  1.00  0.00     0.117 C 
BRANCH  72  73
ATOM     73  N   UNL A   1      36.098  21.543  24.420  1.00  0.00    -0.356 N 
ATOM     74  C   UNL A   1      34.956  22.243  24.236  1.00  0.00     0.224 C 
ATOM     75  H   UNL A   1      36.888  22.020  24.078  1.00  0.00     0.163 HD
ATOM     76  O   UNL A   1      35.112  23.318  23.635  1.00  0.00    -0.275 OA
BRANCH  74  77
ATOM     77  C   UNL A   1      33.543  21.846  24.694  1.00  0.00     0.095 C 
ATOM     78  C   UNL A   1      33.361  20.847  25.838  1.00  0.00     0.041 C 
ATOM     79  C   UNL A   1      32.781  23.160  25.022  1.00  0.00     0.095 C 
ATOM     80  C   UNL A   1      33.660  21.453  27.182  1.00  0.00    -0.030 C 
ATOM     81  C   UNL A   1      33.367  23.783  26.311  1.00  0.00     0.041 C 
ATOM     82  C   UNL A   1      33.708  22.779  27.381  1.00  0.00    -0.030 C 
BRANCH  79  83
ATOM     83  C   UNL A   1      31.280  22.913  25.188  1.00  0.00     0.224 C 
ATOM     84  O   UNL A   1      30.835  21.909  25.751  1.00  0.00    -0.275 OA
ATOM     85  N   UNL A   1      30.353  23.781  24.718  1.00  0.00    -0.344 N 
ATOM     86  H   UNL A   1      29.426  23.467  24.821  1.00  0.00     0.164 HD
BRANCH  85  87
ATOM     87  C   UNL A   1      30.464  25.097  24.086  1.00  0.00     0.172 C 
ATOM     88  C   UNL A   1      31.339  24.954  22.844  1.00  0.00     0.037 C 
ATOM     89  C   UNL A   1      30.968  26.153  25.099  1.00  0.00     0.249 C 
ATOM     90  C   UNL A   1      31.674  26.316  22.275  1.00  0.00     0.025 C 
ATOM     91  N   UNL A   1      31.811  27.161  24.616  1.00  0.00    -0.308 N 
ATOM     92  O   UNL A   1      30.504  26.160  26.243  1.00  0.00    -0.272 OA
ATOM     93  C   UNL A   1      32.464  27.095  23.308  1.00  0.00     0.126 C 
BRANCH  91  94
ATOM     94  C   UNL A   1      32.278  28.177  25.511  1.00  0.00     0.080 A 
ATOM     95  C   UNL A   1      33.319  27.890  26.405  1.00  0.00     0.029 A 
ATOM     96  C   UNL A   1      31.734  29.471  25.518  1.00  0.00     0.146 A 
ATOM     97  C   UNL A   1      33.824  28.885  27.250  1.00  0.00     0.002 A 
ATOM     98  C   UNL A   1      32.232  30.462  26.360  1.00  0.00     0.041 A 
ATOM     99  F   UNL A   1      30.654  29.766  24.776  1.00  0.00    -0.205 F 
ATOM    100  C   UNL A   1      33.285  30.171  27.224  1.00  0.00     0.003 A 
ENDBRANCH  91  94
ENDBRANCH  85  87
ENDBRANCH  79  83
ENDBRANCH  74  77
ENDBRANCH  72  73
ENDBRANCH   1  72
TORSDOF 13
ENDMDL
MODEL 3
REMARK VINA RESULT:     -13.6      4.806     10.271
REMARK SMILES O=C(NCCCNC(=O)[C@H]1CC=CC[C@@H]1C(=O)N[C@@H]1CCCN(c2ccccc2F)C1=O)c1ccc(-c2c3nc(c(-c4c(F)c(F)c(F)c(F)c4F)c4ccc([nH]4)c(-c4c(F)c(F)c(F)c(F)c4F)c4nc(c(-c5c(F)c(F)c(F)c(F)c5F)c5ccc2[nH]5)C=C4)C=C3)cc1
REMARK SMILES IDX 5 1 4 2 3 3 1 4 2 5 33 7 34 8 95 9 35 10 94 11 36 12 37 13
REMARK SMILES IDX 38 14 88 15 39 16 93 17 87 18 89 19 40 20 92 21 86 22 85 23
REMARK SMILES IDX 41 25 73 26 53 27 72 28 54 29 57 30 71 31 90 32 55 33 56 34
REMARK SMILES IDX 70 36 91 37 58 38 42 39 43 40 51 41 44 42 45 43 49 44 52 45
REMARK SMILES IDX 46 46 47 47 50 48 48 49 74 50 75 51 83 52 76 53 77 54 81 55
REMARK SMILES IDX 84 56 78 57 79 58 82 59 80 60 59 61 60 62 68 63 61 64 62 65
REMARK SMILES IDX 66 66 69 67 63 68 64 69 67 70 65 71 6 72 7 73 8 74 9 76
REMARK SMILES IDX 10 77 11 78 15 79 12 80 14 81 13 82 16 83 17 84 18 85 19 87
REMARK SMILES IDX 20 88 31 89 21 90 23 91 32 92 22 93 24 94 25 95 29 96 26 97
REMARK SMILES IDX 28 98 30 99 27 100
REMARK H PARENT 3 6 89 24 57 35 7 75 18 86
REMARK Flexibility Score: inf
ROOT
ATOM      1  C   UNL A   1      31.406  31.558  26.794  1.00  0.00     0.042 C 
ENDROOT
BRANCH   1   2
ATOM      2  C   UNL A   1      32.703  32.346  26.896  1.00  0.00     0.118 C 
BRANCH   2   3
ATOM      3  N   UNL A   1      32.481  33.698  27.403  1.00  0.00    -0.352 N 
ATOM      4  O   UNL A   1      32.580  35.400  28.876  1.00  0.00    -0.269 OA
ATOM      5  C   UNL A   1      33.073  34.363  28.450  1.00  0.00     0.251 C 
ATOM      6  H   UNL A   1      31.799  34.215  26.919  1.00  0.00     0.163 HD
BRANCH   5   7
ATOM      7  C   UNL A   1      34.309  33.828  29.061  1.00  0.00     0.039 A 
ATOM      8  C   UNL A   1      34.247  32.738  29.926  1.00  0.00     0.014 A 
ATOM      9  C   UNL A   1      35.545  34.394  28.734  1.00  0.00     0.014 A 
ATOM     10  C   UNL A   1      35.388  32.321  30.592  1.00  0.00     0.010 A 
ATOM     11  C   UNL A   1      36.714  33.893  29.316  1.00  0.00     0.010 A 
ATOM     12  C   UNL A   1      36.641  32.867  30.269  1.00  0.00    -0.014 A 
BRANCH  12  13
ATOM     13  C   UNL A   1      37.848  32.267  30.891  1.00  0.00     0.031 A 
ATOM     14  C   UNL A   1      38.263  32.610  32.290  1.00  0.00     0.074 A 
ATOM     15  C   UNL A   1      38.518  31.331  30.186  1.00  0.00     0.049 A 
ATOM     16  N   UNL A   1      39.243  32.108  33.000  1.00  0.00    -0.248 NA
ATOM     17  C   UNL A   1      37.492  33.650  32.988  1.00  0.00     0.031 C 
ATOM     18  C   UNL A   1      38.200  30.928  28.813  1.00  0.00     0.029 A 
ATOM     19  N   UNL A   1      39.564  30.515  30.535  1.00  0.00    -0.354 N 
ATOM     20  C   UNL A   1      39.214  32.776  34.216  1.00  0.00     0.074 A 
ATOM     21  C   UNL A   1      38.136  33.739  34.145  1.00  0.00     0.031 C 
ATOM     22  C   UNL A   1      38.968  29.886  28.470  1.00  0.00     0.029 A 
ATOM     23  C   UNL A   1      39.888  29.600  29.563  1.00  0.00     0.049 A 
ATOM     24  H   UNL A   1      40.036  30.580  31.395  1.00  0.00     0.167 HD
ATOM     25  C   UNL A   1      40.012  32.587  35.294  1.00  0.00     0.037 A 
ATOM     26  C   UNL A   1      40.828  28.637  29.549  1.00  0.00     0.037 A 
ATOM     27  C   UNL A   1      41.067  31.609  35.361  1.00  0.00     0.049 A 
ATOM     28  C   UNL A   1      41.707  28.470  30.753  1.00  0.00     0.074 A 
ATOM     29  C   UNL A   1      41.923  31.334  36.415  1.00  0.00     0.029 A 
ATOM     30  N   UNL A   1      41.408  30.739  34.334  1.00  0.00    -0.354 N 
ATOM     31  N   UNL A   1      41.664  29.105  31.898  1.00  0.00    -0.248 NA
ATOM     32  C   UNL A   1      42.773  27.465  30.659  1.00  0.00     0.031 C 
ATOM     33  C   UNL A   1      42.806  30.330  36.012  1.00  0.00     0.029 A 
ATOM     34  C   UNL A   1      42.471  29.941  34.725  1.00  0.00     0.049 A 
ATOM     35  H   UNL A   1      40.960  30.696  33.458  1.00  0.00     0.167 HD
ATOM     36  C   UNL A   1      42.688  28.573  32.666  1.00  0.00     0.074 A 
ATOM     37  C   UNL A   1      43.317  27.542  31.866  1.00  0.00     0.031 C 
ATOM     38  C   UNL A   1      43.080  28.917  33.916  1.00  0.00     0.037 A 
BRANCH  25  39
ATOM     39  C   UNL A   1      39.790  33.448  36.503  1.00  0.00     0.064 A 
ATOM     40  C   UNL A   1      38.859  33.068  37.482  1.00  0.00     0.173 A 
ATOM     41  C   UNL A   1      40.405  34.701  36.633  1.00  0.00     0.173 A 
ATOM     42  F   UNL A   1      38.236  31.883  37.400  1.00  0.00    -0.203 F 
ATOM     43  C   UNL A   1      38.536  33.922  38.534  1.00  0.00     0.198 A 
ATOM     44  C   UNL A   1      40.097  35.543  37.699  1.00  0.00     0.198 A 
ATOM     45  F   UNL A   1      41.308  35.107  35.727  1.00  0.00    -0.203 F 
ATOM     46  F   UNL A   1      37.613  33.555  39.434  1.00  0.00    -0.200 F 
ATOM     47  C   UNL A   1      39.155  35.158  38.641  1.00  0.00     0.200 A 
ATOM     48  F   UNL A   1      40.708  36.731  37.810  1.00  0.00    -0.200 F 
ATOM     49  F   UNL A   1      38.838  35.982  39.649  1.00  0.00    -0.200 F 
ENDBRANCH  25  39
BRANCH  26  50
ATOM     50  C   UNL A   1      40.975  27.763  28.355  1.00  0.00     0.064 A 
ATOM     51  C   UNL A   1      40.376  26.495  28.302  1.00  0.00     0.173 A 
ATOM     52  C   UNL A   1      41.738  28.169  27.253  1.00  0.00     0.173 A 
ATOM     53  F   UNL A   1      39.639  26.056  29.333  1.00  0.00    -0.203 F 
ATOM     54  C   UNL A   1      40.553  25.659  27.202  1.00  0.00     0.198 A 
ATOM     55  C   UNL A   1      41.888  27.346  26.139  1.00  0.00     0.198 A 
ATOM     56  F   UNL A   1      42.317  29.380  27.248  1.00  0.00    -0.203 F 
ATOM     57  F   UNL A   1      40.004  24.438  27.196  1.00  0.00    -0.200 F 
ATOM     58  C   UNL A   1      41.304  26.088  26.118  1.00  0.00     0.200 A 
ATOM     59  F   UNL A   1      42.590  27.775  25.081  1.00  0.00    -0.200 F 
ATOM     60  F   UNL A   1      41.459  25.292  25.052  1.00  0.00    -0.200 F 
ENDBRANCH  26  50
BRANCH  38  61
ATOM     61  C   UNL A   1      44.235  28.162  34.503  1.00  0.00     0.064 A 
ATOM     62  C   UNL A   1      44.017  26.985  35.234  1.00  0.00     0.173 A 
ATOM     63  C   UNL A   1      45.551  28.632  34.385  1.00  0.00     0.173 A 
ATOM     64  F   UNL A   1      42.775  26.500  35.381  1.00  0.00    -0.203 F 
ATOM     65  C   UNL A   1      45.075  26.309  35.834  1.00  0.00     0.198 A 
ATOM     66  C   UNL A   1      46.611  27.938  34.962  1.00  0.00     0.198 A 
ATOM     67  F   UNL A   1      45.810  29.746  33.684  1.00  0.00    -0.203 F 
ATOM     68  F   UNL A   1      44.841  25.202  36.550  1.00  0.00    -0.200 F 
ATOM     69  C   UNL A   1      46.372  26.783  35.692  1.00  0.00     0.200 A 
ATOM     70  F   UNL A   1      47.865  28.381  34.802  1.00  0.00    -0.200 F 
ATOM     71  F   UNL A   1      47.392  26.123  36.255  1.00  0.00    -0.200 F 
ENDBRANCH  38  61
ENDBRANCH  12  13
ENDBRANCH   5   7
ENDBRANCH   2   3
ENDBRANCH   1   2
BRANCH   1  72
ATOM     72  C   UNL A   1      31.442  30.563  25.644  1.00  0.00     0.117 C 
BRANCH  72  73
ATOM     73  N   UNL A   1      31.621  29.205  26.126  1.00  0.00    -0.356 N 
ATOM     74  C   UNL A   1      31.543  27.972  25.577  1.00  0.00     0.224 C 
ATOM     75  H   UNL A   1      31.857  29.175  27.081  1.00  0.00     0.163 HD
ATOM     76  O   UNL A   1      31.732  27.046  26.382  1.00  0.00    -0.275 OA
BRANCH  74  77
ATOM     77  C   UNL A   1      31.260  27.630  24.106  1.00  0.00     0.095 C 
ATOM     78  C   UNL A   1      31.431  28.698  23.024  1.00  0.00     0.041 C 
ATOM     79  C   UNL A   1      32.122  26.385  23.750  1.00  0.00     0.095 C 
ATOM     80  C   UNL A   1      32.877  28.976  22.715  1.00  0.00    -0.030 C 
ATOM     81  C   UNL A   1      33.612  26.793  23.698  1.00  0.00     0.041 C 
ATOM     82  C   UNL A   1      33.863  28.136  23.062  1.00  0.00    -0.030 C 
BRANCH  79  83
ATOM     83  C   UNL A   1      31.694  25.769  22.416  1.00  0.00     0.224 C 
ATOM     84  O   UNL A   1      31.450  26.455  21.420  1.00  0.00    -0.275 OA
ATOM     85  N   UNL A   1      31.554  24.431  22.256  1.00  0.00    -0.344 N 
ATOM     86  H   UNL A   1      31.201  24.171  21.375  1.00  0.00     0.164 HD
BRANCH  85  87
ATOM     87  C   UNL A   1      31.828  23.297  23.140  1.00  0.00     0.172 C 
ATOM     88  C   UNL A   1      30.999  23.476  24.409  1.00  0.00     0.037 C 
ATOM     89  C   UNL A   1      33.348  23.148  23.390  1.00  0.00     0.249 C 
ATOM     90  C   UNL A   1      31.406  22.457  25.452  1.00  0.00     0.025 C 
ATOM     91  N   UNL A   1      33.754  22.713  24.658  1.00  0.00    -0.308 N 
ATOM     92  O   UNL A   1      34.129  23.272  22.443  1.00  0.00    -0.272 OA
ATOM     93  C   UNL A   1      32.860  22.684  25.816  1.00  0.00     0.126 C 
BRANCH  91  94
ATOM     94  C   UNL A   1      35.150  22.531  24.925  1.00  0.00     0.080 A 
ATOM     95  C   UNL A   1      35.727  21.262  24.776  1.00  0.00     0.029 A 
ATOM     96  C   UNL A   1      35.976  23.594  25.323  1.00  0.00     0.146 A 
ATOM     97  C   UNL A   1      37.098  21.076  24.982  1.00  0.00     0.002 A 
ATOM     98  C   UNL A   1      37.341  23.411  25.532  1.00  0.00     0.041 A 
ATOM     99  F   UNL A   1      35.456  24.799  25.604  1.00  0.00    -0.205 F 
ATOM    100  C   UNL A   1      37.906  22.151  25.354  1.00  0.00     0.003 A 
ENDBRANCH  91  94
ENDBRANCH  85  87
ENDBRANCH  79  83
ENDBRANCH  74  77
ENDBRANCH  72  73
ENDBRANCH   1  72
TORSDOF 13
ENDMDL
