MODEL 1
REMARK VINA RESULT:     -12.1      0.000      0.000
REMARK SMILES COC1CCN(c2nc(C(C)C)c(C(=O)NCCCNC(=O)c3ccc(-c4c5nc(c(-c6c(F)c(F)c(F)c(F)c6F)c6ccc([nH]6)c(-c6c(F)c(F)c(F)c(F)c6F)c6nc(c(-c7c(F)c(F)c(F)c(F)c7F)c7ccc4[nH]7)C=C6)C=C5)cc3)s2)CC1
REMARK SMILES IDX 18 1 17 2 16 3 14 4 15 5 13 7 7 8 8 9 86 10 9 11 6 12 3 13
REMARK SMILES IDX 4 14 88 15 5 16 87 17 2 18 1 19 10 20 11 21 12 22 19 23
REMARK SMILES IDX 20 24 21 25 22 27 23 28 24 29 85 30 25 31 84 32 26 33 27 34
REMARK SMILES IDX 28 35 78 36 29 37 83 38 77 39 79 40 30 41 82 42 76 43 75 44
REMARK SMILES IDX 31 46 63 47 43 48 62 49 44 50 47 51 61 52 80 53 45 54 46 55
REMARK SMILES IDX 60 57 81 58 48 59 32 60 33 61 41 62 34 63 35 64 39 65 42 66
REMARK SMILES IDX 36 67 37 68 40 69 38 70 64 71 65 72 73 73 66 74 67 75 71 76
REMARK SMILES IDX 74 77 68 78 69 79 72 80 70 81 49 82 50 83 58 84 51 85 52 86
REMARK SMILES IDX 56 87 59 88 53 89 54 90 57 91 55 92
REMARK H PARENT 16 6 20 26 79 45 47 56
REMARK Flexibility Score: inf
ROOT
ATOM      1  C   UNL A   1      31.281  32.313  26.451  1.00  0.00     0.042 C 
ENDROOT
BRANCH   1   2
ATOM      2  C   UNL A   1      31.354  30.847  26.057  1.00  0.00     0.118 C 
BRANCH   2   3
ATOM      3  N   UNL A   1      32.677  30.315  26.206  1.00  0.00    -0.351 N 
ATOM      4  C   UNL A   1      33.274  29.115  25.936  1.00  0.00     0.263 C 
ATOM      5  O   UNL A   1      34.474  29.153  26.256  1.00  0.00    -0.268 OA
ATOM      6  H   UNL A   1      33.303  30.968  26.597  1.00  0.00     0.163 HD
BRANCH   4   7
ATOM      7  C   UNL A   1      32.669  27.926  25.324  1.00  0.00     0.117 A 
ATOM      8  C   UNL A   1      32.486  25.490  24.861  1.00  0.00     0.186 A 
ATOM      9  N   UNL A   1      31.639  26.173  24.145  1.00  0.00    -0.224 NA
ATOM     10  S   UNL A   1      33.441  26.446  25.890  1.00  0.00    -0.091 S 
ATOM     11  C   UNL A   1      31.636  27.530  24.463  1.00  0.00     0.069 A 
BRANCH   8  12
ATOM     12  N   UNL A   1      32.655  24.156  24.735  1.00  0.00    -0.348 N 
ATOM     13  C   UNL A   1      33.424  21.486  24.134  1.00  0.00     0.121 C 
ATOM     14  C   UNL A   1      34.067  22.262  25.294  1.00  0.00     0.053 C 
ATOM     15  C   UNL A   1      32.883  22.449  23.070  1.00  0.00     0.053 C 
ATOM     16  C   UNL A   1      33.132  23.339  25.841  1.00  0.00     0.121 C 
ATOM     17  C   UNL A   1      31.922  23.453  23.697  1.00  0.00     0.121 C 
BRANCH  13  18
ATOM     18  O   UNL A   1      32.401  20.647  24.688  1.00  0.00    -0.381 OA
ATOM     19  C   UNL A   1      32.502  19.284  24.298  1.00  0.00     0.195 C 
ENDBRANCH  13  18
ENDBRANCH   8  12
BRANCH  11  20
ATOM     20  C   UNL A   1      30.458  28.206  23.806  1.00  0.00     0.034 C 
ATOM     21  C   UNL A   1      30.879  29.177  22.706  1.00  0.00     0.014 C 
ATOM     22  C   UNL A   1      29.267  27.286  23.527  1.00  0.00     0.014 C 
ENDBRANCH  11  20
ENDBRANCH   4   7
ENDBRANCH   2   3
ENDBRANCH   1   2
BRANCH   1  23
ATOM     23  C   UNL A   1      32.495  32.766  27.239  1.00  0.00     0.118 C 
BRANCH  23  24
ATOM     24  N   UNL A   1      32.390  34.169  27.630  1.00  0.00    -0.352 N 
ATOM     25  C   UNL A   1      33.019  34.881  28.618  1.00  0.00     0.251 C 
ATOM     26  H   UNL A   1      31.755  34.696  27.091  1.00  0.00     0.163 HD
ATOM     27  O   UNL A   1      32.580  35.995  28.926  1.00  0.00    -0.269 OA
BRANCH  25  28
ATOM     28  C   UNL A   1      34.198  34.344  29.332  1.00  0.00     0.039 A 
ATOM     29  C   UNL A   1      34.016  33.679  30.550  1.00  0.00     0.014 A 
ATOM     30  C   UNL A   1      35.489  34.527  28.839  1.00  0.00     0.014 A 
ATOM     31  C   UNL A   1      35.118  33.146  31.227  1.00  0.00     0.010 A 
ATOM     32  C   UNL A   1      36.564  33.889  29.442  1.00  0.00     0.010 A 
ATOM     33  C   UNL A   1      36.397  33.209  30.656  1.00  0.00    -0.014 A 
BRANCH  33  34
ATOM     34  C   UNL A   1      37.588  32.608  31.310  1.00  0.00     0.031 A 
ATOM     35  C   UNL A   1      38.307  31.461  30.651  1.00  0.00     0.074 A 
ATOM     36  C   UNL A   1      37.954  33.015  32.540  1.00  0.00     0.049 A 
ATOM     37  N   UNL A   1      39.264  30.700  31.118  1.00  0.00    -0.248 NA
ATOM     38  C   UNL A   1      37.851  31.087  29.303  1.00  0.00     0.031 C 
ATOM     39  C   UNL A   1      37.296  34.067  33.314  1.00  0.00     0.029 A 
ATOM     40  N   UNL A   1      38.956  32.570  33.368  1.00  0.00    -0.354 N 
ATOM     41  C   UNL A   1      39.489  29.737  30.143  1.00  0.00     0.074 A 
ATOM     42  C   UNL A   1      38.531  29.973  29.086  1.00  0.00     0.031 C 
ATOM     43  C   UNL A   1      37.919  34.200  34.496  1.00  0.00     0.029 A 
ATOM     44  C   UNL A   1      38.992  33.213  34.580  1.00  0.00     0.049 A 
ATOM     45  H   UNL A   1      39.589  31.860  33.115  1.00  0.00     0.167 HD
ATOM     46  C   UNL A   1      40.429  28.760  30.119  1.00  0.00     0.037 A 
ATOM     47  C   UNL A   1      39.787  33.018  35.648  1.00  0.00     0.037 A 
ATOM     48  C   UNL A   1      41.414  28.569  31.149  1.00  0.00     0.049 A 
ATOM     49  C   UNL A   1      40.849  31.955  35.586  1.00  0.00     0.074 A 
ATOM     50  C   UNL A   1      42.480  27.690  31.172  1.00  0.00     0.029 A 
ATOM     51  N   UNL A   1      41.448  29.272  32.346  1.00  0.00    -0.354 N 
ATOM     52  N   UNL A   1      41.114  31.108  34.623  1.00  0.00    -0.248 NA
ATOM     53  C   UNL A   1      41.725  31.826  36.759  1.00  0.00     0.031 C 
ATOM     54  C   UNL A   1      43.130  27.823  32.405  1.00  0.00     0.029 A 
ATOM     55  C   UNL A   1      42.497  28.822  33.131  1.00  0.00     0.049 A 
ATOM     56  H   UNL A   1      40.818  29.985  32.600  1.00  0.00     0.167 HD
ATOM     57  C   UNL A   1      42.189  30.349  35.064  1.00  0.00     0.074 A 
ATOM     58  C   UNL A   1      42.543  30.854  36.376  1.00  0.00     0.031 C 
ATOM     59  C   UNL A   1      42.823  29.325  34.441  1.00  0.00     0.037 A 
BRANCH  46  60
ATOM     60  C   UNL A   1      40.426  27.828  28.939  1.00  0.00     0.064 A 
ATOM     61  C   UNL A   1      41.181  28.088  27.785  1.00  0.00     0.173 A 
ATOM     62  C   UNL A   1      39.653  26.657  28.964  1.00  0.00     0.173 A 
ATOM     63  F   UNL A   1      41.931  29.198  27.702  1.00  0.00    -0.203 F 
ATOM     64  C   UNL A   1      41.120  27.242  26.680  1.00  0.00     0.198 A 
ATOM     65  C   UNL A   1      39.624  25.793  27.872  1.00  0.00     0.198 A 
ATOM     66  F   UNL A   1      38.920  26.351  30.044  1.00  0.00    -0.203 F 
ATOM     67  F   UNL A   1      41.790  27.553  25.561  1.00  0.00    -0.200 F 
ATOM     68  C   UNL A   1      40.345  26.092  26.726  1.00  0.00     0.200 A 
ATOM     69  F   UNL A   1      38.886  24.676  27.922  1.00  0.00    -0.200 F 
ATOM     70  F   UNL A   1      40.284  25.282  25.660  1.00  0.00    -0.200 F 
ENDBRANCH  46  60
BRANCH  47  71
ATOM     71  C   UNL A   1      39.610  33.869  36.852  1.00  0.00     0.064 A 
ATOM     72  C   UNL A   1      40.197  35.139  36.927  1.00  0.00     0.173 A 
ATOM     73  C   UNL A   1      38.813  33.453  37.928  1.00  0.00     0.173 A 
ATOM     74  F   UNL A   1      40.982  35.572  35.930  1.00  0.00    -0.203 F 
ATOM     75  C   UNL A   1      39.995  35.961  38.034  1.00  0.00     0.198 A 
ATOM     76  C   UNL A   1      38.591  34.285  39.023  1.00  0.00     0.198 A 
ATOM     77  F   UNL A   1      38.223  32.249  37.901  1.00  0.00    -0.203 F 
ATOM     78  F   UNL A   1      40.586  37.162  38.091  1.00  0.00    -0.200 F 
ATOM     79  C   UNL A   1      39.185  35.538  39.076  1.00  0.00     0.200 A 
ATOM     80  F   UNL A   1      37.794  33.879  40.021  1.00  0.00    -0.200 F 
ATOM     81  F   UNL A   1      38.975  36.336  40.132  1.00  0.00    -0.200 F 
ENDBRANCH  47  71
BRANCH  59  82
ATOM     82  C   UNL A   1      43.963  28.679  35.172  1.00  0.00     0.064 A 
ATOM     83  C   UNL A   1      43.761  27.578  36.016  1.00  0.00     0.173 A 
ATOM     84  C   UNL A   1      45.278  29.134  34.988  1.00  0.00     0.173 A 
ATOM     85  F   UNL A   1      42.521  27.116  36.236  1.00  0.00    -0.203 F 
ATOM     86  C   UNL A   1      44.830  26.966  36.664  1.00  0.00     0.198 A 
ATOM     87  C   UNL A   1      46.348  28.502  35.615  1.00  0.00     0.198 A 
ATOM     88  F   UNL A   1      45.526  30.180  34.186  1.00  0.00    -0.203 F 
ATOM     89  F   UNL A   1      44.609  25.942  37.499  1.00  0.00    -0.200 F 
ATOM     90  C   UNL A   1      46.124  27.424  36.457  1.00  0.00     0.200 A 
ATOM     91  F   UNL A   1      47.598  28.937  35.403  1.00  0.00    -0.200 F 
ATOM     92  F   UNL A   1      47.153  26.828  37.073  1.00  0.00    -0.200 F 
ENDBRANCH  59  82
ENDBRANCH  33  34
ENDBRANCH  25  28
ENDBRANCH  23  24
ENDBRANCH   1  23
TORSDOF 13
ENDMDL
MODEL 2
REMARK VINA RESULT:     -12.1      0.269      1.624
REMARK SMILES COC1CCN(c2nc(C(C)C)c(C(=O)NCCCNC(=O)c3ccc(-c4c5nc(c(-c6c(F)c(F)c(F)c(F)c6F)c6ccc([nH]6)c(-c6c(F)c(F)c(F)c(F)c6F)c6nc(c(-c7c(F)c(F)c(F)c(F)c7F)c7ccc4[nH]7)C=C6)C=C5)cc3)s2)CC1
REMARK SMILES IDX 18 1 17 2 16 3 14 4 15 5 13 7 7 8 8 9 86 10 9 11 6 12 3 13
REMARK SMILES IDX 4 14 88 15 5 16 87 17 2 18 1 19 10 20 11 21 12 22 19 23
REMARK SMILES IDX 20 24 21 25 22 27 23 28 24 29 85 30 25 31 84 32 26 33 27 34
REMARK SMILES IDX 28 35 78 36 29 37 83 38 77 39 79 40 30 41 82 42 76 43 75 44
REMARK SMILES IDX 31 46 63 47 43 48 62 49 44 50 47 51 61 52 80 53 45 54 46 55
REMARK SMILES IDX 60 57 81 58 48 59 32 60 33 61 41 62 34 63 35 64 39 65 42 66
REMARK SMILES IDX 36 67 37 68 40 69 38 70 64 71 65 72 73 73 66 74 67 75 71 76
REMARK SMILES IDX 74 77 68 78 69 79 72 80 70 81 49 82 50 83 58 84 51 85 52 86
REMARK SMILES IDX 56 87 59 88 53 89 54 90 57 91 55 92
REMARK H PARENT 16 6 20 26 79 45 47 56
REMARK Flexibility Score: inf
ROOT
ATOM      1  C   UNL A   1      31.192  32.096  26.506  1.00  0.00     0.042 C 
ENDROOT
BRANCH   1   2
ATOM      2  C   UNL A   1      31.387  30.796  25.742  1.00  0.00     0.118 C 
BRANCH   2   3
ATOM      3  N   UNL A   1      32.652  30.186  26.034  1.00  0.00    -0.351 N 
ATOM      4  C   UNL A   1      33.186  28.939  25.864  1.00  0.00     0.263 C 
ATOM      5  O   UNL A   1      34.352  28.912  26.293  1.00  0.00    -0.268 OA
ATOM      6  H   UNL A   1      33.283  30.813  26.456  1.00  0.00     0.163 HD
BRANCH   4   7
ATOM      7  C   UNL A   1      32.557  27.767  25.245  1.00  0.00     0.117 A 
ATOM      8  C   UNL A   1      32.307  25.335  24.787  1.00  0.00     0.186 A 
ATOM      9  N   UNL A   1      31.498  26.041  24.050  1.00  0.00    -0.224 NA
ATOM     10  S   UNL A   1      33.269  26.265  25.834  1.00  0.00    -0.091 S 
ATOM     11  C   UNL A   1      31.531  27.399  24.363  1.00  0.00     0.069 A 
BRANCH   8  12
ATOM     12  N   UNL A   1      32.437  23.996  24.670  1.00  0.00    -0.348 N 
ATOM     13  C   UNL A   1      32.993  21.298  23.969  1.00  0.00     0.121 C 
ATOM     14  C   UNL A   1      33.968  22.119  24.826  1.00  0.00     0.053 C 
ATOM     15  C   UNL A   1      32.131  22.217  23.095  1.00  0.00     0.053 C 
ATOM     16  C   UNL A   1      33.251  23.224  25.599  1.00  0.00     0.121 C 
ATOM     17  C   UNL A   1      31.415  23.254  23.954  1.00  0.00     0.121 C 
BRANCH  13  18
ATOM     18  O   UNL A   1      32.209  20.490  24.858  1.00  0.00    -0.381 OA
ATOM     19  C   UNL A   1      32.906  19.365  25.378  1.00  0.00     0.195 C 
ENDBRANCH  13  18
ENDBRANCH   8  12
BRANCH  11  20
ATOM     20  C   UNL A   1      30.389  28.109  23.678  1.00  0.00     0.034 C 
ATOM     21  C   UNL A   1      30.851  28.949  22.490  1.00  0.00     0.014 C 
ATOM     22  C   UNL A   1      29.124  27.264  23.504  1.00  0.00     0.014 C 
ENDBRANCH  11  20
ENDBRANCH   4   7
ENDBRANCH   2   3
ENDBRANCH   1   2
BRANCH   1  23
ATOM     23  C   UNL A   1      32.475  32.598  27.139  1.00  0.00     0.118 C 
BRANCH  23  24
ATOM     24  N   UNL A   1      32.382  34.012  27.496  1.00  0.00    -0.352 N 
ATOM     25  C   UNL A   1      33.005  34.739  28.477  1.00  0.00     0.251 C 
ATOM     26  H   UNL A   1      31.764  34.533  26.934  1.00  0.00     0.163 HD
ATOM     27  O   UNL A   1      32.576  35.864  28.751  1.00  0.00    -0.269 OA
BRANCH  25  28
ATOM     28  C   UNL A   1      34.165  34.203  29.223  1.00  0.00     0.039 A 
ATOM     29  C   UNL A   1      33.945  33.340  30.303  1.00  0.00     0.014 A 
ATOM     30  C   UNL A   1      35.469  34.576  28.900  1.00  0.00     0.014 A 
ATOM     31  C   UNL A   1      35.031  32.808  31.006  1.00  0.00     0.010 A 
ATOM     32  C   UNL A   1      36.546  33.949  29.511  1.00  0.00     0.010 A 
ATOM     33  C   UNL A   1      36.343  33.075  30.587  1.00  0.00    -0.014 A 
BRANCH  33  34
ATOM     34  C   UNL A   1      37.526  32.486  31.266  1.00  0.00     0.031 A 
ATOM     35  C   UNL A   1      38.263  31.339  30.628  1.00  0.00     0.074 A 
ATOM     36  C   UNL A   1      37.869  32.907  32.498  1.00  0.00     0.049 A 
ATOM     37  N   UNL A   1      39.217  30.588  31.118  1.00  0.00    -0.248 NA
ATOM     38  C   UNL A   1      37.832  30.950  29.277  1.00  0.00     0.031 C 
ATOM     39  C   UNL A   1      37.192  33.961  33.252  1.00  0.00     0.029 A 
ATOM     40  N   UNL A   1      38.860  32.476  33.346  1.00  0.00    -0.354 N 
ATOM     41  C   UNL A   1      39.464  29.618  30.155  1.00  0.00     0.074 A 
ATOM     42  C   UNL A   1      38.523  29.838  29.081  1.00  0.00     0.031 C 
ATOM     43  C   UNL A   1      37.794  34.108  34.443  1.00  0.00     0.029 A 
ATOM     44  C   UNL A   1      38.872  33.129  34.553  1.00  0.00     0.049 A 
ATOM     45  H   UNL A   1      39.501  31.767  33.110  1.00  0.00     0.167 HD
ATOM     46  C   UNL A   1      40.410  28.647  30.155  1.00  0.00     0.037 A 
ATOM     47  C   UNL A   1      39.651  32.948  35.636  1.00  0.00     0.037 A 
ATOM     48  C   UNL A   1      41.379  28.471  31.203  1.00  0.00     0.049 A 
ATOM     49  C   UNL A   1      40.720  31.892  35.601  1.00  0.00     0.074 A 
ATOM     50  C   UNL A   1      42.451  27.599  31.251  1.00  0.00     0.029 A 
ATOM     51  N   UNL A   1      41.389  29.184  32.394  1.00  0.00    -0.354 N 
ATOM     52  N   UNL A   1      41.006  31.038  34.649  1.00  0.00    -0.248 NA
ATOM     53  C   UNL A   1      41.577  31.778  36.789  1.00  0.00     0.031 C 
ATOM     54  C   UNL A   1      43.079  27.747  32.494  1.00  0.00     0.029 A 
ATOM     55  C   UNL A   1      42.428  28.747  33.200  1.00  0.00     0.049 A 
ATOM     56  H   UNL A   1      40.751  29.896  32.632  1.00  0.00     0.167 HD
ATOM     57  C   UNL A   1      42.079  30.289  35.115  1.00  0.00     0.074 A 
ATOM     58  C   UNL A   1      42.407  30.808  36.428  1.00  0.00     0.031 C 
ATOM     59  C   UNL A   1      42.729  29.264  34.512  1.00  0.00     0.037 A 
BRANCH  46  60
ATOM     60  C   UNL A   1      40.433  27.705  28.984  1.00  0.00     0.064 A 
ATOM     61  C   UNL A   1      41.212  27.955  27.844  1.00  0.00     0.173 A 
ATOM     62  C   UNL A   1      39.660  26.534  29.002  1.00  0.00     0.173 A 
ATOM     63  F   UNL A   1      41.964  29.064  27.768  1.00  0.00    -0.203 F 
ATOM     64  C   UNL A   1      41.175  27.099  26.745  1.00  0.00     0.198 A 
ATOM     65  C   UNL A   1      39.654  25.660  27.917  1.00  0.00     0.198 A 
ATOM     66  F   UNL A   1      38.903  26.238  30.069  1.00  0.00    -0.203 F 
ATOM     67  F   UNL A   1      41.869  27.400  25.639  1.00  0.00    -0.200 F 
ATOM     68  C   UNL A   1      40.399  25.950  26.785  1.00  0.00     0.200 A 
ATOM     69  F   UNL A   1      38.914  24.543  27.961  1.00  0.00    -0.200 F 
ATOM     70  F   UNL A   1      40.361  25.130  25.725  1.00  0.00    -0.200 F 
ENDBRANCH  46  60
BRANCH  47  71
ATOM     71  C   UNL A   1      39.449  33.808  36.829  1.00  0.00     0.064 A 
ATOM     72  C   UNL A   1      38.684  33.361  37.916  1.00  0.00     0.173 A 
ATOM     73  C   UNL A   1      40.054  35.069  36.931  1.00  0.00     0.173 A 
ATOM     74  F   UNL A   1      38.072  32.170  37.857  1.00  0.00    -0.203 F 
ATOM     75  C   UNL A   1      38.532  34.145  39.058  1.00  0.00     0.198 A 
ATOM     76  C   UNL A   1      39.921  35.841  38.083  1.00  0.00     0.198 A 
ATOM     77  F   UNL A   1      40.802  35.537  35.922  1.00  0.00    -0.203 F 
ATOM     78  F   UNL A   1      37.776  33.704  40.073  1.00  0.00    -0.200 F 
ATOM     79  C   UNL A   1      39.157  35.379  39.145  1.00  0.00     0.200 A 
ATOM     80  F   UNL A   1      40.542  37.025  38.170  1.00  0.00    -0.200 F 
ATOM     81  F   UNL A   1      39.025  36.123  40.251  1.00  0.00    -0.200 F 
ENDBRANCH  47  71
BRANCH  59  82
ATOM     82  C   UNL A   1      43.861  28.632  35.266  1.00  0.00     0.064 A 
ATOM     83  C   UNL A   1      45.172  29.118  35.159  1.00  0.00     0.173 A 
ATOM     84  C   UNL A   1      43.626  27.562  36.143  1.00  0.00     0.173 A 
ATOM     85  F   UNL A   1      45.451  30.129  34.322  1.00  0.00    -0.203 F 
ATOM     86  C   UNL A   1      46.211  28.545  35.888  1.00  0.00     0.198 A 
ATOM     87  C   UNL A   1      44.662  27.010  36.892  1.00  0.00     0.198 A 
ATOM     88  F   UNL A   1      42.389  27.064  36.287  1.00  0.00    -0.203 F 
ATOM     89  F   UNL A   1      47.462  28.998  35.738  1.00  0.00    -0.200 F 
ATOM     90  C   UNL A   1      45.953  27.497  36.760  1.00  0.00     0.200 A 
ATOM     91  F   UNL A   1      44.408  26.007  37.744  1.00  0.00    -0.200 F 
ATOM     92  F   UNL A   1      46.951  26.953  37.469  1.00  0.00    -0.200 F 
ENDBRANCH  59  82
ENDBRANCH  33  34
ENDBRANCH  25  28
ENDBRANCH  23  24
ENDBRANCH   1  23
TORSDOF 13
ENDMDL
MODEL 3
REMARK VINA RESULT:     -12.1      5.607     11.133
REMARK SMILES COC1CCN(c2nc(C(C)C)c(C(=O)NCCCNC(=O)c3ccc(-c4c5nc(c(-c6c(F)c(F)c(F)c(F)c6F)c6ccc([nH]6)c(-c6c(F)c(F)c(F)c(F)c6F)c6nc(c(-c7c(F)c(F)c(F)c(F)c7F)c7ccc4[nH]7)C=C6)C=C5)cc3)s2)CC1
REMARK SMILES IDX 18 1 17 2 16 3 14 4 15 5 13 7 7 8 8 9 86 10 9 11 6 12 3 13
REMARK SMILES IDX 4 14 88 15 5 16 87 17 2 18 1 19 10 20 11 21 12 22 19 23
REMARK SMILES IDX 20 24 21 25 22 27 23 28 24 29 85 30 25 31 84 32 26 33 27 34
REMARK SMILES IDX 28 35 78 36 29 37 83 38 77 39 79 40 30 41 82 42 76 43 75 44
REMARK SMILES IDX 31 46 63 47 43 48 62 49 44 50 47 51 61 52 80 53 45 54 46 55
REMARK SMILES IDX 60 57 81 58 48 59 32 60 33 61 41 62 34 63 35 64 39 65 42 66
REMARK SMILES IDX 36 67 37 68 40 69 38 70 64 71 65 72 73 73 66 74 67 75 71 76
REMARK SMILES IDX 74 77 68 78 69 79 72 80 70 81 49 82 50 83 58 84 51 85 52 86
REMARK SMILES IDX 56 87 59 88 53 89 54 90 57 91 55 92
REMARK H PARENT 16 6 20 26 79 45 47 56
REMARK Flexibility Score: inf
ROOT
ATOM      1  C   UNL A   1      37.922  19.476  24.832  1.00  0.00     0.042 C 
ENDROOT
BRANCH   1   2
ATOM      2  C   UNL A   1      36.639  20.288  24.913  1.00  0.00     0.118 C 
BRANCH   2   3
ATOM      3  N   UNL A   1      36.865  21.598  25.451  1.00  0.00    -0.351 N 
ATOM      4  C   UNL A   1      36.159  22.768  25.475  1.00  0.00     0.263 C 
ATOM      5  O   UNL A   1      36.802  23.643  26.080  1.00  0.00    -0.268 OA
ATOM      6  H   UNL A   1      37.734  21.672  25.909  1.00  0.00     0.163 HD
BRANCH   4   7
ATOM      7  C   UNL A   1      34.821  23.024  24.928  1.00  0.00     0.117 A 
ATOM      8  C   UNL A   1      32.955  24.474  24.153  1.00  0.00     0.186 A 
ATOM      9  N   UNL A   1      32.603  23.220  24.175  1.00  0.00    -0.224 NA
ATOM     10  S   UNL A   1      34.560  24.744  24.641  1.00  0.00    -0.091 S 
ATOM     11  C   UNL A   1      33.660  22.370  24.495  1.00  0.00     0.069 A 
BRANCH   8  12
ATOM     12  N   UNL A   1      32.102  25.478  23.858  1.00  0.00    -0.348 N 
ATOM     13  C   UNL A   1      30.115  27.508  23.744  1.00  0.00     0.121 C 
ATOM     14  C   UNL A   1      31.524  27.797  24.285  1.00  0.00     0.053 C 
ATOM     15  C   UNL A   1      29.769  26.022  23.895  1.00  0.00     0.053 C 
ATOM     16  C   UNL A   1      32.564  26.848  23.690  1.00  0.00     0.121 C 
ATOM     17  C   UNL A   1      30.833  25.155  23.230  1.00  0.00     0.121 C 
BRANCH  13  18
ATOM     18  O   UNL A   1      30.076  27.946  22.379  1.00  0.00    -0.381 OA
ATOM     19  C   UNL A   1      30.178  29.356  22.224  1.00  0.00     0.195 C 
ENDBRANCH  13  18
ENDBRANCH   8  12
BRANCH  11  20
ATOM     20  C   UNL A   1      33.260  20.939  24.235  1.00  0.00     0.034 C 
ATOM     21  C   UNL A   1      33.001  20.160  25.522  1.00  0.00     0.014 C 
ATOM     22  C   UNL A   1      32.275  20.750  23.078  1.00  0.00     0.014 C 
ENDBRANCH  11  20
ENDBRANCH   4   7
ENDBRANCH   2   3
ENDBRANCH   1   2
BRANCH   1  23
ATOM     23  C   UNL A   1      39.046  20.079  25.654  1.00  0.00     0.118 C 
BRANCH  23  24
ATOM     24  N   UNL A   1      40.119  19.116  25.886  1.00  0.00    -0.352 N 
ATOM     25  C   UNL A   1      41.461  19.293  26.102  1.00  0.00     0.251 C 
ATOM     26  H   UNL A   1      39.828  18.174  25.886  1.00  0.00     0.163 HD
ATOM     27  O   UNL A   1      42.215  18.318  26.017  1.00  0.00    -0.269 OA
BRANCH  25  28
ATOM     28  C   UNL A   1      42.027  20.622  26.419  1.00  0.00     0.039 A 
ATOM     29  C   UNL A   1      42.307  21.514  25.377  1.00  0.00     0.014 A 
ATOM     30  C   UNL A   1      42.329  20.987  27.731  1.00  0.00     0.014 A 
ATOM     31  C   UNL A   1      42.822  22.782  25.661  1.00  0.00     0.010 A 
ATOM     32  C   UNL A   1      42.718  22.288  28.022  1.00  0.00     0.010 A 
ATOM     33  C   UNL A   1      42.992  23.196  26.991  1.00  0.00    -0.014 A 
BRANCH  33  34
ATOM     34  C   UNL A   1      43.482  24.553  27.342  1.00  0.00     0.031 A 
ATOM     35  C   UNL A   1      42.513  25.596  27.834  1.00  0.00     0.074 A 
ATOM     36  C   UNL A   1      44.768  24.881  27.117  1.00  0.00     0.049 A 
ATOM     37  N   UNL A   1      42.704  26.873  28.048  1.00  0.00    -0.248 NA
ATOM     38  C   UNL A   1      41.130  25.152  28.065  1.00  0.00     0.031 C 
ATOM     39  C   UNL A   1      45.788  23.982  26.577  1.00  0.00     0.029 A 
ATOM     40  N   UNL A   1      45.430  26.072  27.288  1.00  0.00    -0.354 N 
ATOM     41  C   UNL A   1      41.461  27.387  28.394  1.00  0.00     0.074 A 
ATOM     42  C   UNL A   1      40.514  26.299  28.304  1.00  0.00     0.031 C 
ATOM     43  C   UNL A   1      46.950  24.645  26.476  1.00  0.00     0.029 A 
ATOM     44  C   UNL A   1      46.747  26.027  26.902  1.00  0.00     0.049 A 
ATOM     45  H   UNL A   1      45.002  26.879  27.654  1.00  0.00     0.167 HD
ATOM     46  C   UNL A   1      41.142  28.647  28.778  1.00  0.00     0.037 A 
ATOM     47  C   UNL A   1      47.682  26.995  26.876  1.00  0.00     0.037 A 
ATOM     48  C   UNL A   1      42.102  29.709  28.919  1.00  0.00     0.049 A 
ATOM     49  C   UNL A   1      47.319  28.377  27.344  1.00  0.00     0.074 A 
ATOM     50  C   UNL A   1      41.910  30.987  29.412  1.00  0.00     0.029 A 
ATOM     51  N   UNL A   1      43.440  29.614  28.562  1.00  0.00    -0.354 N 
ATOM     52  N   UNL A   1      46.161  28.831  27.756  1.00  0.00    -0.248 NA
ATOM     53  C   UNL A   1      48.394  29.378  27.348  1.00  0.00     0.031 C 
ATOM     54  C   UNL A   1      43.120  31.683  29.304  1.00  0.00     0.029 A 
ATOM     55  C   UNL A   1      44.079  30.822  28.790  1.00  0.00     0.049 A 
ATOM     56  H   UNL A   1      43.872  28.807  28.199  1.00  0.00     0.167 HD
ATOM     57  C   UNL A   1      46.365  30.167  28.075  1.00  0.00     0.074 A 
ATOM     58  C   UNL A   1      47.767  30.442  27.831  1.00  0.00     0.031 C 
ATOM     59  C   UNL A   1      45.472  31.082  28.525  1.00  0.00     0.037 A 
BRANCH  46  60
ATOM     60  C   UNL A   1      39.696  28.937  29.068  1.00  0.00     0.064 A 
ATOM     61  C   UNL A   1      39.162  28.831  30.362  1.00  0.00     0.173 A 
ATOM     62  C   UNL A   1      38.830  29.324  28.034  1.00  0.00     0.173 A 
ATOM     63  F   UNL A   1      39.942  28.455  31.388  1.00  0.00    -0.203 F 
ATOM     64  C   UNL A   1      37.807  29.047  30.600  1.00  0.00     0.198 A 
ATOM     65  C   UNL A   1      37.483  29.576  28.283  1.00  0.00     0.198 A 
ATOM     66  F   UNL A   1      39.287  29.451  26.780  1.00  0.00    -0.203 F 
ATOM     67  F   UNL A   1      37.306  28.864  31.830  1.00  0.00    -0.200 F 
ATOM     68  C   UNL A   1      36.969  29.424  29.561  1.00  0.00     0.200 A 
ATOM     69  F   UNL A   1      36.677  29.953  27.280  1.00  0.00    -0.200 F 
ATOM     70  F   UNL A   1      35.664  29.626  29.791  1.00  0.00    -0.200 F 
ENDBRANCH  46  60
BRANCH  47  71
ATOM     71  C   UNL A   1      49.053  26.670  26.406  1.00  0.00     0.064 A 
ATOM     72  C   UNL A   1      49.419  26.870  25.068  1.00  0.00     0.173 A 
ATOM     73  C   UNL A   1      50.036  26.203  27.290  1.00  0.00     0.173 A 
ATOM     74  F   UNL A   1      48.509  27.298  24.182  1.00  0.00    -0.203 F 
ATOM     75  C   UNL A   1      50.717  26.612  24.632  1.00  0.00     0.198 A 
ATOM     76  C   UNL A   1      51.339  25.970  26.859  1.00  0.00     0.198 A 
ATOM     77  F   UNL A   1      49.736  26.004  28.582  1.00  0.00    -0.203 F 
ATOM     78  F   UNL A   1      51.036  26.789  23.343  1.00  0.00    -0.200 F 
ATOM     79  C   UNL A   1      51.679  26.171  25.529  1.00  0.00     0.200 A 
ATOM     80  F   UNL A   1      52.270  25.561  27.733  1.00  0.00    -0.200 F 
ATOM     81  F   UNL A   1      52.931  25.942  25.114  1.00  0.00    -0.200 F 
ENDBRANCH  47  71
BRANCH  59  82
ATOM     82  C   UNL A   1      45.982  32.469  28.782  1.00  0.00     0.064 A 
ATOM     83  C   UNL A   1      45.931  33.462  27.793  1.00  0.00     0.173 A 
ATOM     84  C   UNL A   1      46.482  32.824  30.044  1.00  0.00     0.173 A 
ATOM     85  F   UNL A   1      45.476  33.169  26.566  1.00  0.00    -0.203 F 
ATOM     86  C   UNL A   1      46.378  34.755  28.052  1.00  0.00     0.198 A 
ATOM     87  C   UNL A   1      46.902  34.125  30.309  1.00  0.00     0.198 A 
ATOM     88  F   UNL A   1      46.547  31.913  31.027  1.00  0.00    -0.203 F 
ATOM     89  F   UNL A   1      46.359  35.676  27.080  1.00  0.00    -0.200 F 
ATOM     90  C   UNL A   1      46.856  35.087  29.312  1.00  0.00     0.200 A 
ATOM     91  F   UNL A   1      47.350  34.447  31.530  1.00  0.00    -0.200 F 
ATOM     92  F   UNL A   1      47.276  36.334  29.563  1.00  0.00    -0.200 F 
ENDBRANCH  59  82
ENDBRANCH  33  34
ENDBRANCH  25  28
ENDBRANCH  23  24
ENDBRANCH   1  23
TORSDOF 13
ENDMDL
