MODEL 1
REMARK VINA RESULT:     -14.4      0.000      0.000
REMARK SMILES O=C(NCCCNC(=O)C1(n2cnc3ccccc32)CC[NH+](Cc2cccc3nonc23)CC1)c1ccc(-c2c3nc(c(-c4c(F)c(F)c(F)c(F)c4F)c4ccc([nH]4)c(-c4c(F)c(F)c(F)c(F)c4F)c4nc(c(-c5c(F)c(F)c(F)c(F)c5F)c5ccc2[nH]5)C=C4)C=C3)cc1
REMARK SMILES IDX 5 1 4 2 3 3 1 4 2 5 35 7 36 8 97 9 37 10 96 11 38 12 39 13
REMARK SMILES IDX 40 14 90 15 41 16 95 17 89 18 91 19 42 20 94 21 88 22 87 23
REMARK SMILES IDX 43 25 75 26 55 27 74 28 56 29 59 30 73 31 92 32 57 33 58 34
REMARK SMILES IDX 72 36 93 37 60 38 44 39 45 40 53 41 46 42 47 43 51 44 54 45
REMARK SMILES IDX 48 46 49 47 52 48 50 49 76 50 77 51 85 52 78 53 79 54 83 55
REMARK SMILES IDX 86 56 80 57 81 58 84 59 82 60 61 61 62 62 70 63 63 64 64 65
REMARK SMILES IDX 68 66 71 67 65 68 66 69 69 70 67 71 6 72 7 73 8 74 9 76
REMARK SMILES IDX 10 77 20 78 34 79 21 80 33 81 22 82 11 84 12 85 19 86 13 87
REMARK SMILES IDX 14 88 18 89 15 90 17 91 16 92 23 93 24 94 25 95 32 96 26 97
REMARK SMILES IDX 28 98 31 99 27 100 29 101 30 102
REMARK H PARENT 3 6 91 24 59 35 7 75 22 83
REMARK Flexibility Score: inf
ROOT
ATOM      1  C   UNL A   1      37.921  22.757  25.528  1.00  0.00     0.042 C 
ENDROOT
BRANCH   1   2
ATOM      2  C   UNL A   1      38.995  22.499  26.544  1.00  0.00     0.118 C 
BRANCH   2   3
ATOM      3  N   UNL A   1      40.372  22.367  26.033  1.00  0.00    -0.352 N 
ATOM      4  O   UNL A   1      42.503  23.159  25.590  1.00  0.00    -0.269 OA
ATOM      5  C   UNL A   1      41.435  23.259  26.201  1.00  0.00     0.251 C 
ATOM      6  H   UNL A   1      40.567  21.554  25.513  1.00  0.00     0.163 HD
BRANCH   5   7
ATOM      7  C   UNL A   1      41.289  24.241  27.274  1.00  0.00     0.039 A 
ATOM      8  C   UNL A   1      42.063  24.375  28.430  1.00  0.00     0.014 A 
ATOM      9  C   UNL A   1      40.476  25.263  26.867  1.00  0.00     0.014 A 
ATOM     10  C   UNL A   1      42.018  25.617  29.074  1.00  0.00     0.010 A 
ATOM     11  C   UNL A   1      41.050  26.458  27.086  1.00  0.00     0.010 A 
ATOM     12  C   UNL A   1      41.459  26.680  28.360  1.00  0.00    -0.014 A 
BRANCH  12  13
ATOM     13  C   UNL A   1      41.287  28.072  28.718  1.00  0.00     0.031 A 
ATOM     14  C   UNL A   1      42.309  28.960  28.166  1.00  0.00     0.074 A 
ATOM     15  C   UNL A   1      40.147  28.546  29.291  1.00  0.00     0.049 A 
ATOM     16  N   UNL A   1      43.372  29.342  28.779  1.00  0.00    -0.248 NA
ATOM     17  C   UNL A   1      42.268  29.307  26.741  1.00  0.00     0.031 C 
ATOM     18  C   UNL A   1      38.873  27.859  29.601  1.00  0.00     0.029 A 
ATOM     19  N   UNL A   1      39.871  29.818  29.671  1.00  0.00    -0.354 N 
ATOM     20  C   UNL A   1      44.000  30.211  27.907  1.00  0.00     0.074 A 
ATOM     21  C   UNL A   1      43.433  29.950  26.608  1.00  0.00     0.031 C 
ATOM     22  C   UNL A   1      37.919  28.755  29.925  1.00  0.00     0.029 A 
ATOM     23  C   UNL A   1      38.557  30.043  30.064  1.00  0.00     0.049 A 
ATOM     24  H   UNL A   1      40.552  30.530  29.668  1.00  0.00     0.167 HD
ATOM     25  C   UNL A   1      44.702  31.266  28.402  1.00  0.00     0.037 A 
ATOM     26  C   UNL A   1      38.038  31.199  30.533  1.00  0.00     0.037 A 
ATOM     27  C   UNL A   1      44.880  31.139  29.835  1.00  0.00     0.049 A 
ATOM     28  C   UNL A   1      39.189  31.985  31.051  1.00  0.00     0.074 A 
ATOM     29  C   UNL A   1      45.437  30.165  30.646  1.00  0.00     0.029 A 
ATOM     30  N   UNL A   1      44.040  31.863  30.652  1.00  0.00    -0.354 N 
ATOM     31  N   UNL A   1      39.896  31.626  32.091  1.00  0.00    -0.248 NA
ATOM     32  C   UNL A   1      39.859  32.886  30.126  1.00  0.00     0.031 C 
ATOM     33  C   UNL A   1      44.548  30.051  31.756  1.00  0.00     0.029 A 
ATOM     34  C   UNL A   1      43.551  31.022  31.623  1.00  0.00     0.049 A 
ATOM     35  H   UNL A   1      43.826  32.819  30.557  1.00  0.00     0.167 HD
ATOM     36  C   UNL A   1      41.212  31.892  31.734  1.00  0.00     0.074 A 
ATOM     37  C   UNL A   1      41.117  32.757  30.559  1.00  0.00     0.031 C 
ATOM     38  C   UNL A   1      42.245  31.152  32.238  1.00  0.00     0.037 A 
BRANCH  25  39
ATOM     39  C   UNL A   1      44.893  32.570  27.683  1.00  0.00     0.064 A 
ATOM     40  C   UNL A   1      46.092  32.787  26.981  1.00  0.00     0.173 A 
ATOM     41  C   UNL A   1      44.070  33.703  27.857  1.00  0.00     0.173 A 
ATOM     42  F   UNL A   1      46.958  31.782  26.786  1.00  0.00    -0.203 F 
ATOM     43  C   UNL A   1      46.466  34.058  26.540  1.00  0.00     0.198 A 
ATOM     44  C   UNL A   1      44.417  34.957  27.363  1.00  0.00     0.198 A 
ATOM     45  F   UNL A   1      42.961  33.674  28.606  1.00  0.00    -0.203 F 
ATOM     46  F   UNL A   1      47.669  34.239  25.982  1.00  0.00    -0.200 F 
ATOM     47  C   UNL A   1      45.627  35.142  26.731  1.00  0.00     0.200 A 
ATOM     48  F   UNL A   1      43.601  35.999  27.579  1.00  0.00    -0.200 F 
ATOM     49  F   UNL A   1      46.005  36.369  26.353  1.00  0.00    -0.200 F 
ENDBRANCH  25  39
BRANCH  26  50
ATOM     50  C   UNL A   1      36.680  31.751  30.325  1.00  0.00     0.064 A 
ATOM     51  C   UNL A   1      35.919  32.209  31.411  1.00  0.00     0.173 A 
ATOM     52  C   UNL A   1      36.218  32.109  29.041  1.00  0.00     0.173 A 
ATOM     53  F   UNL A   1      36.301  31.929  32.666  1.00  0.00    -0.203 F 
ATOM     54  C   UNL A   1      34.798  33.026  31.230  1.00  0.00     0.198 A 
ATOM     55  C   UNL A   1      35.094  32.918  28.861  1.00  0.00     0.198 A 
ATOM     56  F   UNL A   1      36.899  31.760  27.941  1.00  0.00    -0.203 F 
ATOM     57  F   UNL A   1      34.146  33.509  32.295  1.00  0.00    -0.200 F 
ATOM     58  C   UNL A   1      34.398  33.394  29.956  1.00  0.00     0.200 A 
ATOM     59  F   UNL A   1      34.734  33.291  27.625  1.00  0.00    -0.200 F 
ATOM     60  F   UNL A   1      33.372  34.240  29.786  1.00  0.00    -0.200 F 
ENDBRANCH  26  50
BRANCH  38  61
ATOM     61  C   UNL A   1      41.954  30.228  33.396  1.00  0.00     0.064 A 
ATOM     62  C   UNL A   1      41.645  28.862  33.262  1.00  0.00     0.173 A 
ATOM     63  C   UNL A   1      42.160  30.708  34.696  1.00  0.00     0.173 A 
ATOM     64  F   UNL A   1      41.513  28.299  32.059  1.00  0.00    -0.203 F 
ATOM     65  C   UNL A   1      41.526  28.029  34.376  1.00  0.00     0.198 A 
ATOM     66  C   UNL A   1      42.072  29.869  35.805  1.00  0.00     0.198 A 
ATOM     67  F   UNL A   1      42.503  31.991  34.888  1.00  0.00    -0.203 F 
ATOM     68  F   UNL A   1      41.234  26.729  34.215  1.00  0.00    -0.200 F 
ATOM     69  C   UNL A   1      41.750  28.531  35.646  1.00  0.00     0.200 A 
ATOM     70  F   UNL A   1      42.334  30.352  37.027  1.00  0.00    -0.200 F 
ATOM     71  F   UNL A   1      41.682  27.722  36.712  1.00  0.00    -0.200 F 
ENDBRANCH  38  61
ENDBRANCH  12  13
ENDBRANCH   5   7
ENDBRANCH   2   3
ENDBRANCH   1   2
BRANCH   1  72
ATOM     72  C   UNL A   1      36.879  23.746  26.026  1.00  0.00     0.117 C 
BRANCH  72  73
ATOM     73  N   UNL A   1      35.890  23.119  26.856  1.00  0.00    -0.354 N 
ATOM     74  C   UNL A   1      34.579  22.843  26.688  1.00  0.00     0.246 C 
ATOM     75  H   UNL A   1      36.241  22.830  27.731  1.00  0.00     0.163 HD
ATOM     76  O   UNL A   1      34.035  22.542  27.763  1.00  0.00    -0.272 OA
BRANCH  74  77
ATOM     77  C   UNL A   1      33.745  22.925  25.352  1.00  0.00     0.135 C 
ATOM     78  C   UNL A   1      34.452  23.353  24.043  1.00  0.00     0.101 C 
ATOM     79  C   UNL A   1      32.498  23.825  25.527  1.00  0.00     0.101 C 
ATOM     80  C   UNL A   1      34.547  24.835  23.682  1.00  0.00     0.265 C 
ATOM     81  C   UNL A   1      32.674  25.327  25.290  1.00  0.00     0.265 C 
ATOM     82  N   UNL A   1      33.531  25.720  24.196  1.00  0.00    -0.331 N 
ATOM     83  H   UNL A   1      32.867  25.433  23.477  1.00  0.00     0.348 HD
BRANCH  77  84
ATOM     84  N   UNL A   1      33.319  21.489  25.116  1.00  0.00    -0.315 N 
ATOM     85  C   UNL A   1      32.039  20.991  25.161  1.00  0.00     0.201 A 
ATOM     86  C   UNL A   1      34.161  20.393  24.939  1.00  0.00     0.069 A 
ATOM     87  N   UNL A   1      31.988  19.706  24.903  1.00  0.00    -0.237 NA
ATOM     88  C   UNL A   1      33.293  19.312  24.791  1.00  0.00     0.088 A 
ATOM     89  C   UNL A   1      35.555  20.221  24.930  1.00  0.00     0.028 A 
ATOM     90  C   UNL A   1      33.812  18.023  24.586  1.00  0.00     0.030 A 
ATOM     91  C   UNL A   1      36.054  18.930  24.721  1.00  0.00     0.002 A 
ATOM     92  C   UNL A   1      35.200  17.845  24.547  1.00  0.00     0.002 A 
ENDBRANCH  77  84
BRANCH  82  93
ATOM     93  C   UNL A   1      33.689  27.166  23.953  1.00  0.00     0.301 C 
BRANCH  93  94
ATOM     94  C   UNL A   1      33.540  28.137  25.109  1.00  0.00     0.038 A 
ATOM     95  C   UNL A   1      34.444  28.177  26.210  1.00  0.00     0.012 A 
ATOM     96  C   UNL A   1      32.552  29.158  25.195  1.00  0.00     0.144 A 
ATOM     97  C   UNL A   1      34.381  29.112  27.281  1.00  0.00     0.003 A 
ATOM     98  C   UNL A   1      32.494  30.127  26.292  1.00  0.00     0.135 A 
ATOM     99  N   UNL A   1      31.515  29.407  24.381  1.00  0.00    -0.049 NA
ATOM    100  C   UNL A   1      33.428  30.142  27.341  1.00  0.00     0.034 A 
ATOM    101  N   UNL A   1      31.416  30.901  26.117  1.00  0.00    -0.050 NA
ATOM    102  O   UNL A   1      30.818  30.459  24.954  1.00  0.00    -0.243 OA
ENDBRANCH  93  94
ENDBRANCH  82  93
ENDBRANCH  74  77
ENDBRANCH  72  73
ENDBRANCH   1  72
TORSDOF 13
ENDMDL
MODEL 2
REMARK VINA RESULT:     -14.1      3.233      7.491
REMARK SMILES O=C(NCCCNC(=O)C1(n2cnc3ccccc32)CC[NH+](Cc2cccc3nonc23)CC1)c1ccc(-c2c3nc(c(-c4c(F)c(F)c(F)c(F)c4F)c4ccc([nH]4)c(-c4c(F)c(F)c(F)c(F)c4F)c4nc(c(-c5c(F)c(F)c(F)c(F)c5F)c5ccc2[nH]5)C=C4)C=C3)cc1
REMARK SMILES IDX 5 1 4 2 3 3 1 4 2 5 35 7 36 8 97 9 37 10 96 11 38 12 39 13
REMARK SMILES IDX 40 14 90 15 41 16 95 17 89 18 91 19 42 20 94 21 88 22 87 23
REMARK SMILES IDX 43 25 75 26 55 27 74 28 56 29 59 30 73 31 92 32 57 33 58 34
REMARK SMILES IDX 72 36 93 37 60 38 44 39 45 40 53 41 46 42 47 43 51 44 54 45
REMARK SMILES IDX 48 46 49 47 52 48 50 49 76 50 77 51 85 52 78 53 79 54 83 55
REMARK SMILES IDX 86 56 80 57 81 58 84 59 82 60 61 61 62 62 70 63 63 64 64 65
REMARK SMILES IDX 68 66 71 67 65 68 66 69 69 70 67 71 6 72 7 73 8 74 9 76
REMARK SMILES IDX 10 77 20 78 34 79 21 80 33 81 22 82 11 84 12 85 19 86 13 87
REMARK SMILES IDX 14 88 18 89 15 90 17 91 16 92 23 93 24 94 25 95 32 96 26 97
REMARK SMILES IDX 28 98 31 99 27 100 29 101 30 102
REMARK H PARENT 3 6 91 24 59 35 7 75 22 83
REMARK Flexibility Score: inf
ROOT
ATOM      1  C   UNL A   1      37.113  21.476  25.268  1.00  0.00     0.042 C 
ENDROOT
BRANCH   1   2
ATOM      2  C   UNL A   1      38.566  21.464  25.642  1.00  0.00     0.118 C 
BRANCH   2   3
ATOM      3  N   UNL A   1      39.199  20.141  25.803  1.00  0.00    -0.352 N 
ATOM      4  O   UNL A   1      41.019  18.712  25.887  1.00  0.00    -0.269 OA
ATOM      5  C   UNL A   1      40.561  19.857  25.937  1.00  0.00     0.251 C 
ATOM      6  H   UNL A   1      38.591  19.368  25.818  1.00  0.00     0.163 HD
BRANCH   5   7
ATOM      7  C   UNL A   1      41.420  20.979  26.314  1.00  0.00     0.039 A 
ATOM      8  C   UNL A   1      41.989  21.946  25.481  1.00  0.00     0.014 A 
ATOM      9  C   UNL A   1      41.357  21.185  27.665  1.00  0.00     0.014 A 
ATOM     10  C   UNL A   1      42.397  23.138  26.091  1.00  0.00     0.010 A 
ATOM     11  C   UNL A   1      41.093  22.471  27.950  1.00  0.00     0.010 A 
ATOM     12  C   UNL A   1      41.938  23.373  27.389  1.00  0.00    -0.014 A 
BRANCH  12  13
ATOM     13  C   UNL A   1      42.149  24.497  28.277  1.00  0.00     0.031 A 
ATOM     14  C   UNL A   1      41.090  25.504  28.225  1.00  0.00     0.074 A 
ATOM     15  C   UNL A   1      43.100  24.493  29.250  1.00  0.00     0.049 A 
ATOM     16  N   UNL A   1      41.112  26.571  27.510  1.00  0.00    -0.248 NA
ATOM     17  C   UNL A   1      39.799  25.224  28.864  1.00  0.00     0.031 C 
ATOM     18  C   UNL A   1      44.029  23.424  29.678  1.00  0.00     0.029 A 
ATOM     19  N   UNL A   1      43.392  25.479  30.135  1.00  0.00    -0.354 N 
ATOM     20  C   UNL A   1      39.947  27.243  27.825  1.00  0.00     0.074 A 
ATOM     21  C   UNL A   1      39.081  26.270  28.440  1.00  0.00     0.031 C 
ATOM     22  C   UNL A   1      44.623  23.751  30.844  1.00  0.00     0.029 A 
ATOM     23  C   UNL A   1      44.294  25.127  31.132  1.00  0.00     0.049 A 
ATOM     24  H   UNL A   1      42.995  26.379  30.074  1.00  0.00     0.167 HD
ATOM     25  C   UNL A   1      39.937  28.603  27.823  1.00  0.00     0.037 A 
ATOM     26  C   UNL A   1      44.788  25.932  32.099  1.00  0.00     0.037 A 
ATOM     27  C   UNL A   1      41.146  29.126  27.217  1.00  0.00     0.049 A 
ATOM     28  C   UNL A   1      44.634  27.322  31.593  1.00  0.00     0.074 A 
ATOM     29  C   UNL A   1      41.745  28.957  25.982  1.00  0.00     0.029 A 
ATOM     30  N   UNL A   1      42.146  29.561  28.057  1.00  0.00    -0.354 N 
ATOM     31  N   UNL A   1      45.290  27.790  30.564  1.00  0.00    -0.248 NA
ATOM     32  C   UNL A   1      43.399  28.021  31.912  1.00  0.00     0.031 C 
ATOM     33  C   UNL A   1      43.139  28.825  26.259  1.00  0.00     0.029 A 
ATOM     34  C   UNL A   1      43.335  29.018  27.629  1.00  0.00     0.049 A 
ATOM     35  H   UNL A   1      42.032  30.157  28.832  1.00  0.00     0.167 HD
ATOM     36  C   UNL A   1      44.356  28.538  29.858  1.00  0.00     0.074 A 
ATOM     37  C   UNL A   1      43.242  28.724  30.786  1.00  0.00     0.031 C 
ATOM     38  C   UNL A   1      44.442  28.679  28.501  1.00  0.00     0.037 A 
BRANCH  25  39
ATOM     39  C   UNL A   1      39.043  29.445  28.687  1.00  0.00     0.064 A 
ATOM     40  C   UNL A   1      38.005  30.174  28.079  1.00  0.00     0.173 A 
ATOM     41  C   UNL A   1      39.311  29.766  30.034  1.00  0.00     0.173 A 
ATOM     42  F   UNL A   1      37.690  29.966  26.793  1.00  0.00    -0.203 F 
ATOM     43  C   UNL A   1      37.327  31.190  28.755  1.00  0.00     0.198 A 
ATOM     44  C   UNL A   1      38.592  30.738  30.725  1.00  0.00     0.198 A 
ATOM     45  F   UNL A   1      40.346  29.243  30.703  1.00  0.00    -0.203 F 
ATOM     46  F   UNL A   1      36.428  31.937  28.102  1.00  0.00    -0.200 F 
ATOM     47  C   UNL A   1      37.621  31.471  30.078  1.00  0.00     0.200 A 
ATOM     48  F   UNL A   1      38.909  31.011  31.999  1.00  0.00    -0.200 F 
ATOM     49  F   UNL A   1      37.008  32.477  30.713  1.00  0.00    -0.200 F 
ENDBRANCH  25  39
BRANCH  26  50
ATOM     50  C   UNL A   1      45.133  25.589  33.497  1.00  0.00     0.064 A 
ATOM     51  C   UNL A   1      44.130  25.271  34.425  1.00  0.00     0.173 A 
ATOM     52  C   UNL A   1      46.456  25.283  33.876  1.00  0.00     0.173 A 
ATOM     53  F   UNL A   1      42.843  25.511  34.134  1.00  0.00    -0.203 F 
ATOM     54  C   UNL A   1      44.423  24.630  35.633  1.00  0.00     0.198 A 
ATOM     55  C   UNL A   1      46.749  24.651  35.086  1.00  0.00     0.198 A 
ATOM     56  F   UNL A   1      47.482  25.505  33.043  1.00  0.00    -0.203 F 
ATOM     57  F   UNL A   1      43.429  24.270  36.456  1.00  0.00    -0.200 F 
ATOM     58  C   UNL A   1      45.730  24.304  35.954  1.00  0.00     0.200 A 
ATOM     59  F   UNL A   1      48.015  24.315  35.373  1.00  0.00    -0.200 F 
ATOM     60  F   UNL A   1      46.003  23.621  37.074  1.00  0.00    -0.200 F 
ENDBRANCH  26  50
BRANCH  38  61
ATOM     61  C   UNL A   1      45.719  28.242  27.824  1.00  0.00     0.064 A 
ATOM     62  C   UNL A   1      45.913  26.979  27.235  1.00  0.00     0.173 A 
ATOM     63  C   UNL A   1      46.722  29.199  27.620  1.00  0.00     0.173 A 
ATOM     64  F   UNL A   1      44.974  26.033  27.308  1.00  0.00    -0.203 F 
ATOM     65  C   UNL A   1      47.063  26.685  26.501  1.00  0.00     0.198 A 
ATOM     66  C   UNL A   1      47.855  28.915  26.860  1.00  0.00     0.198 A 
ATOM     67  F   UNL A   1      46.576  30.438  28.115  1.00  0.00    -0.203 F 
ATOM     68  F   UNL A   1      47.217  25.472  25.949  1.00  0.00    -0.200 F 
ATOM     69  C   UNL A   1      48.029  27.658  26.305  1.00  0.00     0.200 A 
ATOM     70  F   UNL A   1      48.764  29.874  26.637  1.00  0.00    -0.200 F 
ATOM     71  F   UNL A   1      49.111  27.392  25.562  1.00  0.00    -0.200 F 
ENDBRANCH  38  61
ENDBRANCH  12  13
ENDBRANCH   5   7
ENDBRANCH   2   3
ENDBRANCH   1   2
BRANCH   1  72
ATOM     72  C   UNL A   1      36.552  22.886  25.175  1.00  0.00     0.117 C 
BRANCH  72  73
ATOM     73  N   UNL A   1      35.985  23.160  23.886  1.00  0.00    -0.354 N 
ATOM     74  C   UNL A   1      34.720  23.330  23.447  1.00  0.00     0.246 C 
ATOM     75  H   UNL A   1      36.659  23.241  23.172  1.00  0.00     0.163 HD
ATOM     76  O   UNL A   1      34.654  23.275  22.208  1.00  0.00    -0.272 OA
BRANCH  74  77
ATOM     77  C   UNL A   1      33.419  23.519  24.319  1.00  0.00     0.135 C 
ATOM     78  C   UNL A   1      32.043  23.612  23.617  1.00  0.00     0.101 C 
ATOM     79  C   UNL A   1      33.550  24.744  25.257  1.00  0.00     0.101 C 
ATOM     80  C   UNL A   1      31.522  24.970  23.145  1.00  0.00     0.265 C 
ATOM     81  C   UNL A   1      33.146  26.108  24.694  1.00  0.00     0.265 C 
ATOM     82  N   UNL A   1      31.981  26.146  23.842  1.00  0.00    -0.331 N 
ATOM     83  H   UNL A   1      31.325  25.992  24.608  1.00  0.00     0.348 HD
BRANCH  77  84
ATOM     84  N   UNL A   1      33.356  22.243  25.137  1.00  0.00    -0.315 N 
ATOM     85  C   UNL A   1      33.726  22.089  26.452  1.00  0.00     0.201 A 
ATOM     86  C   UNL A   1      33.035  20.972  24.666  1.00  0.00     0.069 A 
ATOM     87  N   UNL A   1      33.546  20.864  26.885  1.00  0.00    -0.237 NA
ATOM     88  C   UNL A   1      33.146  20.152  25.788  1.00  0.00     0.088 A 
ATOM     89  C   UNL A   1      32.704  20.450  23.405  1.00  0.00     0.028 A 
ATOM     90  C   UNL A   1      32.883  18.776  25.675  1.00  0.00     0.030 A 
ATOM     91  C   UNL A   1      32.442  19.078  23.313  1.00  0.00     0.002 A 
ATOM     92  C   UNL A   1      32.525  18.251  24.429  1.00  0.00     0.002 A 
ENDBRANCH  77  84
BRANCH  82  93
ATOM     93  C   UNL A   1      31.578  27.462  23.312  1.00  0.00     0.301 C 
BRANCH  93  94
ATOM     94  C   UNL A   1      30.103  27.794  23.181  1.00  0.00     0.038 A 
ATOM     95  C   UNL A   1      29.081  27.061  23.851  1.00  0.00     0.012 A 
ATOM     96  C   UNL A   1      29.578  28.902  22.458  1.00  0.00     0.144 A 
ATOM     97  C   UNL A   1      27.694  27.376  23.809  1.00  0.00     0.003 A 
ATOM     98  C   UNL A   1      28.151  29.232  22.425  1.00  0.00     0.135 A 
ATOM     99  N   UNL A   1      30.215  29.785  21.676  1.00  0.00    -0.049 NA
ATOM    100  C   UNL A   1      27.184  28.492  23.126  1.00  0.00     0.034 A 
ATOM    101  N   UNL A   1      27.977  30.277  21.607  1.00  0.00    -0.050 NA
ATOM    102  O   UNL A   1      29.236  30.611  21.148  1.00  0.00    -0.243 OA
ENDBRANCH  93  94
ENDBRANCH  82  93
ENDBRANCH  74  77
ENDBRANCH  72  73
ENDBRANCH   1  72
TORSDOF 13
ENDMDL
MODEL 3
REMARK VINA RESULT:     -14.0      5.201     10.511
REMARK SMILES O=C(NCCCNC(=O)C1(n2cnc3ccccc32)CC[NH+](Cc2cccc3nonc23)CC1)c1ccc(-c2c3nc(c(-c4c(F)c(F)c(F)c(F)c4F)c4ccc([nH]4)c(-c4c(F)c(F)c(F)c(F)c4F)c4nc(c(-c5c(F)c(F)c(F)c(F)c5F)c5ccc2[nH]5)C=C4)C=C3)cc1
REMARK SMILES IDX 5 1 4 2 3 3 1 4 2 5 35 7 36 8 97 9 37 10 96 11 38 12 39 13
REMARK SMILES IDX 40 14 90 15 41 16 95 17 89 18 91 19 42 20 94 21 88 22 87 23
REMARK SMILES IDX 43 25 75 26 55 27 74 28 56 29 59 30 73 31 92 32 57 33 58 34
REMARK SMILES IDX 72 36 93 37 60 38 44 39 45 40 53 41 46 42 47 43 51 44 54 45
REMARK SMILES IDX 48 46 49 47 52 48 50 49 76 50 77 51 85 52 78 53 79 54 83 55
REMARK SMILES IDX 86 56 80 57 81 58 84 59 82 60 61 61 62 62 70 63 63 64 64 65
REMARK SMILES IDX 68 66 71 67 65 68 66 69 69 70 67 71 6 72 7 73 8 74 9 76
REMARK SMILES IDX 10 77 20 78 34 79 21 80 33 81 22 82 11 84 12 85 19 86 13 87
REMARK SMILES IDX 14 88 18 89 15 90 17 91 16 92 23 93 24 94 25 95 32 96 26 97
REMARK SMILES IDX 28 98 31 99 27 100 29 101 30 102
REMARK H PARENT 3 6 91 24 59 35 7 75 22 83
REMARK Flexibility Score: inf
ROOT
ATOM      1  C   UNL A   1      43.096  28.459  36.629  1.00  0.00     0.042 C 
ENDROOT
BRANCH   1   2
ATOM      2  C   UNL A   1      44.301  27.837  35.988  1.00  0.00     0.118 C 
BRANCH   2   3
ATOM      3  N   UNL A   1      44.578  26.428  36.326  1.00  0.00    -0.352 N 
ATOM      4  O   UNL A   1      44.946  24.204  35.795  1.00  0.00    -0.269 OA
ATOM      5  C   UNL A   1      44.906  25.388  35.451  1.00  0.00     0.251 C 
ATOM      6  H   UNL A   1      44.528  26.192  37.280  1.00  0.00     0.163 HD
BRANCH   5   7
ATOM      7  C   UNL A   1      45.371  25.786  34.123  1.00  0.00     0.039 A 
ATOM      8  C   UNL A   1      46.677  25.766  33.626  1.00  0.00     0.014 A 
ATOM      9  C   UNL A   1      44.310  25.890  33.266  1.00  0.00     0.014 A 
ATOM     10  C   UNL A   1      46.819  25.771  32.233  1.00  0.00     0.010 A 
ATOM     11  C   UNL A   1      44.526  25.195  32.137  1.00  0.00     0.010 A 
ATOM     12  C   UNL A   1      45.673  25.498  31.480  1.00  0.00    -0.014 A 
BRANCH  12  13
ATOM     13  C   UNL A   1      45.485  25.403  30.048  1.00  0.00     0.031 A 
ATOM     14  C   UNL A   1      46.517  26.081  29.265  1.00  0.00     0.074 A 
ATOM     15  C   UNL A   1      44.587  24.551  29.483  1.00  0.00     0.049 A 
ATOM     16  N   UNL A   1      46.433  27.275  28.799  1.00  0.00    -0.248 NA
ATOM     17  C   UNL A   1      47.846  25.470  29.144  1.00  0.00     0.031 C 
ATOM     18  C   UNL A   1      43.706  23.537  30.104  1.00  0.00     0.029 A 
ATOM     19  N   UNL A   1      44.320  24.375  28.165  1.00  0.00    -0.354 N 
ATOM     20  C   UNL A   1      47.597  27.467  28.081  1.00  0.00     0.074 A 
ATOM     21  C   UNL A   1      48.517  26.456  28.538  1.00  0.00     0.031 C 
ATOM     22  C   UNL A   1      43.167  22.737  29.162  1.00  0.00     0.029 A 
ATOM     23  C   UNL A   1      43.481  23.307  27.873  1.00  0.00     0.049 A 
ATOM     24  H   UNL A   1      44.693  24.961  27.467  1.00  0.00     0.167 HD
ATOM     25  C   UNL A   1      47.577  28.247  26.967  1.00  0.00     0.037 A 
ATOM     26  C   UNL A   1      43.020  22.948  26.653  1.00  0.00     0.037 A 
ATOM     27  C   UNL A   1      46.327  28.974  26.871  1.00  0.00     0.049 A 
ATOM     28  C   UNL A   1      43.116  24.165  25.805  1.00  0.00     0.074 A 
ATOM     29  C   UNL A   1      45.667  29.855  27.710  1.00  0.00     0.029 A 
ATOM     30  N   UNL A   1      45.363  28.479  26.022  1.00  0.00    -0.354 N 
ATOM     31  N   UNL A   1      42.396  25.239  26.002  1.00  0.00    -0.248 NA
ATOM     32  C   UNL A   1      44.350  24.373  25.064  1.00  0.00     0.031 C 
ATOM     33  C   UNL A   1      44.293  29.474  27.643  1.00  0.00     0.029 A 
ATOM     34  C   UNL A   1      44.165  28.453  26.698  1.00  0.00     0.049 A 
ATOM     35  H   UNL A   1      45.504  28.193  25.091  1.00  0.00     0.167 HD
ATOM     36  C   UNL A   1      43.275  26.297  25.804  1.00  0.00     0.074 A 
ATOM     37  C   UNL A   1      44.432  25.706  25.133  1.00  0.00     0.031 C 
ATOM     38  C   UNL A   1      43.114  27.482  26.464  1.00  0.00     0.037 A 
BRANCH  25  39
ATOM     39  C   UNL A   1      48.497  28.072  25.793  1.00  0.00     0.064 A 
ATOM     40  C   UNL A   1      48.141  27.159  24.785  1.00  0.00     0.173 A 
ATOM     41  C   UNL A   1      49.817  28.566  25.737  1.00  0.00     0.173 A 
ATOM     42  F   UNL A   1      46.919  26.609  24.765  1.00  0.00    -0.203 F 
ATOM     43  C   UNL A   1      49.060  26.728  23.826  1.00  0.00     0.198 A 
ATOM     44  C   UNL A   1      50.714  28.180  24.743  1.00  0.00     0.198 A 
ATOM     45  F   UNL A   1      50.332  29.345  26.695  1.00  0.00    -0.203 F 
ATOM     46  F   UNL A   1      48.714  25.769  22.958  1.00  0.00    -0.200 F 
ATOM     47  C   UNL A   1      50.346  27.239  23.806  1.00  0.00     0.200 A 
ATOM     48  F   UNL A   1      51.961  28.670  24.756  1.00  0.00    -0.200 F 
ATOM     49  F   UNL A   1      51.243  26.791  22.920  1.00  0.00    -0.200 F 
ENDBRANCH  25  39
BRANCH  26  50
ATOM     50  C   UNL A   1      42.758  21.588  26.131  1.00  0.00     0.064 A 
ATOM     51  C   UNL A   1      43.817  20.739  25.777  1.00  0.00     0.173 A 
ATOM     52  C   UNL A   1      41.485  20.989  26.239  1.00  0.00     0.173 A 
ATOM     53  F   UNL A   1      45.063  21.226  25.672  1.00  0.00    -0.203 F 
ATOM     54  C   UNL A   1      43.630  19.364  25.603  1.00  0.00     0.198 A 
ATOM     55  C   UNL A   1      41.298  19.618  26.057  1.00  0.00     0.198 A 
ATOM     56  F   UNL A   1      40.416  21.704  26.616  1.00  0.00    -0.203 F 
ATOM     57  F   UNL A   1      44.682  18.575  25.346  1.00  0.00    -0.200 F 
ATOM     58  C   UNL A   1      42.374  18.802  25.761  1.00  0.00     0.200 A 
ATOM     59  F   UNL A   1      40.083  19.082  26.240  1.00  0.00    -0.200 F 
ATOM     60  F   UNL A   1      42.209  17.475  25.671  1.00  0.00    -0.200 F 
ENDBRANCH  26  50
BRANCH  38  61
ATOM     61  C   UNL A   1      41.813  27.715  27.194  1.00  0.00     0.064 A 
ATOM     62  C   UNL A   1      41.557  27.295  28.512  1.00  0.00     0.173 A 
ATOM     63  C   UNL A   1      40.853  28.540  26.592  1.00  0.00     0.173 A 
ATOM     64  F   UNL A   1      42.452  26.576  29.193  1.00  0.00    -0.203 F 
ATOM     65  C   UNL A   1      40.389  27.664  29.181  1.00  0.00     0.198 A 
ATOM     66  C   UNL A   1      39.702  28.933  27.272  1.00  0.00     0.198 A 
ATOM     67  F   UNL A   1      41.059  29.013  25.353  1.00  0.00    -0.203 F 
ATOM     68  F   UNL A   1      40.176  27.249  30.439  1.00  0.00    -0.200 F 
ATOM     69  C   UNL A   1      39.467  28.491  28.564  1.00  0.00     0.200 A 
ATOM     70  F   UNL A   1      38.836  29.770  26.685  1.00  0.00    -0.200 F 
ATOM     71  F   UNL A   1      38.368  28.884  29.222  1.00  0.00    -0.200 F 
ENDBRANCH  38  61
ENDBRANCH  12  13
ENDBRANCH   5   7
ENDBRANCH   2   3
ENDBRANCH   1   2
BRANCH   1  72
ATOM     72  C   UNL A   1      41.807  28.105  35.903  1.00  0.00     0.117 C 
BRANCH  72  73
ATOM     73  N   UNL A   1      40.763  29.056  36.158  1.00  0.00    -0.354 N 
ATOM     74  C   UNL A   1      40.255  30.086  35.448  1.00  0.00     0.246 C 
ATOM     75  H   UNL A   1      40.327  28.933  37.032  1.00  0.00     0.163 HD
ATOM     76  O   UNL A   1      39.546  30.821  36.153  1.00  0.00    -0.272 OA
BRANCH  74  77
ATOM     77  C   UNL A   1      40.518  30.428  33.930  1.00  0.00     0.135 C 
ATOM     78  C   UNL A   1      39.949  31.740  33.340  1.00  0.00     0.101 C 
ATOM     79  C   UNL A   1      40.069  29.266  33.011  1.00  0.00     0.101 C 
ATOM     80  C   UNL A   1      38.537  31.759  32.754  1.00  0.00     0.265 C 
ATOM     81  C   UNL A   1      38.606  29.251  32.560  1.00  0.00     0.265 C 
ATOM     82  N   UNL A   1      38.009  30.524  32.229  1.00  0.00    -0.331 N 
ATOM     83  H   UNL A   1      38.533  30.627  31.361  1.00  0.00     0.348 HD
BRANCH  77  84
ATOM     84  N   UNL A   1      42.025  30.589  33.864  1.00  0.00    -0.315 N 
ATOM     85  C   UNL A   1      42.794  31.452  34.608  1.00  0.00     0.201 A 
ATOM     86  C   UNL A   1      42.884  29.985  32.950  1.00  0.00     0.069 A 
ATOM     87  N   UNL A   1      44.073  31.353  34.332  1.00  0.00    -0.237 NA
ATOM     88  C   UNL A   1      44.146  30.472  33.289  1.00  0.00     0.088 A 
ATOM     89  C   UNL A   1      42.701  29.115  31.862  1.00  0.00     0.028 A 
ATOM     90  C   UNL A   1      45.273  30.058  32.560  1.00  0.00     0.030 A 
ATOM     91  C   UNL A   1      43.837  28.711  31.149  1.00  0.00     0.002 A 
ATOM     92  C   UNL A   1      45.105  29.169  31.492  1.00  0.00     0.002 A 
ENDBRANCH  77  84
BRANCH  82  93
ATOM     93  C   UNL A   1      36.605  30.510  31.778  1.00  0.00     0.301 C 
BRANCH  93  94
ATOM     94  C   UNL A   1      36.138  31.540  30.766  1.00  0.00     0.038 A 
ATOM     95  C   UNL A   1      36.623  31.589  29.428  1.00  0.00     0.012 A 
ATOM     96  C   UNL A   1      35.121  32.508  30.999  1.00  0.00     0.144 A 
ATOM     97  C   UNL A   1      36.166  32.494  28.429  1.00  0.00     0.003 A 
ATOM     98  C   UNL A   1      34.643  33.432  29.968  1.00  0.00     0.135 A 
ATOM     99  N   UNL A   1      34.463  32.794  32.133  1.00  0.00    -0.049 NA
ATOM    100  C   UNL A   1      35.136  33.421  28.652  1.00  0.00     0.034 A 
ATOM    101  N   UNL A   1      33.743  34.254  30.520  1.00  0.00    -0.050 NA
ATOM    102  O   UNL A   1      33.637  33.867  31.841  1.00  0.00    -0.243 OA
ENDBRANCH  93  94
ENDBRANCH  82  93
ENDBRANCH  74  77
ENDBRANCH  72  73
ENDBRANCH   1  72
TORSDOF 13
ENDMDL
