MODEL 1
REMARK VINA RESULT:     -13.6      0.000      0.000
REMARK SMILES Cc1ccc([C@@H](C)Nc2ccccc2C(=O)NCCCNC(=O)c2ccc(-c3c4nc(c(-c5c(F)c(F)c(F)c(F)c5F)c5ccc([nH]5)c(-c5c(F)c(F)c(F)c(F)c5F)c5nc(c(-c6c(F)c(F)c(F)c(F)c6F)c6ccc3[nH]6)C=C5)C=C4)cc2)cc1F
REMARK SMILES IDX 18 1 17 2 15 3 16 4 14 6 9 7 10 8 11 9 13 10 12 11 8 12 6 14
REMARK SMILES IDX 7 15 5 16 1 17 2 18 3 19 88 20 4 21 87 22 89 23 19 24 20 25
REMARK SMILES IDX 21 26 22 27 23 29 24 30 25 31 86 32 26 33 85 34 27 35 28 36
REMARK SMILES IDX 29 37 79 38 30 39 84 40 78 41 80 42 31 43 83 44 77 45 76 46
REMARK SMILES IDX 32 48 64 49 44 50 63 51 45 52 48 53 62 54 81 55 46 56 47 57
REMARK SMILES IDX 61 59 82 60 49 61 33 62 34 63 42 64 35 65 36 66 40 67 43 68
REMARK SMILES IDX 37 69 38 70 41 71 39 72 65 73 66 74 74 75 67 76 68 77 72 78
REMARK SMILES IDX 75 79 69 80 70 81 73 82 71 83 50 84 51 85 59 86 52 87 53 88
REMARK SMILES IDX 57 89 60 90 54 91 55 92 58 93 56 94
REMARK H PARENT 17 5 8 13 21 28 80 47 48 58
REMARK Flexibility Score: inf
ROOT
ATOM      1  C   UNL A   1      32.821  27.946  27.079  1.00  0.00     0.118 C 
ENDROOT
BRANCH   1   2
ATOM      2  N   UNL A   1      31.647  27.097  27.192  1.00  0.00    -0.352 N 
ATOM      3  C   UNL A   1      31.048  26.333  26.210  1.00  0.00     0.253 C 
ATOM      4  O   UNL A   1      30.026  25.706  26.482  1.00  0.00    -0.269 OA
ATOM      5  H   UNL A   1      31.224  27.061  28.080  1.00  0.00     0.163 HD
BRANCH   3   6
ATOM      6  C   UNL A   1      31.552  26.338  24.812  1.00  0.00     0.062 A 
ATOM      7  C   UNL A   1      32.500  25.446  24.282  1.00  0.00     0.047 A 
ATOM      8  C   UNL A   1      33.090  25.795  23.048  1.00  0.00     0.026 A 
ATOM      9  C   UNL A   1      32.689  26.918  22.321  1.00  0.00     0.002 A 
ATOM     10  C   UNL A   1      31.094  27.425  24.038  1.00  0.00     0.016 A 
ATOM     11  C   UNL A   1      31.655  27.710  22.796  1.00  0.00     0.001 A 
BRANCH   7  12
ATOM     12  N   UNL A   1      32.906  24.232  24.832  1.00  0.00    -0.378 N 
ATOM     13  H   UNL A   1      32.858  24.137  25.811  1.00  0.00     0.161 HD
BRANCH  12  14
ATOM     14  C   UNL A   1      33.401  23.081  24.061  1.00  0.00     0.106 C 
ATOM     15  C   UNL A   1      32.551  21.817  24.171  1.00  0.00     0.036 C 
BRANCH  14  16
ATOM     16  C   UNL A   1      34.802  22.738  24.568  1.00  0.00    -0.023 A 
ATOM     17  C   UNL A   1      38.816  21.842  25.902  1.00  0.00     0.047 C 
ATOM     18  C   UNL A   1      37.433  22.173  25.439  1.00  0.00    -0.015 A 
ATOM     19  C   UNL A   1      36.953  23.487  25.432  1.00  0.00     0.007 A 
ATOM     20  C   UNL A   1      36.593  21.154  24.999  1.00  0.00     0.126 A 
ATOM     21  C   UNL A   1      35.653  23.767  25.000  1.00  0.00     0.006 A 
ATOM     22  C   UNL A   1      35.300  21.424  24.569  1.00  0.00     0.045 A 
ATOM     23  F   UNL A   1      37.019  19.882  25.005  1.00  0.00    -0.207 F 
ENDBRANCH  14  16
ENDBRANCH  12  14
ENDBRANCH   7  12
ENDBRANCH   3   6
ENDBRANCH   1   2
BRANCH   1  24
ATOM     24  C   UNL A   1      32.557  29.437  27.238  1.00  0.00     0.042 C 
BRANCH  24  25
ATOM     25  C   UNL A   1      33.788  30.322  27.085  1.00  0.00     0.118 C 
BRANCH  25  26
ATOM     26  N   UNL A   1      34.064  31.221  28.209  1.00  0.00    -0.352 N 
ATOM     27  C   UNL A   1      35.142  31.213  29.091  1.00  0.00     0.251 C 
ATOM     28  H   UNL A   1      33.396  31.927  28.362  1.00  0.00     0.163 HD
ATOM     29  O   UNL A   1      35.227  31.958  30.037  1.00  0.00    -0.269 OA
BRANCH  27  30
ATOM     30  C   UNL A   1      36.216  30.249  28.808  1.00  0.00     0.039 A 
ATOM     31  C   UNL A   1      36.974  30.315  27.631  1.00  0.00     0.014 A 
ATOM     32  C   UNL A   1      36.546  29.397  29.849  1.00  0.00     0.014 A 
ATOM     33  C   UNL A   1      38.181  29.621  27.568  1.00  0.00     0.010 A 
ATOM     34  C   UNL A   1      37.795  28.856  29.851  1.00  0.00     0.010 A 
ATOM     35  C   UNL A   1      38.608  28.945  28.710  1.00  0.00    -0.014 A 
BRANCH  35  36
ATOM     36  C   UNL A   1      39.906  28.319  28.896  1.00  0.00     0.031 A 
ATOM     37  C   UNL A   1      40.127  26.896  28.586  1.00  0.00     0.074 A 
ATOM     38  C   UNL A   1      40.918  29.195  29.074  1.00  0.00     0.049 A 
ATOM     39  N   UNL A   1      41.186  26.256  28.937  1.00  0.00    -0.248 NA
ATOM     40  C   UNL A   1      39.179  26.062  27.850  1.00  0.00     0.031 C 
ATOM     41  C   UNL A   1      42.343  29.051  28.839  1.00  0.00     0.029 A 
ATOM     42  N   UNL A   1      40.794  30.492  29.596  1.00  0.00    -0.354 N 
ATOM     43  C   UNL A   1      41.205  25.060  28.251  1.00  0.00     0.074 A 
ATOM     44  C   UNL A   1      39.886  24.935  27.678  1.00  0.00     0.031 C 
ATOM     45  C   UNL A   1      42.981  30.052  29.477  1.00  0.00     0.029 A 
ATOM     46  C   UNL A   1      41.991  30.749  30.285  1.00  0.00     0.049 A 
ATOM     47  H   UNL A   1      40.024  31.098  29.500  1.00  0.00     0.167 HD
ATOM     48  C   UNL A   1      42.393  24.398  28.140  1.00  0.00     0.037 A 
ATOM     49  C   UNL A   1      41.935  30.780  31.654  1.00  0.00     0.037 A 
ATOM     50  C   UNL A   1      43.449  25.145  28.817  1.00  0.00     0.049 A 
ATOM     51  C   UNL A   1      42.685  29.632  32.294  1.00  0.00     0.074 A 
ATOM     52  C   UNL A   1      44.373  26.088  28.397  1.00  0.00     0.029 A 
ATOM     53  N   UNL A   1      43.403  25.238  30.189  1.00  0.00    -0.354 N 
ATOM     54  N   UNL A   1      43.140  28.602  31.635  1.00  0.00    -0.248 NA
ATOM     55  C   UNL A   1      42.918  29.518  33.730  1.00  0.00     0.031 C 
ATOM     56  C   UNL A   1      44.849  26.775  29.552  1.00  0.00     0.029 A 
ATOM     57  C   UNL A   1      44.226  26.236  30.665  1.00  0.00     0.049 A 
ATOM     58  H   UNL A   1      42.849  24.661  30.763  1.00  0.00     0.167 HD
ATOM     59  C   UNL A   1      43.685  27.704  32.502  1.00  0.00     0.074 A 
ATOM     60  C   UNL A   1      43.509  28.313  33.809  1.00  0.00     0.031 C 
ATOM     61  C   UNL A   1      44.216  26.518  32.090  1.00  0.00     0.037 A 
BRANCH  48  62
ATOM     62  C   UNL A   1      42.689  23.192  27.283  1.00  0.00     0.064 A 
ATOM     63  C   UNL A   1      42.057  21.957  27.559  1.00  0.00     0.173 A 
ATOM     64  C   UNL A   1      43.545  23.181  26.167  1.00  0.00     0.173 A 
ATOM     65  F   UNL A   1      41.178  21.827  28.562  1.00  0.00    -0.203 F 
ATOM     66  C   UNL A   1      42.297  20.801  26.815  1.00  0.00     0.198 A 
ATOM     67  C   UNL A   1      43.813  22.011  25.442  1.00  0.00     0.198 A 
ATOM     68  F   UNL A   1      44.111  24.305  25.710  1.00  0.00    -0.203 F 
ATOM     69  F   UNL A   1      41.655  19.665  27.128  1.00  0.00    -0.200 F 
ATOM     70  C   UNL A   1      43.189  20.822  25.766  1.00  0.00     0.200 A 
ATOM     71  F   UNL A   1      44.674  22.047  24.414  1.00  0.00    -0.200 F 
ATOM     72  F   UNL A   1      43.432  19.709  25.062  1.00  0.00    -0.200 F 
ENDBRANCH  48  62
BRANCH  49  73
ATOM     73  C   UNL A   1      40.607  31.308  32.128  1.00  0.00     0.064 A 
ATOM     74  C   UNL A   1      39.703  30.379  32.691  1.00  0.00     0.173 A 
ATOM     75  C   UNL A   1      40.471  32.649  32.515  1.00  0.00     0.173 A 
ATOM     76  F   UNL A   1      39.780  29.081  32.352  1.00  0.00    -0.203 F 
ATOM     77  C   UNL A   1      38.854  30.740  33.736  1.00  0.00     0.198 A 
ATOM     78  C   UNL A   1      39.596  33.011  33.543  1.00  0.00     0.198 A 
ATOM     79  F   UNL A   1      41.273  33.591  31.996  1.00  0.00    -0.203 F 
ATOM     80  F   UNL A   1      38.141  29.799  34.373  1.00  0.00    -0.200 F 
ATOM     81  C   UNL A   1      38.832  32.049  34.187  1.00  0.00     0.200 A 
ATOM     82  F   UNL A   1      39.564  34.281  33.974  1.00  0.00    -0.200 F 
ATOM     83  F   UNL A   1      38.103  32.375  35.264  1.00  0.00    -0.200 F 
ENDBRANCH  49  73
BRANCH  61  84
ATOM     84  C   UNL A   1      44.767  25.508  33.044  1.00  0.00     0.064 A 
ATOM     85  C   UNL A   1      46.128  25.174  33.057  1.00  0.00     0.173 A 
ATOM     86  C   UNL A   1      43.930  24.772  33.909  1.00  0.00     0.173 A 
ATOM     87  F   UNL A   1      46.987  25.772  32.219  1.00  0.00    -0.203 F 
ATOM     88  C   UNL A   1      46.629  24.211  33.932  1.00  0.00     0.198 A 
ATOM     89  C   UNL A   1      44.422  23.762  34.728  1.00  0.00     0.198 A 
ATOM     90  F   UNL A   1      42.620  25.033  34.015  1.00  0.00    -0.203 F 
ATOM     91  F   UNL A   1      47.947  23.977  33.973  1.00  0.00    -0.200 F 
ATOM     92  C   UNL A   1      45.776  23.497  34.756  1.00  0.00     0.200 A 
ATOM     93  F   UNL A   1      43.577  23.060  35.495  1.00  0.00    -0.200 F 
ATOM     94  F   UNL A   1      46.258  22.563  35.585  1.00  0.00    -0.200 F 
ENDBRANCH  61  84
ENDBRANCH  35  36
ENDBRANCH  27  30
ENDBRANCH  25  26
ENDBRANCH  24  25
ENDBRANCH   1  24
TORSDOF 13
ENDMDL
MODEL 2
REMARK VINA RESULT:     -13.4      1.095      1.825
REMARK SMILES Cc1ccc([C@@H](C)Nc2ccccc2C(=O)NCCCNC(=O)c2ccc(-c3c4nc(c(-c5c(F)c(F)c(F)c(F)c5F)c5ccc([nH]5)c(-c5c(F)c(F)c(F)c(F)c5F)c5nc(c(-c6c(F)c(F)c(F)c(F)c6F)c6ccc3[nH]6)C=C5)C=C4)cc2)cc1F
REMARK SMILES IDX 18 1 17 2 15 3 16 4 14 6 9 7 10 8 11 9 13 10 12 11 8 12 6 14
REMARK SMILES IDX 7 15 5 16 1 17 2 18 3 19 88 20 4 21 87 22 89 23 19 24 20 25
REMARK SMILES IDX 21 26 22 27 23 29 24 30 25 31 86 32 26 33 85 34 27 35 28 36
REMARK SMILES IDX 29 37 79 38 30 39 84 40 78 41 80 42 31 43 83 44 77 45 76 46
REMARK SMILES IDX 32 48 64 49 44 50 63 51 45 52 48 53 62 54 81 55 46 56 47 57
REMARK SMILES IDX 61 59 82 60 49 61 33 62 34 63 42 64 35 65 36 66 40 67 43 68
REMARK SMILES IDX 37 69 38 70 41 71 39 72 65 73 66 74 74 75 67 76 68 77 72 78
REMARK SMILES IDX 75 79 69 80 70 81 73 82 71 83 50 84 51 85 59 86 52 87 53 88
REMARK SMILES IDX 57 89 60 90 54 91 55 92 58 93 56 94
REMARK H PARENT 17 5 8 13 21 28 80 47 48 58
REMARK Flexibility Score: inf
ROOT
ATOM      1  C   UNL A   1      32.842  28.175  27.304  1.00  0.00     0.118 C 
ENDROOT
BRANCH   1   2
ATOM      2  N   UNL A   1      33.577  27.633  26.172  1.00  0.00    -0.352 N 
ATOM      3  C   UNL A   1      33.084  27.235  24.946  1.00  0.00     0.253 C 
ATOM      4  O   UNL A   1      33.858  26.757  24.118  1.00  0.00    -0.269 OA
ATOM      5  H   UNL A   1      34.549  27.537  26.296  1.00  0.00     0.163 HD
BRANCH   3   6
ATOM      6  C   UNL A   1      31.629  27.277  24.647  1.00  0.00     0.062 A 
ATOM      7  C   UNL A   1      30.706  26.259  24.938  1.00  0.00     0.047 A 
ATOM      8  C   UNL A   1      29.447  26.333  24.303  1.00  0.00     0.026 A 
ATOM      9  C   UNL A   1      29.080  27.414  23.499  1.00  0.00     0.002 A 
ATOM     10  C   UNL A   1      31.227  28.404  23.901  1.00  0.00     0.016 A 
ATOM     11  C   UNL A   1      29.956  28.476  23.335  1.00  0.00     0.001 A 
BRANCH   7  12
ATOM     12  N   UNL A   1      30.886  25.190  25.813  1.00  0.00    -0.378 N 
ATOM     13  H   UNL A   1      30.905  25.389  26.777  1.00  0.00     0.161 HD
BRANCH  12  14
ATOM     14  C   UNL A   1      31.050  23.785  25.406  1.00  0.00     0.106 C 
ATOM     15  C   UNL A   1      30.804  22.760  26.510  1.00  0.00     0.036 C 
BRANCH  14  16
ATOM     16  C   UNL A   1      32.487  23.599  24.917  1.00  0.00    -0.023 A 
ATOM     17  C   UNL A   1      36.520  22.946  23.501  1.00  0.00     0.047 C 
ATOM     18  C   UNL A   1      35.116  23.163  23.973  1.00  0.00    -0.015 A 
ATOM     19  C   UNL A   1      34.026  23.085  23.101  1.00  0.00     0.007 A 
ATOM     20  C   UNL A   1      34.879  23.448  25.314  1.00  0.00     0.126 A 
ATOM     21  C   UNL A   1      32.725  23.299  23.568  1.00  0.00     0.006 A 
ATOM     22  C   UNL A   1      33.590  23.663  25.786  1.00  0.00     0.045 A 
ATOM     23  F   UNL A   1      35.904  23.542  26.175  1.00  0.00    -0.207 F 
ENDBRANCH  14  16
ENDBRANCH  12  14
ENDBRANCH   7  12
ENDBRANCH   3   6
ENDBRANCH   1   2
BRANCH   1  24
ATOM     24  C   UNL A   1      32.590  29.675  27.250  1.00  0.00     0.042 C 
BRANCH  24  25
ATOM     25  C   UNL A   1      33.847  30.529  27.140  1.00  0.00     0.118 C 
BRANCH  25  26
ATOM     26  N   UNL A   1      34.128  31.391  28.292  1.00  0.00    -0.352 N 
ATOM     27  C   UNL A   1      35.195  31.337  29.185  1.00  0.00     0.251 C 
ATOM     28  H   UNL A   1      33.473  32.107  28.457  1.00  0.00     0.163 HD
ATOM     29  O   UNL A   1      35.284  32.054  30.151  1.00  0.00    -0.269 OA
BRANCH  27  30
ATOM     30  C   UNL A   1      36.253  30.359  28.888  1.00  0.00     0.039 A 
ATOM     31  C   UNL A   1      36.992  30.412  27.698  1.00  0.00     0.014 A 
ATOM     32  C   UNL A   1      36.589  29.506  29.927  1.00  0.00     0.014 A 
ATOM     33  C   UNL A   1      38.190  29.702  27.619  1.00  0.00     0.010 A 
ATOM     34  C   UNL A   1      37.831  28.949  29.910  1.00  0.00     0.010 A 
ATOM     35  C   UNL A   1      38.626  29.024  28.756  1.00  0.00    -0.014 A 
BRANCH  35  36
ATOM     36  C   UNL A   1      39.920  28.383  28.922  1.00  0.00     0.031 A 
ATOM     37  C   UNL A   1      40.118  26.956  28.615  1.00  0.00     0.074 A 
ATOM     38  C   UNL A   1      40.945  29.247  29.081  1.00  0.00     0.049 A 
ATOM     39  N   UNL A   1      41.174  26.304  28.951  1.00  0.00    -0.248 NA
ATOM     40  C   UNL A   1      39.147  26.132  27.899  1.00  0.00     0.031 C 
ATOM     41  C   UNL A   1      42.364  29.084  28.823  1.00  0.00     0.029 A 
ATOM     42  N   UNL A   1      40.845  30.548  29.600  1.00  0.00    -0.354 N 
ATOM     43  C   UNL A   1      41.167  25.106  28.270  1.00  0.00     0.074 A 
ATOM     44  C   UNL A   1      39.837  24.995  27.719  1.00  0.00     0.031 C 
ATOM     45  C   UNL A   1      43.025  30.080  29.446  1.00  0.00     0.029 A 
ATOM     46  C   UNL A   1      42.057  30.792  30.268  1.00  0.00     0.049 A 
ATOM     47  H   UNL A   1      40.082  31.164  29.514  1.00  0.00     0.167 HD
ATOM     48  C   UNL A   1      42.345  24.428  28.142  1.00  0.00     0.037 A 
ATOM     49  C   UNL A   1      42.024  30.830  31.637  1.00  0.00     0.037 A 
ATOM     50  C   UNL A   1      43.421  25.165  28.798  1.00  0.00     0.049 A 
ATOM     51  C   UNL A   1      42.771  29.674  32.269  1.00  0.00     0.074 A 
ATOM     52  C   UNL A   1      44.349  26.095  28.359  1.00  0.00     0.029 A 
ATOM     53  N   UNL A   1      43.399  25.263  30.170  1.00  0.00    -0.354 N 
ATOM     54  N   UNL A   1      43.201  28.637  31.608  1.00  0.00    -0.248 NA
ATOM     55  C   UNL A   1      43.026  29.563  33.702  1.00  0.00     0.031 C 
ATOM     56  C   UNL A   1      44.853  26.780  29.504  1.00  0.00     0.029 A 
ATOM     57  C   UNL A   1      44.242  26.253  30.629  1.00  0.00     0.049 A 
ATOM     58  H   UNL A   1      42.847  24.696  30.756  1.00  0.00     0.167 HD
ATOM     59  C   UNL A   1      43.749  27.735  32.469  1.00  0.00     0.074 A 
ATOM     60  C   UNL A   1      43.603  28.352  33.776  1.00  0.00     0.031 C 
ATOM     61  C   UNL A   1      44.259  26.541  32.052  1.00  0.00     0.037 A 
BRANCH  48  62
ATOM     62  C   UNL A   1      42.611  23.216  27.285  1.00  0.00     0.064 A 
ATOM     63  C   UNL A   1      42.045  21.967  27.632  1.00  0.00     0.173 A 
ATOM     64  C   UNL A   1      43.376  23.210  26.104  1.00  0.00     0.173 A 
ATOM     65  F   UNL A   1      41.253  21.829  28.704  1.00  0.00    -0.203 F 
ATOM     66  C   UNL A   1      42.263  20.804  26.891  1.00  0.00     0.198 A 
ATOM     67  C   UNL A   1      43.624  22.035  25.380  1.00  0.00     0.198 A 
ATOM     68  F   UNL A   1      43.865  24.342  25.584  1.00  0.00    -0.203 F 
ATOM     69  F   UNL A   1      41.687  19.656  27.275  1.00  0.00    -0.200 F 
ATOM     70  C   UNL A   1      43.068  20.833  25.774  1.00  0.00     0.200 A 
ATOM     71  F   UNL A   1      44.399  22.078  24.287  1.00  0.00    -0.200 F 
ATOM     72  F   UNL A   1      43.291  19.714  25.072  1.00  0.00    -0.200 F 
ENDBRANCH  48  62
BRANCH  49  73
ATOM     73  C   UNL A   1      40.711  31.376  32.130  1.00  0.00     0.064 A 
ATOM     74  C   UNL A   1      39.812  30.463  32.727  1.00  0.00     0.173 A 
ATOM     75  C   UNL A   1      40.594  32.724  32.499  1.00  0.00     0.173 A 
ATOM     76  F   UNL A   1      39.871  29.159  32.407  1.00  0.00    -0.203 F 
ATOM     77  C   UNL A   1      38.988  30.847  33.785  1.00  0.00     0.198 A 
ATOM     78  C   UNL A   1      39.744  33.109  33.540  1.00  0.00     0.198 A 
ATOM     79  F   UNL A   1      41.392  33.651  31.949  1.00  0.00    -0.203 F 
ATOM     80  F   UNL A   1      38.281  29.923  34.451  1.00  0.00    -0.200 F 
ATOM     81  C   UNL A   1      38.986  32.163  34.216  1.00  0.00     0.200 A 
ATOM     82  F   UNL A   1      39.731  34.385  33.952  1.00  0.00    -0.200 F 
ATOM     83  F   UNL A   1      38.282  32.513  35.302  1.00  0.00    -0.200 F 
ENDBRANCH  49  73
BRANCH  61  84
ATOM     84  C   UNL A   1      44.813  25.527  33.001  1.00  0.00     0.064 A 
ATOM     85  C   UNL A   1      44.006  24.892  33.954  1.00  0.00     0.173 A 
ATOM     86  C   UNL A   1      46.192  25.233  33.048  1.00  0.00     0.173 A 
ATOM     87  F   UNL A   1      42.695  25.163  34.029  1.00  0.00    -0.203 F 
ATOM     88  C   UNL A   1      44.537  23.968  34.852  1.00  0.00     0.198 A 
ATOM     89  C   UNL A   1      46.729  24.366  33.993  1.00  0.00     0.198 A 
ATOM     90  F   UNL A   1      47.055  25.746  32.160  1.00  0.00    -0.203 F 
ATOM     91  F   UNL A   1      43.720  23.320  35.693  1.00  0.00    -0.200 F 
ATOM     92  C   UNL A   1      45.897  23.715  34.881  1.00  0.00     0.200 A 
ATOM     93  F   UNL A   1      48.053  24.159  34.026  1.00  0.00    -0.200 F 
ATOM     94  F   UNL A   1      46.406  22.838  35.754  1.00  0.00    -0.200 F 
ENDBRANCH  61  84
ENDBRANCH  35  36
ENDBRANCH  27  30
ENDBRANCH  25  26
ENDBRANCH  24  25
ENDBRANCH   1  24
TORSDOF 13
ENDMDL
MODEL 3
REMARK VINA RESULT:     -13.3      1.851      3.622
REMARK SMILES Cc1ccc([C@@H](C)Nc2ccccc2C(=O)NCCCNC(=O)c2ccc(-c3c4nc(c(-c5c(F)c(F)c(F)c(F)c5F)c5ccc([nH]5)c(-c5c(F)c(F)c(F)c(F)c5F)c5nc(c(-c6c(F)c(F)c(F)c(F)c6F)c6ccc3[nH]6)C=C5)C=C4)cc2)cc1F
REMARK SMILES IDX 18 1 17 2 15 3 16 4 14 6 9 7 10 8 11 9 13 10 12 11 8 12 6 14
REMARK SMILES IDX 7 15 5 16 1 17 2 18 3 19 88 20 4 21 87 22 89 23 19 24 20 25
REMARK SMILES IDX 21 26 22 27 23 29 24 30 25 31 86 32 26 33 85 34 27 35 28 36
REMARK SMILES IDX 29 37 79 38 30 39 84 40 78 41 80 42 31 43 83 44 77 45 76 46
REMARK SMILES IDX 32 48 64 49 44 50 63 51 45 52 48 53 62 54 81 55 46 56 47 57
REMARK SMILES IDX 61 59 82 60 49 61 33 62 34 63 42 64 35 65 36 66 40 67 43 68
REMARK SMILES IDX 37 69 38 70 41 71 39 72 65 73 66 74 74 75 67 76 68 77 72 78
REMARK SMILES IDX 75 79 69 80 70 81 73 82 71 83 50 84 51 85 59 86 52 87 53 88
REMARK SMILES IDX 57 89 60 90 54 91 55 92 58 93 56 94
REMARK H PARENT 17 5 8 13 21 28 80 47 48 58
REMARK Flexibility Score: inf
ROOT
ATOM      1  C   UNL A   1      33.127  28.143  26.825  1.00  0.00     0.118 C 
ENDROOT
BRANCH   1   2
ATOM      2  N   UNL A   1      32.113  27.127  27.055  1.00  0.00    -0.352 N 
ATOM      3  C   UNL A   1      31.974  25.903  26.431  1.00  0.00     0.253 C 
ATOM      4  O   UNL A   1      31.020  25.186  26.730  1.00  0.00    -0.269 OA
ATOM      5  H   UNL A   1      31.440  27.337  27.743  1.00  0.00     0.163 HD
BRANCH   3   6
ATOM      6  C   UNL A   1      32.889  25.484  25.338  1.00  0.00     0.062 A 
ATOM      7  C   UNL A   1      32.684  25.716  23.968  1.00  0.00     0.047 A 
ATOM      8  C   UNL A   1      33.481  24.977  23.066  1.00  0.00     0.026 A 
ATOM      9  C   UNL A   1      34.502  24.126  23.497  1.00  0.00     0.002 A 
ATOM     10  C   UNL A   1      33.971  24.687  25.767  1.00  0.00     0.016 A 
ATOM     11  C   UNL A   1      34.778  24.017  24.851  1.00  0.00     0.001 A 
BRANCH   7  12
ATOM     12  N   UNL A   1      31.794  26.621  23.395  1.00  0.00    -0.378 N 
ATOM     13  H   UNL A   1      30.836  26.396  23.423  1.00  0.00     0.161 HD
BRANCH  12  14
ATOM     14  C   UNL A   1      32.176  27.890  22.755  1.00  0.00     0.106 C 
ATOM     15  C   UNL A   1      33.424  28.554  23.332  1.00  0.00     0.036 C 
BRANCH  14  16
ATOM     16  C   UNL A   1      31.015  28.871  22.920  1.00  0.00    -0.023 A 
ATOM     17  C   UNL A   1      27.696  31.582  23.497  1.00  0.00     0.047 C 
ATOM     18  C   UNL A   1      28.850  30.646  23.318  1.00  0.00    -0.015 A 
ATOM     19  C   UNL A   1      29.892  30.577  24.248  1.00  0.00     0.007 A 
ATOM     20  C   UNL A   1      28.895  29.817  22.201  1.00  0.00     0.126 A 
ATOM     21  C   UNL A   1      30.962  29.698  24.052  1.00  0.00     0.006 A 
ATOM     22  C   UNL A   1      29.955  28.942  21.999  1.00  0.00     0.045 A 
ATOM     23  F   UNL A   1      27.917  29.868  21.285  1.00  0.00    -0.207 F 
ENDBRANCH  14  16
ENDBRANCH  12  14
ENDBRANCH   7  12
ENDBRANCH   3   6
ENDBRANCH   1   2
BRANCH   1  24
ATOM     24  C   UNL A   1      32.748  29.546  27.281  1.00  0.00     0.042 C 
BRANCH  24  25
ATOM     25  C   UNL A   1      33.847  30.589  27.111  1.00  0.00     0.118 C 
BRANCH  25  26
ATOM     26  N   UNL A   1      34.105  31.431  28.282  1.00  0.00    -0.352 N 
ATOM     27  C   UNL A   1      35.149  31.357  29.200  1.00  0.00     0.251 C 
ATOM     28  H   UNL A   1      33.450  32.148  28.442  1.00  0.00     0.163 HD
ATOM     29  O   UNL A   1      35.218  32.059  30.180  1.00  0.00    -0.269 OA
BRANCH  27  30
ATOM     30  C   UNL A   1      36.208  30.377  28.914  1.00  0.00     0.039 A 
ATOM     31  C   UNL A   1      36.943  30.413  27.721  1.00  0.00     0.014 A 
ATOM     32  C   UNL A   1      36.551  29.541  29.965  1.00  0.00     0.014 A 
ATOM     33  C   UNL A   1      38.141  29.705  27.648  1.00  0.00     0.010 A 
ATOM     34  C   UNL A   1      37.794  28.987  29.952  1.00  0.00     0.010 A 
ATOM     35  C   UNL A   1      38.584  29.046  28.793  1.00  0.00    -0.014 A 
BRANCH  35  36
ATOM     36  C   UNL A   1      39.880  28.411  28.965  1.00  0.00     0.031 A 
ATOM     37  C   UNL A   1      40.086  26.986  28.655  1.00  0.00     0.074 A 
ATOM     38  C   UNL A   1      40.900  29.280  29.129  1.00  0.00     0.049 A 
ATOM     39  N   UNL A   1      41.145  26.338  28.995  1.00  0.00    -0.248 NA
ATOM     40  C   UNL A   1      39.123  26.158  27.933  1.00  0.00     0.031 C 
ATOM     41  C   UNL A   1      42.321  29.124  28.878  1.00  0.00     0.029 A 
ATOM     42  N   UNL A   1      40.792  30.579  29.651  1.00  0.00    -0.354 N 
ATOM     43  C   UNL A   1      41.146  25.142  28.312  1.00  0.00     0.074 A 
ATOM     44  C   UNL A   1      39.819  25.025  27.754  1.00  0.00     0.031 C 
ATOM     45  C   UNL A   1      42.975  30.122  29.506  1.00  0.00     0.029 A 
ATOM     46  C   UNL A   1      41.999  30.828  30.325  1.00  0.00     0.049 A 
ATOM     47  H   UNL A   1      40.026  31.191  29.563  1.00  0.00     0.167 HD
ATOM     48  C   UNL A   1      42.328  24.470  28.188  1.00  0.00     0.037 A 
ATOM     49  C   UNL A   1      41.960  30.862  31.694  1.00  0.00     0.037 A 
ATOM     50  C   UNL A   1      43.398  25.210  28.850  1.00  0.00     0.049 A 
ATOM     51  C   UNL A   1      42.709  29.709  32.327  1.00  0.00     0.074 A 
ATOM     52  C   UNL A   1      44.323  26.145  28.418  1.00  0.00     0.029 A 
ATOM     53  N   UNL A   1      43.368  25.306  30.222  1.00  0.00    -0.354 N 
ATOM     54  N   UNL A   1      43.147  28.675  31.666  1.00  0.00    -0.248 NA
ATOM     55  C   UNL A   1      42.958  29.596  33.761  1.00  0.00     0.031 C 
ATOM     56  C   UNL A   1      44.818  26.831  29.566  1.00  0.00     0.029 A 
ATOM     57  C   UNL A   1      44.204  26.299  30.687  1.00  0.00     0.049 A 
ATOM     58  H   UNL A   1      42.817  24.734  30.804  1.00  0.00     0.167 HD
ATOM     59  C   UNL A   1      43.696  27.774  32.527  1.00  0.00     0.074 A 
ATOM     60  C   UNL A   1      43.540  28.387  33.835  1.00  0.00     0.031 C 
ATOM     61  C   UNL A   1      44.213  26.584  32.111  1.00  0.00     0.037 A 
BRANCH  48  62
ATOM     62  C   UNL A   1      42.604  23.261  27.329  1.00  0.00     0.064 A 
ATOM     63  C   UNL A   1      42.028  22.011  27.662  1.00  0.00     0.173 A 
ATOM     64  C   UNL A   1      43.387  23.258  26.160  1.00  0.00     0.173 A 
ATOM     65  F   UNL A   1      41.220  21.871  28.721  1.00  0.00    -0.203 F 
ATOM     66  C   UNL A   1      42.255  20.852  26.919  1.00  0.00     0.198 A 
ATOM     67  C   UNL A   1      43.643  22.085  25.435  1.00  0.00     0.198 A 
ATOM     68  F   UNL A   1      43.888  24.390  25.653  1.00  0.00    -0.203 F 
ATOM     69  F   UNL A   1      41.670  19.703  27.288  1.00  0.00    -0.200 F 
ATOM     70  C   UNL A   1      43.077  20.883  25.815  1.00  0.00     0.200 A 
ATOM     71  F   UNL A   1      44.435  22.130  24.354  1.00  0.00    -0.200 F 
ATOM     72  F   UNL A   1      43.308  19.767  25.112  1.00  0.00    -0.200 F 
ENDBRANCH  48  62
BRANCH  49  73
ATOM     73  C   UNL A   1      40.642  31.401  32.183  1.00  0.00     0.064 A 
ATOM     74  C   UNL A   1      39.755  30.488  32.797  1.00  0.00     0.173 A 
ATOM     75  C   UNL A   1      40.510  32.754  32.529  1.00  0.00     0.173 A 
ATOM     76  F   UNL A   1      39.829  29.179  32.499  1.00  0.00    -0.203 F 
ATOM     77  C   UNL A   1      38.930  30.880  33.851  1.00  0.00     0.198 A 
ATOM     78  C   UNL A   1      39.658  33.146  33.566  1.00  0.00     0.198 A 
ATOM     79  F   UNL A   1      41.295  33.680  31.961  1.00  0.00    -0.203 F 
ATOM     80  F   UNL A   1      38.236  29.958  34.535  1.00  0.00    -0.200 F 
ATOM     81  C   UNL A   1      38.914  32.203  34.260  1.00  0.00     0.200 A 
ATOM     82  F   UNL A   1      39.631  34.429  33.956  1.00  0.00    -0.200 F 
ATOM     83  F   UNL A   1      38.210  32.562  35.343  1.00  0.00    -0.200 F 
ENDBRANCH  49  73
BRANCH  61  84
ATOM     84  C   UNL A   1      44.768  25.571  33.061  1.00  0.00     0.064 A 
ATOM     85  C   UNL A   1      46.130  25.244  33.074  1.00  0.00     0.173 A 
ATOM     86  C   UNL A   1      43.934  24.826  33.920  1.00  0.00     0.173 A 
ATOM     87  F   UNL A   1      46.988  25.851  32.241  1.00  0.00    -0.203 F 
ATOM     88  C   UNL A   1      46.635  24.278  33.944  1.00  0.00     0.198 A 
ATOM     89  C   UNL A   1      44.430  23.814  34.734  1.00  0.00     0.198 A 
ATOM     90  F   UNL A   1      42.622  25.080  34.026  1.00  0.00    -0.203 F 
ATOM     91  F   UNL A   1      47.954  24.051  33.986  1.00  0.00    -0.200 F 
ATOM     92  C   UNL A   1      45.785  23.556  34.763  1.00  0.00     0.200 A 
ATOM     93  F   UNL A   1      43.586  23.104  35.497  1.00  0.00    -0.200 F 
ATOM     94  F   UNL A   1      46.270  22.620  35.588  1.00  0.00    -0.200 F 
ENDBRANCH  61  84
ENDBRANCH  35  36
ENDBRANCH  27  30
ENDBRANCH  25  26
ENDBRANCH  24  25
ENDBRANCH   1  24
TORSDOF 13
ENDMDL
