MODEL 1
REMARK VINA RESULT:     -13.7      0.000      0.000
REMARK SMILES Nc1oc2ccc(F)cc2c(=O)c1[C@@H]1[NH2+][C@H](C(=O)NCCCNC(=O)c2ccc(-c3c4nc(c(-c5c(F)c(F)c(F)c(F)c5F)c5ccc([nH]5)c(-c5c(F)c(F)c(F)c(F)c5F)c5nc(c(-c6c(F)c(F)c(F)c(F)c6F)c6ccc3[nH]6)C=C5)C=C4)cc2)CS1
REMARK SMILES IDX 21 1 20 2 19 3 17 4 18 5 16 7 14 8 15 9 90 10 89 13 13 14
REMARK SMILES IDX 2 15 3 16 4 17 11 18 5 19 10 20 12 21 6 22 9 23 7 24 8 25
REMARK SMILES IDX 1 26 22 29 23 30 24 31 25 33 26 34 27 35 88 36 28 37 87 38
REMARK SMILES IDX 29 39 30 40 31 41 81 42 32 43 86 44 80 45 82 46 33 47 85 48
REMARK SMILES IDX 79 49 78 50 34 52 66 53 46 54 65 55 47 56 50 57 64 58 83 59
REMARK SMILES IDX 48 60 49 61 63 63 84 64 51 65 35 66 36 67 44 68 37 69 38 70
REMARK SMILES IDX 42 71 45 72 39 73 40 74 43 75 41 76 67 77 68 78 76 79 69 80
REMARK SMILES IDX 70 81 74 82 77 83 71 84 72 85 75 86 73 87 52 88 53 89 61 90
REMARK SMILES IDX 54 91 55 92 59 93 62 94 56 95 57 96 60 97 58 98
REMARK H PARENT 19 6 15 11 15 12 1 27 1 28 23 32 82 51 50 62
REMARK Flexibility Score: inf
ROOT
ATOM      1  C   UNL A   1      31.805  28.695  25.747  1.00  0.00     0.042 C 
ENDROOT
BRANCH   1   2
ATOM      2  C   UNL A   1      32.025  27.792  26.957  1.00  0.00     0.118 C 
BRANCH   2   3
ATOM      3  N   UNL A   1      31.179  26.613  26.928  1.00  0.00    -0.351 N 
ATOM      4  C   UNL A   1      31.451  25.350  26.481  1.00  0.00     0.279 C 
ATOM      5  O   UNL A   1      30.556  24.507  26.611  1.00  0.00    -0.268 OA
ATOM      6  H   UNL A   1      30.271  26.742  27.285  1.00  0.00     0.163 HD
BRANCH   4   7
ATOM      7  C   UNL A   1      32.828  24.932  25.928  1.00  0.00     0.283 C 
ATOM      8  C   UNL A   1      34.079  22.913  25.377  1.00  0.00     0.283 C 
ATOM      9  N   UNL A   1      33.240  23.588  26.382  1.00  0.00    -0.320 N 
ATOM     10  S   UNL A   1      34.225  23.999  23.930  1.00  0.00    -0.087 SA
ATOM     11  H   UNL A   1      33.769  23.679  27.249  1.00  0.00     0.348 HD
ATOM     12  H   UNL A   1      32.399  23.029  26.525  1.00  0.00     0.348 HD
ATOM     13  C   UNL A   1      32.814  25.014  24.413  1.00  0.00     0.151 C 
BRANCH   8  14
ATOM     14  C   UNL A   1      33.505  21.534  25.108  1.00  0.00     0.128 A 
ATOM     15  C   UNL A   1      32.221  21.104  25.147  1.00  0.00     0.205 A 
ATOM     16  O   UNL A   1      31.846  19.775  25.047  1.00  0.00    -0.440 OA
ATOM     17  C   UNL A   1      32.800  18.805  24.969  1.00  0.00     0.140 A 
ATOM     18  C   UNL A   1      34.557  20.506  24.834  1.00  0.00     0.205 A 
ATOM     19  C   UNL A   1      32.370  17.478  25.032  1.00  0.00     0.051 A 
ATOM     20  C   UNL A   1      34.147  19.097  24.815  1.00  0.00     0.068 A 
ATOM     21  O   UNL A   1      35.736  20.801  24.669  1.00  0.00    -0.288 OA
ATOM     22  C   UNL A   1      33.297  16.444  24.909  1.00  0.00     0.043 A 
ATOM     23  C   UNL A   1      35.082  18.067  24.685  1.00  0.00     0.055 A 
ATOM     24  C   UNL A   1      34.644  16.749  24.730  1.00  0.00     0.124 A 
ATOM     25  F   UNL A   1      35.532  15.753  24.614  1.00  0.00    -0.207 F 
BRANCH  15  26
ATOM     26  N   UNL A   1      31.130  21.900  25.342  1.00  0.00    -0.369 N 
ATOM     27  H   UNL A   1      30.519  21.721  26.093  1.00  0.00     0.159 HD
ATOM     28  H   UNL A   1      30.954  22.651  24.731  1.00  0.00     0.159 HD
ENDBRANCH  15  26
ENDBRANCH   8  14
ENDBRANCH   4   7
ENDBRANCH   2   3
ENDBRANCH   1   2
BRANCH   1  29
ATOM     29  C   UNL A   1      32.859  29.773  25.570  1.00  0.00     0.118 C 
BRANCH  29  30
ATOM     30  N   UNL A   1      32.510  31.040  26.207  1.00  0.00    -0.352 N 
ATOM     31  C   UNL A   1      33.174  31.788  27.152  1.00  0.00     0.251 C 
ATOM     32  H   UNL A   1      31.653  31.424  25.910  1.00  0.00     0.163 HD
ATOM     33  O   UNL A   1      32.631  32.792  27.612  1.00  0.00    -0.269 OA
BRANCH  31  34
ATOM     34  C   UNL A   1      34.504  31.377  27.669  1.00  0.00     0.039 A 
ATOM     35  C   UNL A   1      34.783  30.057  28.011  1.00  0.00     0.014 A 
ATOM     36  C   UNL A   1      35.498  32.350  27.833  1.00  0.00     0.014 A 
ATOM     37  C   UNL A   1      35.939  29.756  28.721  1.00  0.00     0.010 A 
ATOM     38  C   UNL A   1      36.715  32.021  28.443  1.00  0.00     0.010 A 
ATOM     39  C   UNL A   1      36.921  30.733  28.952  1.00  0.00    -0.014 A 
BRANCH  39  40
ATOM     40  C   UNL A   1      38.138  30.362  29.723  1.00  0.00     0.031 A 
ATOM     41  C   UNL A   1      38.314  30.796  31.156  1.00  0.00     0.074 A 
ATOM     42  C   UNL A   1      39.051  29.553  29.150  1.00  0.00     0.049 A 
ATOM     43  N   UNL A   1      39.275  30.494  31.994  1.00  0.00    -0.248 NA
ATOM     44  C   UNL A   1      37.289  31.686  31.724  1.00  0.00     0.031 C 
ATOM     45  C   UNL A   1      38.996  29.074  27.767  1.00  0.00     0.029 A 
ATOM     46  N   UNL A   1      40.176  28.954  29.661  1.00  0.00    -0.354 N 
ATOM     47  C   UNL A   1      38.984  31.172  33.171  1.00  0.00     0.074 A 
ATOM     48  C   UNL A   1      37.770  31.922  32.937  1.00  0.00     0.031 C 
ATOM     49  C   UNL A   1      39.988  28.197  27.564  1.00  0.00     0.029 A 
ATOM     50  C   UNL A   1      40.794  28.104  28.776  1.00  0.00     0.049 A 
ATOM     51  H   UNL A   1      40.507  29.117  30.574  1.00  0.00     0.167 HD
ATOM     52  C   UNL A   1      39.663  31.158  34.342  1.00  0.00     0.037 A 
ATOM     53  C   UNL A   1      41.893  27.338  28.916  1.00  0.00     0.037 A 
ATOM     54  C   UNL A   1      40.847  30.377  34.587  1.00  0.00     0.049 A 
ATOM     55  C   UNL A   1      42.627  27.348  30.226  1.00  0.00     0.074 A 
ATOM     56  C   UNL A   1      41.576  30.264  35.757  1.00  0.00     0.029 A 
ATOM     57  N   UNL A   1      41.472  29.573  33.646  1.00  0.00    -0.354 N 
ATOM     58  N   UNL A   1      42.325  27.977  31.334  1.00  0.00    -0.248 NA
ATOM     59  C   UNL A   1      43.863  26.556  30.300  1.00  0.00     0.031 C 
ATOM     60  C   UNL A   1      42.667  29.425  35.514  1.00  0.00     0.029 A 
ATOM     61  C   UNL A   1      42.595  28.981  34.204  1.00  0.00     0.049 A 
ATOM     62  H   UNL A   1      41.165  29.442  32.720  1.00  0.00     0.167 HD
ATOM     63  C   UNL A   1      43.328  27.660  32.238  1.00  0.00     0.074 A 
ATOM     64  C   UNL A   1      44.235  26.758  31.558  1.00  0.00     0.031 C 
ATOM     65  C   UNL A   1      43.488  28.088  33.512  1.00  0.00     0.037 A 
BRANCH  52  66
ATOM     66  C   UNL A   1      39.152  32.011  35.467  1.00  0.00     0.064 A 
ATOM     67  C   UNL A   1      38.349  31.481  36.486  1.00  0.00     0.173 A 
ATOM     68  C   UNL A   1      39.556  33.351  35.577  1.00  0.00     0.173 A 
ATOM     69  F   UNL A   1      37.932  30.208  36.424  1.00  0.00    -0.203 F 
ATOM     70  C   UNL A   1      37.962  32.264  37.572  1.00  0.00     0.198 A 
ATOM     71  C   UNL A   1      39.187  34.124  36.676  1.00  0.00     0.198 A 
ATOM     72  F   UNL A   1      40.335  33.903  34.634  1.00  0.00    -0.203 F 
ATOM     73  F   UNL A   1      37.180  31.742  38.526  1.00  0.00    -0.200 F 
ATOM     74  C   UNL A   1      38.390  33.580  37.671  1.00  0.00     0.200 A 
ATOM     75  F   UNL A   1      39.616  35.389  36.778  1.00  0.00    -0.200 F 
ATOM     76  F   UNL A   1      38.037  34.323  38.728  1.00  0.00    -0.200 F 
ENDBRANCH  52  66
BRANCH  53  77
ATOM     77  C   UNL A   1      42.354  26.503  27.777  1.00  0.00     0.064 A 
ATOM     78  C   UNL A   1      41.831  25.222  27.560  1.00  0.00     0.173 A 
ATOM     79  C   UNL A   1      43.299  26.987  26.859  1.00  0.00     0.173 A 
ATOM     80  F   UNL A   1      40.940  24.708  28.421  1.00  0.00    -0.203 F 
ATOM     81  C   UNL A   1      42.235  24.455  26.469  1.00  0.00     0.198 A 
ATOM     82  C   UNL A   1      43.679  26.233  25.752  1.00  0.00     0.198 A 
ATOM     83  F   UNL A   1      43.827  28.209  27.020  1.00  0.00    -0.203 F 
ATOM     84  F   UNL A   1      41.740  23.222  26.297  1.00  0.00    -0.200 F 
ATOM     85  C   UNL A   1      43.151  24.966  25.559  1.00  0.00     0.200 A 
ATOM     86  F   UNL A   1      44.548  26.739  24.866  1.00  0.00    -0.200 F 
ATOM     87  F   UNL A   1      43.523  24.237  24.499  1.00  0.00    -0.200 F 
ENDBRANCH  53  77
BRANCH  65  88
ATOM     88  C   UNL A   1      44.687  27.595  34.264  1.00  0.00     0.064 A 
ATOM     89  C   UNL A   1      45.872  28.342  34.306  1.00  0.00     0.173 A 
ATOM     90  C   UNL A   1      44.623  26.412  35.014  1.00  0.00     0.173 A 
ATOM     91  F   UNL A   1      45.985  29.473  33.594  1.00  0.00    -0.203 F 
ATOM     92  C   UNL A   1      46.955  27.917  35.072  1.00  0.00     0.198 A 
ATOM     93  C   UNL A   1      45.698  26.004  35.797  1.00  0.00     0.198 A 
ATOM     94  F   UNL A   1      43.506  25.667  35.009  1.00  0.00    -0.203 F 
ATOM     95  F   UNL A   1      48.088  28.633  35.080  1.00  0.00    -0.200 F 
ATOM     96  C   UNL A   1      46.863  26.756  35.824  1.00  0.00     0.200 A 
ATOM     97  F   UNL A   1      45.603  24.888  36.534  1.00  0.00    -0.200 F 
ATOM     98  F   UNL A   1      47.900  26.359  36.575  1.00  0.00    -0.200 F 
ENDBRANCH  65  88
ENDBRANCH  39  40
ENDBRANCH  31  34
ENDBRANCH  29  30
ENDBRANCH   1  29
TORSDOF 12
ENDMDL
MODEL 2
REMARK VINA RESULT:     -13.7      0.373      1.182
REMARK SMILES Nc1oc2ccc(F)cc2c(=O)c1[C@@H]1[NH2+][C@H](C(=O)NCCCNC(=O)c2ccc(-c3c4nc(c(-c5c(F)c(F)c(F)c(F)c5F)c5ccc([nH]5)c(-c5c(F)c(F)c(F)c(F)c5F)c5nc(c(-c6c(F)c(F)c(F)c(F)c6F)c6ccc3[nH]6)C=C5)C=C4)cc2)CS1
REMARK SMILES IDX 21 1 20 2 19 3 17 4 18 5 16 7 14 8 15 9 90 10 89 13 13 14
REMARK SMILES IDX 2 15 3 16 4 17 11 18 5 19 10 20 12 21 6 22 9 23 7 24 8 25
REMARK SMILES IDX 1 26 22 29 23 30 24 31 25 33 26 34 27 35 88 36 28 37 87 38
REMARK SMILES IDX 29 39 30 40 31 41 81 42 32 43 86 44 80 45 82 46 33 47 85 48
REMARK SMILES IDX 79 49 78 50 34 52 66 53 46 54 65 55 47 56 50 57 64 58 83 59
REMARK SMILES IDX 48 60 49 61 63 63 84 64 51 65 35 66 36 67 44 68 37 69 38 70
REMARK SMILES IDX 42 71 45 72 39 73 40 74 43 75 41 76 67 77 68 78 76 79 69 80
REMARK SMILES IDX 70 81 74 82 77 83 71 84 72 85 75 86 73 87 52 88 53 89 61 90
REMARK SMILES IDX 54 91 55 92 59 93 62 94 56 95 57 96 60 97 58 98
REMARK H PARENT 19 6 15 11 15 12 1 27 1 28 23 32 82 51 50 62
REMARK Flexibility Score: inf
ROOT
ATOM      1  C   UNL A   1      31.999  28.532  26.517  1.00  0.00     0.042 C 
ENDROOT
BRANCH   1   2
ATOM      2  C   UNL A   1      31.704  27.327  25.628  1.00  0.00     0.118 C 
BRANCH   2   3
ATOM      3  N   UNL A   1      31.223  26.187  26.386  1.00  0.00    -0.351 N 
ATOM      4  C   UNL A   1      31.739  24.925  26.495  1.00  0.00     0.279 C 
ATOM      5  O   UNL A   1      31.150  24.145  27.251  1.00  0.00    -0.268 OA
ATOM      6  H   UNL A   1      30.398  26.345  26.900  1.00  0.00     0.163 HD
BRANCH   4   7
ATOM      7  C   UNL A   1      33.048  24.490  25.806  1.00  0.00     0.283 C 
ATOM      8  C   UNL A   1      34.252  22.456  25.211  1.00  0.00     0.283 C 
ATOM      9  N   UNL A   1      33.527  23.173  26.273  1.00  0.00    -0.320 N 
ATOM     10  S   UNL A   1      34.215  23.470  23.706  1.00  0.00    -0.087 SA
ATOM     11  H   UNL A   1      34.152  23.310  27.067  1.00  0.00     0.348 HD
ATOM     12  H   UNL A   1      32.716  22.616  26.540  1.00  0.00     0.348 HD
ATOM     13  C   UNL A   1      32.857  24.498  24.301  1.00  0.00     0.151 C 
BRANCH   8  14
ATOM     14  C   UNL A   1      33.668  21.061  25.077  1.00  0.00     0.128 A 
ATOM     15  C   UNL A   1      32.386  20.641  25.195  1.00  0.00     0.205 A 
ATOM     16  O   UNL A   1      32.007  19.309  25.218  1.00  0.00    -0.440 OA
ATOM     17  C   UNL A   1      32.957  18.333  25.190  1.00  0.00     0.140 A 
ATOM     18  C   UNL A   1      34.710  20.010  24.855  1.00  0.00     0.205 A 
ATOM     19  C   UNL A   1      32.528  17.017  25.378  1.00  0.00     0.051 A 
ATOM     20  C   UNL A   1      34.298  18.606  24.967  1.00  0.00     0.068 A 
ATOM     21  O   UNL A   1      35.883  20.286  24.626  1.00  0.00    -0.288 OA
ATOM     22  C   UNL A   1      33.450  15.973  25.310  1.00  0.00     0.043 A 
ATOM     23  C   UNL A   1      35.228  17.565  24.892  1.00  0.00     0.055 A 
ATOM     24  C   UNL A   1      34.790  16.257  25.061  1.00  0.00     0.124 A 
ATOM     25  F   UNL A   1      35.674  15.252  24.999  1.00  0.00    -0.207 F 
BRANCH  15  26
ATOM     26  N   UNL A   1      31.303  21.453  25.359  1.00  0.00    -0.369 N 
ATOM     27  H   UNL A   1      30.537  21.381  24.745  1.00  0.00     0.159 HD
ATOM     28  H   UNL A   1      31.288  22.111  26.091  1.00  0.00     0.159 HD
ENDBRANCH  15  26
ENDBRANCH   8  14
ENDBRANCH   4   7
ENDBRANCH   2   3
ENDBRANCH   1   2
BRANCH   1  29
ATOM     29  C   UNL A   1      32.759  29.649  25.824  1.00  0.00     0.118 C 
BRANCH  29  30
ATOM     30  N   UNL A   1      32.470  30.974  26.366  1.00  0.00    -0.352 N 
ATOM     31  C   UNL A   1      33.182  31.768  27.237  1.00  0.00     0.251 C 
ATOM     32  H   UNL A   1      31.622  31.366  26.056  1.00  0.00     0.163 HD
ATOM     33  O   UNL A   1      32.686  32.825  27.626  1.00  0.00    -0.269 OA
BRANCH  31  34
ATOM     34  C   UNL A   1      34.507  31.348  27.758  1.00  0.00     0.039 A 
ATOM     35  C   UNL A   1      34.790  30.020  28.062  1.00  0.00     0.014 A 
ATOM     36  C   UNL A   1      35.493  32.321  27.967  1.00  0.00     0.014 A 
ATOM     37  C   UNL A   1      35.938  29.703  28.778  1.00  0.00     0.010 A 
ATOM     38  C   UNL A   1      36.704  31.980  28.582  1.00  0.00     0.010 A 
ATOM     39  C   UNL A   1      36.910  30.678  29.054  1.00  0.00    -0.014 A 
BRANCH  39  40
ATOM     40  C   UNL A   1      38.119  30.290  29.830  1.00  0.00     0.031 A 
ATOM     41  C   UNL A   1      38.292  30.715  31.265  1.00  0.00     0.074 A 
ATOM     42  C   UNL A   1      39.026  29.472  29.257  1.00  0.00     0.049 A 
ATOM     43  N   UNL A   1      39.246  30.400  32.107  1.00  0.00    -0.248 NA
ATOM     44  C   UNL A   1      37.275  31.616  31.831  1.00  0.00     0.031 C 
ATOM     45  C   UNL A   1      38.973  29.000  27.872  1.00  0.00     0.029 A 
ATOM     46  N   UNL A   1      40.141  28.858  29.772  1.00  0.00    -0.354 N 
ATOM     47  C   UNL A   1      38.957  31.075  33.285  1.00  0.00     0.074 A 
ATOM     48  C   UNL A   1      37.752  31.840  33.048  1.00  0.00     0.031 C 
ATOM     49  C   UNL A   1      39.955  28.112  27.670  1.00  0.00     0.029 A 
ATOM     50  C   UNL A   1      40.754  28.005  28.886  1.00  0.00     0.049 A 
ATOM     51  H   UNL A   1      40.469  29.014  30.687  1.00  0.00     0.167 HD
ATOM     52  C   UNL A   1      39.629  31.049  34.460  1.00  0.00     0.037 A 
ATOM     53  C   UNL A   1      41.843  27.225  29.029  1.00  0.00     0.037 A 
ATOM     54  C   UNL A   1      40.803  30.254  34.707  1.00  0.00     0.049 A 
ATOM     55  C   UNL A   1      42.571  27.222  30.342  1.00  0.00     0.074 A 
ATOM     56  C   UNL A   1      41.524  30.127  35.881  1.00  0.00     0.029 A 
ATOM     57  N   UNL A   1      41.424  29.446  33.766  1.00  0.00    -0.354 N 
ATOM     58  N   UNL A   1      42.270  27.850  31.452  1.00  0.00    -0.248 NA
ATOM     59  C   UNL A   1      43.796  26.415  30.420  1.00  0.00     0.031 C 
ATOM     60  C   UNL A   1      42.607  29.277  35.639  1.00  0.00     0.029 A 
ATOM     61  C   UNL A   1      42.536  28.839  34.327  1.00  0.00     0.049 A 
ATOM     62  H   UNL A   1      41.120  29.322  32.838  1.00  0.00     0.167 HD
ATOM     63  C   UNL A   1      43.265  27.518  32.360  1.00  0.00     0.074 A 
ATOM     64  C   UNL A   1      44.165  26.608  31.680  1.00  0.00     0.031 C 
ATOM     65  C   UNL A   1      43.422  27.939  33.636  1.00  0.00     0.037 A 
BRANCH  52  66
ATOM     66  C   UNL A   1      39.122  31.903  35.585  1.00  0.00     0.064 A 
ATOM     67  C   UNL A   1      38.264  31.392  36.568  1.00  0.00     0.173 A 
ATOM     68  C   UNL A   1      39.584  33.221  35.735  1.00  0.00     0.173 A 
ATOM     69  F   UNL A   1      37.791  30.140  36.467  1.00  0.00    -0.203 F 
ATOM     70  C   UNL A   1      37.879  32.170  37.657  1.00  0.00     0.198 A 
ATOM     71  C   UNL A   1      39.215  33.989  36.838  1.00  0.00     0.198 A 
ATOM     72  F   UNL A   1      40.416  33.754  34.828  1.00  0.00    -0.203 F 
ATOM     73  F   UNL A   1      37.043  31.668  38.576  1.00  0.00    -0.200 F 
ATOM     74  C   UNL A   1      38.363  33.464  37.796  1.00  0.00     0.200 A 
ATOM     75  F   UNL A   1      39.698  35.230  36.979  1.00  0.00    -0.200 F 
ATOM     76  F   UNL A   1      38.011  34.202  38.857  1.00  0.00    -0.200 F 
ENDBRANCH  52  66
BRANCH  53  77
ATOM     77  C   UNL A   1      42.300  26.391  27.889  1.00  0.00     0.064 A 
ATOM     78  C   UNL A   1      41.757  25.120  27.659  1.00  0.00     0.173 A 
ATOM     79  C   UNL A   1      43.263  26.863  26.983  1.00  0.00     0.173 A 
ATOM     80  F   UNL A   1      40.849  24.616  28.507  1.00  0.00    -0.203 F 
ATOM     81  C   UNL A   1      42.158  24.354  26.566  1.00  0.00     0.198 A 
ATOM     82  C   UNL A   1      43.640  26.110  25.875  1.00  0.00     0.198 A 
ATOM     83  F   UNL A   1      43.810  28.075  27.157  1.00  0.00    -0.203 F 
ATOM     84  F   UNL A   1      41.643  23.131  26.381  1.00  0.00    -0.200 F 
ATOM     85  C   UNL A   1      43.091  24.854  25.669  1.00  0.00     0.200 A 
ATOM     86  F   UNL A   1      44.526  26.606  25.000  1.00  0.00    -0.200 F 
ATOM     87  F   UNL A   1      43.461  24.125  24.607  1.00  0.00    -0.200 F 
ENDBRANCH  53  77
BRANCH  65  88
ATOM     88  C   UNL A   1      44.612  27.429  34.392  1.00  0.00     0.064 A 
ATOM     89  C   UNL A   1      44.561  26.212  35.087  1.00  0.00     0.173 A 
ATOM     90  C   UNL A   1      45.833  28.117  34.352  1.00  0.00     0.173 A 
ATOM     91  F   UNL A   1      43.412  25.526  35.165  1.00  0.00    -0.203 F 
ATOM     92  C   UNL A   1      45.693  25.706  35.721  1.00  0.00     0.198 A 
ATOM     93  C   UNL A   1      46.967  27.596  34.965  1.00  0.00     0.198 A 
ATOM     94  F   UNL A   1      45.931  29.283  33.693  1.00  0.00    -0.203 F 
ATOM     95  F   UNL A   1      45.617  24.553  36.401  1.00  0.00    -0.200 F 
ATOM     96  C   UNL A   1      46.896  26.392  35.650  1.00  0.00     0.200 A 
ATOM     97  F   UNL A   1      48.133  28.253  34.885  1.00  0.00    -0.200 F 
ATOM     98  F   UNL A   1      47.988  25.893  36.245  1.00  0.00    -0.200 F 
ENDBRANCH  65  88
ENDBRANCH  39  40
ENDBRANCH  31  34
ENDBRANCH  29  30
ENDBRANCH   1  29
TORSDOF 12
ENDMDL
MODEL 3
REMARK VINA RESULT:     -13.3      1.136      1.303
REMARK SMILES Nc1oc2ccc(F)cc2c(=O)c1[C@@H]1[NH2+][C@H](C(=O)NCCCNC(=O)c2ccc(-c3c4nc(c(-c5c(F)c(F)c(F)c(F)c5F)c5ccc([nH]5)c(-c5c(F)c(F)c(F)c(F)c5F)c5nc(c(-c6c(F)c(F)c(F)c(F)c6F)c6ccc3[nH]6)C=C5)C=C4)cc2)CS1
REMARK SMILES IDX 21 1 20 2 19 3 17 4 18 5 16 7 14 8 15 9 90 10 89 13 13 14
REMARK SMILES IDX 2 15 3 16 4 17 11 18 5 19 10 20 12 21 6 22 9 23 7 24 8 25
REMARK SMILES IDX 1 26 22 29 23 30 24 31 25 33 26 34 27 35 88 36 28 37 87 38
REMARK SMILES IDX 29 39 30 40 31 41 81 42 32 43 86 44 80 45 82 46 33 47 85 48
REMARK SMILES IDX 79 49 78 50 34 52 66 53 46 54 65 55 47 56 50 57 64 58 83 59
REMARK SMILES IDX 48 60 49 61 63 63 84 64 51 65 35 66 36 67 44 68 37 69 38 70
REMARK SMILES IDX 42 71 45 72 39 73 40 74 43 75 41 76 67 77 68 78 76 79 69 80
REMARK SMILES IDX 70 81 74 82 77 83 71 84 72 85 75 86 73 87 52 88 53 89 61 90
REMARK SMILES IDX 54 91 55 92 59 93 62 94 56 95 57 96 60 97 58 98
REMARK H PARENT 19 6 15 11 15 12 1 27 1 28 23 32 82 51 50 62
REMARK Flexibility Score: inf
ROOT
ATOM      1  C   UNL A   1      32.298  29.414  24.479  1.00  0.00     0.042 C 
ENDROOT
BRANCH   1   2
ATOM      2  C   UNL A   1      30.947  28.739  24.262  1.00  0.00     0.118 C 
BRANCH   2   3
ATOM      3  N   UNL A   1      30.988  27.748  23.203  1.00  0.00    -0.351 N 
ATOM      4  C   UNL A   1      31.549  26.501  23.189  1.00  0.00     0.279 C 
ATOM      5  O   UNL A   1      31.403  25.835  22.159  1.00  0.00    -0.268 OA
ATOM      6  H   UNL A   1      30.545  28.015  22.365  1.00  0.00     0.163 HD
BRANCH   4   7
ATOM      7  C   UNL A   1      32.249  25.881  24.415  1.00  0.00     0.283 C 
ATOM      8  C   UNL A   1      32.764  23.692  25.356  1.00  0.00     0.283 C 
ATOM      9  N   UNL A   1      31.723  24.543  24.754  1.00  0.00    -0.320 N 
ATOM     10  S   UNL A   1      34.321  24.624  25.384  1.00  0.00    -0.087 SA
ATOM     11  H   UNL A   1      30.956  24.647  25.418  1.00  0.00     0.348 HD
ATOM     12  H   UNL A   1      31.403  24.099  23.895  1.00  0.00     0.348 HD
ATOM     13  C   UNL A   1      33.747  25.832  24.175  1.00  0.00     0.151 C 
BRANCH   8  14
ATOM     14  C   UNL A   1      32.803  22.370  24.611  1.00  0.00     0.128 A 
ATOM     15  C   UNL A   1      32.602  22.105  23.298  1.00  0.00     0.205 A 
ATOM     16  O   UNL A   1      32.498  20.829  22.772  1.00  0.00    -0.440 OA
ATOM     17  C   UNL A   1      32.528  19.749  23.602  1.00  0.00     0.140 A 
ATOM     18  C   UNL A   1      33.028  21.197  25.513  1.00  0.00     0.205 A 
ATOM     19  C   UNL A   1      32.258  18.500  23.038  1.00  0.00     0.051 A 
ATOM     20  C   UNL A   1      32.830  19.855  24.951  1.00  0.00     0.068 A 
ATOM     21  O   UNL A   1      33.327  21.326  26.695  1.00  0.00    -0.288 OA
ATOM     22  C   UNL A   1      32.323  17.355  23.830  1.00  0.00     0.043 A 
ATOM     23  C   UNL A   1      32.903  18.712  25.751  1.00  0.00     0.055 A 
ATOM     24  C   UNL A   1      32.651  17.472  25.178  1.00  0.00     0.124 A 
ATOM     25  F   UNL A   1      32.711  16.369  25.937  1.00  0.00    -0.207 F 
BRANCH  15  26
ATOM     26  N   UNL A   1      32.422  23.044  22.324  1.00  0.00    -0.369 N 
ATOM     27  H   UNL A   1      33.201  23.437  21.870  1.00  0.00     0.159 HD
ATOM     28  H   UNL A   1      31.512  23.327  22.076  1.00  0.00     0.159 HD
ENDBRANCH  15  26
ENDBRANCH   8  14
ENDBRANCH   4   7
ENDBRANCH   2   3
ENDBRANCH   1   2
BRANCH   1  29
ATOM     29  C   UNL A   1      32.671  29.612  25.938  1.00  0.00     0.118 C 
BRANCH  29  30
ATOM     30  N   UNL A   1      32.420  30.965  26.426  1.00  0.00    -0.352 N 
ATOM     31  C   UNL A   1      33.162  31.780  27.251  1.00  0.00     0.251 C 
ATOM     32  H   UNL A   1      31.575  31.362  26.112  1.00  0.00     0.163 HD
ATOM     33  O   UNL A   1      32.696  32.863  27.601  1.00  0.00    -0.269 OA
BRANCH  31  34
ATOM     34  C   UNL A   1      34.486  31.353  27.770  1.00  0.00     0.039 A 
ATOM     35  C   UNL A   1      34.761  30.024  28.080  1.00  0.00     0.014 A 
ATOM     36  C   UNL A   1      35.480  32.320  27.970  1.00  0.00     0.014 A 
ATOM     37  C   UNL A   1      35.909  29.703  28.794  1.00  0.00     0.010 A 
ATOM     38  C   UNL A   1      36.690  31.974  28.583  1.00  0.00     0.010 A 
ATOM     39  C   UNL A   1      36.889  30.673  29.061  1.00  0.00    -0.014 A 
BRANCH  39  40
ATOM     40  C   UNL A   1      38.098  30.280  29.835  1.00  0.00     0.031 A 
ATOM     41  C   UNL A   1      38.270  30.696  31.273  1.00  0.00     0.074 A 
ATOM     42  C   UNL A   1      39.006  29.468  29.258  1.00  0.00     0.049 A 
ATOM     43  N   UNL A   1      39.223  30.375  32.114  1.00  0.00    -0.248 NA
ATOM     44  C   UNL A   1      37.251  31.591  31.845  1.00  0.00     0.031 C 
ATOM     45  C   UNL A   1      38.954  29.006  27.869  1.00  0.00     0.029 A 
ATOM     46  N   UNL A   1      40.121  28.851  29.769  1.00  0.00    -0.354 N 
ATOM     47  C   UNL A   1      38.932  31.042  33.296  1.00  0.00     0.074 A 
ATOM     48  C   UNL A   1      37.727  31.807  33.065  1.00  0.00     0.031 C 
ATOM     49  C   UNL A   1      39.937  28.120  27.662  1.00  0.00     0.029 A 
ATOM     50  C   UNL A   1      40.735  28.005  28.878  1.00  0.00     0.049 A 
ATOM     51  H   UNL A   1      40.448  29.000  30.685  1.00  0.00     0.167 HD
ATOM     52  C   UNL A   1      39.604  31.008  34.472  1.00  0.00     0.037 A 
ATOM     53  C   UNL A   1      41.825  27.225  29.016  1.00  0.00     0.037 A 
ATOM     54  C   UNL A   1      40.778  30.212  34.714  1.00  0.00     0.049 A 
ATOM     55  C   UNL A   1      42.552  27.213  30.329  1.00  0.00     0.074 A 
ATOM     56  C   UNL A   1      41.499  30.077  35.887  1.00  0.00     0.029 A 
ATOM     57  N   UNL A   1      41.400  29.411  33.768  1.00  0.00    -0.354 N 
ATOM     58  N   UNL A   1      42.250  27.833  31.443  1.00  0.00    -0.248 NA
ATOM     59  C   UNL A   1      43.778  26.407  30.402  1.00  0.00     0.031 C 
ATOM     60  C   UNL A   1      42.582  29.230  35.641  1.00  0.00     0.029 A 
ATOM     61  C   UNL A   1      42.513  28.801  34.326  1.00  0.00     0.049 A 
ATOM     62  H   UNL A   1      41.097  29.294  32.839  1.00  0.00     0.167 HD
ATOM     63  C   UNL A   1      43.244  27.495  32.349  1.00  0.00     0.074 A 
ATOM     64  C   UNL A   1      44.145  26.591  31.664  1.00  0.00     0.031 C 
ATOM     65  C   UNL A   1      43.400  27.907  33.628  1.00  0.00     0.037 A 
BRANCH  52  66
ATOM     66  C   UNL A   1      39.096  31.854  35.603  1.00  0.00     0.064 A 
ATOM     67  C   UNL A   1      38.244  31.332  36.586  1.00  0.00     0.173 A 
ATOM     68  C   UNL A   1      39.549  33.173  35.758  1.00  0.00     0.173 A 
ATOM     69  F   UNL A   1      37.779  30.078  36.481  1.00  0.00    -0.203 F 
ATOM     70  C   UNL A   1      37.857  32.103  37.680  1.00  0.00     0.198 A 
ATOM     71  C   UNL A   1      39.180  33.934  36.865  1.00  0.00     0.198 A 
ATOM     72  F   UNL A   1      40.375  33.716  34.851  1.00  0.00    -0.203 F 
ATOM     73  F   UNL A   1      37.028  31.591  38.600  1.00  0.00    -0.200 F 
ATOM     74  C   UNL A   1      38.334  33.399  37.824  1.00  0.00     0.200 A 
ATOM     75  F   UNL A   1      39.655  35.178  37.010  1.00  0.00    -0.200 F 
ATOM     76  F   UNL A   1      37.981  34.130  38.889  1.00  0.00    -0.200 F 
ENDBRANCH  52  66
BRANCH  53  77
ATOM     77  C   UNL A   1      42.284  26.399  27.870  1.00  0.00     0.064 A 
ATOM     78  C   UNL A   1      41.731  25.136  27.621  1.00  0.00     0.173 A 
ATOM     79  C   UNL A   1      43.257  26.873  26.976  1.00  0.00     0.173 A 
ATOM     80  F   UNL A   1      40.812  24.631  28.457  1.00  0.00    -0.203 F 
ATOM     81  C   UNL A   1      42.134  24.378  26.523  1.00  0.00     0.198 A 
ATOM     82  C   UNL A   1      43.637  26.129  25.863  1.00  0.00     0.198 A 
ATOM     83  F   UNL A   1      43.814  28.078  27.168  1.00  0.00    -0.203 F 
ATOM     84  F   UNL A   1      41.609  23.162  26.321  1.00  0.00    -0.200 F 
ATOM     85  C   UNL A   1      43.078  24.880  25.639  1.00  0.00     0.200 A 
ATOM     86  F   UNL A   1      44.534  26.626  25.001  1.00  0.00    -0.200 F 
ATOM     87  F   UNL A   1      43.450  24.159  24.572  1.00  0.00    -0.200 F 
ENDBRANCH  53  77
BRANCH  65  88
ATOM     88  C   UNL A   1      44.590  27.393  34.382  1.00  0.00     0.064 A 
ATOM     89  C   UNL A   1      45.786  28.122  34.432  1.00  0.00     0.173 A 
ATOM     90  C   UNL A   1      44.506  26.207  35.126  1.00  0.00     0.173 A 
ATOM     91  F   UNL A   1      45.917  29.255  33.726  1.00  0.00    -0.203 F 
ATOM     92  C   UNL A   1      46.860  27.677  35.199  1.00  0.00     0.198 A 
ATOM     93  C   UNL A   1      45.573  25.779  35.910  1.00  0.00     0.198 A 
ATOM     94  F   UNL A   1      43.379  25.478  35.114  1.00  0.00    -0.203 F 
ATOM     95  F   UNL A   1      48.003  28.377  35.214  1.00  0.00    -0.200 F 
ATOM     96  C   UNL A   1      46.749  26.514  35.944  1.00  0.00     0.200 A 
ATOM     97  F   UNL A   1      45.460  24.661  36.641  1.00  0.00    -0.200 F 
ATOM     98  F   UNL A   1      47.777  26.098  36.696  1.00  0.00    -0.200 F 
ENDBRANCH  65  88
ENDBRANCH  39  40
ENDBRANCH  31  34
ENDBRANCH  29  30
ENDBRANCH   1  29
TORSDOF 12
ENDMDL
