MODEL 1
REMARK VINA RESULT:     -12.9      0.000      0.000
REMARK SMILES CCN1C(=O)/C(=C/c2ccccc2O[C@H](C)C(=O)NCCCNC(=O)c2ccc(-c3c4nc(c(-c5c(F)c(F)c(F)c(F)c5F)c5ccc([nH]5)c(-c5c(F)c(F)c(F)c(F)c5F)c5nc(c(-c6c(F)c(F)c(F)c(F)c6F)c6ccc3[nH]6)C=C5)C=C4)cc2)S/C1=[NH+]\c1ccc(C)cc1O
REMARK SMILES IDX 17 1 18 2 19 3 15 5 16 6 14 7 13 8 8 9 9 10 10 11 12 12
REMARK SMILES IDX 11 13 7 14 3 15 4 16 90 17 5 18 6 19 89 20 91 21 2 23 1 24
REMARK SMILES IDX 92 25 93 26 98 27 94 28 97 29 95 30 96 31 99 32 20 34 21 35
REMARK SMILES IDX 22 36 23 37 24 38 25 40 26 41 27 42 88 43 28 44 87 45 29 46
REMARK SMILES IDX 30 47 31 48 81 49 32 50 86 51 80 52 82 53 33 54 85 55 79 56
REMARK SMILES IDX 78 57 34 59 66 60 46 61 65 62 47 63 50 64 64 65 83 66 48 67
REMARK SMILES IDX 49 68 63 70 84 71 51 72 35 73 36 74 44 75 37 76 38 77 42 78
REMARK SMILES IDX 45 79 39 80 40 81 43 82 41 83 67 84 68 85 76 86 69 87 70 88
REMARK SMILES IDX 74 89 77 90 71 91 72 92 75 93 73 94 52 95 53 96 61 97 54 98
REMARK SMILES IDX 55 99 59 100 62 101 56 102 57 103 60 104 58 105
REMARK H PARENT 19 4 91 22 99 33 23 39 82 58 50 69
REMARK Flexibility Score: inf
ROOT
ATOM      1  C   UNL A   1      34.218  21.306  25.067  1.00  0.00     0.260 C 
ATOM      2  O   UNL A   1      33.334  20.511  24.736  1.00  0.00    -0.271 OA
ATOM      3  N   UNL A   1      35.450  20.793  25.340  1.00  0.00    -0.353 N 
ATOM      4  H   UNL A   1      35.499  19.810  25.368  1.00  0.00     0.163 HD
ENDROOT
BRANCH   1   5
ATOM      5  C   UNL A   1      33.937  22.820  25.164  1.00  0.00     0.258 C 
ATOM      6  C   UNL A   1      33.996  23.233  26.649  1.00  0.00     0.064 C 
BRANCH   5   7
ATOM      7  O   UNL A   1      34.504  23.831  24.332  1.00  0.00    -0.480 OA
BRANCH   7   8
ATOM      8  C   UNL A   1      33.863  24.333  23.235  1.00  0.00     0.127 A 
ATOM      9  C   UNL A   1      33.602  25.716  23.221  1.00  0.00     0.018 A 
ATOM     10  C   UNL A   1      33.144  26.339  22.050  1.00  0.00     0.012 A 
ATOM     11  C   UNL A   1      32.838  25.575  20.927  1.00  0.00     0.001 A 
ATOM     12  C   UNL A   1      33.378  23.572  22.172  1.00  0.00     0.047 A 
ATOM     13  C   UNL A   1      32.897  24.187  21.010  1.00  0.00     0.004 A 
BRANCH   9  14
ATOM     14  C   UNL A   1      33.555  26.478  24.474  1.00  0.00     0.036 C 
ATOM     15  N   UNL A   1      32.312  29.437  26.091  1.00  0.00    -0.186 N 
ATOM     16  C   UNL A   1      33.141  28.335  26.021  1.00  0.00     0.348 C 
ATOM     17  C   UNL A   1      31.533  29.685  24.987  1.00  0.00     0.324 C 
ATOM     18  O   UNL A   1      33.943  27.973  26.863  1.00  0.00    -0.240 OA
ATOM     19  C   UNL A   1      32.935  27.633  24.728  1.00  0.00     0.110 C 
ATOM     20  S   UNL A   1      31.868  28.511  23.732  1.00  0.00     0.007 SA
ATOM     21  N   UNL A   1      30.666  30.644  24.947  1.00  0.00    -0.231 N 
ATOM     22  H   UNL A   1      30.532  31.205  25.745  1.00  0.00     0.313 HD
BRANCH  15  23
ATOM     23  C   UNL A   1      32.377  30.331  27.242  1.00  0.00     0.244 C 
ATOM     24  C   UNL A   1      33.597  31.244  27.237  1.00  0.00     0.055 C 
ENDBRANCH  15  23
BRANCH  21  25
ATOM     25  C   UNL A   1      29.910  30.905  23.786  1.00  0.00     0.167 A 
ATOM     26  C   UNL A   1      29.566  29.839  22.951  1.00  0.00     0.056 A 
ATOM     27  C   UNL A   1      29.545  32.200  23.385  1.00  0.00     0.162 A 
ATOM     28  C   UNL A   1      28.838  30.058  21.775  1.00  0.00     0.008 A 
ATOM     29  C   UNL A   1      28.790  32.424  22.237  1.00  0.00     0.054 A 
ATOM     30  C   UNL A   1      28.429  31.349  21.420  1.00  0.00    -0.047 A 
ATOM     31  C   UNL A   1      27.665  31.578  20.149  1.00  0.00     0.044 C 
BRANCH  27  32
ATOM     32  O   UNL A   1      29.930  33.302  24.103  1.00  0.00    -0.504 OA
ATOM     33  H   UNL A   1      30.574  33.218  24.779  1.00  0.00     0.293 HD
ENDBRANCH  27  32
ENDBRANCH  21  25
ENDBRANCH   9  14
ENDBRANCH   7   8
ENDBRANCH   5   7
ENDBRANCH   1   5
BRANCH   3  34
ATOM     34  C   UNL A   1      36.702  21.486  25.595  1.00  0.00     0.118 C 
BRANCH  34  35
ATOM     35  C   UNL A   1      37.889  20.734  25.030  1.00  0.00     0.042 C 
BRANCH  35  36
ATOM     36  C   UNL A   1      39.128  20.821  25.909  1.00  0.00     0.118 C 
BRANCH  36  37
ATOM     37  N   UNL A   1      39.955  19.618  25.890  1.00  0.00    -0.352 N 
ATOM     38  C   UNL A   1      41.306  19.495  26.123  1.00  0.00     0.251 C 
ATOM     39  H   UNL A   1      39.482  18.781  25.681  1.00  0.00     0.163 HD
ATOM     40  O   UNL A   1      41.878  18.423  25.965  1.00  0.00    -0.269 OA
BRANCH  38  41
ATOM     41  C   UNL A   1      42.067  20.697  26.521  1.00  0.00     0.039 A 
ATOM     42  C   UNL A   1      42.581  21.534  25.531  1.00  0.00     0.014 A 
ATOM     43  C   UNL A   1      42.168  21.044  27.869  1.00  0.00     0.014 A 
ATOM     44  C   UNL A   1      43.110  22.774  25.893  1.00  0.00     0.010 A 
ATOM     45  C   UNL A   1      42.577  22.324  28.213  1.00  0.00     0.010 A 
ATOM     46  C   UNL A   1      43.057  23.202  27.230  1.00  0.00    -0.014 A 
BRANCH  46  47
ATOM     47  C   UNL A   1      43.505  24.561  27.631  1.00  0.00     0.031 A 
ATOM     48  C   UNL A   1      42.485  25.605  27.993  1.00  0.00     0.074 A 
ATOM     49  C   UNL A   1      44.815  24.874  27.593  1.00  0.00     0.049 A 
ATOM     50  N   UNL A   1      42.660  26.868  28.286  1.00  0.00    -0.248 NA
ATOM     51  C   UNL A   1      41.075  25.183  27.984  1.00  0.00     0.031 C 
ATOM     52  C   UNL A   1      45.895  23.968  27.197  1.00  0.00     0.029 A 
ATOM     53  N   UNL A   1      45.463  26.049  27.884  1.00  0.00    -0.354 N 
ATOM     54  C   UNL A   1      41.386  27.389  28.476  1.00  0.00     0.074 A 
ATOM     55  C   UNL A   1      40.446  26.329  28.191  1.00  0.00     0.031 C 
ATOM     56  C   UNL A   1      47.070  24.607  27.303  1.00  0.00     0.029 A 
ATOM     57  C   UNL A   1      46.827  25.981  27.730  1.00  0.00     0.049 A 
ATOM     58  H   UNL A   1      44.995  26.864  28.176  1.00  0.00     0.167 HD
ATOM     59  C   UNL A   1      41.033  28.630  28.883  1.00  0.00     0.037 A 
ATOM     60  C   UNL A   1      47.773  26.925  27.905  1.00  0.00     0.037 A 
ATOM     61  C   UNL A   1      41.976  29.671  29.193  1.00  0.00     0.049 A 
ATOM     62  C   UNL A   1      47.353  28.299  28.357  1.00  0.00     0.074 A 
ATOM     63  C   UNL A   1      41.729  30.943  29.676  1.00  0.00     0.029 A 
ATOM     64  N   UNL A   1      43.352  29.557  29.046  1.00  0.00    -0.354 N 
ATOM     65  N   UNL A   1      46.151  28.758  28.610  1.00  0.00    -0.248 NA
ATOM     66  C   UNL A   1      48.424  29.286  28.554  1.00  0.00     0.031 C 
ATOM     67  C   UNL A   1      42.949  31.619  29.769  1.00  0.00     0.029 A 
ATOM     68  C   UNL A   1      43.964  30.747  29.405  1.00  0.00     0.049 A 
ATOM     69  H   UNL A   1      43.822  28.750  28.734  1.00  0.00     0.167 HD
ATOM     70  C   UNL A   1      46.322  30.071  29.025  1.00  0.00     0.074 A 
ATOM     71  C   UNL A   1      47.747  30.331  29.006  1.00  0.00     0.031 C 
ATOM     72  C   UNL A   1      45.386  30.982  29.388  1.00  0.00     0.037 A 
BRANCH  59  73
ATOM     73  C   UNL A   1      39.566  28.925  29.020  1.00  0.00     0.064 A 
ATOM     74  C   UNL A   1      38.903  28.816  30.252  1.00  0.00     0.173 A 
ATOM     75  C   UNL A   1      38.819  29.348  27.910  1.00  0.00     0.173 A 
ATOM     76  F   UNL A   1      39.566  28.403  31.343  1.00  0.00    -0.203 F 
ATOM     77  C   UNL A   1      37.541  29.083  30.361  1.00  0.00     0.198 A 
ATOM     78  C   UNL A   1      37.465  29.650  28.030  1.00  0.00     0.198 A 
ATOM     79  F   UNL A   1      39.402  29.473  26.709  1.00  0.00    -0.203 F 
ATOM     80  F   UNL A   1      36.917  28.912  31.535  1.00  0.00    -0.200 F 
ATOM     81  C   UNL A   1      36.824  29.507  29.252  1.00  0.00     0.200 A 
ATOM     82  F   UNL A   1      36.777  30.074  26.961  1.00  0.00    -0.200 F 
ATOM     83  F   UNL A   1      35.515  29.773  29.360  1.00  0.00    -0.200 F 
ENDBRANCH  59  73
BRANCH  60  84
ATOM     84  C   UNL A   1      49.206  26.599  27.680  1.00  0.00     0.064 A 
ATOM     85  C   UNL A   1      50.058  26.311  28.756  1.00  0.00     0.173 A 
ATOM     86  C   UNL A   1      49.759  26.576  26.391  1.00  0.00     0.173 A 
ATOM     87  F   UNL A   1      49.584  26.338  30.011  1.00  0.00    -0.203 F 
ATOM     88  C   UNL A   1      51.411  26.041  28.555  1.00  0.00     0.198 A 
ATOM     89  C   UNL A   1      51.104  26.274  26.188  1.00  0.00     0.198 A 
ATOM     90  F   UNL A   1      48.988  26.837  25.325  1.00  0.00    -0.203 F 
ATOM     91  F   UNL A   1      52.212  25.823  29.606  1.00  0.00    -0.200 F 
ATOM     92  C   UNL A   1      51.931  26.017  27.270  1.00  0.00     0.200 A 
ATOM     93  F   UNL A   1      51.598  26.234  24.943  1.00  0.00    -0.200 F 
ATOM     94  F   UNL A   1      53.230  25.753  27.075  1.00  0.00    -0.200 F 
ENDBRANCH  60  84
BRANCH  72  95
ATOM     95  C   UNL A   1      45.871  32.331  29.835  1.00  0.00     0.064 A 
ATOM     96  C   UNL A   1      46.009  33.401  28.940  1.00  0.00     0.173 A 
ATOM     97  C   UNL A   1      46.160  32.565  31.189  1.00  0.00     0.173 A 
ATOM     98  F   UNL A   1      45.759  33.226  27.633  1.00  0.00    -0.203 F 
ATOM     99  C   UNL A   1      46.446  34.649  29.378  1.00  0.00     0.198 A 
ATOM    100  C   UNL A   1      46.562  33.823  31.629  1.00  0.00     0.198 A 
ATOM    101  F   UNL A   1      46.037  31.578  32.089  1.00  0.00    -0.203 F 
ATOM    102  F   UNL A   1      46.621  35.642  28.496  1.00  0.00    -0.200 F 
ATOM    103  C   UNL A   1      46.713  34.860  30.722  1.00  0.00     0.200 A 
ATOM    104  F   UNL A   1      46.802  34.030  32.931  1.00  0.00    -0.200 F 
ATOM    105  F   UNL A   1      47.123  36.065  31.144  1.00  0.00    -0.200 F 
ENDBRANCH  72  95
ENDBRANCH  46  47
ENDBRANCH  38  41
ENDBRANCH  36  37
ENDBRANCH  35  36
ENDBRANCH  34  35
ENDBRANCH   3  34
TORSDOF 16
ENDMDL
MODEL 2
REMARK VINA RESULT:     -12.7      5.763      9.646
REMARK SMILES CCN1C(=O)/C(=C/c2ccccc2O[C@H](C)C(=O)NCCCNC(=O)c2ccc(-c3c4nc(c(-c5c(F)c(F)c(F)c(F)c5F)c5ccc([nH]5)c(-c5c(F)c(F)c(F)c(F)c5F)c5nc(c(-c6c(F)c(F)c(F)c(F)c6F)c6ccc3[nH]6)C=C5)C=C4)cc2)S/C1=[NH+]\c1ccc(C)cc1O
REMARK SMILES IDX 17 1 18 2 19 3 15 5 16 6 14 7 13 8 8 9 9 10 10 11 12 12
REMARK SMILES IDX 11 13 7 14 3 15 4 16 90 17 5 18 6 19 89 20 91 21 2 23 1 24
REMARK SMILES IDX 92 25 93 26 98 27 94 28 97 29 95 30 96 31 99 32 20 34 21 35
REMARK SMILES IDX 22 36 23 37 24 38 25 40 26 41 27 42 88 43 28 44 87 45 29 46
REMARK SMILES IDX 30 47 31 48 81 49 32 50 86 51 80 52 82 53 33 54 85 55 79 56
REMARK SMILES IDX 78 57 34 59 66 60 46 61 65 62 47 63 50 64 64 65 83 66 48 67
REMARK SMILES IDX 49 68 63 70 84 71 51 72 35 73 36 74 44 75 37 76 38 77 42 78
REMARK SMILES IDX 45 79 39 80 40 81 43 82 41 83 67 84 68 85 76 86 69 87 70 88
REMARK SMILES IDX 74 89 77 90 71 91 72 92 75 93 73 94 52 95 53 96 61 97 54 98
REMARK SMILES IDX 55 99 59 100 62 101 56 102 57 103 60 104 58 105
REMARK H PARENT 19 4 91 22 99 33 23 39 82 58 50 69
REMARK Flexibility Score: inf
ROOT
ATOM      1  C   UNL A   1      42.422  20.412  25.863  1.00  0.00     0.260 C 
ATOM      2  O   UNL A   1      42.686  19.485  25.092  1.00  0.00    -0.271 OA
ATOM      3  N   UNL A   1      41.130  20.531  26.279  1.00  0.00    -0.353 N 
ATOM      4  H   UNL A   1      40.487  19.936  25.829  1.00  0.00     0.163 HD
ENDROOT
BRANCH   1   5
ATOM      5  C   UNL A   1      43.514  21.395  26.336  1.00  0.00     0.258 C 
ATOM      6  C   UNL A   1      44.697  21.323  25.349  1.00  0.00     0.064 C 
BRANCH   5   7
ATOM      7  O   UNL A   1      43.299  22.734  26.776  1.00  0.00    -0.480 OA
BRANCH   7   8
ATOM      8  C   UNL A   1      43.708  23.187  27.999  1.00  0.00     0.127 A 
ATOM      9  C   UNL A   1      44.537  24.325  28.017  1.00  0.00     0.018 A 
ATOM     10  C   UNL A   1      44.823  24.974  29.228  1.00  0.00     0.012 A 
ATOM     11  C   UNL A   1      44.382  24.432  30.432  1.00  0.00     0.001 A 
ATOM     12  C   UNL A   1      43.437  22.564  29.216  1.00  0.00     0.047 A 
ATOM     13  C   UNL A   1      43.742  23.196  30.428  1.00  0.00     0.004 A 
BRANCH   9  14
ATOM     14  C   UNL A   1      45.315  24.699  26.830  1.00  0.00     0.036 C 
ATOM     15  N   UNL A   1      46.528  27.426  24.829  1.00  0.00    -0.186 N 
ATOM     16  C   UNL A   1      46.255  26.090  25.043  1.00  0.00     0.348 C 
ATOM     17  C   UNL A   1      46.105  28.299  25.802  1.00  0.00     0.324 C 
ATOM     18  O   UNL A   1      46.496  25.168  24.285  1.00  0.00    -0.240 OA
ATOM     19  C   UNL A   1      45.585  25.918  26.358  1.00  0.00     0.110 C 
ATOM     20  S   UNL A   1      45.257  27.432  27.067  1.00  0.00     0.007 SA
ATOM     21  N   UNL A   1      46.354  29.567  25.758  1.00  0.00    -0.231 N 
ATOM     22  H   UNL A   1      46.893  29.926  25.016  1.00  0.00     0.313 HD
BRANCH  15  23
ATOM     23  C   UNL A   1      47.127  27.860  23.571  1.00  0.00     0.244 C 
ATOM     24  C   UNL A   1      48.599  27.487  23.437  1.00  0.00     0.055 C 
ENDBRANCH  15  23
BRANCH  21  25
ATOM     25  C   UNL A   1      45.871  30.447  26.748  1.00  0.00     0.167 A 
ATOM     26  C   UNL A   1      44.557  30.911  26.656  1.00  0.00     0.056 A 
ATOM     27  C   UNL A   1      46.673  30.944  27.788  1.00  0.00     0.162 A 
ATOM     28  C   UNL A   1      44.046  31.807  27.603  1.00  0.00     0.008 A 
ATOM     29  C   UNL A   1      46.164  31.806  28.755  1.00  0.00     0.054 A 
ATOM     30  C   UNL A   1      44.840  32.246  28.669  1.00  0.00    -0.047 A 
ATOM     31  C   UNL A   1      44.292  33.220  29.670  1.00  0.00     0.044 C 
BRANCH  27  32
ATOM     32  O   UNL A   1      47.998  30.609  27.886  1.00  0.00    -0.504 OA
ATOM     33  H   UNL A   1      48.620  31.241  28.188  1.00  0.00     0.293 HD
ENDBRANCH  27  32
ENDBRANCH  21  25
ENDBRANCH   9  14
ENDBRANCH   7   8
ENDBRANCH   5   7
ENDBRANCH   1   5
BRANCH   3  34
ATOM     34  C   UNL A   1      40.564  21.409  27.289  1.00  0.00     0.118 C 
BRANCH  34  35
ATOM     35  C   UNL A   1      39.607  22.418  26.687  1.00  0.00     0.042 C 
BRANCH  35  36
ATOM     36  C   UNL A   1      40.068  23.858  26.860  1.00  0.00     0.118 C 
BRANCH  36  37
ATOM     37  N   UNL A   1      41.049  24.290  25.869  1.00  0.00    -0.352 N 
ATOM     38  C   UNL A   1      41.717  25.490  25.782  1.00  0.00     0.251 C 
ATOM     39  H   UNL A   1      41.261  23.633  25.167  1.00  0.00     0.163 HD
ATOM     40  O   UNL A   1      42.438  25.742  24.823  1.00  0.00    -0.269 OA
BRANCH  38  41
ATOM     41  C   UNL A   1      41.509  26.494  26.844  1.00  0.00     0.039 A 
ATOM     42  C   UNL A   1      41.422  26.072  28.171  1.00  0.00     0.014 A 
ATOM     43  C   UNL A   1      41.514  27.853  26.529  1.00  0.00     0.014 A 
ATOM     44  C   UNL A   1      41.441  27.023  29.192  1.00  0.00     0.010 A 
ATOM     45  C   UNL A   1      41.660  28.786  27.546  1.00  0.00     0.010 A 
ATOM     46  C   UNL A   1      41.621  28.383  28.888  1.00  0.00    -0.014 A 
BRANCH  46  47
ATOM     47  C   UNL A   1      41.761  29.407  29.955  1.00  0.00     0.031 A 
ATOM     48  C   UNL A   1      40.602  30.308  30.280  1.00  0.00     0.074 A 
ATOM     49  C   UNL A   1      42.948  29.576  30.572  1.00  0.00     0.049 A 
ATOM     50  N   UNL A   1      40.544  31.317  31.111  1.00  0.00    -0.248 NA
ATOM     51  C   UNL A   1      39.351  30.070  29.541  1.00  0.00     0.031 C 
ATOM     52  C   UNL A   1      44.165  28.807  30.300  1.00  0.00     0.029 A 
ATOM     53  N   UNL A   1      43.329  30.458  31.552  1.00  0.00    -0.354 N 
ATOM     54  C   UNL A   1      39.264  31.839  30.979  1.00  0.00     0.074 A 
ATOM     55  C   UNL A   1      38.603  31.087  29.935  1.00  0.00     0.031 C 
ATOM     56  C   UNL A   1      45.144  29.227  31.116  1.00  0.00     0.029 A 
ATOM     57  C   UNL A   1      44.642  30.324  31.937  1.00  0.00     0.049 A 
ATOM     58  H   UNL A   1      42.720  31.125  31.943  1.00  0.00     0.167 HD
ATOM     59  C   UNL A   1      38.680  32.834  31.685  1.00  0.00     0.037 A 
ATOM     60  C   UNL A   1      45.360  31.014  32.845  1.00  0.00     0.037 A 
ATOM     61  C   UNL A   1      39.333  33.558  32.743  1.00  0.00     0.049 A 
ATOM     62  C   UNL A   1      44.686  32.118  33.617  1.00  0.00     0.074 A 
ATOM     63  C   UNL A   1      38.813  34.539  33.567  1.00  0.00     0.029 A 
ATOM     64  N   UNL A   1      40.657  33.377  33.119  1.00  0.00    -0.354 N 
ATOM     65  N   UNL A   1      43.451  32.551  33.539  1.00  0.00    -0.248 NA
ATOM     66  C   UNL A   1      45.507  32.826  34.610  1.00  0.00     0.031 C 
ATOM     67  C   UNL A   1      39.836  34.992  34.404  1.00  0.00     0.029 A 
ATOM     68  C   UNL A   1      40.977  34.249  34.147  1.00  0.00     0.049 A 
ATOM     69  H   UNL A   1      41.275  32.725  32.716  1.00  0.00     0.167 HD
ATOM     70  C   UNL A   1      43.337  33.555  34.489  1.00  0.00     0.074 A 
ATOM     71  C   UNL A   1      44.624  33.657  35.144  1.00  0.00     0.031 C 
ATOM     72  C   UNL A   1      42.264  34.327  34.793  1.00  0.00     0.037 A 
BRANCH  59  73
ATOM     73  C   UNL A   1      37.262  33.193  31.340  1.00  0.00     0.064 A 
ATOM     74  C   UNL A   1      36.188  32.847  32.175  1.00  0.00     0.173 A 
ATOM     75  C   UNL A   1      36.975  33.913  30.170  1.00  0.00     0.173 A 
ATOM     76  F   UNL A   1      36.404  32.146  33.299  1.00  0.00    -0.203 F 
ATOM     77  C   UNL A   1      34.879  33.177  31.836  1.00  0.00     0.198 A 
ATOM     78  C   UNL A   1      35.668  34.274  29.852  1.00  0.00     0.198 A 
ATOM     79  F   UNL A   1      37.962  34.272  29.336  1.00  0.00    -0.203 F 
ATOM     80  F   UNL A   1      33.865  32.783  32.618  1.00  0.00    -0.200 F 
ATOM     81  C   UNL A   1      34.620  33.897  30.679  1.00  0.00     0.200 A 
ATOM     82  F   UNL A   1      35.422  34.982  28.742  1.00  0.00    -0.200 F 
ATOM     83  F   UNL A   1      33.361  34.222  30.358  1.00  0.00    -0.200 F 
ENDBRANCH  59  73
BRANCH  60  84
ATOM     84  C   UNL A   1      46.785  30.667  33.093  1.00  0.00     0.064 A 
ATOM     85  C   UNL A   1      47.819  31.365  32.452  1.00  0.00     0.173 A 
ATOM     86  C   UNL A   1      47.146  29.629  33.964  1.00  0.00     0.173 A 
ATOM     87  F   UNL A   1      47.526  32.354  31.594  1.00  0.00    -0.203 F 
ATOM     88  C   UNL A   1      49.155  31.021  32.651  1.00  0.00     0.198 A 
ATOM     89  C   UNL A   1      48.483  29.307  34.188  1.00  0.00     0.198 A 
ATOM     90  F   UNL A   1      46.198  28.933  34.609  1.00  0.00    -0.203 F 
ATOM     91  F   UNL A   1      50.118  31.671  31.983  1.00  0.00    -0.200 F 
ATOM     92  C   UNL A   1      49.485  29.996  33.524  1.00  0.00     0.200 A 
ATOM     93  F   UNL A   1      48.799  28.328  35.046  1.00  0.00    -0.200 F 
ATOM     94  F   UNL A   1      50.770  29.668  33.718  1.00  0.00    -0.200 F 
ENDBRANCH  60  84
BRANCH  72  95
ATOM     95  C   UNL A   1      42.421  35.319  35.908  1.00  0.00     0.064 A 
ATOM     96  C   UNL A   1      41.990  35.040  37.214  1.00  0.00     0.173 A 
ATOM     97  C   UNL A   1      43.053  36.551  35.675  1.00  0.00     0.173 A 
ATOM     98  F   UNL A   1      41.367  33.883  37.487  1.00  0.00    -0.203 F 
ATOM     99  C   UNL A   1      42.159  35.969  38.237  1.00  0.00     0.198 A 
ATOM    100  C   UNL A   1      43.253  37.462  36.708  1.00  0.00     0.198 A 
ATOM    101  F   UNL A   1      43.493  36.865  34.447  1.00  0.00    -0.203 F 
ATOM    102  F   UNL A   1      41.691  35.703  39.464  1.00  0.00    -0.200 F 
ATOM    103  C   UNL A   1      42.798  37.174  37.985  1.00  0.00     0.200 A 
ATOM    104  F   UNL A   1      43.887  38.617  36.466  1.00  0.00    -0.200 F 
ATOM    105  F   UNL A   1      42.970  38.062  38.975  1.00  0.00    -0.200 F 
ENDBRANCH  72  95
ENDBRANCH  46  47
ENDBRANCH  38  41
ENDBRANCH  36  37
ENDBRANCH  35  36
ENDBRANCH  34  35
ENDBRANCH   3  34
TORSDOF 16
ENDMDL
MODEL 3
REMARK VINA RESULT:     -12.7      0.851      7.087
REMARK SMILES CCN1C(=O)/C(=C/c2ccccc2O[C@H](C)C(=O)NCCCNC(=O)c2ccc(-c3c4nc(c(-c5c(F)c(F)c(F)c(F)c5F)c5ccc([nH]5)c(-c5c(F)c(F)c(F)c(F)c5F)c5nc(c(-c6c(F)c(F)c(F)c(F)c6F)c6ccc3[nH]6)C=C5)C=C4)cc2)S/C1=[NH+]\c1ccc(C)cc1O
REMARK SMILES IDX 17 1 18 2 19 3 15 5 16 6 14 7 13 8 8 9 9 10 10 11 12 12
REMARK SMILES IDX 11 13 7 14 3 15 4 16 90 17 5 18 6 19 89 20 91 21 2 23 1 24
REMARK SMILES IDX 92 25 93 26 98 27 94 28 97 29 95 30 96 31 99 32 20 34 21 35
REMARK SMILES IDX 22 36 23 37 24 38 25 40 26 41 27 42 88 43 28 44 87 45 29 46
REMARK SMILES IDX 30 47 31 48 81 49 32 50 86 51 80 52 82 53 33 54 85 55 79 56
REMARK SMILES IDX 78 57 34 59 66 60 46 61 65 62 47 63 50 64 64 65 83 66 48 67
REMARK SMILES IDX 49 68 63 70 84 71 51 72 35 73 36 74 44 75 37 76 38 77 42 78
REMARK SMILES IDX 45 79 39 80 40 81 43 82 41 83 67 84 68 85 76 86 69 87 70 88
REMARK SMILES IDX 74 89 77 90 71 91 72 92 75 93 73 94 52 95 53 96 61 97 54 98
REMARK SMILES IDX 55 99 59 100 62 101 56 102 57 103 60 104 58 105
REMARK H PARENT 19 4 91 22 99 33 23 39 82 58 50 69
REMARK Flexibility Score: inf
ROOT
ATOM      1  C   UNL A   1      34.088  21.311  24.978  1.00  0.00     0.260 C 
ATOM      2  O   UNL A   1      33.138  20.582  24.681  1.00  0.00    -0.271 OA
ATOM      3  N   UNL A   1      35.309  20.721  25.116  1.00  0.00    -0.353 N 
ATOM      4  H   UNL A   1      35.306  19.737  25.085  1.00  0.00     0.163 HD
ENDROOT
BRANCH   1   5
ATOM      5  C   UNL A   1      33.900  22.829  25.184  1.00  0.00     0.258 C 
ATOM      6  C   UNL A   1      34.080  23.144  26.683  1.00  0.00     0.064 C 
BRANCH   5   7
ATOM      7  O   UNL A   1      34.467  23.858  24.376  1.00  0.00    -0.480 OA
BRANCH   7   8
ATOM      8  C   UNL A   1      33.843  24.359  23.268  1.00  0.00     0.127 A 
ATOM      9  C   UNL A   1      33.588  25.744  23.247  1.00  0.00     0.018 A 
ATOM     10  C   UNL A   1      33.150  26.364  22.067  1.00  0.00     0.012 A 
ATOM     11  C   UNL A   1      32.855  25.598  20.942  1.00  0.00     0.001 A 
ATOM     12  C   UNL A   1      33.370  23.596  22.202  1.00  0.00     0.047 A 
ATOM     13  C   UNL A   1      32.907  24.210  21.032  1.00  0.00     0.004 A 
BRANCH   9  14
ATOM     14  C   UNL A   1      33.528  26.510  24.497  1.00  0.00     0.036 C 
ATOM     15  N   UNL A   1      32.259  29.469  26.092  1.00  0.00    -0.186 N 
ATOM     16  C   UNL A   1      33.093  28.371  26.032  1.00  0.00     0.348 C 
ATOM     17  C   UNL A   1      31.487  29.710  24.980  1.00  0.00     0.324 C 
ATOM     18  O   UNL A   1      33.890  28.016  26.883  1.00  0.00    -0.240 OA
ATOM     19  C   UNL A   1      32.901  27.662  24.740  1.00  0.00     0.110 C 
ATOM     20  S   UNL A   1      31.838  28.532  23.732  1.00  0.00     0.007 SA
ATOM     21  N   UNL A   1      30.617  30.665  24.929  1.00  0.00    -0.231 N 
ATOM     22  H   UNL A   1      30.473  31.228  25.724  1.00  0.00     0.313 HD
BRANCH  15  23
ATOM     23  C   UNL A   1      32.310  30.367  27.240  1.00  0.00     0.244 C 
ATOM     24  C   UNL A   1      33.582  31.205  27.303  1.00  0.00     0.055 C 
ENDBRANCH  15  23
BRANCH  21  25
ATOM     25  C   UNL A   1      29.869  30.918  23.761  1.00  0.00     0.167 A 
ATOM     26  C   UNL A   1      29.522  29.845  22.936  1.00  0.00     0.056 A 
ATOM     27  C   UNL A   1      29.516  32.211  23.344  1.00  0.00     0.162 A 
ATOM     28  C   UNL A   1      28.802  30.055  21.754  1.00  0.00     0.008 A 
ATOM     29  C   UNL A   1      28.769  32.427  22.189  1.00  0.00     0.054 A 
ATOM     30  C   UNL A   1      28.404  31.346  21.382  1.00  0.00    -0.047 A 
ATOM     31  C   UNL A   1      27.649  31.566  20.104  1.00  0.00     0.044 C 
BRANCH  27  32
ATOM     32  O   UNL A   1      29.904  33.318  24.052  1.00  0.00    -0.504 OA
ATOM     33  H   UNL A   1      30.059  34.127  23.606  1.00  0.00     0.293 HD
ENDBRANCH  27  32
ENDBRANCH  21  25
ENDBRANCH   9  14
ENDBRANCH   7   8
ENDBRANCH   5   7
ENDBRANCH   1   5
BRANCH   3  34
ATOM     34  C   UNL A   1      36.614  21.334  25.300  1.00  0.00     0.118 C 
BRANCH  34  35
ATOM     35  C   UNL A   1      37.739  20.366  25.000  1.00  0.00     0.042 C 
BRANCH  35  36
ATOM     36  C   UNL A   1      38.994  20.633  25.819  1.00  0.00     0.118 C 
BRANCH  36  37
ATOM     37  N   UNL A   1      39.900  19.492  25.907  1.00  0.00    -0.352 N 
ATOM     38  C   UNL A   1      41.259  19.482  26.126  1.00  0.00     0.251 C 
ATOM     39  H   UNL A   1      39.481  18.608  25.795  1.00  0.00     0.163 HD
ATOM     40  O   UNL A   1      41.899  18.439  26.068  1.00  0.00    -0.269 OA
BRANCH  38  41
ATOM     41  C   UNL A   1      41.943  20.766  26.382  1.00  0.00     0.039 A 
ATOM     42  C   UNL A   1      42.227  21.611  25.309  1.00  0.00     0.014 A 
ATOM     43  C   UNL A   1      42.195  21.171  27.693  1.00  0.00     0.014 A 
ATOM     44  C   UNL A   1      42.673  22.909  25.563  1.00  0.00     0.010 A 
ATOM     45  C   UNL A   1      42.517  22.497  27.945  1.00  0.00     0.010 A 
ATOM     46  C   UNL A   1      42.764  23.379  26.883  1.00  0.00    -0.014 A 
BRANCH  46  47
ATOM     47  C   UNL A   1      43.125  24.789  27.184  1.00  0.00     0.031 A 
ATOM     48  C   UNL A   1      44.525  25.271  26.923  1.00  0.00     0.074 A 
ATOM     49  C   UNL A   1      42.220  25.606  27.760  1.00  0.00     0.049 A 
ATOM     50  N   UNL A   1      45.066  26.432  27.193  1.00  0.00    -0.248 NA
ATOM     51  C   UNL A   1      45.455  24.306  26.315  1.00  0.00     0.031 C 
ATOM     52  C   UNL A   1      40.850  25.237  28.120  1.00  0.00     0.029 A 
ATOM     53  N   UNL A   1      42.321  26.917  28.153  1.00  0.00    -0.354 N 
ATOM     54  C   UNL A   1      46.396  26.325  26.806  1.00  0.00     0.074 A 
ATOM     55  C   UNL A   1      46.601  24.967  26.355  1.00  0.00     0.031 C 
ATOM     56  C   UNL A   1      40.229  26.304  28.647  1.00  0.00     0.029 A 
ATOM     57  C   UNL A   1      41.168  27.419  28.706  1.00  0.00     0.049 A 
ATOM     58  H   UNL A   1      43.143  27.449  28.048  1.00  0.00     0.167 HD
ATOM     59  C   UNL A   1      47.353  27.282  26.797  1.00  0.00     0.037 A 
ATOM     60  C   UNL A   1      40.902  28.640  29.210  1.00  0.00     0.037 A 
ATOM     61  C   UNL A   1      47.133  28.639  27.220  1.00  0.00     0.049 A 
ATOM     62  C   UNL A   1      41.985  29.687  29.190  1.00  0.00     0.074 A 
ATOM     63  C   UNL A   1      48.014  29.705  27.190  1.00  0.00     0.029 A 
ATOM     64  N   UNL A   1      45.944  29.115  27.753  1.00  0.00    -0.354 N 
ATOM     65  N   UNL A   1      43.216  29.598  28.749  1.00  0.00    -0.248 NA
ATOM     66  C   UNL A   1      41.637  31.008  29.733  1.00  0.00     0.031 C 
ATOM     67  C   UNL A   1      47.378  30.812  27.757  1.00  0.00     0.029 A 
ATOM     68  C   UNL A   1      46.078  30.455  28.081  1.00  0.00     0.049 A 
ATOM     69  H   UNL A   1      45.127  28.581  27.879  1.00  0.00     0.167 HD
ATOM     70  C   UNL A   1      43.779  30.853  28.929  1.00  0.00     0.074 A 
ATOM     71  C   UNL A   1      42.749  31.692  29.506  1.00  0.00     0.031 C 
ATOM     72  C   UNL A   1      45.036  31.275  28.646  1.00  0.00     0.037 A 
BRANCH  59  73
ATOM     73  C   UNL A   1      48.720  26.893  26.309  1.00  0.00     0.064 A 
ATOM     74  C   UNL A   1      49.095  27.046  24.966  1.00  0.00     0.173 A 
ATOM     75  C   UNL A   1      49.675  26.385  27.202  1.00  0.00     0.173 A 
ATOM     76  F   UNL A   1      48.217  27.514  24.067  1.00  0.00    -0.203 F 
ATOM     77  C   UNL A   1      50.363  26.671  24.527  1.00  0.00     0.198 A 
ATOM     78  C   UNL A   1      50.954  26.045  26.767  1.00  0.00     0.198 A 
ATOM     79  F   UNL A   1      49.372  26.220  28.498  1.00  0.00    -0.203 F 
ATOM     80  F   UNL A   1      50.677  26.769  23.228  1.00  0.00    -0.200 F 
ATOM     81  C   UNL A   1      51.294  26.179  25.429  1.00  0.00     0.200 A 
ATOM     82  F   UNL A   1      51.857  25.584  27.643  1.00  0.00    -0.200 F 
ATOM     83  F   UNL A   1      52.516  25.827  25.008  1.00  0.00    -0.200 F 
ENDBRANCH  59  73
BRANCH  60  84
ATOM     84  C   UNL A   1      39.551  28.947  29.752  1.00  0.00     0.064 A 
ATOM     85  C   UNL A   1      38.542  29.462  28.925  1.00  0.00     0.173 A 
ATOM     86  C   UNL A   1      39.241  28.745  31.105  1.00  0.00     0.173 A 
ATOM     87  F   UNL A   1      38.793  29.692  27.628  1.00  0.00    -0.203 F 
ATOM     88  C   UNL A   1      37.286  29.787  29.435  1.00  0.00     0.198 A 
ATOM     89  C   UNL A   1      37.975  29.039  31.607  1.00  0.00     0.198 A 
ATOM     90  F   UNL A   1      40.166  28.248  31.939  1.00  0.00    -0.203 F 
ATOM     91  F   UNL A   1      36.359  30.327  28.632  1.00  0.00    -0.200 F 
ATOM     92  C   UNL A   1      37.002  29.569  30.774  1.00  0.00     0.200 A 
ATOM     93  F   UNL A   1      37.699  28.810  32.898  1.00  0.00    -0.200 F 
ATOM     94  F   UNL A   1      35.793  29.877  31.264  1.00  0.00    -0.200 F 
ENDBRANCH  60  84
BRANCH  72  95
ATOM     95  C   UNL A   1      45.357  32.717  28.915  1.00  0.00     0.064 A 
ATOM     96  C   UNL A   1      45.933  33.134  30.124  1.00  0.00     0.173 A 
ATOM     97  C   UNL A   1      45.125  33.689  27.928  1.00  0.00     0.173 A 
ATOM     98  F   UNL A   1      46.162  32.246  31.104  1.00  0.00    -0.203 F 
ATOM     99  C   UNL A   1      46.237  34.474  30.347  1.00  0.00     0.198 A 
ATOM    100  C   UNL A   1      45.464  35.022  28.141  1.00  0.00     0.198 A 
ATOM    101  F   UNL A   1      44.585  33.343  26.750  1.00  0.00    -0.203 F 
ATOM    102  F   UNL A   1      46.738  34.857  31.530  1.00  0.00    -0.200 F 
ATOM    103  C   UNL A   1      46.012  35.414  29.353  1.00  0.00     0.200 A 
ATOM    104  F   UNL A   1      45.262  35.925  27.173  1.00  0.00    -0.200 F 
ATOM    105  F   UNL A   1      46.316  36.702  29.566  1.00  0.00    -0.200 F 
ENDBRANCH  72  95
ENDBRANCH  46  47
ENDBRANCH  38  41
ENDBRANCH  36  37
ENDBRANCH  35  36
ENDBRANCH  34  35
ENDBRANCH   3  34
TORSDOF 16
ENDMDL
