MODEL 1
REMARK VINA RESULT:     -12.2      0.000      0.000
REMARK SMILES CC(C)[C@@H](CNC(=O)NCC1C(C)(C)C1(C)C)C(=O)NCCCNC(=O)c1ccc(-c2c3nc(c(-c4c(F)c(F)c(F)c(F)c4F)c4ccc([nH]4)c(-c4c(F)c(F)c(F)c(F)c4F)c4nc(c(-c5c(F)c(F)c(F)c(F)c5F)c5ccc2[nH]5)C=C4)C=C3)cc1
REMARK SMILES IDX 21 1 20 2 18 3 19 4 4 6 2 7 1 8 3 9 5 10 6 11 7 12 8 14 9 15
REMARK SMILES IDX 10 17 11 18 12 19 15 20 13 21 14 22 16 23 17 24 22 25 23 26
REMARK SMILES IDX 24 27 25 28 26 30 27 31 28 32 89 33 29 34 88 35 30 36 31 37
REMARK SMILES IDX 32 38 82 39 33 40 87 41 81 42 83 43 34 44 86 45 80 46 79 47
REMARK SMILES IDX 35 49 67 50 47 51 66 52 48 53 51 54 65 55 84 56 49 57 50 58
REMARK SMILES IDX 64 60 85 61 52 62 36 63 37 64 45 65 38 66 39 67 43 68 46 69
REMARK SMILES IDX 40 70 41 71 44 72 42 73 68 74 69 75 77 76 70 77 71 78 75 79
REMARK SMILES IDX 78 80 72 81 73 82 76 83 74 84 53 85 54 86 62 87 55 88 56 89
REMARK SMILES IDX 60 90 63 91 57 92 58 93 61 94 59 95
REMARK H PARENT 20 5 6 13 9 16 24 29 83 48 51 59
REMARK Flexibility Score: inf
ROOT
ATOM      1  C   UNL A   1      36.699  20.759  25.003  1.00  0.00     0.117 C 
ENDROOT
BRANCH   1   2
ATOM      2  N   UNL A   1      35.420  20.184  25.373  1.00  0.00    -0.356 N 
ATOM      3  C   UNL A   1      34.200  20.768  25.496  1.00  0.00     0.225 C 
ATOM      4  O   UNL A   1      33.225  20.022  25.635  1.00  0.00    -0.275 OA
ATOM      5  H   UNL A   1      35.439  19.219  25.567  1.00  0.00     0.163 HD
BRANCH   3   6
ATOM      6  C   UNL A   1      34.007  22.282  25.483  1.00  0.00     0.100 C 
BRANCH   6   7
ATOM      7  C   UNL A   1      33.545  22.858  24.118  1.00  0.00    -0.003 C 
ATOM      8  C   UNL A   1      34.722  23.149  23.180  1.00  0.00     0.008 C 
ATOM      9  C   UNL A   1      32.594  21.873  23.417  1.00  0.00     0.008 C 
ENDBRANCH   6   7
BRANCH   6  10
ATOM     10  C   UNL A   1      33.309  22.811  26.748  1.00  0.00     0.131 C 
BRANCH  10  11
ATOM     11  N   UNL A   1      31.915  22.492  26.959  1.00  0.00    -0.337 N 
ATOM     12  C   UNL A   1      30.768  23.177  26.882  1.00  0.00     0.314 C 
ATOM     13  H   UNL A   1      31.777  21.553  27.219  1.00  0.00     0.165 HD
ATOM     14  O   UNL A   1      29.739  22.587  27.224  1.00  0.00    -0.249 OA
ATOM     15  N   UNL A   1      30.656  24.446  26.494  1.00  0.00    -0.338 N 
ATOM     16  H   UNL A   1      29.726  24.768  26.544  1.00  0.00     0.165 HD
BRANCH  15  17
ATOM     17  C   UNL A   1      31.558  25.467  26.018  1.00  0.00     0.122 C 
BRANCH  17  18
ATOM     18  C   UNL A   1      31.284  25.781  24.582  1.00  0.00     0.021 C 
ATOM     19  C   UNL A   1      31.062  27.219  24.118  1.00  0.00    -0.025 C 
ATOM     20  C   UNL A   1      32.207  26.379  23.508  1.00  0.00    -0.025 C 
ATOM     21  C   UNL A   1      29.786  27.463  23.346  1.00  0.00     0.012 C 
ATOM     22  C   UNL A   1      31.402  28.402  25.000  1.00  0.00     0.012 C 
ATOM     23  C   UNL A   1      33.649  26.731  23.777  1.00  0.00     0.012 C 
ATOM     24  C   UNL A   1      32.043  25.864  22.089  1.00  0.00     0.012 C 
ENDBRANCH  17  18
ENDBRANCH  15  17
ENDBRANCH  10  11
ENDBRANCH   6  10
ENDBRANCH   3   6
ENDBRANCH   1   2
BRANCH   1  25
ATOM     25  C   UNL A   1      37.830  19.749  24.996  1.00  0.00     0.042 C 
BRANCH  25  26
ATOM     26  C   UNL A   1      39.057  20.224  25.752  1.00  0.00     0.118 C 
BRANCH  26  27
ATOM     27  N   UNL A   1      40.068  19.183  25.906  1.00  0.00    -0.352 N 
ATOM     28  C   UNL A   1      41.424  19.266  26.108  1.00  0.00     0.251 C 
ATOM     29  H   UNL A   1      39.717  18.265  25.856  1.00  0.00     0.163 HD
ATOM     30  O   UNL A   1      42.119  18.261  26.032  1.00  0.00    -0.269 OA
BRANCH  28  31
ATOM     31  C   UNL A   1      42.055  20.570  26.395  1.00  0.00     0.039 A 
ATOM     32  C   UNL A   1      42.483  21.367  25.330  1.00  0.00     0.014 A 
ATOM     33  C   UNL A   1      42.231  21.006  27.708  1.00  0.00     0.014 A 
ATOM     34  C   UNL A   1      43.009  22.635  25.585  1.00  0.00     0.010 A 
ATOM     35  C   UNL A   1      42.639  22.309  27.954  1.00  0.00     0.010 A 
ATOM     36  C   UNL A   1      43.045  23.135  26.898  1.00  0.00    -0.014 A 
BRANCH  36  37
ATOM     37  C   UNL A   1      43.522  24.509  27.196  1.00  0.00     0.031 A 
ATOM     38  C   UNL A   1      42.564  25.530  27.746  1.00  0.00     0.074 A 
ATOM     39  C   UNL A   1      44.787  24.857  26.893  1.00  0.00     0.049 A 
ATOM     40  N   UNL A   1      42.754  26.803  27.980  1.00  0.00    -0.248 NA
ATOM     41  C   UNL A   1      41.197  25.067  28.038  1.00  0.00     0.031 C 
ATOM     42  C   UNL A   1      45.791  23.970  26.302  1.00  0.00     0.029 A 
ATOM     43  N   UNL A   1      45.443  26.053  27.032  1.00  0.00    -0.354 N 
ATOM     44  C   UNL A   1      41.532  27.292  28.422  1.00  0.00     0.074 A 
ATOM     45  C   UNL A   1      40.589  26.198  28.362  1.00  0.00     0.031 C 
ATOM     46  C   UNL A   1      46.943  24.644  26.155  1.00  0.00     0.029 A 
ATOM     47  C   UNL A   1      46.746  26.020  26.599  1.00  0.00     0.049 A 
ATOM     48  H   UNL A   1      45.020  26.860  27.407  1.00  0.00     0.167 HD
ATOM     49  C   UNL A   1      41.230  28.535  28.868  1.00  0.00     0.037 A 
ATOM     50  C   UNL A   1      47.675  26.995  26.557  1.00  0.00     0.037 A 
ATOM     51  C   UNL A   1      42.183  29.609  28.957  1.00  0.00     0.049 A 
ATOM     52  C   UNL A   1      47.314  28.367  27.059  1.00  0.00     0.074 A 
ATOM     53  C   UNL A   1      41.998  30.885  29.457  1.00  0.00     0.029 A 
ATOM     54  N   UNL A   1      43.501  29.531  28.533  1.00  0.00    -0.354 N 
ATOM     55  N   UNL A   1      46.175  28.799  27.545  1.00  0.00    -0.248 NA
ATOM     56  C   UNL A   1      48.371  29.386  27.012  1.00  0.00     0.031 C 
ATOM     57  C   UNL A   1      43.191  31.597  29.285  1.00  0.00     0.029 A 
ATOM     58  C   UNL A   1      44.135  30.745  28.736  1.00  0.00     0.049 A 
ATOM     59  H   UNL A   1      43.923  28.730  28.145  1.00  0.00     0.167 HD
ATOM     60  C   UNL A   1      46.386  30.127  27.889  1.00  0.00     0.074 A 
ATOM     61  C   UNL A   1      47.767  30.425  27.572  1.00  0.00     0.031 C 
ATOM     62  C   UNL A   1      45.515  31.020  28.420  1.00  0.00     0.037 A 
BRANCH  49  63
ATOM     63  C   UNL A   1      39.814  28.796  29.297  1.00  0.00     0.064 A 
ATOM     64  C   UNL A   1      39.396  28.599  30.622  1.00  0.00     0.173 A 
ATOM     65  C   UNL A   1      38.870  29.279  28.379  1.00  0.00     0.173 A 
ATOM     66  F   UNL A   1      40.255  28.126  31.539  1.00  0.00    -0.203 F 
ATOM     67  C   UNL A   1      38.079  28.844  31.004  1.00  0.00     0.198 A 
ATOM     68  C   UNL A   1      37.563  29.556  28.771  1.00  0.00     0.198 A 
ATOM     69  F   UNL A   1      39.216  29.490  27.100  1.00  0.00    -0.203 F 
ATOM     70  F   UNL A   1      37.691  28.595  32.262  1.00  0.00    -0.200 F 
ATOM     71  C   UNL A   1      37.167  29.330  30.081  1.00  0.00     0.200 A 
ATOM     72  F   UNL A   1      36.686  30.041  27.881  1.00  0.00    -0.200 F 
ATOM     73  F   UNL A   1      35.902  29.574  30.451  1.00  0.00    -0.200 F 
ENDBRANCH  49  63
BRANCH  50  74
ATOM     74  C   UNL A   1      49.039  26.702  26.042  1.00  0.00     0.064 A 
ATOM     75  C   UNL A   1      49.387  26.997  24.716  1.00  0.00     0.173 A 
ATOM     76  C   UNL A   1      50.019  26.119  26.857  1.00  0.00     0.173 A 
ATOM     77  F   UNL A   1      48.478  27.538  23.890  1.00  0.00    -0.203 F 
ATOM     78  C   UNL A   1      50.654  26.698  24.219  1.00  0.00     0.198 A 
ATOM     79  C   UNL A   1      51.296  25.850  26.368  1.00  0.00     0.198 A 
ATOM     80  F   UNL A   1      49.741  25.823  28.136  1.00  0.00    -0.203 F 
ATOM     81  F   UNL A   1      50.942  26.945  22.934  1.00  0.00    -0.200 F 
ATOM     82  C   UNL A   1      51.610  26.130  25.048  1.00  0.00     0.200 A 
ATOM     83  F   UNL A   1      52.222  25.316  27.177  1.00  0.00    -0.200 F 
ATOM     84  F   UNL A   1      52.829  25.846  24.571  1.00  0.00    -0.200 F 
ENDBRANCH  50  74
BRANCH  62  85
ATOM     85  C   UNL A   1      46.038  32.393  28.727  1.00  0.00     0.064 A 
ATOM     86  C   UNL A   1      45.960  33.438  27.796  1.00  0.00     0.173 A 
ATOM     87  C   UNL A   1      46.586  32.676  29.988  1.00  0.00     0.173 A 
ATOM     88  F   UNL A   1      45.458  33.216  26.571  1.00  0.00    -0.203 F 
ATOM     89  C   UNL A   1      46.438  34.709  28.105  1.00  0.00     0.198 A 
ATOM     90  C   UNL A   1      47.030  33.956  30.306  1.00  0.00     0.198 A 
ATOM     91  F   UNL A   1      46.676  31.715  30.919  1.00  0.00    -0.203 F 
ATOM     92  F   UNL A   1      46.401  35.679  27.181  1.00  0.00    -0.200 F 
ATOM     93  C   UNL A   1      46.965  34.969  29.362  1.00  0.00     0.200 A 
ATOM     94  F   UNL A   1      47.523  34.209  31.526  1.00  0.00    -0.200 F 
ATOM     95  F   UNL A   1      47.414  36.195  29.660  1.00  0.00    -0.200 F 
ENDBRANCH  62  85
ENDBRANCH  36  37
ENDBRANCH  28  31
ENDBRANCH  26  27
ENDBRANCH  25  26
ENDBRANCH   1  25
TORSDOF 15
ENDMDL
MODEL 2
REMARK VINA RESULT:     -12.2      0.885      1.765
REMARK SMILES CC(C)[C@@H](CNC(=O)NCC1C(C)(C)C1(C)C)C(=O)NCCCNC(=O)c1ccc(-c2c3nc(c(-c4c(F)c(F)c(F)c(F)c4F)c4ccc([nH]4)c(-c4c(F)c(F)c(F)c(F)c4F)c4nc(c(-c5c(F)c(F)c(F)c(F)c5F)c5ccc2[nH]5)C=C4)C=C3)cc1
REMARK SMILES IDX 21 1 20 2 18 3 19 4 4 6 2 7 1 8 3 9 5 10 6 11 7 12 8 14 9 15
REMARK SMILES IDX 10 17 11 18 12 19 15 20 13 21 14 22 16 23 17 24 22 25 23 26
REMARK SMILES IDX 24 27 25 28 26 30 27 31 28 32 89 33 29 34 88 35 30 36 31 37
REMARK SMILES IDX 32 38 82 39 33 40 87 41 81 42 83 43 34 44 86 45 80 46 79 47
REMARK SMILES IDX 35 49 67 50 47 51 66 52 48 53 51 54 65 55 84 56 49 57 50 58
REMARK SMILES IDX 64 60 85 61 52 62 36 63 37 64 45 65 38 66 39 67 43 68 46 69
REMARK SMILES IDX 40 70 41 71 44 72 42 73 68 74 69 75 77 76 70 77 71 78 75 79
REMARK SMILES IDX 78 80 72 81 73 82 76 83 74 84 53 85 54 86 62 87 55 88 56 89
REMARK SMILES IDX 60 90 63 91 57 92 58 93 61 94 59 95
REMARK H PARENT 20 5 6 13 9 16 24 29 83 48 51 59
REMARK Flexibility Score: inf
ROOT
ATOM      1  C   UNL A   1      36.697  20.972  24.887  1.00  0.00     0.117 C 
ENDROOT
BRANCH   1   2
ATOM      2  N   UNL A   1      35.874  21.098  26.075  1.00  0.00    -0.356 N 
ATOM      3  C   UNL A   1      34.578  21.484  26.206  1.00  0.00     0.225 C 
ATOM      4  O   UNL A   1      34.047  21.321  27.310  1.00  0.00    -0.275 OA
ATOM      5  H   UNL A   1      36.327  20.869  26.919  1.00  0.00     0.163 HD
BRANCH   3   6
ATOM      6  C   UNL A   1      33.787  22.112  25.062  1.00  0.00     0.100 C 
BRANCH   6   7
ATOM      7  C   UNL A   1      33.228  21.092  24.034  1.00  0.00    -0.003 C 
ATOM      8  C   UNL A   1      32.528  19.908  24.712  1.00  0.00     0.008 C 
ATOM      9  C   UNL A   1      32.224  21.777  23.092  1.00  0.00     0.008 C 
ENDBRANCH   6   7
BRANCH   6  10
ATOM     10  C   UNL A   1      32.846  23.237  25.527  1.00  0.00     0.131 C 
BRANCH  10  11
ATOM     11  N   UNL A   1      31.748  22.907  26.407  1.00  0.00    -0.337 N 
ATOM     12  C   UNL A   1      30.600  23.504  26.750  1.00  0.00     0.314 C 
ATOM     13  H   UNL A   1      31.874  22.042  26.860  1.00  0.00     0.165 HD
ATOM     14  O   UNL A   1      29.922  22.955  27.624  1.00  0.00    -0.249 OA
ATOM     15  N   UNL A   1      30.149  24.649  26.243  1.00  0.00    -0.338 N 
ATOM     16  H   UNL A   1      29.301  24.930  26.658  1.00  0.00     0.165 HD
BRANCH  15  17
ATOM     17  C   UNL A   1      30.595  25.582  25.236  1.00  0.00     0.122 C 
BRANCH  17  18
ATOM     18  C   UNL A   1      31.430  26.659  25.852  1.00  0.00     0.021 C 
ATOM     19  C   UNL A   1      32.745  27.099  25.215  1.00  0.00    -0.025 C 
ATOM     20  C   UNL A   1      31.613  28.127  25.436  1.00  0.00    -0.025 C 
ATOM     21  C   UNL A   1      33.952  27.068  26.125  1.00  0.00     0.012 C 
ATOM     22  C   UNL A   1      33.118  26.701  23.801  1.00  0.00     0.012 C 
ATOM     23  C   UNL A   1      30.887  28.738  24.263  1.00  0.00     0.012 C 
ATOM     24  C   UNL A   1      31.777  29.148  26.548  1.00  0.00     0.012 C 
ENDBRANCH  17  18
ENDBRANCH  15  17
ENDBRANCH  10  11
ENDBRANCH   6  10
ENDBRANCH   3   6
ENDBRANCH   1   2
BRANCH   1  25
ATOM     25  C   UNL A   1      37.752  19.890  25.001  1.00  0.00     0.042 C 
BRANCH  25  26
ATOM     26  C   UNL A   1      38.992  20.344  25.751  1.00  0.00     0.118 C 
BRANCH  26  27
ATOM     27  N   UNL A   1      40.016  19.308  25.835  1.00  0.00    -0.352 N 
ATOM     28  C   UNL A   1      41.373  19.395  26.032  1.00  0.00     0.251 C 
ATOM     29  H   UNL A   1      39.676  18.390  25.732  1.00  0.00     0.163 HD
ATOM     30  O   UNL A   1      42.078  18.405  25.890  1.00  0.00    -0.269 OA
BRANCH  28  31
ATOM     31  C   UNL A   1      41.990  20.688  26.392  1.00  0.00     0.039 A 
ATOM     32  C   UNL A   1      42.359  21.572  25.375  1.00  0.00     0.014 A 
ATOM     33  C   UNL A   1      42.211  21.027  27.727  1.00  0.00     0.014 A 
ATOM     34  C   UNL A   1      42.871  22.828  25.705  1.00  0.00     0.010 A 
ATOM     35  C   UNL A   1      42.605  22.316  28.055  1.00  0.00     0.010 A 
ATOM     36  C   UNL A   1      42.952  23.229  27.050  1.00  0.00    -0.014 A 
BRANCH  36  37
ATOM     37  C   UNL A   1      43.414  24.586  27.432  1.00  0.00     0.031 A 
ATOM     38  C   UNL A   1      42.412  25.628  27.845  1.00  0.00     0.074 A 
ATOM     39  C   UNL A   1      44.719  24.900  27.328  1.00  0.00     0.049 A 
ATOM     40  N   UNL A   1      42.598  26.894  28.121  1.00  0.00    -0.248 NA
ATOM     41  C   UNL A   1      41.005  25.202  27.924  1.00  0.00     0.031 C 
ATOM     42  C   UNL A   1      45.776  23.991  26.883  1.00  0.00     0.029 A 
ATOM     43  N   UNL A   1      45.378  26.077  27.578  1.00  0.00    -0.354 N 
ATOM     44  C   UNL A   1      41.336  27.414  28.381  1.00  0.00     0.074 A 
ATOM     45  C   UNL A   1      40.385  26.346  28.167  1.00  0.00     0.031 C 
ATOM     46  C   UNL A   1      46.955  24.634  26.919  1.00  0.00     0.029 A 
ATOM     47  C   UNL A   1      46.730  26.011  27.345  1.00  0.00     0.049 A 
ATOM     48  H   UNL A   1      44.925  26.892  27.895  1.00  0.00     0.167 HD
ATOM     49  C   UNL A   1      41.004  28.660  28.791  1.00  0.00     0.037 A 
ATOM     50  C   UNL A   1      47.680  26.959  27.454  1.00  0.00     0.037 A 
ATOM     51  C   UNL A   1      41.960  29.707  29.036  1.00  0.00     0.049 A 
ATOM     52  C   UNL A   1      47.284  28.337  27.914  1.00  0.00     0.074 A 
ATOM     53  C   UNL A   1      41.737  30.984  29.518  1.00  0.00     0.029 A 
ATOM     54  N   UNL A   1      43.326  29.595  28.813  1.00  0.00    -0.354 N 
ATOM     55  N   UNL A   1      46.097  28.797  28.228  1.00  0.00    -0.248 NA
ATOM     56  C   UNL A   1      48.363  29.327  28.039  1.00  0.00     0.031 C 
ATOM     57  C   UNL A   1      42.960  31.663  29.535  1.00  0.00     0.029 A 
ATOM     58  C   UNL A   1      43.954  30.790  29.124  1.00  0.00     0.049 A 
ATOM     59  H   UNL A   1      43.780  28.786  28.483  1.00  0.00     0.167 HD
ATOM     60  C   UNL A   1      46.289  30.115  28.617  1.00  0.00     0.074 A 
ATOM     61  C   UNL A   1      47.709  30.378  28.514  1.00  0.00     0.031 C 
ATOM     62  C   UNL A   1      45.371  31.028  29.022  1.00  0.00     0.037 A 
BRANCH  49  63
ATOM     63  C   UNL A   1      39.547  28.958  29.006  1.00  0.00     0.064 A 
ATOM     64  C   UNL A   1      38.951  28.854  30.273  1.00  0.00     0.173 A 
ATOM     65  C   UNL A   1      38.743  29.382  27.938  1.00  0.00     0.173 A 
ATOM     66  F   UNL A   1      39.672  28.440  31.327  1.00  0.00    -0.203 F 
ATOM     67  C   UNL A   1      37.599  29.131  30.456  1.00  0.00     0.198 A 
ATOM     68  C   UNL A   1      37.399  29.692  28.131  1.00  0.00     0.198 A 
ATOM     69  F   UNL A   1      39.261  29.503  26.707  1.00  0.00    -0.203 F 
ATOM     70  F   UNL A   1      37.041  28.970  31.664  1.00  0.00    -0.200 F 
ATOM     71  C   UNL A   1      36.826  29.558  29.387  1.00  0.00     0.200 A 
ATOM     72  F   UNL A   1      36.656  30.119  27.100  1.00  0.00    -0.200 F 
ATOM     73  F   UNL A   1      35.526  29.833  29.566  1.00  0.00    -0.200 F 
ENDBRANCH  49  63
BRANCH  50  74
ATOM     74  C   UNL A   1      49.098  26.633  27.146  1.00  0.00     0.064 A 
ATOM     75  C   UNL A   1      49.574  26.666  25.828  1.00  0.00     0.173 A 
ATOM     76  C   UNL A   1      50.002  26.277  28.156  1.00  0.00     0.173 A 
ATOM     77  F   UNL A   1      48.743  26.982  24.824  1.00  0.00    -0.203 F 
ATOM     78  C   UNL A   1      50.894  26.333  25.530  1.00  0.00     0.198 A 
ATOM     79  C   UNL A   1      51.330  25.975  27.861  1.00  0.00     0.198 A 
ATOM     80  F   UNL A   1      49.601  26.237  29.436  1.00  0.00    -0.203 F 
ATOM     81  F   UNL A   1      51.308  26.324  24.255  1.00  0.00    -0.200 F 
ATOM     82  C   UNL A   1      51.773  25.993  26.548  1.00  0.00     0.200 A 
ATOM     83  F   UNL A   1      52.180  25.664  28.849  1.00  0.00    -0.200 F 
ATOM     84  F   UNL A   1      53.042  25.676  26.261  1.00  0.00    -0.200 F 
ENDBRANCH  50  74
BRANCH  62  85
ATOM     85  C   UNL A   1      45.879  32.384  29.421  1.00  0.00     0.064 A 
ATOM     86  C   UNL A   1      46.307  32.656  30.728  1.00  0.00     0.173 A 
ATOM     87  C   UNL A   1      45.976  33.412  28.471  1.00  0.00     0.173 A 
ATOM     88  F   UNL A   1      46.221  31.712  31.678  1.00  0.00    -0.203 F 
ATOM     89  C   UNL A   1      46.788  33.916  31.076  1.00  0.00     0.198 A 
ATOM     90  C   UNL A   1      46.490  34.659  28.813  1.00  0.00     0.198 A 
ATOM     91  F   UNL A   1      45.588  33.202  27.204  1.00  0.00    -0.203 F 
ATOM     92  F   UNL A   1      47.142  34.169  32.343  1.00  0.00    -0.200 F 
ATOM     93  C   UNL A   1      46.887  34.913  30.117  1.00  0.00     0.200 A 
ATOM     94  F   UNL A   1      46.601  35.615  27.881  1.00  0.00    -0.200 F 
ATOM     95  F   UNL A   1      47.359  36.121  30.451  1.00  0.00    -0.200 F 
ENDBRANCH  62  85
ENDBRANCH  36  37
ENDBRANCH  28  31
ENDBRANCH  26  27
ENDBRANCH  25  26
ENDBRANCH   1  25
TORSDOF 15
ENDMDL
MODEL 3
REMARK VINA RESULT:     -12.2      5.312      9.561
REMARK SMILES CC(C)[C@@H](CNC(=O)NCC1C(C)(C)C1(C)C)C(=O)NCCCNC(=O)c1ccc(-c2c3nc(c(-c4c(F)c(F)c(F)c(F)c4F)c4ccc([nH]4)c(-c4c(F)c(F)c(F)c(F)c4F)c4nc(c(-c5c(F)c(F)c(F)c(F)c5F)c5ccc2[nH]5)C=C4)C=C3)cc1
REMARK SMILES IDX 21 1 20 2 18 3 19 4 4 6 2 7 1 8 3 9 5 10 6 11 7 12 8 14 9 15
REMARK SMILES IDX 10 17 11 18 12 19 15 20 13 21 14 22 16 23 17 24 22 25 23 26
REMARK SMILES IDX 24 27 25 28 26 30 27 31 28 32 89 33 29 34 88 35 30 36 31 37
REMARK SMILES IDX 32 38 82 39 33 40 87 41 81 42 83 43 34 44 86 45 80 46 79 47
REMARK SMILES IDX 35 49 67 50 47 51 66 52 48 53 51 54 65 55 84 56 49 57 50 58
REMARK SMILES IDX 64 60 85 61 52 62 36 63 37 64 45 65 38 66 39 67 43 68 46 69
REMARK SMILES IDX 40 70 41 71 44 72 42 73 68 74 69 75 77 76 70 77 71 78 75 79
REMARK SMILES IDX 78 80 72 81 73 82 76 83 74 84 53 85 54 86 62 87 55 88 56 89
REMARK SMILES IDX 60 90 63 91 57 92 58 93 61 94 59 95
REMARK H PARENT 20 5 6 13 9 16 24 29 83 48 51 59
REMARK Flexibility Score: inf
ROOT
ATOM      1  C   UNL A   1      31.606  30.564  25.923  1.00  0.00     0.117 C 
ENDROOT
BRANCH   1   2
ATOM      2  N   UNL A   1      31.444  29.499  26.894  1.00  0.00    -0.356 N 
ATOM      3  C   UNL A   1      31.579  28.155  26.752  1.00  0.00     0.225 C 
ATOM      4  O   UNL A   1      31.579  27.473  27.782  1.00  0.00    -0.275 OA
ATOM      5  H   UNL A   1      31.196  29.798  27.799  1.00  0.00     0.163 HD
BRANCH   3   6
ATOM      6  C   UNL A   1      31.712  27.482  25.388  1.00  0.00     0.100 C 
BRANCH   6   7
ATOM      7  C   UNL A   1      33.169  27.125  24.989  1.00  0.00    -0.003 C 
ATOM      8  C   UNL A   1      33.723  25.948  25.801  1.00  0.00     0.008 C 
ATOM      9  C   UNL A   1      33.241  26.765  23.496  1.00  0.00     0.008 C 
ENDBRANCH   6   7
BRANCH   6  10
ATOM     10  C   UNL A   1      30.627  26.420  25.133  1.00  0.00     0.131 C 
BRANCH  10  11
ATOM     11  N   UNL A   1      30.252  25.535  26.212  1.00  0.00    -0.337 N 
ATOM     12  C   UNL A   1      30.179  24.207  26.362  1.00  0.00     0.314 C 
ATOM     13  H   UNL A   1      29.989  26.022  27.026  1.00  0.00     0.165 HD
ATOM     14  O   UNL A   1      29.722  23.788  27.429  1.00  0.00    -0.249 OA
ATOM     15  N   UNL A   1      30.535  23.310  25.445  1.00  0.00    -0.338 N 
ATOM     16  H   UNL A   1      30.368  22.387  25.744  1.00  0.00     0.165 HD
BRANCH  15  17
ATOM     17  C   UNL A   1      31.104  23.355  24.119  1.00  0.00     0.122 C 
BRANCH  17  18
ATOM     18  C   UNL A   1      32.550  22.974  24.157  1.00  0.00     0.021 C 
ATOM     19  C   UNL A   1      33.024  21.625  23.621  1.00  0.00    -0.025 C 
ATOM     20  C   UNL A   1      33.591  22.934  23.027  1.00  0.00    -0.025 C 
ATOM     21  C   UNL A   1      33.842  20.794  24.583  1.00  0.00     0.012 C 
ATOM     22  C   UNL A   1      32.132  20.750  22.765  1.00  0.00     0.012 C 
ATOM     23  C   UNL A   1      33.270  23.340  21.609  1.00  0.00     0.012 C 
ATOM     24  C   UNL A   1      35.015  23.326  23.381  1.00  0.00     0.012 C 
ENDBRANCH  17  18
ENDBRANCH  15  17
ENDBRANCH  10  11
ENDBRANCH   6  10
ENDBRANCH   3   6
ENDBRANCH   1   2
BRANCH   1  25
ATOM     25  C   UNL A   1      31.395  31.946  26.508  1.00  0.00     0.042 C 
BRANCH  25  26
ATOM     26  C   UNL A   1      32.659  32.541  27.102  1.00  0.00     0.118 C 
BRANCH  26  27
ATOM     27  N   UNL A   1      32.487  33.923  27.537  1.00  0.00    -0.352 N 
ATOM     28  C   UNL A   1      33.105  34.638  28.534  1.00  0.00     0.251 C 
ATOM     29  H   UNL A   1      31.811  34.428  27.030  1.00  0.00     0.163 HD
ATOM     30  O   UNL A   1      32.681  35.742  28.851  1.00  0.00    -0.269 OA
BRANCH  28  31
ATOM     31  C   UNL A   1      34.268  34.069  29.246  1.00  0.00     0.039 A 
ATOM     32  C   UNL A   1      34.054  33.296  30.389  1.00  0.00     0.014 A 
ATOM     33  C   UNL A   1      35.566  34.301  28.792  1.00  0.00     0.014 A 
ATOM     34  C   UNL A   1      35.139  32.689  31.025  1.00  0.00     0.010 A 
ATOM     35  C   UNL A   1      36.627  33.602  29.350  1.00  0.00     0.010 A 
ATOM     36  C   UNL A   1      36.429  32.798  30.480  1.00  0.00    -0.014 A 
BRANCH  36  37
ATOM     37  C   UNL A   1      37.591  32.099  31.083  1.00  0.00     0.031 A 
ATOM     38  C   UNL A   1      38.071  32.491  32.454  1.00  0.00     0.074 A 
ATOM     39  C   UNL A   1      38.260  31.176  30.367  1.00  0.00     0.049 A 
ATOM     40  N   UNL A   1      39.122  32.075  33.114  1.00  0.00    -0.248 NA
ATOM     41  C   UNL A   1      37.288  33.516  33.163  1.00  0.00     0.031 C 
ATOM     42  C   UNL A   1      37.924  30.754  29.005  1.00  0.00     0.029 A 
ATOM     43  N   UNL A   1      39.369  30.432  30.679  1.00  0.00    -0.354 N 
ATOM     44  C   UNL A   1      39.134  32.801  34.299  1.00  0.00     0.074 A 
ATOM     45  C   UNL A   1      38.028  33.729  34.240  1.00  0.00     0.031 C 
ATOM     46  C   UNL A   1      38.790  29.807  28.611  1.00  0.00     0.029 A 
ATOM     47  C   UNL A   1      39.768  29.588  29.672  1.00  0.00     0.049 A 
ATOM     48  H   UNL A   1      39.836  30.497  31.544  1.00  0.00     0.167 HD
ATOM     49  C   UNL A   1      39.975  32.682  35.354  1.00  0.00     0.037 A 
ATOM     50  C   UNL A   1      40.812  28.739  29.609  1.00  0.00     0.037 A 
ATOM     51  C   UNL A   1      41.053  31.731  35.418  1.00  0.00     0.049 A 
ATOM     52  C   UNL A   1      41.730  28.625  30.796  1.00  0.00     0.074 A 
ATOM     53  C   UNL A   1      41.920  31.482  36.466  1.00  0.00     0.029 A 
ATOM     54  N   UNL A   1      41.411  30.874  34.388  1.00  0.00    -0.354 N 
ATOM     55  N   UNL A   1      41.689  29.263  31.940  1.00  0.00    -0.248 NA
ATOM     56  C   UNL A   1      42.839  27.667  30.683  1.00  0.00     0.031 C 
ATOM     57  C   UNL A   1      42.838  30.511  36.050  1.00  0.00     0.029 A 
ATOM     58  C   UNL A   1      42.503  30.111  34.766  1.00  0.00     0.049 A 
ATOM     59  H   UNL A   1      40.954  30.816  33.517  1.00  0.00     0.167 HD
ATOM     60  C   UNL A   1      42.742  28.764  32.694  1.00  0.00     0.074 A 
ATOM     61  C   UNL A   1      43.395  27.758  31.883  1.00  0.00     0.031 C 
ATOM     62  C   UNL A   1      43.134  29.109  33.946  1.00  0.00     0.037 A 
BRANCH  49  63
ATOM     63  C   UNL A   1      39.758  33.599  36.523  1.00  0.00     0.064 A 
ATOM     64  C   UNL A   1      40.391  34.850  36.609  1.00  0.00     0.173 A 
ATOM     65  C   UNL A   1      38.885  33.237  37.559  1.00  0.00     0.173 A 
ATOM     66  F   UNL A   1      41.247  35.240  35.652  1.00  0.00    -0.203 F 
ATOM     67  C   UNL A   1      40.183  35.687  37.701  1.00  0.00     0.198 A 
ATOM     68  C   UNL A   1      38.651  34.092  38.633  1.00  0.00     0.198 A 
ATOM     69  F   UNL A   1      38.250  32.056  37.527  1.00  0.00    -0.203 F 
ATOM     70  F   UNL A   1      40.841  36.851  37.786  1.00  0.00    -0.200 F 
ATOM     71  C   UNL A   1      39.306  35.312  38.708  1.00  0.00     0.200 A 
ATOM     72  F   UNL A   1      37.792  33.734  39.598  1.00  0.00    -0.200 F 
ATOM     73  F   UNL A   1      39.099  36.123  39.755  1.00  0.00    -0.200 F 
ENDBRANCH  49  63
BRANCH  50  74
ATOM     74  C   UNL A   1      41.029  27.915  28.390  1.00  0.00     0.064 A 
ATOM     75  C   UNL A   1      40.404  26.669  28.242  1.00  0.00     0.173 A 
ATOM     76  C   UNL A   1      41.867  28.349  27.353  1.00  0.00     0.173 A 
ATOM     77  F   UNL A   1      39.608  26.199  29.215  1.00  0.00    -0.203 F 
ATOM     78  C   UNL A   1      40.627  25.879  27.116  1.00  0.00     0.198 A 
ATOM     79  C   UNL A   1      42.064  27.573  26.213  1.00  0.00     0.198 A 
ATOM     80  F   UNL A   1      42.484  29.538  27.440  1.00  0.00    -0.203 F 
ATOM     81  F   UNL A   1      40.056  24.670  27.025  1.00  0.00    -0.200 F 
ATOM     82  C   UNL A   1      41.452  26.335  26.099  1.00  0.00     0.200 A 
ATOM     83  F   UNL A   1      42.849  28.025  25.225  1.00  0.00    -0.200 F 
ATOM     84  F   UNL A   1      41.664  25.576  25.015  1.00  0.00    -0.200 F 
ENDBRANCH  50  74
BRANCH  62  85
ATOM     85  C   UNL A   1      44.301  28.365  34.531  1.00  0.00     0.064 A 
ATOM     86  C   UNL A   1      44.134  27.157  35.222  1.00  0.00     0.173 A 
ATOM     87  C   UNL A   1      45.607  28.849  34.359  1.00  0.00     0.173 A 
ATOM     88  F   UNL A   1      42.905  26.659  35.426  1.00  0.00    -0.203 F 
ATOM     89  C   UNL A   1      45.230  26.475  35.745  1.00  0.00     0.198 A 
ATOM     90  C   UNL A   1      46.702  28.147  34.853  1.00  0.00     0.198 A 
ATOM     91  F   UNL A   1      45.822  29.996  33.698  1.00  0.00    -0.203 F 
ATOM     92  F   UNL A   1      45.042  25.349  36.447  1.00  0.00    -0.200 F 
ATOM     93  C   UNL A   1      46.513  26.966  35.553  1.00  0.00     0.200 A 
ATOM     94  F   UNL A   1      47.942  28.614  34.651  1.00  0.00    -0.200 F 
ATOM     95  F   UNL A   1      47.566  26.302  36.048  1.00  0.00    -0.200 F 
ENDBRANCH  62  85
ENDBRANCH  36  37
ENDBRANCH  28  31
ENDBRANCH  26  27
ENDBRANCH  25  26
ENDBRANCH   1  25
TORSDOF 15
ENDMDL
