MODEL 1
REMARK VINA RESULT:     -12.8      0.000      0.000
REMARK SMILES CC1(C)CCN(c2nc3c(cc2C(=O)NCCCNC(=O)c2ccc(-c4c5nc(c(-c6c(F)c(F)c(F)c(F)c6F)c6ccc([nH]6)c(-c6c(F)c(F)c(F)c(F)c6F)c6nc(c(-c7c(F)c(F)c(F)c(F)c7F)c7ccc4[nH]7)C=C6)C=C5)cc2)CCC3)C1
REMARK SMILES IDX 17 1 16 2 15 3 13 4 14 5 12 7 7 8 8 9 9 10 11 11 10 12 87 13
REMARK SMILES IDX 85 14 86 15 6 16 1 17 2 18 3 19 4 20 88 21 5 22 18 23 19 24
REMARK SMILES IDX 20 25 21 27 22 28 23 29 84 30 24 31 83 32 25 33 26 34 27 35
REMARK SMILES IDX 77 36 28 37 82 38 76 39 78 40 29 41 81 42 75 43 74 44 30 46
REMARK SMILES IDX 62 47 42 48 61 49 43 50 46 51 60 52 79 53 44 54 45 55 59 57
REMARK SMILES IDX 80 58 47 59 31 60 32 61 40 62 33 63 34 64 38 65 41 66 35 67
REMARK SMILES IDX 36 68 39 69 37 70 63 71 64 72 72 73 65 74 66 75 70 76 73 77
REMARK SMILES IDX 67 78 68 79 71 80 69 81 48 82 49 83 57 84 50 85 51 86 55 87
REMARK SMILES IDX 58 88 52 89 53 90 56 91 54 92
REMARK H PARENT 15 6 19 26 78 45 46 56
REMARK Flexibility Score: inf
ROOT
ATOM      1  C   UNL A   1      34.118  27.983  26.220  1.00  0.00     0.042 C 
ENDROOT
BRANCH   1   2
ATOM      2  C   UNL A   1      33.940  28.752  24.918  1.00  0.00     0.118 C 
BRANCH   2   3
ATOM      3  N   UNL A   1      34.118  27.972  23.711  1.00  0.00    -0.352 N 
ATOM      4  C   UNL A   1      33.203  27.622  22.749  1.00  0.00     0.255 C 
ATOM      5  O   UNL A   1      33.648  27.076  21.735  1.00  0.00    -0.269 OA
ATOM      6  H   UNL A   1      35.034  27.644  23.558  1.00  0.00     0.163 HD
BRANCH   4   7
ATOM      7  C   UNL A   1      31.727  27.749  22.894  1.00  0.00     0.082 A 
ATOM      8  C   UNL A   1      30.833  26.805  23.450  1.00  0.00     0.141 A 
ATOM      9  N   UNL A   1      29.491  27.040  23.500  1.00  0.00    -0.235 NA
ATOM     10  C   UNL A   1      29.053  28.222  23.043  1.00  0.00     0.046 A 
ATOM     11  C   UNL A   1      31.214  28.979  22.430  1.00  0.00     0.023 A 
ATOM     12  C   UNL A   1      29.859  29.208  22.510  1.00  0.00    -0.025 A 
ATOM     13  C   UNL A   1      27.625  28.683  23.126  1.00  0.00     0.057 C 
ATOM     14  C   UNL A   1      29.073  30.424  22.153  1.00  0.00     0.038 C 
ATOM     15  C   UNL A   1      27.642  29.862  22.143  1.00  0.00     0.011 C 
BRANCH   8  16
ATOM     16  N   UNL A   1      31.230  25.607  23.995  1.00  0.00    -0.355 N 
ATOM     17  C   UNL A   1      30.269  23.603  26.561  1.00  0.00     0.013 C 
ATOM     18  C   UNL A   1      31.496  23.989  25.724  1.00  0.00    -0.016 C 
ATOM     19  C   UNL A   1      32.767  23.549  26.453  1.00  0.00     0.013 C 
ATOM     20  C   UNL A   1      31.397  23.331  24.331  1.00  0.00     0.030 C 
ATOM     21  C   UNL A   1      31.517  25.518  25.425  1.00  0.00     0.124 C 
ATOM     22  C   UNL A   1      30.653  24.370  23.501  1.00  0.00     0.119 C 
ENDBRANCH   8  16
ENDBRANCH   4   7
ENDBRANCH   2   3
ENDBRANCH   1   2
BRANCH   1  23
ATOM     23  C   UNL A   1      33.342  28.562  27.400  1.00  0.00     0.118 C 
BRANCH  23  24
ATOM     24  N   UNL A   1      33.507  29.997  27.599  1.00  0.00    -0.352 N 
ATOM     25  C   UNL A   1      34.565  30.771  28.008  1.00  0.00     0.251 C 
ATOM     26  H   UNL A   1      32.695  30.517  27.400  1.00  0.00     0.163 HD
ATOM     27  O   UNL A   1      34.398  31.981  28.160  1.00  0.00    -0.269 OA
BRANCH  25  28
ATOM     28  C   UNL A   1      35.885  30.186  28.331  1.00  0.00     0.039 A 
ATOM     29  C   UNL A   1      36.876  30.188  27.341  1.00  0.00     0.014 A 
ATOM     30  C   UNL A   1      36.157  29.608  29.567  1.00  0.00     0.014 A 
ATOM     31  C   UNL A   1      38.155  29.702  27.625  1.00  0.00     0.010 A 
ATOM     32  C   UNL A   1      37.455  29.218  29.885  1.00  0.00     0.010 A 
ATOM     33  C   UNL A   1      38.471  29.267  28.921  1.00  0.00    -0.014 A 
BRANCH  33  34
ATOM     34  C   UNL A   1      39.850  28.869  29.302  1.00  0.00     0.031 A 
ATOM     35  C   UNL A   1      40.700  29.786  30.137  1.00  0.00     0.074 A 
ATOM     36  C   UNL A   1      40.371  27.726  28.810  1.00  0.00     0.049 A 
ATOM     37  N   UNL A   1      41.967  29.683  30.451  1.00  0.00    -0.248 NA
ATOM     38  C   UNL A   1      40.050  30.999  30.657  1.00  0.00     0.031 C 
ATOM     39  C   UNL A   1      39.666  26.779  27.944  1.00  0.00     0.029 A 
ATOM     40  N   UNL A   1      41.619  27.175  28.955  1.00  0.00    -0.354 N 
ATOM     41  C   UNL A   1      42.269  30.828  31.177  1.00  0.00     0.074 A 
ATOM     42  C   UNL A   1      41.071  31.636  31.213  1.00  0.00     0.031 C 
ATOM     43  C   UNL A   1      40.479  25.748  27.664  1.00  0.00     0.029 A 
ATOM     44  C   UNL A   1      41.775  25.981  28.293  1.00  0.00     0.049 A 
ATOM     45  H   UNL A   1      42.335  27.594  29.484  1.00  0.00     0.167 HD
ATOM     46  C   UNL A   1      43.433  31.160  31.783  1.00  0.00     0.037 A 
ATOM     47  C   UNL A   1      42.844  25.167  28.201  1.00  0.00     0.037 A 
ATOM     48  C   UNL A   1      44.607  30.329  31.788  1.00  0.00     0.049 A 
ATOM     49  C   UNL A   1      44.117  25.547  28.902  1.00  0.00     0.074 A 
ATOM     50  C   UNL A   1      45.817  30.549  32.423  1.00  0.00     0.029 A 
ATOM     51  N   UNL A   1      44.710  29.109  31.138  1.00  0.00    -0.354 N 
ATOM     52  N   UNL A   1      44.377  26.611  29.622  1.00  0.00    -0.248 NA
ATOM     53  C   UNL A   1      45.247  24.613  28.782  1.00  0.00     0.031 C 
ATOM     54  C   UNL A   1      46.661  29.472  32.136  1.00  0.00     0.029 A 
ATOM     55  C   UNL A   1      45.966  28.566  31.352  1.00  0.00     0.049 A 
ATOM     56  H   UNL A   1      43.997  28.690  30.603  1.00  0.00     0.167 HD
ATOM     57  C   UNL A   1      45.683  26.463  30.064  1.00  0.00     0.074 A 
ATOM     58  C   UNL A   1      46.165  25.204  29.535  1.00  0.00     0.031 C 
ATOM     59  C   UNL A   1      46.417  27.299  30.837  1.00  0.00     0.037 A 
BRANCH  46  60
ATOM     60  C   UNL A   1      43.488  32.467  32.518  1.00  0.00     0.064 A 
ATOM     61  C   UNL A   1      43.856  33.655  31.866  1.00  0.00     0.173 A 
ATOM     62  C   UNL A   1      43.124  32.545  33.870  1.00  0.00     0.173 A 
ATOM     63  F   UNL A   1      44.222  33.631  30.576  1.00  0.00    -0.203 F 
ATOM     64  C   UNL A   1      43.882  34.867  32.549  1.00  0.00     0.198 A 
ATOM     65  C   UNL A   1      43.125  33.765  34.542  1.00  0.00     0.198 A 
ATOM     66  F   UNL A   1      42.757  31.441  34.537  1.00  0.00    -0.203 F 
ATOM     67  F   UNL A   1      44.280  35.980  31.918  1.00  0.00    -0.200 F 
ATOM     68  C   UNL A   1      43.510  34.923  33.883  1.00  0.00     0.200 A 
ATOM     69  F   UNL A   1      42.752  33.820  35.829  1.00  0.00    -0.200 F 
ATOM     70  F   UNL A   1      43.527  36.093  34.538  1.00  0.00    -0.200 F 
ENDBRANCH  46  60
BRANCH  47  71
ATOM     71  C   UNL A   1      42.729  23.885  27.461  1.00  0.00     0.064 A 
ATOM     72  C   UNL A   1      43.109  23.807  26.114  1.00  0.00     0.173 A 
ATOM     73  C   UNL A   1      42.270  22.713  28.079  1.00  0.00     0.173 A 
ATOM     74  F   UNL A   1      43.538  24.906  25.476  1.00  0.00    -0.203 F 
ATOM     75  C   UNL A   1      43.027  22.609  25.410  1.00  0.00     0.198 A 
ATOM     76  C   UNL A   1      42.208  21.509  27.381  1.00  0.00     0.198 A 
ATOM     77  F   UNL A   1      41.902  22.735  29.369  1.00  0.00    -0.203 F 
ATOM     78  F   UNL A   1      43.371  22.569  24.116  1.00  0.00    -0.200 F 
ATOM     79  C   UNL A   1      42.583  21.458  26.046  1.00  0.00     0.200 A 
ATOM     80  F   UNL A   1      41.794  20.397  28.001  1.00  0.00    -0.200 F 
ATOM     81  F   UNL A   1      42.514  20.302  25.372  1.00  0.00    -0.200 F 
ENDBRANCH  47  71
BRANCH  59  82
ATOM     82  C   UNL A   1      47.807  26.873  31.198  1.00  0.00     0.064 A 
ATOM     83  C   UNL A   1      48.047  25.980  32.251  1.00  0.00     0.173 A 
ATOM     84  C   UNL A   1      48.898  27.286  30.418  1.00  0.00     0.173 A 
ATOM     85  F   UNL A   1      47.035  25.568  33.031  1.00  0.00    -0.203 F 
ATOM     86  C   UNL A   1      49.332  25.515  32.512  1.00  0.00     0.198 A 
ATOM     87  C   UNL A   1      50.178  26.802  30.668  1.00  0.00     0.198 A 
ATOM     88  F   UNL A   1      48.715  28.136  29.396  1.00  0.00    -0.203 F 
ATOM     89  F   UNL A   1      49.545  24.674  33.534  1.00  0.00    -0.200 F 
ATOM     90  C   UNL A   1      50.394  25.917  31.714  1.00  0.00     0.200 A 
ATOM     91  F   UNL A   1      51.200  27.181  29.889  1.00  0.00    -0.200 F 
ATOM     92  F   UNL A   1      51.628  25.451  31.953  1.00  0.00    -0.200 F 
ENDBRANCH  59  82
ENDBRANCH  33  34
ENDBRANCH  25  28
ENDBRANCH  23  24
ENDBRANCH   1  23
TORSDOF 11
ENDMDL
MODEL 2
REMARK VINA RESULT:     -12.7      4.111      8.712
REMARK SMILES CC1(C)CCN(c2nc3c(cc2C(=O)NCCCNC(=O)c2ccc(-c4c5nc(c(-c6c(F)c(F)c(F)c(F)c6F)c6ccc([nH]6)c(-c6c(F)c(F)c(F)c(F)c6F)c6nc(c(-c7c(F)c(F)c(F)c(F)c7F)c7ccc4[nH]7)C=C6)C=C5)cc2)CCC3)C1
REMARK SMILES IDX 17 1 16 2 15 3 13 4 14 5 12 7 7 8 8 9 9 10 11 11 10 12 87 13
REMARK SMILES IDX 85 14 86 15 6 16 1 17 2 18 3 19 4 20 88 21 5 22 18 23 19 24
REMARK SMILES IDX 20 25 21 27 22 28 23 29 84 30 24 31 83 32 25 33 26 34 27 35
REMARK SMILES IDX 77 36 28 37 82 38 76 39 78 40 29 41 81 42 75 43 74 44 30 46
REMARK SMILES IDX 62 47 42 48 61 49 43 50 46 51 60 52 79 53 44 54 45 55 59 57
REMARK SMILES IDX 80 58 47 59 31 60 32 61 40 62 33 63 34 64 38 65 41 66 35 67
REMARK SMILES IDX 36 68 39 69 37 70 63 71 64 72 72 73 65 74 66 75 70 76 73 77
REMARK SMILES IDX 67 78 68 79 71 80 69 81 48 82 49 83 57 84 50 85 51 86 55 87
REMARK SMILES IDX 58 88 52 89 53 90 56 91 54 92
REMARK H PARENT 15 6 19 26 78 45 46 56
REMARK Flexibility Score: inf
ROOT
ATOM      1  C   UNL A   1      38.896  21.366  26.126  1.00  0.00     0.042 C 
ENDROOT
BRANCH   1   2
ATOM      2  C   UNL A   1      37.649  22.166  25.775  1.00  0.00     0.118 C 
BRANCH   2   3
ATOM      3  N   UNL A   1      37.364  22.277  24.361  1.00  0.00    -0.352 N 
ATOM      4  C   UNL A   1      36.298  22.862  23.722  1.00  0.00     0.255 C 
ATOM      5  O   UNL A   1      36.371  22.953  22.494  1.00  0.00    -0.269 OA
ATOM      6  H   UNL A   1      38.035  21.870  23.767  1.00  0.00     0.163 HD
BRANCH   4   7
ATOM      7  C   UNL A   1      35.035  23.281  24.389  1.00  0.00     0.082 A 
ATOM      8  C   UNL A   1      33.877  22.500  24.607  1.00  0.00     0.141 A 
ATOM      9  N   UNL A   1      32.772  23.020  25.214  1.00  0.00    -0.235 NA
ATOM     10  C   UNL A   1      32.840  24.290  25.639  1.00  0.00     0.046 A 
ATOM     11  C   UNL A   1      35.055  24.612  24.859  1.00  0.00     0.023 A 
ATOM     12  C   UNL A   1      33.938  25.113  25.490  1.00  0.00    -0.025 A 
ATOM     13  C   UNL A   1      31.757  24.978  26.422  1.00  0.00     0.057 C 
ATOM     14  C   UNL A   1      33.716  26.444  26.126  1.00  0.00     0.038 C 
ATOM     15  C   UNL A   1      32.187  26.445  26.287  1.00  0.00     0.011 C 
BRANCH   8  16
ATOM     16  N   UNL A   1      33.773  21.176  24.256  1.00  0.00    -0.355 N 
ATOM     17  C   UNL A   1      32.842  18.272  25.750  1.00  0.00     0.013 C 
ATOM     18  C   UNL A   1      33.742  18.823  24.636  1.00  0.00    -0.016 C 
ATOM     19  C   UNL A   1      34.778  17.765  24.250  1.00  0.00     0.013 C 
ATOM     20  C   UNL A   1      32.875  19.221  23.422  1.00  0.00     0.030 C 
ATOM     21  C   UNL A   1      34.428  20.153  25.070  1.00  0.00     0.124 C 
ATOM     22  C   UNL A   1      32.528  20.679  23.698  1.00  0.00     0.119 C 
ENDBRANCH   8  16
ENDBRANCH   4   7
ENDBRANCH   2   3
ENDBRANCH   1   2
BRANCH   1  23
ATOM     23  C   UNL A   1      39.093  20.111  25.279  1.00  0.00     0.118 C 
BRANCH  23  24
ATOM     24  N   UNL A   1      40.138  19.209  25.751  1.00  0.00    -0.352 N 
ATOM     25  C   UNL A   1      41.384  19.419  26.288  1.00  0.00     0.251 C 
ATOM     26  H   UNL A   1      39.902  18.257  25.668  1.00  0.00     0.163 HD
ATOM     27  O   UNL A   1      42.100  18.449  26.535  1.00  0.00    -0.269 OA
BRANCH  25  28
ATOM     28  C   UNL A   1      41.919  20.778  26.520  1.00  0.00     0.039 A 
ATOM     29  C   UNL A   1      42.252  21.564  25.409  1.00  0.00     0.014 A 
ATOM     30  C   UNL A   1      42.134  21.282  27.800  1.00  0.00     0.014 A 
ATOM     31  C   UNL A   1      42.702  22.876  25.583  1.00  0.00     0.010 A 
ATOM     32  C   UNL A   1      42.483  22.618  27.974  1.00  0.00     0.010 A 
ATOM     33  C   UNL A   1      42.764  23.433  26.869  1.00  0.00    -0.014 A 
BRANCH  33  34
ATOM     34  C   UNL A   1      43.107  24.861  27.091  1.00  0.00     0.031 A 
ATOM     35  C   UNL A   1      44.487  25.367  26.774  1.00  0.00     0.074 A 
ATOM     36  C   UNL A   1      42.205  25.677  27.673  1.00  0.00     0.049 A 
ATOM     37  N   UNL A   1      45.020  26.535  27.030  1.00  0.00    -0.248 NA
ATOM     38  C   UNL A   1      45.404  24.422  26.117  1.00  0.00     0.031 C 
ATOM     39  C   UNL A   1      40.853  25.292  28.077  1.00  0.00     0.029 A 
ATOM     40  N   UNL A   1      42.296  26.997  28.039  1.00  0.00    -0.354 N 
ATOM     41  C   UNL A   1      46.336  26.454  26.593  1.00  0.00     0.074 A 
ATOM     42  C   UNL A   1      46.538  25.108  26.104  1.00  0.00     0.031 C 
ATOM     43  C   UNL A   1      40.229  26.358  28.602  1.00  0.00     0.029 A 
ATOM     44  C   UNL A   1      41.149  27.490  28.612  1.00  0.00     0.049 A 
ATOM     45  H   UNL A   1      43.106  27.539  27.903  1.00  0.00     0.167 HD
ATOM     46  C   UNL A   1      47.280  27.423  26.574  1.00  0.00     0.037 A 
ATOM     47  C   UNL A   1      40.872  28.716  29.094  1.00  0.00     0.037 A 
ATOM     48  C   UNL A   1      47.059  28.776  27.012  1.00  0.00     0.049 A 
ATOM     49  C   UNL A   1      41.930  29.782  29.041  1.00  0.00     0.074 A 
ATOM     50  C   UNL A   1      47.934  29.847  26.978  1.00  0.00     0.029 A 
ATOM     51  N   UNL A   1      45.870  29.243  27.551  1.00  0.00    -0.354 N 
ATOM     52  N   UNL A   1      43.156  29.704  28.585  1.00  0.00    -0.248 NA
ATOM     53  C   UNL A   1      41.567  31.106  29.566  1.00  0.00     0.031 C 
ATOM     54  C   UNL A   1      47.282  30.959  27.520  1.00  0.00     0.029 A 
ATOM     55  C   UNL A   1      45.990  30.588  27.858  1.00  0.00     0.049 A 
ATOM     56  H   UNL A   1      45.061  28.701  27.694  1.00  0.00     0.167 HD
ATOM     57  C   UNL A   1      43.701  30.970  28.739  1.00  0.00     0.074 A 
ATOM     58  C   UNL A   1      42.672  31.801  29.328  1.00  0.00     0.031 C 
ATOM     59  C   UNL A   1      44.945  31.403  28.421  1.00  0.00     0.037 A 
BRANCH  46  60
ATOM     60  C   UNL A   1      48.634  27.067  26.033  1.00  0.00     0.064 A 
ATOM     61  C   UNL A   1      49.630  26.528  26.862  1.00  0.00     0.173 A 
ATOM     62  C   UNL A   1      48.925  27.218  24.669  1.00  0.00     0.173 A 
ATOM     63  F   UNL A   1      49.405  26.373  28.175  1.00  0.00    -0.203 F 
ATOM     64  C   UNL A   1      50.876  26.178  26.349  1.00  0.00     0.198 A 
ATOM     65  C   UNL A   1      50.163  26.841  24.156  1.00  0.00     0.198 A 
ATOM     66  F   UNL A   1      48.004  27.721  23.833  1.00  0.00    -0.203 F 
ATOM     67  F   UNL A   1      51.826  25.707  27.168  1.00  0.00    -0.200 F 
ATOM     68  C   UNL A   1      51.139  26.328  24.996  1.00  0.00     0.200 A 
ATOM     69  F   UNL A   1      50.412  26.974  22.845  1.00  0.00    -0.200 F 
ATOM     70  F   UNL A   1      52.336  25.982  24.502  1.00  0.00    -0.200 F 
ENDBRANCH  46  60
BRANCH  47  71
ATOM     71  C   UNL A   1      39.513  29.010  29.615  1.00  0.00     0.064 A 
ATOM     72  C   UNL A   1      38.509  29.478  28.755  1.00  0.00     0.173 A 
ATOM     73  C   UNL A   1      39.177  28.807  30.961  1.00  0.00     0.173 A 
ATOM     74  F   UNL A   1      38.789  29.703  27.463  1.00  0.00    -0.203 F 
ATOM     75  C   UNL A   1      37.224  29.739  29.222  1.00  0.00     0.198 A 
ATOM     76  C   UNL A   1      37.885  29.048  31.424  1.00  0.00     0.198 A 
ATOM     77  F   UNL A   1      40.100  28.353  31.822  1.00  0.00    -0.203 F 
ATOM     78  F   UNL A   1      36.291  30.211  28.384  1.00  0.00    -0.200 F 
ATOM     79  C   UNL A   1      36.910  29.517  30.555  1.00  0.00     0.200 A 
ATOM     80  F   UNL A   1      37.581  28.819  32.708  1.00  0.00    -0.200 F 
ATOM     81  F   UNL A   1      35.671  29.758  31.003  1.00  0.00    -0.200 F 
ENDBRANCH  47  71
BRANCH  59  82
ATOM     82  C   UNL A   1      45.263  32.847  28.664  1.00  0.00     0.064 A 
ATOM     83  C   UNL A   1      45.917  33.264  29.831  1.00  0.00     0.173 A 
ATOM     84  C   UNL A   1      44.999  33.805  27.673  1.00  0.00     0.173 A 
ATOM     85  F   UNL A   1      46.179  32.384  30.809  1.00  0.00    -0.203 F 
ATOM     86  C   UNL A   1      46.296  34.593  29.998  1.00  0.00     0.198 A 
ATOM     87  C   UNL A   1      45.398  35.127  27.835  1.00  0.00     0.198 A 
ATOM     88  F   UNL A   1      44.379  33.449  26.537  1.00  0.00    -0.203 F 
ATOM     89  F   UNL A   1      46.905  34.977  31.128  1.00  0.00    -0.200 F 
ATOM     90  C   UNL A   1      46.046  35.520  28.996  1.00  0.00     0.200 A 
ATOM     91  F   UNL A   1      45.168  36.019  26.862  1.00  0.00    -0.200 F 
ATOM     92  F   UNL A   1      46.431  36.795  29.150  1.00  0.00    -0.200 F 
ENDBRANCH  59  82
ENDBRANCH  33  34
ENDBRANCH  25  28
ENDBRANCH  23  24
ENDBRANCH   1  23
TORSDOF 11
ENDMDL
MODEL 3
REMARK VINA RESULT:     -12.7      2.883      7.814
REMARK SMILES CC1(C)CCN(c2nc3c(cc2C(=O)NCCCNC(=O)c2ccc(-c4c5nc(c(-c6c(F)c(F)c(F)c(F)c6F)c6ccc([nH]6)c(-c6c(F)c(F)c(F)c(F)c6F)c6nc(c(-c7c(F)c(F)c(F)c(F)c7F)c7ccc4[nH]7)C=C6)C=C5)cc2)CCC3)C1
REMARK SMILES IDX 17 1 16 2 15 3 13 4 14 5 12 7 7 8 8 9 9 10 11 11 10 12 87 13
REMARK SMILES IDX 85 14 86 15 6 16 1 17 2 18 3 19 4 20 88 21 5 22 18 23 19 24
REMARK SMILES IDX 20 25 21 27 22 28 23 29 84 30 24 31 83 32 25 33 26 34 27 35
REMARK SMILES IDX 77 36 28 37 82 38 76 39 78 40 29 41 81 42 75 43 74 44 30 46
REMARK SMILES IDX 62 47 42 48 61 49 43 50 46 51 60 52 79 53 44 54 45 55 59 57
REMARK SMILES IDX 80 58 47 59 31 60 32 61 40 62 33 63 34 64 38 65 41 66 35 67
REMARK SMILES IDX 36 68 39 69 37 70 63 71 64 72 72 73 65 74 66 75 70 76 73 77
REMARK SMILES IDX 67 78 68 79 71 80 69 81 48 82 49 83 57 84 50 85 51 86 55 87
REMARK SMILES IDX 58 88 52 89 53 90 56 91 54 92
REMARK H PARENT 15 6 19 26 78 45 46 56
REMARK Flexibility Score: inf
ROOT
ATOM      1  C   UNL A   1      33.307  29.247  24.941  1.00  0.00     0.042 C 
ENDROOT
BRANCH   1   2
ATOM      2  C   UNL A   1      33.899  27.844  24.908  1.00  0.00     0.118 C 
BRANCH   2   3
ATOM      3  N   UNL A   1      33.949  27.225  23.601  1.00  0.00    -0.352 N 
ATOM      4  C   UNL A   1      32.951  27.043  22.676  1.00  0.00     0.255 C 
ATOM      5  O   UNL A   1      33.293  26.620  21.568  1.00  0.00    -0.269 OA
ATOM      6  H   UNL A   1      34.834  26.883  23.335  1.00  0.00     0.163 HD
BRANCH   4   7
ATOM      7  C   UNL A   1      31.498  27.208  22.952  1.00  0.00     0.082 A 
ATOM      8  C   UNL A   1      30.651  26.327  23.664  1.00  0.00     0.141 A 
ATOM      9  N   UNL A   1      29.323  26.591  23.823  1.00  0.00    -0.235 NA
ATOM     10  C   UNL A   1      28.855  27.742  23.318  1.00  0.00     0.046 A 
ATOM     11  C   UNL A   1      30.955  28.408  22.443  1.00  0.00     0.023 A 
ATOM     12  C   UNL A   1      29.617  28.668  22.634  1.00  0.00    -0.025 A 
ATOM     13  C   UNL A   1      27.448  28.234  23.501  1.00  0.00     0.057 C 
ATOM     14  C   UNL A   1      28.813  29.867  22.258  1.00  0.00     0.038 C 
ATOM     15  C   UNL A   1      27.382  29.332  22.431  1.00  0.00     0.011 C 
BRANCH   8  16
ATOM     16  N   UNL A   1      31.086  25.169  24.262  1.00  0.00    -0.355 N 
ATOM     17  C   UNL A   1      30.047  23.117  26.759  1.00  0.00     0.013 C 
ATOM     18  C   UNL A   1      31.313  23.591  26.033  1.00  0.00    -0.016 C 
ATOM     19  C   UNL A   1      32.541  23.256  26.882  1.00  0.00     0.013 C 
ATOM     20  C   UNL A   1      31.394  22.915  24.647  1.00  0.00     0.030 C 
ATOM     21  C   UNL A   1      31.245  25.114  25.713  1.00  0.00     0.124 C 
ATOM     22  C   UNL A   1      30.654  23.886  23.736  1.00  0.00     0.119 C 
ENDBRANCH   8  16
ENDBRANCH   4   7
ENDBRANCH   2   3
ENDBRANCH   1   2
BRANCH   1  23
ATOM     23  C   UNL A   1      32.478  29.548  26.187  1.00  0.00     0.118 C 
BRANCH  23  24
ATOM     24  N   UNL A   1      32.367  30.963  26.524  1.00  0.00    -0.352 N 
ATOM     25  C   UNL A   1      33.162  31.819  27.246  1.00  0.00     0.251 C 
ATOM     26  H   UNL A   1      31.560  31.391  26.160  1.00  0.00     0.163 HD
ATOM     27  O   UNL A   1      32.779  32.973  27.436  1.00  0.00    -0.269 OA
BRANCH  25  28
ATOM     28  C   UNL A   1      34.436  31.379  27.856  1.00  0.00     0.039 A 
ATOM     29  C   UNL A   1      35.458  32.324  28.020  1.00  0.00     0.014 A 
ATOM     30  C   UNL A   1      34.661  30.059  28.234  1.00  0.00     0.014 A 
ATOM     31  C   UNL A   1      36.654  31.965  28.648  1.00  0.00     0.010 A 
ATOM     32  C   UNL A   1      35.807  29.724  28.950  1.00  0.00     0.010 A 
ATOM     33  C   UNL A   1      36.814  30.673  29.171  1.00  0.00    -0.014 A 
BRANCH  33  34
ATOM     34  C   UNL A   1      38.010  30.288  29.962  1.00  0.00     0.031 A 
ATOM     35  C   UNL A   1      39.029  29.345  29.384  1.00  0.00     0.074 A 
ATOM     36  C   UNL A   1      38.126  30.708  31.238  1.00  0.00     0.049 A 
ATOM     37  N   UNL A   1      40.058  28.781  29.965  1.00  0.00    -0.248 NA
ATOM     38  C   UNL A   1      38.846  28.954  27.978  1.00  0.00     0.031 C 
ATOM     39  C   UNL A   1      37.177  31.581  31.931  1.00  0.00     0.029 A 
ATOM     40  N   UNL A   1      39.085  30.446  32.185  1.00  0.00    -0.354 N 
ATOM     41  C   UNL A   1      40.624  27.950  29.006  1.00  0.00     0.074 A 
ATOM     42  C   UNL A   1      39.796  28.042  27.824  1.00  0.00     0.031 C 
ATOM     43  C   UNL A   1      37.617  31.809  33.178  1.00  0.00     0.029 A 
ATOM     44  C   UNL A   1      38.855  31.067  33.389  1.00  0.00     0.049 A 
ATOM     45  H   UNL A   1      39.863  29.868  32.017  1.00  0.00     0.167 HD
ATOM     46  C   UNL A   1      41.748  27.202  29.094  1.00  0.00     0.037 A 
ATOM     47  C   UNL A   1      39.562  31.038  34.534  1.00  0.00     0.037 A 
ATOM     48  C   UNL A   1      42.598  27.154  30.254  1.00  0.00     0.049 A 
ATOM     49  C   UNL A   1      40.819  30.219  34.600  1.00  0.00     0.074 A 
ATOM     50  C   UNL A   1      43.790  26.473  30.422  1.00  0.00     0.029 A 
ATOM     51  N   UNL A   1      42.349  27.829  31.440  1.00  0.00    -0.354 N 
ATOM     52  N   UNL A   1      41.367  29.472  33.672  1.00  0.00    -0.248 NA
ATOM     53  C   UNL A   1      41.560  30.237  35.870  1.00  0.00     0.031 C 
ATOM     54  C   UNL A   1      44.251  26.717  31.720  1.00  0.00     0.029 A 
ATOM     55  C   UNL A   1      43.364  27.577  32.346  1.00  0.00     0.049 A 
ATOM     56  H   UNL A   1      41.567  28.403  31.612  1.00  0.00     0.167 HD
ATOM     57  C   UNL A   1      42.527  28.957  34.231  1.00  0.00     0.074 A 
ATOM     58  C   UNL A   1      42.609  29.478  35.580  1.00  0.00     0.031 C 
ATOM     59  C   UNL A   1      43.440  28.126  33.675  1.00  0.00     0.037 A 
BRANCH  46  60
ATOM     60  C   UNL A   1      42.144  26.395  27.893  1.00  0.00     0.064 A 
ATOM     61  C   UNL A   1      43.101  26.867  26.981  1.00  0.00     0.173 A 
ATOM     62  C   UNL A   1      41.601  25.120  27.675  1.00  0.00     0.173 A 
ATOM     63  F   UNL A   1      43.642  28.083  27.140  1.00  0.00    -0.203 F 
ATOM     64  C   UNL A   1      43.480  26.102  25.881  1.00  0.00     0.198 A 
ATOM     65  C   UNL A   1      42.004  24.347  26.589  1.00  0.00     0.198 A 
ATOM     66  F   UNL A   1      40.689  24.619  28.521  1.00  0.00    -0.203 F 
ATOM     67  F   UNL A   1      44.362  26.592  25.000  1.00  0.00    -0.200 F 
ATOM     68  C   UNL A   1      42.937  24.841  25.690  1.00  0.00     0.200 A 
ATOM     69  F   UNL A   1      41.488  23.122  26.412  1.00  0.00    -0.200 F 
ATOM     70  F   UNL A   1      43.310  24.102  24.635  1.00  0.00    -0.200 F 
ENDBRANCH  46  60
BRANCH  47  71
ATOM     71  C   UNL A   1      39.121  31.860  35.690  1.00  0.00     0.064 A 
ATOM     72  C   UNL A   1      38.252  31.325  36.651  1.00  0.00     0.173 A 
ATOM     73  C   UNL A   1      39.573  33.174  35.877  1.00  0.00     0.173 A 
ATOM     74  F   UNL A   1      37.780  30.078  36.504  1.00  0.00    -0.203 F 
ATOM     75  C   UNL A   1      37.844  32.074  37.751  1.00  0.00     0.198 A 
ATOM     76  C   UNL A   1      39.182  33.916  36.990  1.00  0.00     0.198 A 
ATOM     77  F   UNL A   1      40.412  33.728  34.990  1.00  0.00    -0.203 F 
ATOM     78  F   UNL A   1      36.991  31.547  38.640  1.00  0.00    -0.200 F 
ATOM     79  C   UNL A   1      38.316  33.368  37.924  1.00  0.00     0.200 A 
ATOM     80  F   UNL A   1      39.650  35.160  37.162  1.00  0.00    -0.200 F 
ATOM     81  F   UNL A   1      37.932  34.085  38.988  1.00  0.00    -0.200 F 
ENDBRANCH  47  71
BRANCH  59  82
ATOM     82  C   UNL A   1      44.632  27.749  34.501  1.00  0.00     0.064 A 
ATOM     83  C   UNL A   1      45.780  28.553  34.534  1.00  0.00     0.173 A 
ATOM     84  C   UNL A   1      44.584  26.628  35.342  1.00  0.00     0.173 A 
ATOM     85  F   UNL A   1      45.874  29.628  33.737  1.00  0.00    -0.203 F 
ATOM     86  C   UNL A   1      46.841  28.245  35.381  1.00  0.00     0.198 A 
ATOM     87  C   UNL A   1      45.637  26.335  36.203  1.00  0.00     0.198 A 
ATOM     88  F   UNL A   1      43.503  25.833  35.348  1.00  0.00    -0.203 F 
ATOM     89  F   UNL A   1      47.937  29.015  35.387  1.00  0.00    -0.200 F 
ATOM     90  C   UNL A   1      46.763  27.144  36.223  1.00  0.00     0.200 A 
ATOM     91  F   UNL A   1      45.556  25.280  37.025  1.00  0.00    -0.200 F 
ATOM     92  F   UNL A   1      47.777  26.862  37.054  1.00  0.00    -0.200 F 
ENDBRANCH  59  82
ENDBRANCH  33  34
ENDBRANCH  25  28
ENDBRANCH  23  24
ENDBRANCH   1  23
TORSDOF 11
ENDMDL
