MODEL 1
REMARK VINA RESULT:     -12.6      0.000      0.000
REMARK SMILES CC[C@](C)(NC(=O)N(C)Cc1cccc(C)c1)C(=O)NCCCNC(=O)c1ccc(-c2c3nc(c(-c4c(F)c(F)c(F)c(F)c4F)c4ccc([nH]4)c(-c4c(F)c(F)c(F)c(F)c4F)c4nc(c(-c5c(F)c(F)c(F)c(F)c5F)c5ccc2[nH]5)C=C4)C=C3)cc1
REMARK SMILES IDX 21 1 20 2 18 3 19 4 3 6 4 7 2 8 1 9 5 10 6 11 7 13 8 14 9 15
REMARK SMILES IDX 10 16 11 17 12 18 17 19 13 20 15 21 14 22 16 23 22 24 23 25
REMARK SMILES IDX 24 26 25 27 26 29 27 30 28 31 89 32 29 33 88 34 30 35 31 36
REMARK SMILES IDX 32 37 82 38 33 39 87 40 81 41 83 42 34 43 86 44 80 45 79 46
REMARK SMILES IDX 35 48 67 49 47 50 66 51 48 52 51 53 65 54 84 55 49 56 50 57
REMARK SMILES IDX 64 59 85 60 52 61 36 62 37 63 45 64 38 65 39 66 43 67 46 68
REMARK SMILES IDX 40 69 41 70 44 71 42 72 68 73 69 74 77 75 70 76 71 77 75 78
REMARK SMILES IDX 78 79 72 80 73 81 76 82 74 83 53 84 54 85 62 86 55 87 56 88
REMARK SMILES IDX 60 89 63 90 57 91 58 92 61 93 59 94
REMARK H PARENT 20 5 5 12 24 28 83 47 51 58
REMARK Flexibility Score: inf
ROOT
ATOM      1  C   UNL A   1      31.820  30.486  26.626  1.00  0.00     0.117 C 
ENDROOT
BRANCH   1   2
ATOM      2  N   UNL A   1      31.408  30.280  25.242  1.00  0.00    -0.354 N 
ATOM      3  C   UNL A   1      31.579  29.273  24.337  1.00  0.00     0.245 C 
ATOM      4  O   UNL A   1      30.835  29.336  23.348  1.00  0.00    -0.272 OA
ATOM      5  H   UNL A   1      30.889  31.035  24.881  1.00  0.00     0.163 HD
BRANCH   3   6
ATOM      6  C   UNL A   1      32.575  28.077  24.498  1.00  0.00     0.117 C 
ATOM      7  C   UNL A   1      34.027  28.504  24.166  1.00  0.00     0.045 C 
BRANCH   6   8
ATOM      8  C   UNL A   1      32.192  26.949  23.490  1.00  0.00     0.035 C 
ATOM      9  C   UNL A   1      33.296  26.550  22.511  1.00  0.00     0.007 C 
ENDBRANCH   6   8
BRANCH   6  10
ATOM     10  N   UNL A   1      32.589  27.498  25.865  1.00  0.00    -0.324 N 
ATOM     11  C   UNL A   1      31.613  26.801  26.524  1.00  0.00     0.318 C 
ATOM     12  H   UNL A   1      33.422  27.633  26.371  1.00  0.00     0.166 HD
ATOM     13  O   UNL A   1      31.241  27.262  27.604  1.00  0.00    -0.249 OA
BRANCH  11  14
ATOM     14  N   UNL A   1      31.322  25.518  26.116  1.00  0.00    -0.324 N 
ATOM     15  C   UNL A   1      29.940  25.066  26.089  1.00  0.00     0.149 C 
BRANCH  14  16
ATOM     16  C   UNL A   1      32.273  24.445  26.434  1.00  0.00     0.156 C 
BRANCH  16  17
ATOM     17  C   UNL A   1      33.398  24.076  25.479  1.00  0.00    -0.028 A 
ATOM     18  C   UNL A   1      33.043  23.373  24.310  1.00  0.00     0.005 A 
ATOM     19  C   UNL A   1      34.764  24.227  25.749  1.00  0.00     0.009 A 
ATOM     20  C   UNL A   1      34.010  22.835  23.461  1.00  0.00     0.001 A 
ATOM     21  C   UNL A   1      35.746  23.658  24.922  1.00  0.00    -0.051 A 
ATOM     22  C   UNL A   1      35.359  22.962  23.775  1.00  0.00     0.003 A 
ATOM     23  C   UNL A   1      37.194  23.703  25.320  1.00  0.00     0.044 C 
ENDBRANCH  16  17
ENDBRANCH  14  16
ENDBRANCH  11  14
ENDBRANCH   6  10
ENDBRANCH   3   6
ENDBRANCH   1   2
BRANCH   1  24
ATOM     24  C   UNL A   1      33.221  31.044  26.828  1.00  0.00     0.042 C 
BRANCH  24  25
ATOM     25  C   UNL A   1      34.000  30.359  27.946  1.00  0.00     0.118 C 
BRANCH  25  26
ATOM     26  N   UNL A   1      34.816  31.295  28.729  1.00  0.00    -0.352 N 
ATOM     27  C   UNL A   1      36.083  31.127  29.252  1.00  0.00     0.251 C 
ATOM     28  H   UNL A   1      34.399  32.168  28.907  1.00  0.00     0.163 HD
ATOM     29  O   UNL A   1      36.653  32.046  29.833  1.00  0.00    -0.269 OA
BRANCH  27  30
ATOM     30  C   UNL A   1      36.798  29.866  28.980  1.00  0.00     0.039 A 
ATOM     31  C   UNL A   1      37.135  29.057  30.070  1.00  0.00     0.014 A 
ATOM     32  C   UNL A   1      37.339  29.631  27.719  1.00  0.00     0.014 A 
ATOM     33  C   UNL A   1      38.214  28.189  29.954  1.00  0.00     0.010 A 
ATOM     34  C   UNL A   1      38.463  28.835  27.625  1.00  0.00     0.010 A 
ATOM     35  C   UNL A   1      38.944  28.180  28.764  1.00  0.00    -0.014 A 
BRANCH  35  36
ATOM     36  C   UNL A   1      40.300  27.650  28.690  1.00  0.00     0.031 A 
ATOM     37  C   UNL A   1      40.545  26.238  28.348  1.00  0.00     0.074 A 
ATOM     38  C   UNL A   1      41.344  28.480  28.916  1.00  0.00     0.049 A 
ATOM     39  N   UNL A   1      41.559  25.560  28.770  1.00  0.00    -0.248 NA
ATOM     40  C   UNL A   1      39.632  25.464  27.515  1.00  0.00     0.031 C 
ATOM     41  C   UNL A   1      42.762  28.203  28.703  1.00  0.00     0.029 A 
ATOM     42  N   UNL A   1      41.326  29.711  29.596  1.00  0.00    -0.354 N 
ATOM     43  C   UNL A   1      41.578  24.374  28.076  1.00  0.00     0.074 A 
ATOM     44  C   UNL A   1      40.327  24.333  27.351  1.00  0.00     0.031 C 
ATOM     45  C   UNL A   1      43.484  29.033  29.472  1.00  0.00     0.029 A 
ATOM     46  C   UNL A   1      42.548  29.772  30.303  1.00  0.00     0.049 A 
ATOM     47  H   UNL A   1      40.612  30.389  29.583  1.00  0.00     0.167 HD
ATOM     48  C   UNL A   1      42.707  23.608  28.069  1.00  0.00     0.037 A 
ATOM     49  C   UNL A   1      42.585  29.829  31.664  1.00  0.00     0.037 A 
ATOM     50  C   UNL A   1      43.765  24.192  28.882  1.00  0.00     0.049 A 
ATOM     51  C   UNL A   1      43.344  28.689  32.299  1.00  0.00     0.074 A 
ATOM     52  C   UNL A   1      44.836  25.009  28.560  1.00  0.00     0.029 A 
ATOM     53  N   UNL A   1      43.623  24.256  30.265  1.00  0.00    -0.354 N 
ATOM     54  N   UNL A   1      43.578  27.554  31.704  1.00  0.00    -0.248 NA
ATOM     55  C   UNL A   1      43.854  28.724  33.667  1.00  0.00     0.031 C 
ATOM     56  C   UNL A   1      45.300  25.619  29.748  1.00  0.00     0.029 A 
ATOM     57  C   UNL A   1      44.528  25.155  30.798  1.00  0.00     0.049 A 
ATOM     58  H   UNL A   1      42.970  23.737  30.789  1.00  0.00     0.167 HD
ATOM     59  C   UNL A   1      44.226  26.715  32.570  1.00  0.00     0.074 A 
ATOM     60  C   UNL A   1      44.391  27.496  33.781  1.00  0.00     0.031 C 
ATOM     61  C   UNL A   1      44.571  25.441  32.222  1.00  0.00     0.037 A 
BRANCH  48  62
ATOM     62  C   UNL A   1      42.910  22.522  27.045  1.00  0.00     0.064 A 
ATOM     63  C   UNL A   1      42.261  21.275  27.158  1.00  0.00     0.173 A 
ATOM     64  C   UNL A   1      43.805  22.638  25.967  1.00  0.00     0.173 A 
ATOM     65  F   UNL A   1      41.323  21.054  28.087  1.00  0.00    -0.203 F 
ATOM     66  C   UNL A   1      42.574  20.193  26.330  1.00  0.00     0.198 A 
ATOM     67  C   UNL A   1      44.157  21.543  25.173  1.00  0.00     0.198 A 
ATOM     68  F   UNL A   1      44.360  23.821  25.662  1.00  0.00    -0.203 F 
ATOM     69  F   UNL A   1      41.942  19.023  26.498  1.00  0.00    -0.200 F 
ATOM     70  C   UNL A   1      43.551  20.316  25.363  1.00  0.00     0.200 A 
ATOM     71  F   UNL A   1      45.103  21.678  24.231  1.00  0.00    -0.200 F 
ATOM     72  F   UNL A   1      43.898  19.261  24.614  1.00  0.00    -0.200 F 
ENDBRANCH  48  62
BRANCH  49  73
ATOM     73  C   UNL A   1      41.400  30.494  32.268  1.00  0.00     0.064 A 
ATOM     74  C   UNL A   1      41.258  31.886  32.105  1.00  0.00     0.173 A 
ATOM     75  C   UNL A   1      40.274  29.771  32.674  1.00  0.00     0.173 A 
ATOM     76  F   UNL A   1      42.307  32.627  31.715  1.00  0.00    -0.203 F 
ATOM     77  C   UNL A   1      40.018  32.507  32.228  1.00  0.00     0.198 A 
ATOM     78  C   UNL A   1      39.035  30.401  32.814  1.00  0.00     0.198 A 
ATOM     79  F   UNL A   1      40.339  28.442  32.830  1.00  0.00    -0.203 F 
ATOM     80  F   UNL A   1      39.894  33.814  31.950  1.00  0.00    -0.200 F 
ATOM     81  C   UNL A   1      38.901  31.759  32.559  1.00  0.00     0.200 A 
ATOM     82  F   UNL A   1      37.948  29.673  33.108  1.00  0.00    -0.200 F 
ATOM     83  F   UNL A   1      37.692  32.337  32.592  1.00  0.00    -0.200 F 
ENDBRANCH  49  73
BRANCH  61  84
ATOM     84  C   UNL A   1      45.093  24.395  33.170  1.00  0.00     0.064 A 
ATOM     85  C   UNL A   1      44.363  23.257  33.546  1.00  0.00     0.173 A 
ATOM     86  C   UNL A   1      46.430  24.449  33.629  1.00  0.00     0.173 A 
ATOM     87  F   UNL A   1      43.128  23.036  33.075  1.00  0.00    -0.203 F 
ATOM     88  C   UNL A   1      44.905  22.278  34.383  1.00  0.00     0.198 A 
ATOM     89  C   UNL A   1      46.985  23.445  34.420  1.00  0.00     0.198 A 
ATOM     90  F   UNL A   1      47.240  25.469  33.307  1.00  0.00    -0.203 F 
ATOM     91  F   UNL A   1      44.154  21.231  34.751  1.00  0.00    -0.200 F 
ATOM     92  C   UNL A   1      46.216  22.368  34.812  1.00  0.00     0.200 A 
ATOM     93  F   UNL A   1      48.271  23.520  34.787  1.00  0.00    -0.200 F 
ATOM     94  F   UNL A   1      46.743  21.408  35.584  1.00  0.00    -0.200 F 
ENDBRANCH  61  84
ENDBRANCH  35  36
ENDBRANCH  27  30
ENDBRANCH  25  26
ENDBRANCH  24  25
ENDBRANCH   1  24
TORSDOF 15
ENDMDL
MODEL 2
REMARK VINA RESULT:     -12.5      3.756     10.183
REMARK SMILES CC[C@](C)(NC(=O)N(C)Cc1cccc(C)c1)C(=O)NCCCNC(=O)c1ccc(-c2c3nc(c(-c4c(F)c(F)c(F)c(F)c4F)c4ccc([nH]4)c(-c4c(F)c(F)c(F)c(F)c4F)c4nc(c(-c5c(F)c(F)c(F)c(F)c5F)c5ccc2[nH]5)C=C4)C=C3)cc1
REMARK SMILES IDX 21 1 20 2 18 3 19 4 3 6 4 7 2 8 1 9 5 10 6 11 7 13 8 14 9 15
REMARK SMILES IDX 10 16 11 17 12 18 17 19 13 20 15 21 14 22 16 23 22 24 23 25
REMARK SMILES IDX 24 26 25 27 26 29 27 30 28 31 89 32 29 33 88 34 30 35 31 36
REMARK SMILES IDX 32 37 82 38 33 39 87 40 81 41 83 42 34 43 86 44 80 45 79 46
REMARK SMILES IDX 35 48 67 49 47 50 66 51 48 52 51 53 65 54 84 55 49 56 50 57
REMARK SMILES IDX 64 59 85 60 52 61 36 62 37 63 45 64 38 65 39 66 43 67 46 68
REMARK SMILES IDX 40 69 41 70 44 71 42 72 68 73 69 74 77 75 70 76 71 77 75 78
REMARK SMILES IDX 78 79 72 80 73 81 76 82 74 83 53 84 54 85 62 86 55 87 56 88
REMARK SMILES IDX 60 89 63 90 57 91 58 92 61 93 59 94
REMARK H PARENT 20 5 5 12 24 28 83 47 51 58
REMARK Flexibility Score: inf
ROOT
ATOM      1  C   UNL A   1      37.278  21.206  25.344  1.00  0.00     0.117 C 
ENDROOT
BRANCH   1   2
ATOM      2  N   UNL A   1      36.859  21.837  24.098  1.00  0.00    -0.354 N 
ATOM      3  C   UNL A   1      35.861  22.705  23.758  1.00  0.00     0.245 C 
ATOM      4  O   UNL A   1      35.999  23.241  22.649  1.00  0.00    -0.272 OA
ATOM      5  H   UNL A   1      37.422  21.582  23.332  1.00  0.00     0.163 HD
BRANCH   3   6
ATOM      6  C   UNL A   1      34.645  23.079  24.668  1.00  0.00     0.117 C 
ATOM      7  C   UNL A   1      35.100  23.866  25.922  1.00  0.00     0.045 C 
BRANCH   6   8
ATOM      8  C   UNL A   1      33.962  21.771  25.177  1.00  0.00     0.035 C 
ATOM      9  C   UNL A   1      33.959  21.587  26.694  1.00  0.00     0.007 C 
ENDBRANCH   6   8
BRANCH   6  10
ATOM     10  N   UNL A   1      33.620  23.903  23.979  1.00  0.00    -0.324 N 
ATOM     11  C   UNL A   1      32.313  24.125  24.316  1.00  0.00     0.318 C 
ATOM     12  H   UNL A   1      33.925  24.356  23.161  1.00  0.00     0.166 HD
ATOM     13  O   UNL A   1      31.468  23.829  23.470  1.00  0.00    -0.249 OA
BRANCH  11  14
ATOM     14  N   UNL A   1      32.034  24.914  25.410  1.00  0.00    -0.324 N 
ATOM     15  C   UNL A   1      31.566  24.299  26.643  1.00  0.00     0.149 C 
BRANCH  14  16
ATOM     16  C   UNL A   1      31.478  26.255  25.189  1.00  0.00     0.156 C 
BRANCH  16  17
ATOM     17  C   UNL A   1      32.236  27.505  25.606  1.00  0.00    -0.028 A 
ATOM     18  C   UNL A   1      33.553  27.330  26.077  1.00  0.00     0.005 A 
ATOM     19  C   UNL A   1      31.678  28.785  25.719  1.00  0.00     0.009 A 
ATOM     20  C   UNL A   1      34.270  28.382  26.648  1.00  0.00     0.001 A 
ATOM     21  C   UNL A   1      32.375  29.843  26.325  1.00  0.00    -0.051 A 
ATOM     22  C   UNL A   1      33.675  29.632  26.788  1.00  0.00     0.003 A 
ATOM     23  C   UNL A   1      31.694  31.158  26.573  1.00  0.00     0.044 C 
ENDBRANCH  16  17
ENDBRANCH  14  16
ENDBRANCH  11  14
ENDBRANCH   6  10
ENDBRANCH   3   6
ENDBRANCH   1   2
BRANCH   1  24
ATOM     24  C   UNL A   1      38.732  21.413  25.740  1.00  0.00     0.042 C 
BRANCH  24  25
ATOM     25  C   UNL A   1      39.065  22.850  26.128  1.00  0.00     0.118 C 
BRANCH  25  26
ATOM     26  N   UNL A   1      40.501  23.064  26.346  1.00  0.00    -0.352 N 
ATOM     27  C   UNL A   1      41.170  24.217  26.706  1.00  0.00     0.251 C 
ATOM     28  H   UNL A   1      41.069  22.270  26.215  1.00  0.00     0.163 HD
ATOM     29  O   UNL A   1      42.381  24.207  26.910  1.00  0.00    -0.269 OA
BRANCH  27  30
ATOM     30  C   UNL A   1      40.384  25.436  26.974  1.00  0.00     0.039 A 
ATOM     31  C   UNL A   1      40.775  26.619  26.339  1.00  0.00     0.014 A 
ATOM     32  C   UNL A   1      39.461  25.452  28.015  1.00  0.00     0.014 A 
ATOM     33  C   UNL A   1      40.447  27.836  26.926  1.00  0.00     0.010 A 
ATOM     34  C   UNL A   1      39.206  26.653  28.648  1.00  0.00     0.010 A 
ATOM     35  C   UNL A   1      39.768  27.832  28.146  1.00  0.00    -0.014 A 
BRANCH  35  36
ATOM     36  C   UNL A   1      39.756  28.990  29.031  1.00  0.00     0.031 A 
ATOM     37  C   UNL A   1      38.723  30.033  28.902  1.00  0.00     0.074 A 
ATOM     38  C   UNL A   1      40.698  29.089  29.997  1.00  0.00     0.049 A 
ATOM     39  N   UNL A   1      38.910  31.273  29.206  1.00  0.00    -0.248 NA
ATOM     40  C   UNL A   1      37.388  29.754  28.385  1.00  0.00     0.031 C 
ATOM     41  C   UNL A   1      40.747  30.051  31.095  1.00  0.00     0.029 A 
ATOM     42  N   UNL A   1      41.940  28.432  30.051  1.00  0.00    -0.354 N 
ATOM     43  C   UNL A   1      37.684  31.893  29.176  1.00  0.00     0.074 A 
ATOM     44  C   UNL A   1      36.777  30.923  28.602  1.00  0.00     0.031 C 
ATOM     45  C   UNL A   1      42.016  30.154  31.521  1.00  0.00     0.029 A 
ATOM     46  C   UNL A   1      42.837  29.364  30.620  1.00  0.00     0.049 A 
ATOM     47  H   UNL A   1      42.143  27.516  29.755  1.00  0.00     0.167 HD
ATOM     48  C   UNL A   1      37.523  33.111  29.768  1.00  0.00     0.037 A 
ATOM     49  C   UNL A   1      43.915  29.832  29.929  1.00  0.00     0.037 A 
ATOM     50  C   UNL A   1      38.768  33.606  30.340  1.00  0.00     0.049 A 
ATOM     51  C   UNL A   1      43.922  31.331  29.759  1.00  0.00     0.074 A 
ATOM     52  C   UNL A   1      39.292  33.533  31.620  1.00  0.00     0.029 A 
ATOM     53  N   UNL A   1      39.819  33.971  29.504  1.00  0.00    -0.354 N 
ATOM     54  N   UNL A   1      42.858  32.077  29.858  1.00  0.00    -0.248 NA
ATOM     55  C   UNL A   1      45.118  32.099  29.418  1.00  0.00     0.031 C 
ATOM     56  C   UNL A   1      40.680  33.793  31.544  1.00  0.00     0.029 A 
ATOM     57  C   UNL A   1      40.998  34.048  30.223  1.00  0.00     0.049 A 
ATOM     58  H   UNL A   1      39.736  34.148  28.539  1.00  0.00     0.167 HD
ATOM     59  C   UNL A   1      43.190  33.377  29.584  1.00  0.00     0.074 A 
ATOM     60  C   UNL A   1      44.618  33.344  29.329  1.00  0.00     0.031 C 
ATOM     61  C   UNL A   1      42.261  34.377  29.584  1.00  0.00     0.037 A 
BRANCH  48  62
ATOM     62  C   UNL A   1      36.154  33.650  30.094  1.00  0.00     0.064 A 
ATOM     63  C   UNL A   1      35.294  34.130  29.084  1.00  0.00     0.173 A 
ATOM     64  C   UNL A   1      35.673  33.786  31.408  1.00  0.00     0.173 A 
ATOM     65  F   UNL A   1      35.589  33.988  27.786  1.00  0.00    -0.203 F 
ATOM     66  C   UNL A   1      34.104  34.801  29.375  1.00  0.00     0.198 A 
ATOM     67  C   UNL A   1      34.509  34.502  31.702  1.00  0.00     0.198 A 
ATOM     68  F   UNL A   1      36.326  33.225  32.437  1.00  0.00    -0.203 F 
ATOM     69  F   UNL A   1      33.336  35.257  28.375  1.00  0.00    -0.200 F 
ATOM     70  C   UNL A   1      33.731  35.022  30.685  1.00  0.00     0.200 A 
ATOM     71  F   UNL A   1      34.155  34.704  32.980  1.00  0.00    -0.200 F 
ATOM     72  F   UNL A   1      32.624  35.723  30.965  1.00  0.00    -0.200 F 
ENDBRANCH  48  62
BRANCH  49  73
ATOM     73  C   UNL A   1      44.455  28.867  28.935  1.00  0.00     0.064 A 
ATOM     74  C   UNL A   1      45.152  27.738  29.408  1.00  0.00     0.173 A 
ATOM     75  C   UNL A   1      44.010  28.845  27.610  1.00  0.00     0.173 A 
ATOM     76  F   UNL A   1      45.599  27.706  30.673  1.00  0.00    -0.203 F 
ATOM     77  C   UNL A   1      45.293  26.594  28.626  1.00  0.00     0.198 A 
ATOM     78  C   UNL A   1      44.169  27.702  26.823  1.00  0.00     0.198 A 
ATOM     79  F   UNL A   1      43.326  29.881  27.105  1.00  0.00    -0.203 F 
ATOM     80  F   UNL A   1      45.858  25.494  29.147  1.00  0.00    -0.200 F 
ATOM     81  C   UNL A   1      44.779  26.568  27.342  1.00  0.00     0.200 A 
ATOM     82  F   UNL A   1      43.648  27.666  25.588  1.00  0.00    -0.200 F 
ATOM     83  F   UNL A   1      44.835  25.441  26.619  1.00  0.00    -0.200 F 
ENDBRANCH  49  73
BRANCH  61  84
ATOM     84  C   UNL A   1      42.498  35.781  29.097  1.00  0.00     0.064 A 
ATOM     85  C   UNL A   1      41.878  36.322  27.960  1.00  0.00     0.173 A 
ATOM     86  C   UNL A   1      43.276  36.681  29.862  1.00  0.00     0.173 A 
ATOM     87  F   UNL A   1      41.024  35.597  27.224  1.00  0.00    -0.203 F 
ATOM     88  C   UNL A   1      42.079  37.649  27.573  1.00  0.00     0.198 A 
ATOM     89  C   UNL A   1      43.432  38.018  29.502  1.00  0.00     0.198 A 
ATOM     90  F   UNL A   1      43.889  36.293  30.990  1.00  0.00    -0.203 F 
ATOM     91  F   UNL A   1      41.501  38.108  26.454  1.00  0.00    -0.200 F 
ATOM     92  C   UNL A   1      42.848  38.498  28.347  1.00  0.00     0.200 A 
ATOM     93  F   UNL A   1      44.138  38.842  30.288  1.00  0.00    -0.200 F 
ATOM     94  F   UNL A   1      43.008  39.780  27.992  1.00  0.00    -0.200 F 
ENDBRANCH  61  84
ENDBRANCH  35  36
ENDBRANCH  27  30
ENDBRANCH  25  26
ENDBRANCH  24  25
ENDBRANCH   1  24
TORSDOF 15
ENDMDL
MODEL 3
REMARK VINA RESULT:     -12.5      1.309      1.939
REMARK SMILES CC[C@](C)(NC(=O)N(C)Cc1cccc(C)c1)C(=O)NCCCNC(=O)c1ccc(-c2c3nc(c(-c4c(F)c(F)c(F)c(F)c4F)c4ccc([nH]4)c(-c4c(F)c(F)c(F)c(F)c4F)c4nc(c(-c5c(F)c(F)c(F)c(F)c5F)c5ccc2[nH]5)C=C4)C=C3)cc1
REMARK SMILES IDX 21 1 20 2 18 3 19 4 3 6 4 7 2 8 1 9 5 10 6 11 7 13 8 14 9 15
REMARK SMILES IDX 10 16 11 17 12 18 17 19 13 20 15 21 14 22 16 23 22 24 23 25
REMARK SMILES IDX 24 26 25 27 26 29 27 30 28 31 89 32 29 33 88 34 30 35 31 36
REMARK SMILES IDX 32 37 82 38 33 39 87 40 81 41 83 42 34 43 86 44 80 45 79 46
REMARK SMILES IDX 35 48 67 49 47 50 66 51 48 52 51 53 65 54 84 55 49 56 50 57
REMARK SMILES IDX 64 59 85 60 52 61 36 62 37 63 45 64 38 65 39 66 43 67 46 68
REMARK SMILES IDX 40 69 41 70 44 71 42 72 68 73 69 74 77 75 70 76 71 77 75 78
REMARK SMILES IDX 78 79 72 80 73 81 76 82 74 83 53 84 54 85 62 86 55 87 56 88
REMARK SMILES IDX 60 89 63 90 57 91 58 92 61 93 59 94
REMARK H PARENT 20 5 5 12 24 28 83 47 51 58
REMARK Flexibility Score: inf
ROOT
ATOM      1  C   UNL A   1      31.957  29.938  25.756  1.00  0.00     0.117 C 
ENDROOT
BRANCH   1   2
ATOM      2  N   UNL A   1      32.915  29.727  24.677  1.00  0.00    -0.354 N 
ATOM      3  C   UNL A   1      33.122  28.729  23.769  1.00  0.00     0.245 C 
ATOM      4  O   UNL A   1      33.858  29.039  22.821  1.00  0.00    -0.272 OA
ATOM      5  H   UNL A   1      33.554  30.470  24.582  1.00  0.00     0.163 HD
BRANCH   3   6
ATOM      6  C   UNL A   1      32.471  27.308  23.829  1.00  0.00     0.117 C 
ATOM      7  C   UNL A   1      32.984  26.404  22.680  1.00  0.00     0.045 C 
BRANCH   6   8
ATOM      8  C   UNL A   1      30.927  27.441  23.646  1.00  0.00     0.035 C 
ATOM      9  C   UNL A   1      30.482  28.139  22.363  1.00  0.00     0.007 C 
ENDBRANCH   6   8
BRANCH   6  10
ATOM     10  N   UNL A   1      32.731  26.590  25.102  1.00  0.00    -0.324 N 
ATOM     11  C   UNL A   1      32.007  25.596  25.703  1.00  0.00     0.318 C 
ATOM     12  H   UNL A   1      33.542  26.869  25.585  1.00  0.00     0.166 HD
ATOM     13  O   UNL A   1      31.619  25.815  26.851  1.00  0.00    -0.249 OA
BRANCH  11  14
ATOM     14  N   UNL A   1      32.008  24.340  25.138  1.00  0.00    -0.324 N 
ATOM     15  C   UNL A   1      30.747  23.711  24.778  1.00  0.00     0.149 C 
BRANCH  14  16
ATOM     16  C   UNL A   1      33.031  23.376  25.563  1.00  0.00     0.156 C 
BRANCH  16  17
ATOM     17  C   UNL A   1      34.459  23.459  25.047  1.00  0.00    -0.028 A 
ATOM     18  C   UNL A   1      34.679  23.085  23.706  1.00  0.00     0.005 A 
ATOM     19  C   UNL A   1      35.587  23.710  25.838  1.00  0.00     0.009 A 
ATOM     20  C   UNL A   1      35.967  22.955  23.186  1.00  0.00     0.001 A 
ATOM     21  C   UNL A   1      36.890  23.547  25.337  1.00  0.00    -0.051 A 
ATOM     22  C   UNL A   1      37.071  23.168  24.006  1.00  0.00     0.003 A 
ATOM     23  C   UNL A   1      38.075  23.672  26.251  1.00  0.00     0.044 C 
ENDBRANCH  16  17
ENDBRANCH  14  16
ENDBRANCH  11  14
ENDBRANCH   6  10
ENDBRANCH   3   6
ENDBRANCH   1   2
BRANCH   1  24
ATOM     24  C   UNL A   1      32.437  30.800  26.914  1.00  0.00     0.042 C 
BRANCH  24  25
ATOM     25  C   UNL A   1      33.753  30.331  27.526  1.00  0.00     0.118 C 
BRANCH  25  26
ATOM     26  N   UNL A   1      34.287  31.271  28.520  1.00  0.00    -0.352 N 
ATOM     27  C   UNL A   1      35.487  31.236  29.203  1.00  0.00     0.251 C 
ATOM     28  H   UNL A   1      33.705  32.037  28.729  1.00  0.00     0.163 HD
ATOM     29  O   UNL A   1      35.809  32.146  29.961  1.00  0.00    -0.269 OA
BRANCH  27  30
ATOM     30  C   UNL A   1      36.439  30.149  28.904  1.00  0.00     0.039 A 
ATOM     31  C   UNL A   1      36.798  29.289  29.946  1.00  0.00     0.014 A 
ATOM     32  C   UNL A   1      37.140  30.152  27.703  1.00  0.00     0.014 A 
ATOM     33  C   UNL A   1      38.020  28.631  29.883  1.00  0.00     0.010 A 
ATOM     34  C   UNL A   1      38.392  29.569  27.672  1.00  0.00     0.010 A 
ATOM     35  C   UNL A   1      38.861  28.878  28.795  1.00  0.00    -0.014 A 
BRANCH  35  36
ATOM     36  C   UNL A   1      40.289  28.592  28.838  1.00  0.00     0.031 A 
ATOM     37  C   UNL A   1      40.825  27.327  28.306  1.00  0.00     0.074 A 
ATOM     38  C   UNL A   1      41.130  29.517  29.354  1.00  0.00     0.049 A 
ATOM     39  N   UNL A   1      41.889  26.750  28.755  1.00  0.00    -0.248 NA
ATOM     40  C   UNL A   1      40.175  26.592  27.227  1.00  0.00     0.031 C 
ATOM     41  C   UNL A   1      42.590  29.513  29.312  1.00  0.00     0.029 A 
ATOM     42  N   UNL A   1      40.807  30.578  30.220  1.00  0.00    -0.354 N 
ATOM     43  C   UNL A   1      42.206  25.735  27.884  1.00  0.00     0.074 A 
ATOM     44  C   UNL A   1      41.079  25.637  26.983  1.00  0.00     0.031 C 
ATOM     45  C   UNL A   1      43.051  30.284  30.310  1.00  0.00     0.029 A 
ATOM     46  C   UNL A   1      41.905  30.695  31.102  1.00  0.00     0.049 A 
ATOM     47  H   UNL A   1      39.989  31.125  30.212  1.00  0.00     0.167 HD
ATOM     48  C   UNL A   1      43.447  25.172  27.918  1.00  0.00     0.037 A 
ATOM     49  C   UNL A   1      41.768  30.496  32.443  1.00  0.00     0.037 A 
ATOM     50  C   UNL A   1      44.277  25.750  28.968  1.00  0.00     0.049 A 
ATOM     51  C   UNL A   1      42.640  29.390  32.985  1.00  0.00     0.074 A 
ATOM     52  C   UNL A   1      45.212  26.771  28.951  1.00  0.00     0.029 A 
ATOM     53  N   UNL A   1      43.962  25.526  30.304  1.00  0.00    -0.354 N 
ATOM     54  N   UNL A   1      43.146  28.440  32.251  1.00  0.00    -0.248 NA
ATOM     55  C   UNL A   1      42.969  29.244  34.401  1.00  0.00     0.031 C 
ATOM     56  C   UNL A   1      45.412  27.208  30.281  1.00  0.00     0.029 A 
ATOM     57  C   UNL A   1      44.618  26.437  31.110  1.00  0.00     0.049 A 
ATOM     58  H   UNL A   1      43.357  24.820  30.630  1.00  0.00     0.167 HD
ATOM     59  C   UNL A   1      43.828  27.565  33.052  1.00  0.00     0.074 A 
ATOM     60  C   UNL A   1      43.703  28.117  34.388  1.00  0.00     0.031 C 
ATOM     61  C   UNL A   1      44.438  26.450  32.552  1.00  0.00     0.037 A 
BRANCH  48  62
ATOM     62  C   UNL A   1      43.966  24.346  26.770  1.00  0.00     0.064 A 
ATOM     63  C   UNL A   1      43.563  23.008  26.587  1.00  0.00     0.173 A 
ATOM     64  C   UNL A   1      44.931  24.813  25.860  1.00  0.00     0.173 A 
ATOM     65  F   UNL A   1      42.592  22.459  27.328  1.00  0.00    -0.203 F 
ATOM     66  C   UNL A   1      44.167  22.169  25.646  1.00  0.00     0.198 A 
ATOM     67  C   UNL A   1      45.571  23.962  24.955  1.00  0.00     0.198 A 
ATOM     68  F   UNL A   1      45.274  26.110  25.832  1.00  0.00    -0.203 F 
ATOM     69  F   UNL A   1      43.759  20.897  25.531  1.00  0.00    -0.200 F 
ATOM     70  C   UNL A   1      45.198  22.635  24.858  1.00  0.00     0.200 A 
ATOM     71  F   UNL A   1      46.568  24.431  24.190  1.00  0.00    -0.200 F 
ATOM     72  F   UNL A   1      45.821  21.814  24.002  1.00  0.00    -0.200 F 
ENDBRANCH  48  62
BRANCH  49  73
ATOM     73  C   UNL A   1      40.419  30.839  32.965  1.00  0.00     0.064 A 
ATOM     74  C   UNL A   1      40.030  32.193  32.978  1.00  0.00     0.173 A 
ATOM     75  C   UNL A   1      39.415  29.876  33.109  1.00  0.00     0.173 A 
ATOM     76  F   UNL A   1      40.953  33.158  32.842  1.00  0.00    -0.203 F 
ATOM     77  C   UNL A   1      38.687  32.562  33.015  1.00  0.00     0.198 A 
ATOM     78  C   UNL A   1      38.070  30.250  33.163  1.00  0.00     0.198 A 
ATOM     79  F   UNL A   1      39.717  28.571  33.087  1.00  0.00    -0.203 F 
ATOM     80  F   UNL A   1      38.346  33.854  32.906  1.00  0.00    -0.200 F 
ATOM     81  C   UNL A   1      37.706  31.588  33.082  1.00  0.00     0.200 A 
ATOM     82  F   UNL A   1      37.118  29.307  33.201  1.00  0.00    -0.200 F 
ATOM     83  F   UNL A   1      36.413  31.934  33.028  1.00  0.00    -0.200 F 
ENDBRANCH  49  73
BRANCH  61  84
ATOM     84  C   UNL A   1      45.025  25.338  33.379  1.00  0.00     0.064 A 
ATOM     85  C   UNL A   1      46.404  25.098  33.485  1.00  0.00     0.173 A 
ATOM     86  C   UNL A   1      44.197  24.551  34.211  1.00  0.00     0.173 A 
ATOM     87  F   UNL A   1      47.295  25.860  32.835  1.00  0.00    -0.203 F 
ATOM     88  C   UNL A   1      46.915  24.091  34.309  1.00  0.00     0.198 A 
ATOM     89  C   UNL A   1      44.713  23.584  35.072  1.00  0.00     0.198 A 
ATOM     90  F   UNL A   1      42.865  24.712  34.227  1.00  0.00    -0.203 F 
ATOM     91  F   UNL A   1      48.236  23.869  34.343  1.00  0.00    -0.200 F 
ATOM     92  C   UNL A   1      46.071  23.342  35.107  1.00  0.00     0.200 A 
ATOM     93  F   UNL A   1      43.888  22.899  35.876  1.00  0.00    -0.200 F 
ATOM     94  F   UNL A   1      46.568  22.403  35.923  1.00  0.00    -0.200 F 
ENDBRANCH  61  84
ENDBRANCH  35  36
ENDBRANCH  27  30
ENDBRANCH  25  26
ENDBRANCH  24  25
ENDBRANCH   1  24
TORSDOF 15
ENDMDL
