MODEL 1
REMARK VINA RESULT:     -12.2      0.000      0.000
REMARK SMILES C[C@H](Nc1cccc(F)c1C(=O)NCCCNC(=O)c1ccc(-c2c3nc(c(-c4c(F)c(F)c(F)c(F)c4F)c4ccc([nH]4)c(-c4c(F)c(F)c(F)c(F)c4F)c4nc(c(-c5c(F)c(F)c(F)c(F)c5F)c5ccc2[nH]5)C=C4)C=C3)cc1)c1cccc(Cl)c1
REMARK SMILES IDX 14 1 13 2 11 3 12 4 10 6 4 7 5 8 6 9 8 10 7 11 9 12 3 13
REMARK SMILES IDX 2 15 1 16 83 17 84 18 89 19 85 20 87 21 86 22 88 23 15 24
REMARK SMILES IDX 16 25 17 26 18 27 19 29 20 30 21 31 82 32 22 33 81 34 23 35
REMARK SMILES IDX 24 36 25 37 75 38 26 39 80 40 74 41 76 42 27 43 79 44 73 45
REMARK SMILES IDX 72 46 28 48 60 49 40 50 59 51 41 52 44 53 58 54 77 55 42 56
REMARK SMILES IDX 43 57 57 59 78 60 45 61 29 62 30 63 38 64 31 65 32 66 36 67
REMARK SMILES IDX 39 68 33 69 34 70 37 71 35 72 61 73 62 74 70 75 63 76 64 77
REMARK SMILES IDX 68 78 71 79 65 80 66 81 69 82 67 83 46 84 47 85 55 86 48 87
REMARK SMILES IDX 49 88 53 89 56 90 50 91 51 92 54 93 52 94
REMARK H PARENT 13 5 3 14 17 28 76 47 44 58
REMARK Flexibility Score: inf
ROOT
ATOM      1  C   UNL A   1      33.329  28.952  22.648  1.00  0.00     0.118 C 
ENDROOT
BRANCH   1   2
ATOM      2  N   UNL A   1      33.380  27.672  21.970  1.00  0.00    -0.352 N 
ATOM      3  C   UNL A   1      32.853  26.432  22.219  1.00  0.00     0.256 C 
ATOM      4  O   UNL A   1      33.156  25.576  21.378  1.00  0.00    -0.269 OA
ATOM      5  H   UNL A   1      33.912  27.701  21.143  1.00  0.00     0.163 HD
BRANCH   3   6
ATOM      6  C   UNL A   1      31.934  26.055  23.344  1.00  0.00     0.098 A 
ATOM      7  C   UNL A   1      32.440  25.198  24.371  1.00  0.00     0.050 A 
ATOM      8  C   UNL A   1      31.608  24.850  25.454  1.00  0.00     0.027 A 
ATOM      9  C   UNL A   1      30.287  25.272  25.522  1.00  0.00     0.005 A 
ATOM     10  C   UNL A   1      30.616  26.506  23.475  1.00  0.00     0.138 A 
ATOM     11  C   UNL A   1      29.789  26.092  24.523  1.00  0.00     0.040 A 
ATOM     12  F   UNL A   1      30.075  27.397  22.640  1.00  0.00    -0.206 F 
BRANCH   7  13
ATOM     13  N   UNL A   1      33.721  24.624  24.297  1.00  0.00    -0.378 N 
ATOM     14  H   UNL A   1      34.502  25.192  24.102  1.00  0.00     0.161 HD
BRANCH  13  15
ATOM     15  C   UNL A   1      33.898  23.188  24.509  1.00  0.00     0.106 C 
ATOM     16  C   UNL A   1      33.424  22.443  23.250  1.00  0.00     0.036 C 
BRANCH  15  17
ATOM     17  C   UNL A   1      35.337  22.816  24.868  1.00  0.00    -0.025 A 
ATOM     18  C   UNL A   1      35.776  21.497  24.627  1.00  0.00     0.006 A 
ATOM     19  C   UNL A   1      36.245  23.706  25.468  1.00  0.00     0.026 A 
ATOM     20  C   UNL A   1      37.077  21.092  24.933  1.00  0.00     0.002 A 
ATOM     21  C   UNL A   1      37.546  23.294  25.776  1.00  0.00     0.041 A 
ATOM     22  C   UNL A   1      37.966  21.994  25.506  1.00  0.00     0.020 A 
ATOM     23  Cl  UNL A   1      38.644  24.402  26.506  1.00  0.00    -0.084 Cl
ENDBRANCH  15  17
ENDBRANCH  13  15
ENDBRANCH   7  13
ENDBRANCH   3   6
ENDBRANCH   1   2
BRANCH   1  24
ATOM     24  C   UNL A   1      34.272  28.965  23.853  1.00  0.00     0.042 C 
BRANCH  24  25
ATOM     25  C   UNL A   1      33.550  28.815  25.189  1.00  0.00     0.118 C 
BRANCH  25  26
ATOM     26  N   UNL A   1      32.975  30.076  25.643  1.00  0.00    -0.352 N 
ATOM     27  C   UNL A   1      33.285  30.842  26.738  1.00  0.00     0.251 C 
ATOM     28  H   UNL A   1      32.254  30.432  25.076  1.00  0.00     0.163 HD
ATOM     29  O   UNL A   1      32.529  31.743  27.087  1.00  0.00    -0.269 OA
BRANCH  27  30
ATOM     30  C   UNL A   1      34.524  30.588  27.501  1.00  0.00     0.039 A 
ATOM     31  C   UNL A   1      35.466  31.614  27.630  1.00  0.00     0.014 A 
ATOM     32  C   UNL A   1      34.779  29.330  28.052  1.00  0.00     0.014 A 
ATOM     33  C   UNL A   1      36.637  31.392  28.358  1.00  0.00     0.010 A 
ATOM     34  C   UNL A   1      35.906  29.135  28.842  1.00  0.00     0.010 A 
ATOM     35  C   UNL A   1      36.852  30.159  28.995  1.00  0.00    -0.014 A 
BRANCH  35  36
ATOM     36  C   UNL A   1      38.065  29.904  29.811  1.00  0.00     0.031 A 
ATOM     37  C   UNL A   1      39.134  28.986  29.287  1.00  0.00     0.074 A 
ATOM     38  C   UNL A   1      38.168  30.434  31.044  1.00  0.00     0.049 A 
ATOM     39  N   UNL A   1      40.205  28.534  29.890  1.00  0.00    -0.248 NA
ATOM     40  C   UNL A   1      38.964  28.485  27.914  1.00  0.00     0.031 C 
ATOM     41  C   UNL A   1      37.181  31.316  31.669  1.00  0.00     0.029 A 
ATOM     42  N   UNL A   1      39.144  30.300  32.000  1.00  0.00    -0.354 N 
ATOM     43  C   UNL A   1      40.820  27.687  28.978  1.00  0.00     0.074 A 
ATOM     44  C   UNL A   1      39.978  27.641  27.803  1.00  0.00     0.031 C 
ATOM     45  C   UNL A   1      37.613  31.663  32.891  1.00  0.00     0.029 A 
ATOM     46  C   UNL A   1      38.881  30.991  33.157  1.00  0.00     0.049 A 
ATOM     47  H   UNL A   1      39.956  29.758  31.868  1.00  0.00     0.167 HD
ATOM     48  C   UNL A   1      41.998  27.030  29.100  1.00  0.00     0.037 A 
ATOM     49  C   UNL A   1      39.579  31.065  34.307  1.00  0.00     0.037 A 
ATOM     50  C   UNL A   1      42.844  27.107  30.261  1.00  0.00     0.049 A 
ATOM     51  C   UNL A   1      40.873  30.306  34.427  1.00  0.00     0.074 A 
ATOM     52  C   UNL A   1      44.076  26.514  30.467  1.00  0.00     0.029 A 
ATOM     53  N   UNL A   1      42.546  27.827  31.409  1.00  0.00    -0.354 N 
ATOM     54  N   UNL A   1      41.466  29.539  33.545  1.00  0.00    -0.248 NA
ATOM     55  C   UNL A   1      41.598  30.422  35.701  1.00  0.00     0.031 C 
ATOM     56  C   UNL A   1      44.502  26.834  31.758  1.00  0.00     0.029 A 
ATOM     57  C   UNL A   1      43.566  27.678  32.334  1.00  0.00     0.049 A 
ATOM     58  H   UNL A   1      41.733  28.363  31.546  1.00  0.00     0.167 HD
ATOM     59  C   UNL A   1      42.644  29.110  34.140  1.00  0.00     0.074 A 
ATOM     60  C   UNL A   1      42.687  29.705  35.459  1.00  0.00     0.031 C 
ATOM     61  C   UNL A   1      43.604  28.297  33.635  1.00  0.00     0.037 A 
BRANCH  48  62
ATOM     62  C   UNL A   1      42.455  26.183  27.948  1.00  0.00     0.064 A 
ATOM     63  C   UNL A   1      43.332  26.702  26.984  1.00  0.00     0.173 A 
ATOM     64  C   UNL A   1      41.968  24.882  27.757  1.00  0.00     0.173 A 
ATOM     65  F   UNL A   1      43.824  27.944  27.114  1.00  0.00    -0.203 F 
ATOM     66  C   UNL A   1      43.690  25.956  25.864  1.00  0.00     0.198 A 
ATOM     67  C   UNL A   1      42.353  24.126  26.652  1.00  0.00     0.198 A 
ATOM     68  F   UNL A   1      41.135  24.333  28.655  1.00  0.00    -0.203 F 
ATOM     69  F   UNL A   1      44.500  26.488  24.936  1.00  0.00    -0.200 F 
ATOM     70  C   UNL A   1      43.204  24.668  25.702  1.00  0.00     0.200 A 
ATOM     71  F   UNL A   1      41.903  22.871  26.511  1.00  0.00    -0.200 F 
ATOM     72  F   UNL A   1      43.558  23.948  24.629  1.00  0.00    -0.200 F 
ENDBRANCH  48  62
BRANCH  49  73
ATOM     73  C   UNL A   1      39.082  31.921  35.416  1.00  0.00     0.064 A 
ATOM     74  C   UNL A   1      39.395  33.286  35.489  1.00  0.00     0.173 A 
ATOM     75  C   UNL A   1      38.305  31.376  36.447  1.00  0.00     0.173 A 
ATOM     76  F   UNL A   1      40.141  33.857  34.532  1.00  0.00    -0.203 F 
ATOM     77  C   UNL A   1      38.967  34.068  36.560  1.00  0.00     0.198 A 
ATOM     78  C   UNL A   1      37.852  32.164  37.504  1.00  0.00     0.198 A 
ATOM     79  F   UNL A   1      37.962  30.079  36.413  1.00  0.00    -0.203 F 
ATOM     80  F   UNL A   1      39.312  35.360  36.625  1.00  0.00    -0.200 F 
ATOM     81  C   UNL A   1      38.192  33.507  37.564  1.00  0.00     0.200 A 
ATOM     82  F   UNL A   1      37.083  31.623  38.459  1.00  0.00    -0.200 F 
ATOM     83  F   UNL A   1      37.770  34.262  38.588  1.00  0.00    -0.200 F 
ENDBRANCH  49  73
BRANCH  61  84
ATOM     84  C   UNL A   1      44.814  28.027  34.480  1.00  0.00     0.064 A 
ATOM     85  C   UNL A   1      44.820  26.949  35.379  1.00  0.00     0.173 A 
ATOM     86  C   UNL A   1      45.916  28.893  34.484  1.00  0.00     0.173 A 
ATOM     87  F   UNL A   1      43.784  26.098  35.419  1.00  0.00    -0.203 F 
ATOM     88  C   UNL A   1      45.873  26.764  36.269  1.00  0.00     0.198 A 
ATOM     89  C   UNL A   1      46.983  28.687  35.356  1.00  0.00     0.198 A 
ATOM     90  F   UNL A   1      45.963  29.932  33.636  1.00  0.00    -0.203 F 
ATOM     91  F   UNL A   1      45.833  25.757  37.152  1.00  0.00    -0.200 F 
ATOM     92  C   UNL A   1      46.953  27.632  36.256  1.00  0.00     0.200 A 
ATOM     93  F   UNL A   1      48.038  29.513  35.327  1.00  0.00    -0.200 F 
ATOM     94  F   UNL A   1      47.968  27.454  37.113  1.00  0.00    -0.200 F 
ENDBRANCH  61  84
ENDBRANCH  35  36
ENDBRANCH  27  30
ENDBRANCH  25  26
ENDBRANCH  24  25
ENDBRANCH   1  24
TORSDOF 13
ENDMDL
MODEL 2
REMARK VINA RESULT:     -12.1      1.918      3.430
REMARK SMILES C[C@H](Nc1cccc(F)c1C(=O)NCCCNC(=O)c1ccc(-c2c3nc(c(-c4c(F)c(F)c(F)c(F)c4F)c4ccc([nH]4)c(-c4c(F)c(F)c(F)c(F)c4F)c4nc(c(-c5c(F)c(F)c(F)c(F)c5F)c5ccc2[nH]5)C=C4)C=C3)cc1)c1cccc(Cl)c1
REMARK SMILES IDX 14 1 13 2 11 3 12 4 10 6 4 7 5 8 6 9 8 10 7 11 9 12 3 13
REMARK SMILES IDX 2 15 1 16 83 17 84 18 89 19 85 20 87 21 86 22 88 23 15 24
REMARK SMILES IDX 16 25 17 26 18 27 19 29 20 30 21 31 82 32 22 33 81 34 23 35
REMARK SMILES IDX 24 36 25 37 75 38 26 39 80 40 74 41 76 42 27 43 79 44 73 45
REMARK SMILES IDX 72 46 28 48 60 49 40 50 59 51 41 52 44 53 58 54 77 55 42 56
REMARK SMILES IDX 43 57 57 59 78 60 45 61 29 62 30 63 38 64 31 65 32 66 36 67
REMARK SMILES IDX 39 68 33 69 34 70 37 71 35 72 61 73 62 74 70 75 63 76 64 77
REMARK SMILES IDX 68 78 71 79 65 80 66 81 69 82 67 83 46 84 47 85 55 86 48 87
REMARK SMILES IDX 49 88 53 89 56 90 50 91 51 92 54 93 52 94
REMARK H PARENT 13 5 3 14 17 28 76 47 44 58
REMARK Flexibility Score: inf
ROOT
ATOM      1  C   UNL A   1      32.725  26.549  26.487  1.00  0.00     0.118 C 
ENDROOT
BRANCH   1   2
ATOM      2  N   UNL A   1      31.747  25.546  26.858  1.00  0.00    -0.352 N 
ATOM      3  C   UNL A   1      31.676  24.182  26.736  1.00  0.00     0.256 C 
ATOM      4  O   UNL A   1      30.631  23.690  27.178  1.00  0.00    -0.269 OA
ATOM      5  H   UNL A   1      30.955  25.931  27.297  1.00  0.00     0.163 HD
BRANCH   3   6
ATOM      6  C   UNL A   1      32.736  23.272  26.188  1.00  0.00     0.098 A 
ATOM      7  C   UNL A   1      32.853  23.150  24.769  1.00  0.00     0.050 A 
ATOM      8  C   UNL A   1      33.858  22.324  24.225  1.00  0.00     0.027 A 
ATOM      9  C   UNL A   1      34.704  21.579  25.036  1.00  0.00     0.005 A 
ATOM     10  C   UNL A   1      33.643  22.550  26.972  1.00  0.00     0.138 A 
ATOM     11  C   UNL A   1      34.586  21.685  26.411  1.00  0.00     0.040 A 
ATOM     12  F   UNL A   1      33.701  22.674  28.301  1.00  0.00    -0.206 F 
BRANCH   7  13
ATOM     13  N   UNL A   1      31.945  23.769  23.891  1.00  0.00    -0.378 N 
ATOM     14  H   UNL A   1      31.066  23.357  23.725  1.00  0.00     0.161 HD
BRANCH  13  15
ATOM     15  C   UNL A   1      32.303  25.020  23.223  1.00  0.00     0.106 C 
ATOM     16  C   UNL A   1      32.776  24.698  21.796  1.00  0.00     0.036 C 
BRANCH  15  17
ATOM     17  C   UNL A   1      31.157  26.033  23.214  1.00  0.00    -0.025 A 
ATOM     18  C   UNL A   1      29.928  25.670  23.803  1.00  0.00     0.006 A 
ATOM     19  C   UNL A   1      31.242  27.300  22.612  1.00  0.00     0.026 A 
ATOM     20  C   UNL A   1      28.841  26.547  23.826  1.00  0.00     0.002 A 
ATOM     21  C   UNL A   1      30.150  28.174  22.635  1.00  0.00     0.041 A 
ATOM     22  C   UNL A   1      28.954  27.805  23.244  1.00  0.00     0.020 A 
ATOM     23  Cl  UNL A   1      30.278  29.724  21.896  1.00  0.00    -0.084 Cl
ENDBRANCH  15  17
ENDBRANCH  13  15
ENDBRANCH   7  13
ENDBRANCH   3   6
ENDBRANCH   1   2
BRANCH   1  24
ATOM     24  C   UNL A   1      32.045  27.889  26.201  1.00  0.00     0.042 C 
BRANCH  24  25
ATOM     25  C   UNL A   1      32.986  28.930  25.602  1.00  0.00     0.118 C 
BRANCH  25  26
ATOM     26  N   UNL A   1      32.560  30.291  25.908  1.00  0.00    -0.352 N 
ATOM     27  C   UNL A   1      33.014  31.162  26.866  1.00  0.00     0.251 C 
ATOM     28  H   UNL A   1      31.836  30.638  25.339  1.00  0.00     0.163 HD
ATOM     29  O   UNL A   1      32.369  32.172  27.129  1.00  0.00    -0.269 OA
BRANCH  27  30
ATOM     30  C   UNL A   1      34.276  30.891  27.584  1.00  0.00     0.039 A 
ATOM     31  C   UNL A   1      35.190  31.933  27.772  1.00  0.00     0.014 A 
ATOM     32  C   UNL A   1      34.579  29.604  28.035  1.00  0.00     0.014 A 
ATOM     33  C   UNL A   1      36.382  31.694  28.459  1.00  0.00     0.010 A 
ATOM     34  C   UNL A   1      35.728  29.385  28.788  1.00  0.00     0.010 A 
ATOM     35  C   UNL A   1      36.645  30.424  28.999  1.00  0.00    -0.014 A 
BRANCH  35  36
ATOM     36  C   UNL A   1      37.882  30.147  29.771  1.00  0.00     0.031 A 
ATOM     37  C   UNL A   1      38.924  29.224  29.201  1.00  0.00     0.074 A 
ATOM     38  C   UNL A   1      38.032  30.661  31.006  1.00  0.00     0.049 A 
ATOM     39  N   UNL A   1      40.009  28.754  29.763  1.00  0.00    -0.248 NA
ATOM     40  C   UNL A   1      38.702  28.741  27.829  1.00  0.00     0.031 C 
ATOM     41  C   UNL A   1      37.077  31.547  31.673  1.00  0.00     0.029 A 
ATOM     42  N   UNL A   1      39.038  30.506  31.927  1.00  0.00    -0.354 N 
ATOM     43  C   UNL A   1      40.584  27.911  28.821  1.00  0.00     0.074 A 
ATOM     44  C   UNL A   1      39.703  27.887  27.675  1.00  0.00     0.031 C 
ATOM     45  C   UNL A   1      37.553  31.875  32.884  1.00  0.00     0.029 A 
ATOM     46  C   UNL A   1      38.822  31.187  33.100  1.00  0.00     0.049 A 
ATOM     47  H   UNL A   1      39.840  29.958  31.761  1.00  0.00     0.167 HD
ATOM     48  C   UNL A   1      41.758  27.240  28.897  1.00  0.00     0.037 A 
ATOM     49  C   UNL A   1      39.559  31.240  34.226  1.00  0.00     0.037 A 
ATOM     50  C   UNL A   1      42.643  27.295  30.030  1.00  0.00     0.049 A 
ATOM     51  C   UNL A   1      40.848  30.466  34.295  1.00  0.00     0.074 A 
ATOM     52  C   UNL A   1      43.875  26.687  30.187  1.00  0.00     0.029 A 
ATOM     53  N   UNL A   1      42.391  28.005  31.195  1.00  0.00    -0.354 N 
ATOM     54  N   UNL A   1      41.402  29.703  33.385  1.00  0.00    -0.248 NA
ATOM     55  C   UNL A   1      41.615  30.560  35.544  1.00  0.00     0.031 C 
ATOM     56  C   UNL A   1      44.347  26.987  31.467  1.00  0.00     0.029 A 
ATOM     57  C   UNL A   1      43.440  27.834  32.083  1.00  0.00     0.049 A 
ATOM     58  H   UNL A   1      41.589  28.548  31.364  1.00  0.00     0.167 HD
ATOM     59  C   UNL A   1      42.595  29.255  33.935  1.00  0.00     0.074 A 
ATOM     60  C   UNL A   1      42.688  29.835  35.258  1.00  0.00     0.031 C 
ATOM     61  C   UNL A   1      43.528  28.438  33.389  1.00  0.00     0.037 A 
BRANCH  48  62
ATOM     62  C   UNL A   1      42.168  26.402  27.721  1.00  0.00     0.064 A 
ATOM     63  C   UNL A   1      41.677  25.096  27.569  1.00  0.00     0.173 A 
ATOM     64  C   UNL A   1      43.104  26.862  26.783  1.00  0.00     0.173 A 
ATOM     65  F   UNL A   1      40.785  24.602  28.440  1.00  0.00    -0.203 F 
ATOM     66  C   UNL A   1      42.122  24.279  26.533  1.00  0.00     0.198 A 
ATOM     67  C   UNL A   1      43.522  26.055  25.729  1.00  0.00     0.198 A 
ATOM     68  F   UNL A   1      43.596  28.108  26.875  1.00  0.00    -0.203 F 
ATOM     69  F   UNL A   1      41.667  23.021  26.431  1.00  0.00    -0.200 F 
ATOM     70  C   UNL A   1      43.040  24.760  25.612  1.00  0.00     0.200 A 
ATOM     71  F   UNL A   1      44.390  26.531  24.825  1.00  0.00    -0.200 F 
ATOM     72  F   UNL A   1      43.459  23.976  24.609  1.00  0.00    -0.200 F 
ENDBRANCH  48  62
BRANCH  49  73
ATOM     73  C   UNL A   1      39.108  32.089  35.361  1.00  0.00     0.064 A 
ATOM     74  C   UNL A   1      39.442  33.448  35.441  1.00  0.00     0.173 A 
ATOM     75  C   UNL A   1      38.355  31.541  36.409  1.00  0.00     0.173 A 
ATOM     76  F   UNL A   1      40.166  34.021  34.468  1.00  0.00    -0.203 F 
ATOM     77  C   UNL A   1      39.059  34.222  36.535  1.00  0.00     0.198 A 
ATOM     78  C   UNL A   1      37.947  32.321  37.489  1.00  0.00     0.198 A 
ATOM     79  F   UNL A   1      37.994  30.249  36.369  1.00  0.00    -0.203 F 
ATOM     80  F   UNL A   1      39.424  35.509  36.604  1.00  0.00    -0.200 F 
ATOM     81  C   UNL A   1      38.307  33.659  37.555  1.00  0.00     0.200 A 
ATOM     82  F   UNL A   1      37.200  31.779  38.460  1.00  0.00    -0.200 F 
ATOM     83  F   UNL A   1      37.928  34.406  38.601  1.00  0.00    -0.200 F 
ENDBRANCH  49  73
BRANCH  61  84
ATOM     84  C   UNL A   1      44.763  28.146  34.190  1.00  0.00     0.064 A 
ATOM     85  C   UNL A   1      44.785  27.061  35.080  1.00  0.00     0.173 A 
ATOM     86  C   UNL A   1      45.877  28.997  34.162  1.00  0.00     0.173 A 
ATOM     87  F   UNL A   1      43.740  26.223  35.151  1.00  0.00    -0.203 F 
ATOM     88  C   UNL A   1      45.866  26.856  35.933  1.00  0.00     0.198 A 
ATOM     89  C   UNL A   1      46.969  28.770  34.995  1.00  0.00     0.198 A 
ATOM     90  F   UNL A   1      45.908  30.041  33.321  1.00  0.00    -0.203 F 
ATOM     91  F   UNL A   1      45.842  25.843  36.810  1.00  0.00    -0.200 F 
ATOM     92  C   UNL A   1      46.956  27.709  35.888  1.00  0.00     0.200 A 
ATOM     93  F   UNL A   1      48.034  29.582  34.936  1.00  0.00    -0.200 F 
ATOM     94  F   UNL A   1      47.997  27.511  36.709  1.00  0.00    -0.200 F 
ENDBRANCH  61  84
ENDBRANCH  35  36
ENDBRANCH  27  30
ENDBRANCH  25  26
ENDBRANCH  24  25
ENDBRANCH   1  24
TORSDOF 13
ENDMDL
MODEL 3
REMARK VINA RESULT:     -12.1      2.232      7.747
REMARK SMILES C[C@H](Nc1cccc(F)c1C(=O)NCCCNC(=O)c1ccc(-c2c3nc(c(-c4c(F)c(F)c(F)c(F)c4F)c4ccc([nH]4)c(-c4c(F)c(F)c(F)c(F)c4F)c4nc(c(-c5c(F)c(F)c(F)c(F)c5F)c5ccc2[nH]5)C=C4)C=C3)cc1)c1cccc(Cl)c1
REMARK SMILES IDX 14 1 13 2 11 3 12 4 10 6 4 7 5 8 6 9 8 10 7 11 9 12 3 13
REMARK SMILES IDX 2 15 1 16 83 17 84 18 89 19 85 20 87 21 86 22 88 23 15 24
REMARK SMILES IDX 16 25 17 26 18 27 19 29 20 30 21 31 82 32 22 33 81 34 23 35
REMARK SMILES IDX 24 36 25 37 75 38 26 39 80 40 74 41 76 42 27 43 79 44 73 45
REMARK SMILES IDX 72 46 28 48 60 49 40 50 59 51 41 52 44 53 58 54 77 55 42 56
REMARK SMILES IDX 43 57 57 59 78 60 45 61 29 62 30 63 38 64 31 65 32 66 36 67
REMARK SMILES IDX 39 68 33 69 34 70 37 71 35 72 61 73 62 74 70 75 63 76 64 77
REMARK SMILES IDX 68 78 71 79 65 80 66 81 69 82 67 83 46 84 47 85 55 86 48 87
REMARK SMILES IDX 49 88 53 89 56 90 50 91 51 92 54 93 52 94
REMARK H PARENT 13 5 3 14 17 28 76 47 44 58
REMARK Flexibility Score: inf
ROOT
ATOM      1  C   UNL A   1      31.947  28.200  27.205  1.00  0.00     0.118 C 
ENDROOT
BRANCH   1   2
ATOM      2  N   UNL A   1      31.029  27.081  27.140  1.00  0.00    -0.352 N 
ATOM      3  C   UNL A   1      30.538  26.298  26.127  1.00  0.00     0.256 C 
ATOM      4  O   UNL A   1      29.736  25.433  26.500  1.00  0.00    -0.269 OA
ATOM      5  H   UNL A   1      30.678  26.825  28.023  1.00  0.00     0.163 HD
BRANCH   3   6
ATOM      6  C   UNL A   1      30.918  26.363  24.677  1.00  0.00     0.098 A 
ATOM      7  C   UNL A   1      31.523  25.210  24.085  1.00  0.00     0.050 A 
ATOM      8  C   UNL A   1      31.865  25.232  22.718  1.00  0.00     0.027 A 
ATOM      9  C   UNL A   1      31.682  26.368  21.941  1.00  0.00     0.005 A 
ATOM     10  C   UNL A   1      30.697  27.469  23.848  1.00  0.00     0.138 A 
ATOM     11  C   UNL A   1      31.107  27.490  22.513  1.00  0.00     0.040 A 
ATOM     12  F   UNL A   1      30.039  28.555  24.261  1.00  0.00    -0.206 F 
BRANCH   7  13
ATOM     13  N   UNL A   1      31.862  24.076  24.844  1.00  0.00    -0.378 N 
ATOM     14  H   UNL A   1      31.377  23.230  24.705  1.00  0.00     0.161 HD
BRANCH  13  15
ATOM     15  C   UNL A   1      32.933  24.148  25.838  1.00  0.00     0.106 C 
ATOM     16  C   UNL A   1      32.546  23.272  27.041  1.00  0.00     0.036 C 
BRANCH  15  17
ATOM     17  C   UNL A   1      34.295  23.744  25.270  1.00  0.00    -0.025 A 
ATOM     18  C   UNL A   1      34.335  23.016  24.063  1.00  0.00     0.006 A 
ATOM     19  C   UNL A   1      35.517  24.019  25.907  1.00  0.00     0.026 A 
ATOM     20  C   UNL A   1      35.545  22.614  23.492  1.00  0.00     0.002 A 
ATOM     21  C   UNL A   1      36.726  23.611  25.333  1.00  0.00     0.041 A 
ATOM     22  C   UNL A   1      36.745  22.916  24.127  1.00  0.00     0.020 A 
ATOM     23  Cl  UNL A   1      38.212  23.964  26.128  1.00  0.00    -0.084 Cl
ENDBRANCH  15  17
ENDBRANCH  13  15
ENDBRANCH   7  13
ENDBRANCH   3   6
ENDBRANCH   1   2
BRANCH   1  24
ATOM     24  C   UNL A   1      33.350  27.775  26.768  1.00  0.00     0.042 C 
BRANCH  24  25
ATOM     25  C   UNL A   1      34.082  28.844  25.961  1.00  0.00     0.118 C 
BRANCH  25  26
ATOM     26  N   UNL A   1      33.864  30.180  26.501  1.00  0.00    -0.352 N 
ATOM     27  C   UNL A   1      34.496  30.829  27.532  1.00  0.00     0.251 C 
ATOM     28  H   UNL A   1      33.154  30.697  26.057  1.00  0.00     0.163 HD
ATOM     29  O   UNL A   1      34.011  31.854  27.998  1.00  0.00    -0.269 OA
BRANCH  27  30
ATOM     30  C   UNL A   1      35.758  30.298  28.087  1.00  0.00     0.039 A 
ATOM     31  C   UNL A   1      36.941  30.453  27.355  1.00  0.00     0.014 A 
ATOM     32  C   UNL A   1      35.771  29.611  29.303  1.00  0.00     0.014 A 
ATOM     33  C   UNL A   1      38.144  29.966  27.871  1.00  0.00     0.010 A 
ATOM     34  C   UNL A   1      36.980  29.198  29.852  1.00  0.00     0.010 A 
ATOM     35  C   UNL A   1      38.177  29.362  29.139  1.00  0.00    -0.014 A 
BRANCH  35  36
ATOM     36  C   UNL A   1      39.444  28.871  29.736  1.00  0.00     0.031 A 
ATOM     37  C   UNL A   1      40.057  29.610  30.893  1.00  0.00     0.074 A 
ATOM     38  C   UNL A   1      40.076  27.814  29.193  1.00  0.00     0.049 A 
ATOM     39  N   UNL A   1      41.215  29.423  31.474  1.00  0.00    -0.248 NA
ATOM     40  C   UNL A   1      39.280  30.728  31.453  1.00  0.00     0.031 C 
ATOM     41  C   UNL A   1      39.591  27.035  28.053  1.00  0.00     0.029 A 
ATOM     42  N   UNL A   1      41.268  27.217  29.518  1.00  0.00    -0.354 N 
ATOM     43  C   UNL A   1      41.309  30.406  32.450  1.00  0.00     0.074 A 
ATOM     44  C   UNL A   1      40.120  31.223  32.348  1.00  0.00     0.031 C 
ATOM     45  C   UNL A   1      40.463  26.050  27.790  1.00  0.00     0.029 A 
ATOM     46  C   UNL A   1      41.593  26.156  28.709  1.00  0.00     0.049 A 
ATOM     47  H   UNL A   1      41.837  27.522  30.263  1.00  0.00     0.167 HD
ATOM     48  C   UNL A   1      42.287  30.591  33.367  1.00  0.00     0.037 A 
ATOM     49  C   UNL A   1      42.683  25.365  28.703  1.00  0.00     0.037 A 
ATOM     50  C   UNL A   1      43.451  29.753  33.481  1.00  0.00     0.049 A 
ATOM     51  C   UNL A   1      43.768  25.606  29.717  1.00  0.00     0.074 A 
ATOM     52  C   UNL A   1      44.478  29.831  34.404  1.00  0.00     0.029 A 
ATOM     53  N   UNL A   1      43.737  28.682  32.648  1.00  0.00    -0.354 N 
ATOM     54  N   UNL A   1      43.829  26.513  30.661  1.00  0.00    -0.248 NA
ATOM     55  C   UNL A   1      44.935  24.714  29.670  1.00  0.00     0.031 C 
ATOM     56  C   UNL A   1      45.412  28.838  34.099  1.00  0.00     0.029 A 
ATOM     57  C   UNL A   1      44.936  28.101  33.026  1.00  0.00     0.049 A 
ATOM     58  H   UNL A   1      43.173  28.380  31.900  1.00  0.00     0.167 HD
ATOM     59  C   UNL A   1      45.018  26.283  31.339  1.00  0.00     0.074 A 
ATOM     60  C   UNL A   1      45.648  25.145  30.702  1.00  0.00     0.031 C 
ATOM     61  C   UNL A   1      45.538  26.953  32.395  1.00  0.00     0.037 A 
BRANCH  48  62
ATOM     62  C   UNL A   1      42.139  31.730  34.335  1.00  0.00     0.064 A 
ATOM     63  C   UNL A   1      42.713  32.980  34.060  1.00  0.00     0.173 A 
ATOM     64  C   UNL A   1      41.494  31.563  35.570  1.00  0.00     0.173 A 
ATOM     65  F   UNL A   1      43.347  33.194  32.897  1.00  0.00    -0.203 F 
ATOM     66  C   UNL A   1      42.660  34.014  34.991  1.00  0.00     0.198 A 
ATOM     67  C   UNL A   1      41.415  32.609  36.486  1.00  0.00     0.198 A 
ATOM     68  F   UNL A   1      40.919  30.390  35.879  1.00  0.00    -0.203 F 
ATOM     69  F   UNL A   1      43.249  35.188  34.721  1.00  0.00    -0.200 F 
ATOM     70  C   UNL A   1      42.008  33.829  36.200  1.00  0.00     0.200 A 
ATOM     71  F   UNL A   1      40.761  32.436  37.643  1.00  0.00    -0.200 F 
ATOM     72  F   UNL A   1      41.949  34.828  37.091  1.00  0.00    -0.200 F 
ENDBRANCH  48  62
BRANCH  49  73
ATOM     73  C   UNL A   1      42.777  24.249  27.724  1.00  0.00     0.064 A 
ATOM     74  C   UNL A   1      42.415  22.938  28.065  1.00  0.00     0.173 A 
ATOM     75  C   UNL A   1      43.266  24.473  26.429  1.00  0.00     0.173 A 
ATOM     76  F   UNL A   1      41.947  22.668  29.293  1.00  0.00    -0.203 F 
ATOM     77  C   UNL A   1      42.556  21.891  27.157  1.00  0.00     0.198 A 
ATOM     78  C   UNL A   1      43.380  23.431  25.511  1.00  0.00     0.198 A 
ATOM     79  F   UNL A   1      43.608  25.713  26.048  1.00  0.00    -0.203 F 
ATOM     80  F   UNL A   1      42.239  20.642  27.521  1.00  0.00    -0.200 F 
ATOM     81  C   UNL A   1      43.035  22.139  25.879  1.00  0.00     0.200 A 
ATOM     82  F   UNL A   1      43.819  23.680  24.270  1.00  0.00    -0.200 F 
ATOM     83  F   UNL A   1      43.159  21.134  25.001  1.00  0.00    -0.200 F 
ENDBRANCH  49  73
BRANCH  61  84
ATOM     84  C   UNL A   1      46.832  26.462  32.974  1.00  0.00     0.064 A 
ATOM     85  C   UNL A   1      48.054  26.923  32.459  1.00  0.00     0.173 A 
ATOM     86  C   UNL A   1      46.866  25.459  33.953  1.00  0.00     0.173 A 
ATOM     87  F   UNL A   1      48.073  27.874  31.514  1.00  0.00    -0.203 F 
ATOM     88  C   UNL A   1      49.262  26.377  32.884  1.00  0.00     0.198 A 
ATOM     89  C   UNL A   1      48.078  24.937  34.398  1.00  0.00     0.198 A 
ATOM     90  F   UNL A   1      45.726  24.993  34.483  1.00  0.00    -0.203 F 
ATOM     91  F   UNL A   1      50.413  26.797  32.342  1.00  0.00    -0.200 F 
ATOM     92  C   UNL A   1      49.272  25.386  33.853  1.00  0.00     0.200 A 
ATOM     93  F   UNL A   1      48.090  23.995  35.351  1.00  0.00    -0.200 F 
ATOM     94  F   UNL A   1      50.436  24.862  34.263  1.00  0.00    -0.200 F 
ENDBRANCH  61  84
ENDBRANCH  35  36
ENDBRANCH  27  30
ENDBRANCH  25  26
ENDBRANCH  24  25
ENDBRANCH   1  24
TORSDOF 13
ENDMDL
