MODEL 1
REMARK VINA RESULT:     -12.7      0.000      0.000
REMARK SMILES C=C1c2ccccc2C(=O)N1[C@](C)(CC)C(=O)NCCCNC(=O)c1ccc(-c2c3nc(c(-c4c(F)c(F)c(F)c(F)c4F)c4ccc([nH]4)c(-c4c(F)c(F)c(F)c(F)c4F)c4nc(c(-c5c(F)c(F)c(F)c(F)c5F)c5ccc2[nH]5)C=C4)C=C3)cc1
REMARK SMILES IDX 20 1 19 2 18 3 16 4 17 5 12 7 13 8 11 9 1 10 2 11 3 12 4 13
REMARK SMILES IDX 8 14 9 15 5 16 7 17 10 18 6 19 14 20 15 21 21 22 22 23 23 24
REMARK SMILES IDX 24 26 25 27 26 28 87 29 27 30 86 31 28 32 29 33 30 34 80 35
REMARK SMILES IDX 31 36 85 37 79 38 81 39 32 40 84 41 78 42 77 43 33 45 65 46
REMARK SMILES IDX 45 47 64 48 46 49 49 50 63 51 82 52 47 53 48 54 62 56 83 57
REMARK SMILES IDX 50 58 34 59 35 60 43 61 36 62 37 63 41 64 44 65 38 66 39 67
REMARK SMILES IDX 42 68 40 69 66 70 67 71 75 72 68 73 69 74 73 75 76 76 70 77
REMARK SMILES IDX 71 78 74 79 72 80 51 81 52 82 60 83 53 84 54 85 58 86 61 87
REMARK SMILES IDX 55 88 56 89 59 90 57 91
REMARK H PARENT 18 6 22 25 81 44 49 55
REMARK Flexibility Score: inf
ROOT
ATOM      1  C   UNL A   1      31.999  28.661  26.441  1.00  0.00     0.042 C 
ENDROOT
BRANCH   1   2
ATOM      2  C   UNL A   1      32.586  27.275  26.641  1.00  0.00     0.117 C 
BRANCH   2   3
ATOM      3  N   UNL A   1      31.547  26.287  26.875  1.00  0.00    -0.354 N 
ATOM      4  C   UNL A   1      30.929  25.432  26.006  1.00  0.00     0.246 C 
ATOM      5  O   UNL A   1      30.086  24.675  26.500  1.00  0.00    -0.272 OA
ATOM      6  H   UNL A   1      31.239  26.224  27.808  1.00  0.00     0.163 HD
BRANCH   4   7
ATOM      7  C   UNL A   1      31.202  25.491  24.472  1.00  0.00     0.123 C 
ATOM      8  C   UNL A   1      32.724  25.545  24.223  1.00  0.00     0.046 C 
BRANCH   7   9
ATOM      9  N   UNL A   1      30.588  26.692  23.818  1.00  0.00    -0.293 N 
ATOM     10  C   UNL A   1      32.457  27.666  22.504  1.00  0.00     0.038 C 
ATOM     11  C   UNL A   1      31.212  27.636  22.991  1.00  0.00     0.046 C 
ATOM     12  C   UNL A   1      30.208  28.644  22.647  1.00  0.00     0.010 A 
ATOM     13  C   UNL A   1      30.284  29.865  21.994  1.00  0.00     0.011 A 
ATOM     14  C   UNL A   1      28.984  28.190  23.122  1.00  0.00     0.049 A 
ATOM     15  C   UNL A   1      29.208  26.933  23.847  1.00  0.00     0.259 C 
ATOM     16  C   UNL A   1      29.102  30.591  21.798  1.00  0.00     0.001 A 
ATOM     17  C   UNL A   1      27.799  28.877  22.928  1.00  0.00     0.014 A 
ATOM     18  O   UNL A   1      28.310  26.291  24.354  1.00  0.00    -0.269 OA
ATOM     19  C   UNL A   1      27.867  30.094  22.248  1.00  0.00     0.001 A 
ENDBRANCH   7   9
BRANCH   7  20
ATOM     20  C   UNL A   1      30.653  24.139  23.883  1.00  0.00     0.035 C 
ATOM     21  C   UNL A   1      31.700  23.193  23.291  1.00  0.00     0.007 C 
ENDBRANCH   7  20
ENDBRANCH   4   7
ENDBRANCH   2   3
ENDBRANCH   1   2
BRANCH   1  22
ATOM     22  C   UNL A   1      32.995  29.650  25.858  1.00  0.00     0.118 C 
BRANCH  22  23
ATOM     23  N   UNL A   1      32.746  31.018  26.296  1.00  0.00    -0.352 N 
ATOM     24  C   UNL A   1      33.395  31.759  27.250  1.00  0.00     0.251 C 
ATOM     25  H   UNL A   1      32.003  31.476  25.841  1.00  0.00     0.163 HD
ATOM     26  O   UNL A   1      32.924  32.828  27.628  1.00  0.00    -0.269 OA
BRANCH  24  27
ATOM     27  C   UNL A   1      34.651  31.253  27.838  1.00  0.00     0.039 A 
ATOM     28  C   UNL A   1      35.726  32.128  28.001  1.00  0.00     0.014 A 
ATOM     29  C   UNL A   1      34.758  29.920  28.243  1.00  0.00     0.014 A 
ATOM     30  C   UNL A   1      36.884  31.683  28.637  1.00  0.00     0.010 A 
ATOM     31  C   UNL A   1      35.872  29.507  28.963  1.00  0.00     0.010 A 
ATOM     32  C   UNL A   1      36.951  30.380  29.161  1.00  0.00    -0.014 A 
BRANCH  32  33
ATOM     33  C   UNL A   1      38.140  29.912  29.913  1.00  0.00     0.031 A 
ATOM     34  C   UNL A   1      38.398  30.417  31.305  1.00  0.00     0.074 A 
ATOM     35  C   UNL A   1      39.018  29.080  29.320  1.00  0.00     0.049 A 
ATOM     36  N   UNL A   1      39.410  30.178  32.099  1.00  0.00    -0.248 NA
ATOM     37  C   UNL A   1      37.400  31.340  31.871  1.00  0.00     0.031 C 
ATOM     38  C   UNL A   1      38.901  28.557  27.958  1.00  0.00     0.029 A 
ATOM     39  N   UNL A   1      40.186  28.531  29.786  1.00  0.00    -0.354 N 
ATOM     40  C   UNL A   1      39.174  30.922  33.247  1.00  0.00     0.074 A 
ATOM     41  C   UNL A   1      37.959  31.674  33.023  1.00  0.00     0.031 C 
ATOM     42  C   UNL A   1      39.936  27.738  27.711  1.00  0.00     0.029 A 
ATOM     43  C   UNL A   1      40.814  27.715  28.875  1.00  0.00     0.049 A 
ATOM     44  H   UNL A   1      40.542  28.706  30.688  1.00  0.00     0.167 HD
ATOM     45  C   UNL A   1      39.890  30.953  34.396  1.00  0.00     0.037 A 
ATOM     46  C   UNL A   1      41.972  27.035  28.968  1.00  0.00     0.037 A 
ATOM     47  C   UNL A   1      41.090  30.191  34.619  1.00  0.00     0.049 A 
ATOM     48  C   UNL A   1      42.765  27.114  30.245  1.00  0.00     0.074 A 
ATOM     49  C   UNL A   1      41.863  30.116  35.764  1.00  0.00     0.029 A 
ATOM     50  N   UNL A   1      41.695  29.376  33.673  1.00  0.00    -0.354 N 
ATOM     51  N   UNL A   1      42.497  27.767  31.350  1.00  0.00    -0.248 NA
ATOM     52  C   UNL A   1      44.021  26.354  30.290  1.00  0.00     0.031 C 
ATOM     53  C   UNL A   1      42.969  29.304  35.491  1.00  0.00     0.029 A 
ATOM     54  C   UNL A   1      42.848  28.816  34.199  1.00  0.00     0.049 A 
ATOM     55  H   UNL A   1      41.355  29.219  32.762  1.00  0.00     0.167 HD
ATOM     56  C   UNL A   1      43.528  27.471  32.230  1.00  0.00     0.074 A 
ATOM     57  C   UNL A   1      44.421  26.564  31.536  1.00  0.00     0.031 C 
ATOM     58  C   UNL A   1      43.721  27.908  33.499  1.00  0.00     0.037 A 
BRANCH  45  59
ATOM     59  C   UNL A   1      39.392  31.841  35.503  1.00  0.00     0.064 A 
ATOM     60  C   UNL A   1      39.784  33.185  35.603  1.00  0.00     0.173 A 
ATOM     61  C   UNL A   1      38.482  31.353  36.452  1.00  0.00     0.173 A 
ATOM     62  F   UNL A   1      40.662  33.700  34.728  1.00  0.00    -0.203 F 
ATOM     63  C   UNL A   1      39.309  33.997  36.629  1.00  0.00     0.198 A 
ATOM     64  C   UNL A   1      37.980  32.178  37.456  1.00  0.00     0.198 A 
ATOM     65  F   UNL A   1      38.069  30.078  36.402  1.00  0.00    -0.203 F 
ATOM     66  F   UNL A   1      39.741  35.262  36.735  1.00  0.00    -0.200 F 
ATOM     67  C   UNL A   1      38.400  33.496  37.549  1.00  0.00     0.200 A 
ATOM     68  F   UNL A   1      37.091  31.696  38.334  1.00  0.00    -0.200 F 
ATOM     69  F   UNL A   1      37.935  34.282  38.529  1.00  0.00    -0.200 F 
ENDBRANCH  45  59
BRANCH  46  70
ATOM     70  C   UNL A   1      42.442  26.202  27.829  1.00  0.00     0.064 A 
ATOM     71  C   UNL A   1      43.387  26.698  26.919  1.00  0.00     0.173 A 
ATOM     72  C   UNL A   1      41.951  24.906  27.616  1.00  0.00     0.173 A 
ATOM     73  F   UNL A   1      43.873  27.940  27.067  1.00  0.00    -0.203 F 
ATOM     74  C   UNL A   1      43.801  25.940  25.825  1.00  0.00     0.198 A 
ATOM     75  C   UNL A   1      42.391  24.137  26.541  1.00  0.00     0.198 A 
ATOM     76  F   UNL A   1      41.051  24.382  28.460  1.00  0.00    -0.203 F 
ATOM     77  F   UNL A   1      44.663  26.460  24.940  1.00  0.00    -0.200 F 
ATOM     78  C   UNL A   1      43.307  24.657  25.641  1.00  0.00     0.200 A 
ATOM     79  F   UNL A   1      41.924  22.891  26.376  1.00  0.00    -0.200 F 
ATOM     80  F   UNL A   1      43.707  23.928  24.590  1.00  0.00    -0.200 F 
ENDBRANCH  46  70
BRANCH  58  81
ATOM     81  C   UNL A   1      44.916  27.378  34.239  1.00  0.00     0.064 A 
ATOM     82  C   UNL A   1      46.148  28.049  34.237  1.00  0.00     0.173 A 
ATOM     83  C   UNL A   1      44.814  26.199  34.994  1.00  0.00     0.173 A 
ATOM     84  F   UNL A   1      46.303  29.172  33.520  1.00  0.00    -0.203 F 
ATOM     85  C   UNL A   1      47.239  27.543  34.938  1.00  0.00     0.198 A 
ATOM     86  C   UNL A   1      45.896  25.717  35.724  1.00  0.00     0.198 A 
ATOM     87  F   UNL A   1      43.657  25.521  35.038  1.00  0.00    -0.203 F 
ATOM     88  F   UNL A   1      48.422  28.172  34.875  1.00  0.00    -0.200 F 
ATOM     89  C   UNL A   1      47.111  26.384  35.687  1.00  0.00     0.200 A 
ATOM     90  F   UNL A   1      45.764  24.606  36.462  1.00  0.00    -0.200 F 
ATOM     91  F   UNL A   1      48.160  25.905  36.369  1.00  0.00    -0.200 F 
ENDBRANCH  58  81
ENDBRANCH  32  33
ENDBRANCH  24  27
ENDBRANCH  22  23
ENDBRANCH   1  22
TORSDOF 12
ENDMDL
MODEL 2
REMARK VINA RESULT:     -12.6      1.232      2.013
REMARK SMILES C=C1c2ccccc2C(=O)N1[C@](C)(CC)C(=O)NCCCNC(=O)c1ccc(-c2c3nc(c(-c4c(F)c(F)c(F)c(F)c4F)c4ccc([nH]4)c(-c4c(F)c(F)c(F)c(F)c4F)c4nc(c(-c5c(F)c(F)c(F)c(F)c5F)c5ccc2[nH]5)C=C4)C=C3)cc1
REMARK SMILES IDX 20 1 19 2 18 3 16 4 17 5 12 7 13 8 11 9 1 10 2 11 3 12 4 13
REMARK SMILES IDX 8 14 9 15 5 16 7 17 10 18 6 19 14 20 15 21 21 22 22 23 23 24
REMARK SMILES IDX 24 26 25 27 26 28 87 29 27 30 86 31 28 32 29 33 30 34 80 35
REMARK SMILES IDX 31 36 85 37 79 38 81 39 32 40 84 41 78 42 77 43 33 45 65 46
REMARK SMILES IDX 45 47 64 48 46 49 49 50 63 51 82 52 47 53 48 54 62 56 83 57
REMARK SMILES IDX 50 58 34 59 35 60 43 61 36 62 37 63 41 64 44 65 38 66 39 67
REMARK SMILES IDX 42 68 40 69 66 70 67 71 75 72 68 73 69 74 73 75 76 76 70 77
REMARK SMILES IDX 71 78 74 79 72 80 51 81 52 82 60 83 53 84 54 85 58 86 61 87
REMARK SMILES IDX 55 88 56 89 59 90 57 91
REMARK H PARENT 18 6 22 25 81 44 49 55
REMARK Flexibility Score: inf
ROOT
ATOM      1  C   UNL A   1      32.519  29.846  25.385  1.00  0.00     0.042 C 
ENDROOT
BRANCH   1   2
ATOM      2  C   UNL A   1      33.453  28.666  25.186  1.00  0.00     0.117 C 
BRANCH   2   3
ATOM      3  N   UNL A   1      34.037  28.670  23.856  1.00  0.00    -0.354 N 
ATOM      4  C   UNL A   1      33.748  27.904  22.761  1.00  0.00     0.246 C 
ATOM      5  O   UNL A   1      34.402  28.150  21.742  1.00  0.00    -0.272 OA
ATOM      6  H   UNL A   1      34.757  29.329  23.722  1.00  0.00     0.163 HD
BRANCH   4   7
ATOM      7  C   UNL A   1      32.728  26.727  22.837  1.00  0.00     0.123 C 
ATOM      8  C   UNL A   1      32.810  25.891  21.543  1.00  0.00     0.046 C 
BRANCH   7   9
ATOM      9  N   UNL A   1      31.312  27.195  22.990  1.00  0.00    -0.293 N 
ATOM     10  C   UNL A   1      30.275  25.464  24.437  1.00  0.00     0.038 C 
ATOM     11  C   UNL A   1      30.266  26.565  23.679  1.00  0.00     0.046 C 
ATOM     12  C   UNL A   1      29.068  27.385  23.496  1.00  0.00     0.010 A 
ATOM     13  C   UNL A   1      27.733  27.188  23.816  1.00  0.00     0.011 A 
ATOM     14  C   UNL A   1      29.460  28.558  22.863  1.00  0.00     0.049 A 
ATOM     15  C   UNL A   1      30.893  28.461  22.559  1.00  0.00     0.259 C 
ATOM     16  C   UNL A   1      26.819  28.208  23.521  1.00  0.00     0.001 A 
ATOM     17  C   UNL A   1      28.583  29.589  22.575  1.00  0.00     0.014 A 
ATOM     18  O   UNL A   1      31.520  29.355  22.025  1.00  0.00    -0.269 OA
ATOM     19  C   UNL A   1      27.243  29.405  22.919  1.00  0.00     0.001 A 
ENDBRANCH   7   9
BRANCH   7  20
ATOM     20  C   UNL A   1      33.196  25.825  24.039  1.00  0.00     0.035 C 
ATOM     21  C   UNL A   1      34.180  24.706  23.691  1.00  0.00     0.007 C 
ENDBRANCH   7  20
ENDBRANCH   4   7
ENDBRANCH   2   3
ENDBRANCH   1   2
BRANCH   1  22
ATOM     22  C   UNL A   1      32.507  30.361  26.815  1.00  0.00     0.118 C 
BRANCH  22  23
ATOM     23  N   UNL A   1      32.604  31.813  26.887  1.00  0.00    -0.352 N 
ATOM     24  C   UNL A   1      33.531  32.594  27.529  1.00  0.00     0.251 C 
ATOM     25  H   UNL A   1      31.900  32.305  26.406  1.00  0.00     0.163 HD
ATOM     26  O   UNL A   1      33.345  33.801  27.649  1.00  0.00    -0.269 OA
BRANCH  24  27
ATOM     27  C   UNL A   1      34.743  31.971  28.096  1.00  0.00     0.039 A 
ATOM     28  C   UNL A   1      35.909  32.731  28.206  1.00  0.00     0.014 A 
ATOM     29  C   UNL A   1      34.721  30.644  28.532  1.00  0.00     0.014 A 
ATOM     30  C   UNL A   1      37.032  32.179  28.821  1.00  0.00     0.010 A 
ATOM     31  C   UNL A   1      35.806  30.131  29.232  1.00  0.00     0.010 A 
ATOM     32  C   UNL A   1      36.977  30.890  29.377  1.00  0.00    -0.014 A 
BRANCH  32  33
ATOM     33  C   UNL A   1      38.132  30.315  30.109  1.00  0.00     0.031 A 
ATOM     34  C   UNL A   1      38.411  30.735  31.525  1.00  0.00     0.074 A 
ATOM     35  C   UNL A   1      38.963  29.462  29.478  1.00  0.00     0.049 A 
ATOM     36  N   UNL A   1      39.402  30.397  32.310  1.00  0.00    -0.248 NA
ATOM     37  C   UNL A   1      37.465  31.686  32.133  1.00  0.00     0.031 C 
ATOM     38  C   UNL A   1      38.822  29.015  28.092  1.00  0.00     0.029 A 
ATOM     39  N   UNL A   1      40.093  28.823  29.920  1.00  0.00    -0.354 N 
ATOM     40  C   UNL A   1      39.204  31.097  33.492  1.00  0.00     0.074 A 
ATOM     41  C   UNL A   1      38.037  31.929  33.302  1.00  0.00     0.031 C 
ATOM     42  C   UNL A   1      39.808  28.149  27.807  1.00  0.00     0.029 A 
ATOM     43  C   UNL A   1      40.677  28.017  28.972  1.00  0.00     0.049 A 
ATOM     44  H   UNL A   1      40.453  28.931  30.830  1.00  0.00     0.167 HD
ATOM     45  C   UNL A   1      39.914  31.029  34.643  1.00  0.00     0.037 A 
ATOM     46  C   UNL A   1      41.792  27.265  29.034  1.00  0.00     0.037 A 
ATOM     47  C   UNL A   1      41.065  30.186  34.832  1.00  0.00     0.049 A 
ATOM     48  C   UNL A   1      42.581  27.234  30.316  1.00  0.00     0.074 A 
ATOM     49  C   UNL A   1      41.826  30.009  35.973  1.00  0.00     0.029 A 
ATOM     50  N   UNL A   1      41.627  29.384  33.848  1.00  0.00    -0.354 N 
ATOM     51  N   UNL A   1      42.345  27.847  31.450  1.00  0.00    -0.248 NA
ATOM     52  C   UNL A   1      43.790  26.399  30.327  1.00  0.00     0.031 C 
ATOM     53  C   UNL A   1      42.884  29.147  35.664  1.00  0.00     0.029 A 
ATOM     54  C   UNL A   1      42.741  28.732  34.350  1.00  0.00     0.049 A 
ATOM     55  H   UNL A   1      41.284  29.292  32.930  1.00  0.00     0.167 HD
ATOM     56  C   UNL A   1      43.352  27.447  32.318  1.00  0.00     0.074 A 
ATOM     57  C   UNL A   1      44.193  26.524  31.583  1.00  0.00     0.031 C 
ATOM     58  C   UNL A   1      43.563  27.809  33.608  1.00  0.00     0.037 A 
BRANCH  45  59
ATOM     59  C   UNL A   1      39.463  31.889  35.791  1.00  0.00     0.064 A 
ATOM     60  C   UNL A   1      39.989  33.173  36.001  1.00  0.00     0.173 A 
ATOM     61  C   UNL A   1      38.465  31.440  36.668  1.00  0.00     0.173 A 
ATOM     62  F   UNL A   1      40.954  33.648  35.198  1.00  0.00    -0.203 F 
ATOM     63  C   UNL A   1      39.556  33.961  37.064  1.00  0.00     0.198 A 
ATOM     64  C   UNL A   1      38.008  32.244  37.709  1.00  0.00     0.198 A 
ATOM     65  F   UNL A   1      37.923  30.223  36.513  1.00  0.00    -0.203 F 
ATOM     66  F   UNL A   1      40.113  35.162  37.276  1.00  0.00    -0.200 F 
ATOM     67  C   UNL A   1      38.560  33.500  37.911  1.00  0.00     0.200 A 
ATOM     68  F   UNL A   1      37.035  31.804  38.517  1.00  0.00    -0.200 F 
ATOM     69  F   UNL A   1      38.137  34.265  38.928  1.00  0.00    -0.200 F 
ENDBRANCH  45  59
BRANCH  46  70
ATOM     70  C   UNL A   1      42.218  26.463  27.856  1.00  0.00     0.064 A 
ATOM     71  C   UNL A   1      41.677  25.191  27.619  1.00  0.00     0.173 A 
ATOM     72  C   UNL A   1      43.181  26.941  26.955  1.00  0.00     0.173 A 
ATOM     73  F   UNL A   1      40.768  24.682  28.463  1.00  0.00    -0.203 F 
ATOM     74  C   UNL A   1      42.103  24.417  26.541  1.00  0.00     0.198 A 
ATOM     75  C   UNL A   1      43.581  26.179  25.859  1.00  0.00     0.198 A 
ATOM     76  F   UNL A   1      43.726  28.153  27.132  1.00  0.00    -0.203 F 
ATOM     77  F   UNL A   1      41.610  23.183  26.370  1.00  0.00    -0.200 F 
ATOM     78  C   UNL A   1      43.051  24.914  25.659  1.00  0.00     0.200 A 
ATOM     79  F   UNL A   1      44.484  26.670  24.998  1.00  0.00    -0.200 F 
ATOM     80  F   UNL A   1      43.458  24.170  24.621  1.00  0.00    -0.200 F 
ENDBRANCH  46  70
BRANCH  58  81
ATOM     81  C   UNL A   1      44.720  27.173  34.324  1.00  0.00     0.064 A 
ATOM     82  C   UNL A   1      45.988  27.771  34.363  1.00  0.00     0.173 A 
ATOM     83  C   UNL A   1      44.545  25.964  35.016  1.00  0.00     0.173 A 
ATOM     84  F   UNL A   1      46.213  28.920  33.707  1.00  0.00    -0.203 F 
ATOM     85  C   UNL A   1      47.044  27.168  35.041  1.00  0.00     0.198 A 
ATOM     86  C   UNL A   1      45.593  25.383  35.724  1.00  0.00     0.198 A 
ATOM     87  F   UNL A   1      43.351  25.352  35.019  1.00  0.00    -0.203 F 
ATOM     88  F   UNL A   1      48.261  27.729  35.017  1.00  0.00    -0.200 F 
ATOM     89  C   UNL A   1      46.844  25.980  35.728  1.00  0.00     0.200 A 
ATOM     90  F   UNL A   1      45.392  24.245  36.402  1.00  0.00    -0.200 F 
ATOM     91  F   UNL A   1      47.859  25.406  36.388  1.00  0.00    -0.200 F 
ENDBRANCH  58  81
ENDBRANCH  32  33
ENDBRANCH  24  27
ENDBRANCH  22  23
ENDBRANCH   1  22
TORSDOF 12
ENDMDL
MODEL 3
REMARK VINA RESULT:     -12.5      5.561     10.651
REMARK SMILES C=C1c2ccccc2C(=O)N1[C@](C)(CC)C(=O)NCCCNC(=O)c1ccc(-c2c3nc(c(-c4c(F)c(F)c(F)c(F)c4F)c4ccc([nH]4)c(-c4c(F)c(F)c(F)c(F)c4F)c4nc(c(-c5c(F)c(F)c(F)c(F)c5F)c5ccc2[nH]5)C=C4)C=C3)cc1
REMARK SMILES IDX 20 1 19 2 18 3 16 4 17 5 12 7 13 8 11 9 1 10 2 11 3 12 4 13
REMARK SMILES IDX 8 14 9 15 5 16 7 17 10 18 6 19 14 20 15 21 21 22 22 23 23 24
REMARK SMILES IDX 24 26 25 27 26 28 87 29 27 30 86 31 28 32 29 33 30 34 80 35
REMARK SMILES IDX 31 36 85 37 79 38 81 39 32 40 84 41 78 42 77 43 33 45 65 46
REMARK SMILES IDX 45 47 64 48 46 49 49 50 63 51 82 52 47 53 48 54 62 56 83 57
REMARK SMILES IDX 50 58 34 59 35 60 43 61 36 62 37 63 41 64 44 65 38 66 39 67
REMARK SMILES IDX 42 68 40 69 66 70 67 71 75 72 68 73 69 74 73 75 76 76 70 77
REMARK SMILES IDX 71 78 74 79 72 80 51 81 52 82 60 83 53 84 54 85 58 86 61 87
REMARK SMILES IDX 55 88 56 89 59 90 57 91
REMARK H PARENT 18 6 22 25 81 44 49 55
REMARK Flexibility Score: inf
ROOT
ATOM      1  C   UNL A   1      42.332  21.923  26.963  1.00  0.00     0.042 C 
ENDROOT
BRANCH   1   2
ATOM      2  C   UNL A   1      43.031  23.242  27.241  1.00  0.00     0.117 C 
BRANCH   2   3
ATOM      3  N   UNL A   1      44.459  23.056  27.429  1.00  0.00    -0.354 N 
ATOM      4  C   UNL A   1      45.518  23.607  26.761  1.00  0.00     0.246 C 
ATOM      5  O   UNL A   1      46.639  23.278  27.161  1.00  0.00    -0.272 OA
ATOM      6  H   UNL A   1      44.704  22.433  28.151  1.00  0.00     0.163 HD
BRANCH   4   7
ATOM      7  C   UNL A   1      45.309  24.511  25.508  1.00  0.00     0.123 C 
ATOM      8  C   UNL A   1      46.646  24.661  24.753  1.00  0.00     0.046 C 
BRANCH   7   9
ATOM      9  N   UNL A   1      44.824  25.886  25.858  1.00  0.00    -0.293 N 
ATOM     10  C   UNL A   1      46.789  26.941  26.950  1.00  0.00     0.038 C 
ATOM     11  C   UNL A   1      45.520  26.898  26.535  1.00  0.00     0.046 C 
ATOM     12  C   UNL A   1      44.605  28.032  26.680  1.00  0.00     0.010 A 
ATOM     13  C   UNL A   1      44.689  29.227  27.377  1.00  0.00     0.011 A 
ATOM     14  C   UNL A   1      43.463  27.742  25.942  1.00  0.00     0.049 A 
ATOM     15  C   UNL A   1      43.602  26.388  25.392  1.00  0.00     0.259 C 
ATOM     16  C   UNL A   1      43.623  30.131  27.283  1.00  0.00     0.001 A 
ATOM     17  C   UNL A   1      42.403  28.622  25.818  1.00  0.00     0.014 A 
ATOM     18  O   UNL A   1      42.763  25.873  24.680  1.00  0.00    -0.269 OA
ATOM     19  C   UNL A   1      42.496  29.837  26.497  1.00  0.00     0.001 A 
ENDBRANCH   7   9
BRANCH   7  20
ATOM     20  C   UNL A   1      44.301  23.737  24.580  1.00  0.00     0.035 C 
ATOM     21  C   UNL A   1      44.874  22.534  23.827  1.00  0.00     0.007 C 
ENDBRANCH   7  20
ENDBRANCH   4   7
ENDBRANCH   2   3
ENDBRANCH   1   2
BRANCH   1  22
ATOM     22  C   UNL A   1      40.959  21.831  27.608  1.00  0.00     0.118 C 
BRANCH  22  23
ATOM     23  N   UNL A   1      39.876  21.979  26.643  1.00  0.00    -0.352 N 
ATOM     24  C   UNL A   1      39.032  23.040  26.437  1.00  0.00     0.251 C 
ATOM     25  H   UNL A   1      39.728  21.204  26.055  1.00  0.00     0.163 HD
ATOM     26  O   UNL A   1      38.049  22.916  25.714  1.00  0.00    -0.269 OA
BRANCH  24  27
ATOM     27  C   UNL A   1      39.300  24.327  27.110  1.00  0.00     0.039 A 
ATOM     28  C   UNL A   1      38.882  24.503  28.430  1.00  0.00     0.014 A 
ATOM     29  C   UNL A   1      39.978  25.350  26.442  1.00  0.00     0.014 A 
ATOM     30  C   UNL A   1      39.208  25.680  29.103  1.00  0.00     0.010 A 
ATOM     31  C   UNL A   1      40.388  26.477  27.144  1.00  0.00     0.010 A 
ATOM     32  C   UNL A   1      40.000  26.658  28.479  1.00  0.00    -0.014 A 
BRANCH  32  33
ATOM     33  C   UNL A   1      40.430  27.880  29.203  1.00  0.00     0.031 A 
ATOM     34  C   UNL A   1      41.821  27.974  29.762  1.00  0.00     0.074 A 
ATOM     35  C   UNL A   1      39.547  28.877  29.408  1.00  0.00     0.049 A 
ATOM     36  N   UNL A   1      42.365  28.926  30.477  1.00  0.00    -0.248 NA
ATOM     37  C   UNL A   1      42.716  26.831  29.510  1.00  0.00     0.031 C 
ATOM     38  C   UNL A   1      38.156  28.882  28.953  1.00  0.00     0.029 A 
ATOM     39  N   UNL A   1      39.689  30.078  30.057  1.00  0.00    -0.354 N 
ATOM     40  C   UNL A   1      43.653  28.495  30.765  1.00  0.00     0.074 A 
ATOM     41  C   UNL A   1      43.790  27.168  30.206  1.00  0.00     0.031 C 
ATOM     42  C   UNL A   1      37.582  30.043  29.308  1.00  0.00     0.029 A 
ATOM     43  C   UNL A   1      38.547  30.843  30.056  1.00  0.00     0.049 A 
ATOM     44  H   UNL A   1      40.528  30.364  30.483  1.00  0.00     0.167 HD
ATOM     45  C   UNL A   1      44.641  29.158  31.410  1.00  0.00     0.037 A 
ATOM     46  C   UNL A   1      38.305  32.048  30.604  1.00  0.00     0.037 A 
ATOM     47  C   UNL A   1      44.503  30.484  31.950  1.00  0.00     0.049 A 
ATOM     48  C   UNL A   1      39.412  32.748  31.346  1.00  0.00     0.074 A 
ATOM     49  C   UNL A   1      45.457  31.262  32.581  1.00  0.00     0.029 A 
ATOM     50  N   UNL A   1      43.331  31.227  31.930  1.00  0.00    -0.354 N 
ATOM     51  N   UNL A   1      40.647  32.360  31.552  1.00  0.00    -0.248 NA
ATOM     52  C   UNL A   1      39.092  34.059  31.926  1.00  0.00     0.031 C 
ATOM     53  C   UNL A   1      44.848  32.450  32.997  1.00  0.00     0.029 A 
ATOM     54  C   UNL A   1      43.531  32.444  32.562  1.00  0.00     0.049 A 
ATOM     55  H   UNL A   1      42.482  30.933  31.526  1.00  0.00     0.167 HD
ATOM     56  C   UNL A   1      41.260  33.390  32.253  1.00  0.00     0.074 A 
ATOM     57  C   UNL A   1      40.264  34.428  32.423  1.00  0.00     0.031 C 
ATOM     58  C   UNL A   1      42.532  33.471  32.715  1.00  0.00     0.037 A 
BRANCH  45  59
ATOM     59  C   UNL A   1      45.962  28.457  31.567  1.00  0.00     0.064 A 
ATOM     60  C   UNL A   1      46.220  27.603  32.650  1.00  0.00     0.173 A 
ATOM     61  C   UNL A   1      46.969  28.611  30.602  1.00  0.00     0.173 A 
ATOM     62  F   UNL A   1      45.296  27.428  33.608  1.00  0.00    -0.203 F 
ATOM     63  C   UNL A   1      47.446  26.955  32.777  1.00  0.00     0.198 A 
ATOM     64  C   UNL A   1      48.180  27.934  30.713  1.00  0.00     0.198 A 
ATOM     65  F   UNL A   1      46.775  29.412  29.543  1.00  0.00    -0.203 F 
ATOM     66  F   UNL A   1      47.687  26.187  33.849  1.00  0.00    -0.200 F 
ATOM     67  C   UNL A   1      48.421  27.113  31.804  1.00  0.00     0.200 A 
ATOM     68  F   UNL A   1      49.115  28.076  29.764  1.00  0.00    -0.200 F 
ATOM     69  F   UNL A   1      49.596  26.480  31.923  1.00  0.00    -0.200 F 
ENDBRANCH  45  59
BRANCH  46  70
ATOM     70  C   UNL A   1      36.967  32.681  30.456  1.00  0.00     0.064 A 
ATOM     71  C   UNL A   1      36.637  33.402  29.299  1.00  0.00     0.173 A 
ATOM     72  C   UNL A   1      35.999  32.592  31.466  1.00  0.00     0.173 A 
ATOM     73  F   UNL A   1      37.536  33.532  28.312  1.00  0.00    -0.203 F 
ATOM     74  C   UNL A   1      35.401  34.033  29.171  1.00  0.00     0.198 A 
ATOM     75  C   UNL A   1      34.751  33.196  31.323  1.00  0.00     0.198 A 
ATOM     76  F   UNL A   1      36.261  31.910  32.590  1.00  0.00    -0.203 F 
ATOM     77  F   UNL A   1      35.134  34.762  28.079  1.00  0.00    -0.200 F 
ATOM     78  C   UNL A   1      34.457  33.924  30.181  1.00  0.00     0.200 A 
ATOM     79  F   UNL A   1      33.835  33.074  32.294  1.00  0.00    -0.200 F 
ATOM     80  F   UNL A   1      33.268  34.530  30.056  1.00  0.00    -0.200 F 
ENDBRANCH  46  70
BRANCH  58  81
ATOM     81  C   UNL A   1      42.937  34.741  33.407  1.00  0.00     0.064 A 
ATOM     82  C   UNL A   1      43.400  35.858  32.696  1.00  0.00     0.173 A 
ATOM     83  C   UNL A   1      42.822  34.854  34.802  1.00  0.00     0.173 A 
ATOM     84  F   UNL A   1      43.542  35.798  31.364  1.00  0.00    -0.203 F 
ATOM     85  C   UNL A   1      43.761  37.029  33.358  1.00  0.00     0.198 A 
ATOM     86  C   UNL A   1      43.148  36.038  35.456  1.00  0.00     0.198 A 
ATOM     87  F   UNL A   1      42.376  33.819  35.531  1.00  0.00    -0.203 F 
ATOM     88  F   UNL A   1      44.254  38.063  32.664  1.00  0.00    -0.200 F 
ATOM     89  C   UNL A   1      43.626  37.121  34.736  1.00  0.00     0.200 A 
ATOM     90  F   UNL A   1      42.999  36.132  36.785  1.00  0.00    -0.200 F 
ATOM     91  F   UNL A   1      43.965  38.253  35.369  1.00  0.00    -0.200 F 
ENDBRANCH  58  81
ENDBRANCH  32  33
ENDBRANCH  24  27
ENDBRANCH  22  23
ENDBRANCH   1  22
TORSDOF 12
ENDMDL
