MODEL 1
REMARK VINA RESULT:     -14.0      0.000      0.000
REMARK SMILES Cc1cccc(-c2ccc(Cl)c(C(=O)NCCCNC(=O)c3ccc(-c4c5nc(c(-c6c(F)c(F)c(F)c(F)c6F)c6ccc([nH]6)c(-c6c(F)c(F)c(F)c(F)c6F)c6nc(c(-c7c(F)c(F)c(F)c(F)c7F)c7ccc4[nH]7)C=C6)C=C5)cc3)c2)c1
REMARK SMILES IDX 17 1 16 2 15 3 13 4 14 5 12 7 7 8 8 9 85 10 9 11 10 12 11 13
REMARK SMILES IDX 6 14 1 15 2 16 3 17 86 18 4 19 5 20 18 21 19 22 20 23 21 25
REMARK SMILES IDX 22 26 23 27 84 28 24 29 83 30 25 31 26 32 27 33 77 34 28 35
REMARK SMILES IDX 82 36 76 37 78 38 29 39 81 40 75 41 74 42 30 44 62 45 42 46
REMARK SMILES IDX 61 47 43 48 46 49 60 50 79 51 44 52 45 53 59 55 80 56 47 57
REMARK SMILES IDX 31 58 32 59 40 60 33 61 34 62 38 63 41 64 35 65 36 66 39 67
REMARK SMILES IDX 37 68 63 69 64 70 72 71 65 72 66 73 70 74 73 75 67 76 68 77
REMARK SMILES IDX 71 78 69 79 48 80 49 81 57 82 50 83 51 84 55 85 58 86 52 87
REMARK SMILES IDX 53 88 56 89 54 90
REMARK H PARENT 15 6 19 24 78 43 46 54
REMARK Flexibility Score: inf
ROOT
ATOM      1  C   UNL A   1      38.071  20.794  25.107  1.00  0.00     0.042 C 
ENDROOT
BRANCH   1   2
ATOM      2  C   UNL A   1      36.570  20.733  24.925  1.00  0.00     0.118 C 
BRANCH   2   3
ATOM      3  N   UNL A   1      35.818  21.113  26.113  1.00  0.00    -0.352 N 
ATOM      4  C   UNL A   1      34.765  21.989  26.262  1.00  0.00     0.252 C 
ATOM      5  O   UNL A   1      34.305  22.168  27.388  1.00  0.00    -0.269 OA
ATOM      6  H   UNL A   1      36.110  20.673  26.945  1.00  0.00     0.163 HD
BRANCH   4   7
ATOM      7  C   UNL A   1      34.242  22.793  25.128  1.00  0.00     0.059 A 
ATOM      8  C   UNL A   1      34.016  25.015  24.135  1.00  0.00    -0.017 A 
ATOM      9  C   UNL A   1      33.541  24.408  22.962  1.00  0.00     0.010 A 
ATOM     10  C   UNL A   1      34.458  24.185  25.176  1.00  0.00     0.024 A 
ATOM     11  C   UNL A   1      33.246  23.050  22.940  1.00  0.00     0.022 A 
ATOM     12  C   UNL A   1      33.486  22.272  24.071  1.00  0.00     0.053 A 
ATOM     13  Cl  UNL A   1      32.649  20.757  24.149  1.00  0.00    -0.083 Cl
BRANCH   8  14
ATOM     14  C   UNL A   1      33.802  26.459  24.320  1.00  0.00    -0.018 A 
ATOM     15  C   UNL A   1      33.926  28.819  27.329  1.00  0.00     0.044 C 
ATOM     16  C   UNL A   1      33.782  28.331  25.919  1.00  0.00    -0.051 A 
ATOM     17  C   UNL A   1      33.485  29.205  24.874  1.00  0.00     0.003 A 
ATOM     18  C   UNL A   1      33.935  26.974  25.629  1.00  0.00     0.012 A 
ATOM     19  C   UNL A   1      33.361  28.721  23.567  1.00  0.00     0.001 A 
ATOM     20  C   UNL A   1      33.523  27.358  23.287  1.00  0.00     0.009 A 
ENDBRANCH   8  14
ENDBRANCH   4   7
ENDBRANCH   2   3
ENDBRANCH   1   2
BRANCH   1  21
ATOM     21  C   UNL A   1      38.541  22.086  25.749  1.00  0.00     0.118 C 
BRANCH  21  22
ATOM     22  N   UNL A   1      39.979  22.110  26.045  1.00  0.00    -0.352 N 
ATOM     23  C   UNL A   1      40.756  23.144  26.549  1.00  0.00     0.251 C 
ATOM     24  H   UNL A   1      40.461  21.272  25.859  1.00  0.00     0.163 HD
ATOM     25  O   UNL A   1      41.920  22.968  26.863  1.00  0.00    -0.269 OA
BRANCH  23  26
ATOM     26  C   UNL A   1      40.098  24.443  26.811  1.00  0.00     0.039 A 
ATOM     27  C   UNL A   1      40.586  25.581  26.161  1.00  0.00     0.014 A 
ATOM     28  C   UNL A   1      39.264  24.553  27.914  1.00  0.00     0.014 A 
ATOM     29  C   UNL A   1      40.476  26.812  26.800  1.00  0.00     0.010 A 
ATOM     30  C   UNL A   1      39.307  25.731  28.625  1.00  0.00     0.010 A 
ATOM     31  C   UNL A   1      39.968  26.848  28.096  1.00  0.00    -0.014 A 
BRANCH  31  32
ATOM     32  C   UNL A   1      40.165  27.968  29.012  1.00  0.00     0.031 A 
ATOM     33  C   UNL A   1      39.194  29.085  29.021  1.00  0.00     0.074 A 
ATOM     34  C   UNL A   1      41.151  27.914  29.937  1.00  0.00     0.049 A 
ATOM     35  N   UNL A   1      39.405  30.240  29.552  1.00  0.00    -0.248 NA
ATOM     36  C   UNL A   1      37.893  28.991  28.369  1.00  0.00     0.031 C 
ATOM     37  C   UNL A   1      41.294  28.751  31.127  1.00  0.00     0.029 A 
ATOM     38  N   UNL A   1      42.358  27.192  29.877  1.00  0.00    -0.354 N 
ATOM     39  C   UNL A   1      38.213  30.931  29.560  1.00  0.00     0.074 A 
ATOM     40  C   UNL A   1      37.318  30.129  28.762  1.00  0.00     0.031 C 
ATOM     41  C   UNL A   1      42.580  28.744  31.513  1.00  0.00     0.029 A 
ATOM     42  C   UNL A   1      43.323  28.025  30.494  1.00  0.00     0.049 A 
ATOM     43  H   UNL A   1      42.499  26.298  29.490  1.00  0.00     0.167 HD
ATOM     44  C   UNL A   1      38.099  32.040  30.350  1.00  0.00     0.037 A 
ATOM     45  C   UNL A   1      44.381  28.535  29.798  1.00  0.00     0.037 A 
ATOM     46  C   UNL A   1      39.395  32.399  30.924  1.00  0.00     0.049 A 
ATOM     47  C   UNL A   1      44.432  30.045  29.781  1.00  0.00     0.074 A 
ATOM     48  C   UNL A   1      39.975  32.169  32.162  1.00  0.00     0.029 A 
ATOM     49  N   UNL A   1      40.422  32.816  30.082  1.00  0.00    -0.354 N 
ATOM     50  N   UNL A   1      43.411  30.809  30.054  1.00  0.00    -0.248 NA
ATOM     51  C   UNL A   1      45.620  30.811  29.414  1.00  0.00     0.031 C 
ATOM     52  C   UNL A   1      41.370  32.387  32.041  1.00  0.00     0.029 A 
ATOM     53  C   UNL A   1      41.636  32.772  30.738  1.00  0.00     0.049 A 
ATOM     54  H   UNL A   1      40.299  33.102  29.148  1.00  0.00     0.167 HD
ATOM     55  C   UNL A   1      43.764  32.121  29.884  1.00  0.00     0.074 A 
ATOM     56  C   UNL A   1      45.162  32.073  29.500  1.00  0.00     0.031 C 
ATOM     57  C   UNL A   1      42.869  33.136  30.058  1.00  0.00     0.037 A 
BRANCH  44  58
ATOM     58  C   UNL A   1      36.778  32.614  30.834  1.00  0.00     0.064 A 
ATOM     59  C   UNL A   1      36.033  33.490  30.012  1.00  0.00     0.173 A 
ATOM     60  C   UNL A   1      36.227  32.418  32.113  1.00  0.00     0.173 A 
ATOM     61  F   UNL A   1      36.352  33.688  28.727  1.00  0.00    -0.203 F 
ATOM     62  C   UNL A   1      34.921  34.202  30.477  1.00  0.00     0.198 A 
ATOM     63  C   UNL A   1      35.150  33.169  32.599  1.00  0.00     0.198 A 
ATOM     64  F   UNL A   1      36.655  31.443  32.921  1.00  0.00    -0.203 F 
ATOM     65  F   UNL A   1      34.267  35.028  29.649  1.00  0.00    -0.200 F 
ATOM     66  C   UNL A   1      34.505  34.074  31.785  1.00  0.00     0.200 A 
ATOM     67  F   UNL A   1      34.742  33.000  33.865  1.00  0.00    -0.200 F 
ATOM     68  F   UNL A   1      33.470  34.788  32.247  1.00  0.00    -0.200 F 
ENDBRANCH  44  58
BRANCH  45  69
ATOM     69  C   UNL A   1      44.828  27.653  28.690  1.00  0.00     0.064 A 
ATOM     70  C   UNL A   1      45.570  26.500  29.017  1.00  0.00     0.173 A 
ATOM     71  C   UNL A   1      44.222  27.696  27.429  1.00  0.00     0.173 A 
ATOM     72  F   UNL A   1      46.174  26.412  30.213  1.00  0.00    -0.203 F 
ATOM     73  C   UNL A   1      45.589  25.389  28.178  1.00  0.00     0.198 A 
ATOM     74  C   UNL A   1      44.259  26.584  26.584  1.00  0.00     0.198 A 
ATOM     75  F   UNL A   1      43.486  28.756  27.067  1.00  0.00    -0.203 F 
ATOM     76  F   UNL A   1      46.197  24.262  28.575  1.00  0.00    -0.200 F 
ATOM     77  C   UNL A   1      44.905  25.422  26.975  1.00  0.00     0.200 A 
ATOM     78  F   UNL A   1      43.570  26.602  25.433  1.00  0.00    -0.200 F 
ATOM     79  F   UNL A   1      44.827  24.319  26.217  1.00  0.00    -0.200 F 
ENDBRANCH  45  69
BRANCH  57  80
ATOM     80  C   UNL A   1      43.094  34.578  29.681  1.00  0.00     0.064 A 
ATOM     81  C   UNL A   1      43.287  35.606  30.618  1.00  0.00     0.173 A 
ATOM     82  C   UNL A   1      43.277  34.940  28.326  1.00  0.00     0.173 A 
ATOM     83  F   UNL A   1      43.252  35.361  31.935  1.00  0.00    -0.203 F 
ATOM     84  C   UNL A   1      43.584  36.914  30.226  1.00  0.00     0.198 A 
ATOM     85  C   UNL A   1      43.627  36.233  27.942  1.00  0.00     0.198 A 
ATOM     86  F   UNL A   1      43.147  34.041  27.339  1.00  0.00    -0.203 F 
ATOM     87  F   UNL A   1      43.722  37.869  31.156  1.00  0.00    -0.200 F 
ATOM     88  C   UNL A   1      43.765  37.224  28.890  1.00  0.00     0.200 A 
ATOM     89  F   UNL A   1      43.849  36.507  26.647  1.00  0.00    -0.200 F 
ATOM     90  F   UNL A   1      44.094  38.469  28.523  1.00  0.00    -0.200 F 
ENDBRANCH  57  80
ENDBRANCH  31  32
ENDBRANCH  23  26
ENDBRANCH  21  22
ENDBRANCH   1  21
TORSDOF 11
ENDMDL
MODEL 2
REMARK VINA RESULT:     -13.9      3.594      9.824
REMARK SMILES Cc1cccc(-c2ccc(Cl)c(C(=O)NCCCNC(=O)c3ccc(-c4c5nc(c(-c6c(F)c(F)c(F)c(F)c6F)c6ccc([nH]6)c(-c6c(F)c(F)c(F)c(F)c6F)c6nc(c(-c7c(F)c(F)c(F)c(F)c7F)c7ccc4[nH]7)C=C6)C=C5)cc3)c2)c1
REMARK SMILES IDX 17 1 16 2 15 3 13 4 14 5 12 7 7 8 8 9 85 10 9 11 10 12 11 13
REMARK SMILES IDX 6 14 1 15 2 16 3 17 86 18 4 19 5 20 18 21 19 22 20 23 21 25
REMARK SMILES IDX 22 26 23 27 84 28 24 29 83 30 25 31 26 32 27 33 77 34 28 35
REMARK SMILES IDX 82 36 76 37 78 38 29 39 81 40 75 41 74 42 30 44 62 45 42 46
REMARK SMILES IDX 61 47 43 48 46 49 60 50 79 51 44 52 45 53 59 55 80 56 47 57
REMARK SMILES IDX 31 58 32 59 40 60 33 61 34 62 38 63 41 64 35 65 36 66 39 67
REMARK SMILES IDX 37 68 63 69 64 70 72 71 65 72 66 73 70 74 73 75 67 76 68 77
REMARK SMILES IDX 71 78 69 79 48 80 49 81 57 82 50 83 51 84 55 85 58 86 52 87
REMARK SMILES IDX 53 88 56 89 54 90
REMARK H PARENT 15 6 19 24 78 43 46 54
REMARK Flexibility Score: inf
ROOT
ATOM      1  C   UNL A   1      32.818  31.195  27.281  1.00  0.00     0.042 C 
ENDROOT
BRANCH   1   2
ATOM      2  C   UNL A   1      32.063  30.368  26.262  1.00  0.00     0.118 C 
BRANCH   2   3
ATOM      3  N   UNL A   1      32.830  30.075  25.059  1.00  0.00    -0.352 N 
ATOM      4  C   UNL A   1      32.988  28.894  24.367  1.00  0.00     0.252 C 
ATOM      5  O   UNL A   1      33.719  28.887  23.377  1.00  0.00    -0.269 OA
ATOM      6  H   UNL A   1      33.314  30.844  24.681  1.00  0.00     0.163 HD
BRANCH   4   7
ATOM      7  C   UNL A   1      32.388  27.619  24.834  1.00  0.00     0.059 A 
ATOM      8  C   UNL A   1      32.769  25.461  25.918  1.00  0.00    -0.017 A 
ATOM      9  C   UNL A   1      31.379  25.285  25.986  1.00  0.00     0.010 A 
ATOM     10  C   UNL A   1      33.258  26.681  25.429  1.00  0.00     0.024 A 
ATOM     11  C   UNL A   1      30.524  26.161  25.328  1.00  0.00     0.022 A 
ATOM     12  C   UNL A   1      31.048  27.260  24.650  1.00  0.00     0.053 A 
ATOM     13  Cl  UNL A   1      30.016  27.991  23.466  1.00  0.00    -0.083 Cl
BRANCH   8  14
ATOM     14  C   UNL A   1      33.641  24.292  26.121  1.00  0.00    -0.018 A 
ATOM     15  C   UNL A   1      37.248  23.446  25.168  1.00  0.00     0.044 C 
ATOM     16  C   UNL A   1      35.874  23.322  25.753  1.00  0.00    -0.051 A 
ATOM     17  C   UNL A   1      35.480  22.182  26.451  1.00  0.00     0.003 A 
ATOM     18  C   UNL A   1      34.951  24.359  25.598  1.00  0.00     0.012 A 
ATOM     19  C   UNL A   1      34.192  22.097  26.990  1.00  0.00     0.001 A 
ATOM     20  C   UNL A   1      33.276  23.146  26.833  1.00  0.00     0.009 A 
ENDBRANCH   8  14
ENDBRANCH   4   7
ENDBRANCH   2   3
ENDBRANCH   1   2
BRANCH   1  21
ATOM     21  C   UNL A   1      34.200  30.649  27.584  1.00  0.00     0.118 C 
BRANCH  21  22
ATOM     22  N   UNL A   1      35.041  31.569  28.361  1.00  0.00    -0.352 N 
ATOM     23  C   UNL A   1      36.303  31.361  28.902  1.00  0.00     0.251 C 
ATOM     24  H   UNL A   1      34.655  32.460  28.520  1.00  0.00     0.163 HD
ATOM     25  O   UNL A   1      36.930  32.272  29.415  1.00  0.00    -0.269 OA
BRANCH  23  26
ATOM     26  C   UNL A   1      36.922  30.029  28.731  1.00  0.00     0.039 A 
ATOM     27  C   UNL A   1      37.124  29.237  29.866  1.00  0.00     0.014 A 
ATOM     28  C   UNL A   1      37.575  29.749  27.540  1.00  0.00     0.014 A 
ATOM     29  C   UNL A   1      38.200  28.355  29.881  1.00  0.00     0.010 A 
ATOM     30  C   UNL A   1      38.735  29.012  27.612  1.00  0.00     0.010 A 
ATOM     31  C   UNL A   1      39.083  28.363  28.804  1.00  0.00    -0.014 A 
BRANCH  31  32
ATOM     32  C   UNL A   1      40.433  27.808  28.861  1.00  0.00     0.031 A 
ATOM     33  C   UNL A   1      40.646  26.373  28.568  1.00  0.00     0.074 A 
ATOM     34  C   UNL A   1      41.490  28.631  29.045  1.00  0.00     0.049 A 
ATOM     35  N   UNL A   1      41.712  25.711  28.864  1.00  0.00    -0.248 NA
ATOM     36  C   UNL A   1      39.621  25.544  27.943  1.00  0.00     0.031 C 
ATOM     37  C   UNL A   1      42.899  28.328  28.800  1.00  0.00     0.029 A 
ATOM     38  N   UNL A   1      41.514  29.882  29.690  1.00  0.00    -0.354 N 
ATOM     39  C   UNL A   1      41.637  24.481  28.247  1.00  0.00     0.074 A 
ATOM     40  C   UNL A   1      40.291  24.410  27.733  1.00  0.00     0.031 C 
ATOM     41  C   UNL A   1      43.657  29.166  29.525  1.00  0.00     0.029 A 
ATOM     42  C   UNL A   1      42.756  29.929  30.370  1.00  0.00     0.049 A 
ATOM     43  H   UNL A   1      40.815  30.576  29.672  1.00  0.00     0.167 HD
ATOM     44  C   UNL A   1      42.770  23.726  28.141  1.00  0.00     0.037 A 
ATOM     45  C   UNL A   1      42.826  29.983  31.732  1.00  0.00     0.037 A 
ATOM     46  C   UNL A   1      43.862  24.326  28.908  1.00  0.00     0.049 A 
ATOM     47  C   UNL A   1      43.574  28.827  32.354  1.00  0.00     0.074 A 
ATOM     48  C   UNL A   1      44.938  25.123  28.551  1.00  0.00     0.029 A 
ATOM     49  N   UNL A   1      43.760  24.404  30.293  1.00  0.00    -0.354 N 
ATOM     50  N   UNL A   1      43.807  27.700  31.741  1.00  0.00    -0.248 NA
ATOM     51  C   UNL A   1      44.079  28.832  33.725  1.00  0.00     0.031 C 
ATOM     52  C   UNL A   1      45.443  25.733  29.727  1.00  0.00     0.029 A 
ATOM     53  C   UNL A   1      44.690  25.290  30.800  1.00  0.00     0.049 A 
ATOM     54  H   UNL A   1      43.114  23.897  30.837  1.00  0.00     0.167 HD
ATOM     55  C   UNL A   1      44.442  26.839  32.595  1.00  0.00     0.074 A 
ATOM     56  C   UNL A   1      44.607  27.599  33.820  1.00  0.00     0.031 C 
ATOM     57  C   UNL A   1      44.763  25.564  32.227  1.00  0.00     0.037 A 
BRANCH  44  58
ATOM     58  C   UNL A   1      42.971  22.622  27.118  1.00  0.00     0.064 A 
ATOM     59  C   UNL A   1      42.274  21.397  27.238  1.00  0.00     0.173 A 
ATOM     60  C   UNL A   1      43.885  22.660  26.049  1.00  0.00     0.173 A 
ATOM     61  F   UNL A   1      41.284  21.238  28.124  1.00  0.00    -0.203 F 
ATOM     62  C   UNL A   1      42.567  20.280  26.448  1.00  0.00     0.198 A 
ATOM     63  C   UNL A   1      44.219  21.529  25.294  1.00  0.00     0.198 A 
ATOM     64  F   UNL A   1      44.438  23.805  25.639  1.00  0.00    -0.203 F 
ATOM     65  F   UNL A   1      41.878  19.143  26.623  1.00  0.00    -0.200 F 
ATOM     66  C   UNL A   1      43.570  20.333  25.504  1.00  0.00     0.200 A 
ATOM     67  F   UNL A   1      45.174  21.617  24.357  1.00  0.00    -0.200 F 
ATOM     68  F   UNL A   1      43.884  19.252  24.778  1.00  0.00    -0.200 F 
ENDBRANCH  44  58
BRANCH  45  69
ATOM     69  C   UNL A   1      41.669  30.682  32.348  1.00  0.00     0.064 A 
ATOM     70  C   UNL A   1      41.631  32.089  32.281  1.00  0.00     0.173 A 
ATOM     71  C   UNL A   1      40.469  30.014  32.615  1.00  0.00     0.173 A 
ATOM     72  F   UNL A   1      42.757  32.777  32.031  1.00  0.00    -0.203 F 
ATOM     73  C   UNL A   1      40.426  32.785  32.343  1.00  0.00     0.198 A 
ATOM     74  C   UNL A   1      39.265  30.718  32.694  1.00  0.00     0.198 A 
ATOM     75  F   UNL A   1      40.436  28.675  32.671  1.00  0.00    -0.203 F 
ATOM     76  F   UNL A   1      40.409  34.111  32.149  1.00  0.00    -0.200 F 
ATOM     77  C   UNL A   1      39.240  32.094  32.518  1.00  0.00     0.200 A 
ATOM     78  F   UNL A   1      38.111  30.048  32.830  1.00  0.00    -0.200 F 
ATOM     79  F   UNL A   1      38.069  32.746  32.466  1.00  0.00    -0.200 F 
ENDBRANCH  45  69
BRANCH  57  80
ATOM     80  C   UNL A   1      45.253  24.481  33.152  1.00  0.00     0.064 A 
ATOM     81  C   UNL A   1      44.490  23.356  33.507  1.00  0.00     0.173 A 
ATOM     82  C   UNL A   1      46.597  24.476  33.595  1.00  0.00     0.173 A 
ATOM     83  F   UNL A   1      43.241  23.193  33.053  1.00  0.00    -0.203 F 
ATOM     84  C   UNL A   1      45.015  22.329  34.296  1.00  0.00     0.198 A 
ATOM     85  C   UNL A   1      47.133  23.424  34.336  1.00  0.00     0.198 A 
ATOM     86  F   UNL A   1      47.433  25.481  33.298  1.00  0.00    -0.203 F 
ATOM     87  F   UNL A   1      44.237  21.294  34.639  1.00  0.00    -0.200 F 
ATOM     88  C   UNL A   1      46.338  22.358  34.699  1.00  0.00     0.200 A 
ATOM     89  F   UNL A   1      48.430  23.442  34.676  1.00  0.00    -0.200 F 
ATOM     90  F   UNL A   1      46.849  21.349  35.417  1.00  0.00    -0.200 F 
ENDBRANCH  57  80
ENDBRANCH  31  32
ENDBRANCH  23  26
ENDBRANCH  21  22
ENDBRANCH   1  21
TORSDOF 11
ENDMDL
MODEL 3
REMARK VINA RESULT:     -13.9      3.422      9.566
REMARK SMILES Cc1cccc(-c2ccc(Cl)c(C(=O)NCCCNC(=O)c3ccc(-c4c5nc(c(-c6c(F)c(F)c(F)c(F)c6F)c6ccc([nH]6)c(-c6c(F)c(F)c(F)c(F)c6F)c6nc(c(-c7c(F)c(F)c(F)c(F)c7F)c7ccc4[nH]7)C=C6)C=C5)cc3)c2)c1
REMARK SMILES IDX 17 1 16 2 15 3 13 4 14 5 12 7 7 8 8 9 85 10 9 11 10 12 11 13
REMARK SMILES IDX 6 14 1 15 2 16 3 17 86 18 4 19 5 20 18 21 19 22 20 23 21 25
REMARK SMILES IDX 22 26 23 27 84 28 24 29 83 30 25 31 26 32 27 33 77 34 28 35
REMARK SMILES IDX 82 36 76 37 78 38 29 39 81 40 75 41 74 42 30 44 62 45 42 46
REMARK SMILES IDX 61 47 43 48 46 49 60 50 79 51 44 52 45 53 59 55 80 56 47 57
REMARK SMILES IDX 31 58 32 59 40 60 33 61 34 62 38 63 41 64 35 65 36 66 39 67
REMARK SMILES IDX 37 68 63 69 64 70 72 71 65 72 66 73 70 74 73 75 67 76 68 77
REMARK SMILES IDX 71 78 69 79 48 80 49 81 57 82 50 83 51 84 55 85 58 86 52 87
REMARK SMILES IDX 53 88 56 89 54 90
REMARK H PARENT 15 6 19 24 78 43 46 54
REMARK Flexibility Score: inf
ROOT
ATOM      1  C   UNL A   1      32.297  31.191  26.626  1.00  0.00     0.042 C 
ENDROOT
BRANCH   1   2
ATOM      2  C   UNL A   1      31.588  30.130  25.812  1.00  0.00     0.118 C 
BRANCH   2   3
ATOM      3  N   UNL A   1      32.303  29.742  24.603  1.00  0.00    -0.352 N 
ATOM      4  C   UNL A   1      32.483  28.502  24.032  1.00  0.00     0.252 C 
ATOM      5  O   UNL A   1      33.158  28.420  23.007  1.00  0.00    -0.269 OA
ATOM      6  H   UNL A   1      32.725  30.487  24.117  1.00  0.00     0.163 HD
BRANCH   4   7
ATOM      7  C   UNL A   1      31.976  27.259  24.667  1.00  0.00     0.059 A 
ATOM      8  C   UNL A   1      32.535  25.223  25.899  1.00  0.00    -0.017 A 
ATOM      9  C   UNL A   1      31.165  25.014  26.115  1.00  0.00     0.010 A 
ATOM     10  C   UNL A   1      32.932  26.406  25.257  1.00  0.00     0.024 A 
ATOM     11  C   UNL A   1      30.221  25.802  25.465  1.00  0.00     0.022 A 
ATOM     12  C   UNL A   1      30.639  26.847  24.645  1.00  0.00     0.053 A 
ATOM     13  Cl  UNL A   1      29.476  27.436  23.504  1.00  0.00    -0.083 Cl
BRANCH   8  14
ATOM     14  C   UNL A   1      33.464  24.103  26.122  1.00  0.00    -0.018 A 
ATOM     15  C   UNL A   1      37.173  23.515  25.387  1.00  0.00     0.044 C 
ATOM     16  C   UNL A   1      35.773  23.286  25.874  1.00  0.00    -0.051 A 
ATOM     17  C   UNL A   1      35.409  22.098  26.506  1.00  0.00     0.003 A 
ATOM     18  C   UNL A   1      34.799  24.269  25.691  1.00  0.00     0.012 A 
ATOM     19  C   UNL A   1      34.095  21.915  26.954  1.00  0.00     0.001 A 
ATOM     20  C   UNL A   1      33.128  22.911  26.770  1.00  0.00     0.009 A 
ENDBRANCH   8  14
ENDBRANCH   4   7
ENDBRANCH   2   3
ENDBRANCH   1   2
BRANCH   1  21
ATOM     21  C   UNL A   1      33.308  30.616  27.601  1.00  0.00     0.118 C 
BRANCH  21  22
ATOM     22  N   UNL A   1      34.040  31.636  28.362  1.00  0.00    -0.352 N 
ATOM     23  C   UNL A   1      35.314  31.577  28.912  1.00  0.00     0.251 C 
ATOM     24  H   UNL A   1      33.558  32.483  28.503  1.00  0.00     0.163 HD
ATOM     25  O   UNL A   1      35.836  32.560  29.409  1.00  0.00    -0.269 OA
BRANCH  23  26
ATOM     26  C   UNL A   1      36.074  30.316  28.769  1.00  0.00     0.039 A 
ATOM     27  C   UNL A   1      36.376  29.586  29.923  1.00  0.00     0.014 A 
ATOM     28  C   UNL A   1      36.740  30.074  27.577  1.00  0.00     0.014 A 
ATOM     29  C   UNL A   1      37.543  28.828  29.946  1.00  0.00     0.010 A 
ATOM     30  C   UNL A   1      37.975  29.472  27.652  1.00  0.00     0.010 A 
ATOM     31  C   UNL A   1      38.407  28.901  28.856  1.00  0.00    -0.014 A 
BRANCH  31  32
ATOM     32  C   UNL A   1      39.810  28.500  28.908  1.00  0.00     0.031 A 
ATOM     33  C   UNL A   1      40.190  27.119  28.536  1.00  0.00     0.074 A 
ATOM     34  C   UNL A   1      40.764  29.426  29.162  1.00  0.00     0.049 A 
ATOM     35  N   UNL A   1      41.320  26.566  28.815  1.00  0.00    -0.248 NA
ATOM     36  C   UNL A   1      39.275  26.219  27.843  1.00  0.00     0.031 C 
ATOM     37  C   UNL A   1      42.201  29.300  28.929  1.00  0.00     0.029 A 
ATOM     38  N   UNL A   1      40.636  30.630  29.879  1.00  0.00    -0.354 N 
ATOM     39  C   UNL A   1      41.395  25.375  28.126  1.00  0.00     0.074 A 
ATOM     40  C   UNL A   1      40.073  25.183  27.581  1.00  0.00     0.031 C 
ATOM     41  C   UNL A   1      42.849  30.173  29.717  1.00  0.00     0.029 A 
ATOM     42  C   UNL A   1      41.855  30.776  30.586  1.00  0.00     0.049 A 
ATOM     43  H   UNL A   1      39.863  31.240  29.887  1.00  0.00     0.167 HD
ATOM     44  C   UNL A   1      42.609  24.761  28.000  1.00  0.00     0.037 A 
ATOM     45  C   UNL A   1      41.900  30.756  31.950  1.00  0.00     0.037 A 
ATOM     46  C   UNL A   1      43.614  25.434  28.822  1.00  0.00     0.049 A 
ATOM     47  C   UNL A   1      42.767  29.656  32.518  1.00  0.00     0.074 A 
ATOM     48  C   UNL A   1      44.597  26.367  28.534  1.00  0.00     0.029 A 
ATOM     49  N   UNL A   1      43.485  25.415  30.207  1.00  0.00    -0.354 N 
ATOM     50  N   UNL A   1      43.134  28.602  31.846  1.00  0.00    -0.248 NA
ATOM     51  C   UNL A   1      43.249  29.636  33.897  1.00  0.00     0.031 C 
ATOM     52  C   UNL A   1      45.012  26.959  29.754  1.00  0.00     0.029 A 
ATOM     53  C   UNL A   1      44.300  26.369  30.784  1.00  0.00     0.049 A 
ATOM     54  H   UNL A   1      42.894  24.806  30.707  1.00  0.00     0.167 HD
ATOM     55  C   UNL A   1      43.852  27.768  32.661  1.00  0.00     0.074 A 
ATOM     56  C   UNL A   1      43.913  28.467  33.931  1.00  0.00     0.031 C 
ATOM     57  C   UNL A   1      44.322  26.563  32.225  1.00  0.00     0.037 A 
BRANCH  44  58
ATOM     58  C   UNL A   1      42.949  23.750  26.918  1.00  0.00     0.064 A 
ATOM     59  C   UNL A   1      42.603  22.388  27.075  1.00  0.00     0.173 A 
ATOM     60  C   UNL A   1      43.679  24.026  25.748  1.00  0.00     0.173 A 
ATOM     61  F   UNL A   1      41.807  21.976  28.068  1.00  0.00    -0.203 F 
ATOM     62  C   UNL A   1      43.065  21.387  26.213  1.00  0.00     0.198 A 
ATOM     63  C   UNL A   1      44.187  23.022  24.915  1.00  0.00     0.198 A 
ATOM     64  F   UNL A   1      43.869  25.277  25.317  1.00  0.00    -0.203 F 
ATOM     65  F   UNL A   1      42.711  20.111  26.427  1.00  0.00    -0.200 F 
ATOM     66  C   UNL A   1      43.892  21.699  25.157  1.00  0.00     0.200 A 
ATOM     67  F   UNL A   1      44.962  23.355  23.873  1.00  0.00    -0.200 F 
ATOM     68  F   UNL A   1      44.373  20.738  24.357  1.00  0.00    -0.200 F 
ENDBRANCH  44  58
BRANCH  45  69
ATOM     69  C   UNL A   1      40.662  31.281  32.582  1.00  0.00     0.064 A 
ATOM     70  C   UNL A   1      40.457  32.675  32.583  1.00  0.00     0.173 A 
ATOM     71  C   UNL A   1      39.548  30.462  32.799  1.00  0.00     0.173 A 
ATOM     72  F   UNL A   1      41.495  33.503  32.383  1.00  0.00    -0.203 F 
ATOM     73  C   UNL A   1      39.177  33.218  32.661  1.00  0.00     0.198 A 
ATOM     74  C   UNL A   1      38.268  31.014  32.894  1.00  0.00     0.198 A 
ATOM     75  F   UNL A   1      39.674  29.128  32.789  1.00  0.00    -0.203 F 
ATOM     76  F   UNL A   1      39.004  34.541  32.530  1.00  0.00    -0.200 F 
ATOM     77  C   UNL A   1      38.080  32.384  32.784  1.00  0.00     0.200 A 
ATOM     78  F   UNL A   1      37.201  30.205  32.980  1.00  0.00    -0.200 F 
ATOM     79  F   UNL A   1      36.840  32.893  32.747  1.00  0.00    -0.200 F 
ENDBRANCH  45  69
BRANCH  57  80
ATOM     80  C   UNL A   1      44.920  25.488  33.096  1.00  0.00     0.064 A 
ATOM     81  C   UNL A   1      46.293  25.196  33.140  1.00  0.00     0.173 A 
ATOM     82  C   UNL A   1      44.118  24.812  34.045  1.00  0.00     0.173 A 
ATOM     83  F   UNL A   1      47.168  25.854  32.368  1.00  0.00    -0.203 F 
ATOM     84  C   UNL A   1      46.817  24.253  34.028  1.00  0.00     0.198 A 
ATOM     85  C   UNL A   1      44.652  23.913  34.966  1.00  0.00     0.198 A 
ATOM     86  F   UNL A   1      42.796  25.026  34.121  1.00  0.00    -0.203 F 
ATOM     87  F   UNL A   1      48.129  23.981  34.007  1.00  0.00    -0.200 F 
ATOM     88  C   UNL A   1      46.000  23.622  34.948  1.00  0.00     0.200 A 
ATOM     89  F   UNL A   1      43.855  23.348  35.885  1.00  0.00    -0.200 F 
ATOM     90  F   UNL A   1      46.514  22.753  35.827  1.00  0.00    -0.200 F 
ENDBRANCH  57  80
ENDBRANCH  31  32
ENDBRANCH  23  26
ENDBRANCH  21  22
ENDBRANCH   1  21
TORSDOF 11
ENDMDL
