MODEL 1
REMARK VINA RESULT:     -12.2      0.000      0.000
REMARK SMILES CN(C(=O)N[C@](C)(C(=O)NCCCNC(=O)c1ccc(-c2c3nc(c(-c4c(F)c(F)c(F)c(F)c4F)c4ccc([nH]4)c(-c4c(F)c(F)c(F)c(F)c4F)c4nc(c(-c5c(F)c(F)c(F)c(F)c5F)c5ccc2[nH]5)C=C4)C=C3)cc1)C(F)(F)F)[C@@H]1CCC[N@@H+](C)C1
REMARK SMILES IDX 11 1 10 2 8 3 9 4 6 6 7 7 5 8 3 9 4 10 2 12 1 13 84 14 89 15
REMARK SMILES IDX 88 16 87 17 90 18 86 20 85 21 80 22 81 23 82 24 83 25 12 26
REMARK SMILES IDX 13 27 14 28 15 29 16 31 17 32 18 33 79 34 19 35 78 36 20 37
REMARK SMILES IDX 21 38 22 39 72 40 23 41 77 42 71 43 73 44 24 45 76 46 70 47
REMARK SMILES IDX 69 48 25 50 57 51 37 52 56 53 38 54 41 55 55 56 74 57 39 58
REMARK SMILES IDX 40 59 54 61 75 62 42 63 26 64 27 65 35 66 28 67 29 68 33 69
REMARK SMILES IDX 36 70 30 71 31 72 34 73 32 74 58 75 59 76 67 77 60 78 61 79
REMARK SMILES IDX 65 80 68 81 62 82 63 83 66 84 64 85 43 86 44 87 52 88 45 89
REMARK SMILES IDX 46 90 50 91 53 92 47 93 48 94 51 95 49 96
REMARK H PARENT 10 5 5 11 88 19 14 30 73 49 41 60
REMARK Flexibility Score: inf
ROOT
ATOM      1  C   UNL A   1      36.690  20.738  24.792  1.00  0.00     0.117 C 
ENDROOT
BRANCH   1   2
ATOM      2  N   UNL A   1      35.808  20.855  25.944  1.00  0.00    -0.354 N 
ATOM      3  C   UNL A   1      34.864  21.754  26.347  1.00  0.00     0.255 C 
ATOM      4  O   UNL A   1      34.322  21.454  27.415  1.00  0.00    -0.272 OA
ATOM      5  H   UNL A   1      35.920  20.112  26.581  1.00  0.00     0.163 HD
BRANCH   3   6
ATOM      6  C   UNL A   1      34.429  22.987  25.493  1.00  0.00     0.213 C 
ATOM      7  C   UNL A   1      34.066  22.574  24.062  1.00  0.00     0.056 C 
BRANCH   6   8
ATOM      8  N   UNL A   1      33.228  23.466  26.248  1.00  0.00    -0.316 N 
ATOM      9  C   UNL A   1      32.129  24.216  26.204  1.00  0.00     0.318 C 
ATOM     10  O   UNL A   1      31.484  24.086  27.247  1.00  0.00    -0.249 OA
ATOM     11  H   UNL A   1      33.266  23.059  27.144  1.00  0.00     0.166 HD
BRANCH   9  12
ATOM     12  N   UNL A   1      31.767  25.046  25.193  1.00  0.00    -0.319 N 
ATOM     13  C   UNL A   1      30.654  24.839  24.295  1.00  0.00     0.149 C 
BRANCH  12  14
ATOM     14  C   UNL A   1      32.532  26.301  24.923  1.00  0.00     0.141 C 
ATOM     15  C   UNL A   1      30.300  28.888  23.225  1.00  0.00     0.332 C 
ATOM     16  N   UNL A   1      30.888  28.116  24.313  1.00  0.00    -0.336 N 
ATOM     17  C   UNL A   1      31.403  28.986  25.374  1.00  0.00     0.262 C 
ATOM     18  C   UNL A   1      31.917  27.197  23.823  1.00  0.00     0.287 C 
ATOM     19  H   UNL A   1      30.143  27.549  24.720  1.00  0.00     0.347 HD
ATOM     20  C   UNL A   1      31.988  28.220  26.565  1.00  0.00     0.064 C 
ATOM     21  C   UNL A   1      32.954  27.108  26.163  1.00  0.00     0.037 C 
ENDBRANCH  12  14
ENDBRANCH   9  12
ENDBRANCH   6   8
BRANCH   6  22
ATOM     22  C   UNL A   1      35.688  23.888  25.466  1.00  0.00     0.420 C 
ATOM     23  F   UNL A   1      35.385  25.201  25.631  1.00  0.00    -0.168 F 
ATOM     24  F   UNL A   1      36.525  23.619  26.500  1.00  0.00    -0.168 F 
ATOM     25  F   UNL A   1      36.409  23.758  24.331  1.00  0.00    -0.168 F 
ENDBRANCH   6  22
ENDBRANCH   3   6
ENDBRANCH   1   2
BRANCH   1  26
ATOM     26  C   UNL A   1      37.775  19.681  24.993  1.00  0.00     0.042 C 
BRANCH  26  27
ATOM     27  C   UNL A   1      39.015  20.162  25.741  1.00  0.00     0.118 C 
BRANCH  27  28
ATOM     28  N   UNL A   1      40.031  19.134  25.889  1.00  0.00    -0.352 N 
ATOM     29  C   UNL A   1      41.381  19.250  26.123  1.00  0.00     0.251 C 
ATOM     30  H   UNL A   1      39.701  18.210  25.809  1.00  0.00     0.163 HD
ATOM     31  O   UNL A   1      42.095  18.255  26.059  1.00  0.00    -0.269 OA
BRANCH  29  32
ATOM     32  C   UNL A   1      41.987  20.567  26.420  1.00  0.00     0.039 A 
ATOM     33  C   UNL A   1      42.343  21.395  25.351  1.00  0.00     0.014 A 
ATOM     34  C   UNL A   1      42.226  20.985  27.732  1.00  0.00     0.014 A 
ATOM     35  C   UNL A   1      42.869  22.665  25.599  1.00  0.00     0.010 A 
ATOM     36  C   UNL A   1      42.670  22.282  27.978  1.00  0.00     0.010 A 
ATOM     37  C   UNL A   1      42.997  23.137  26.915  1.00  0.00    -0.014 A 
BRANCH  37  38
ATOM     38  C   UNL A   1      43.456  24.524  27.192  1.00  0.00     0.031 A 
ATOM     39  C   UNL A   1      42.494  25.562  27.694  1.00  0.00     0.074 A 
ATOM     40  C   UNL A   1      44.731  24.865  26.921  1.00  0.00     0.049 A 
ATOM     41  N   UNL A   1      42.698  26.834  27.936  1.00  0.00    -0.248 NA
ATOM     42  C   UNL A   1      41.110  25.123  27.927  1.00  0.00     0.031 C 
ATOM     43  C   UNL A   1      45.748  23.966  26.375  1.00  0.00     0.029 A 
ATOM     44  N   UNL A   1      45.387  26.065  27.054  1.00  0.00    -0.354 N 
ATOM     45  C   UNL A   1      41.468  27.346  28.330  1.00  0.00     0.074 A 
ATOM     46  C   UNL A   1      40.513  26.262  28.243  1.00  0.00     0.031 C 
ATOM     47  C   UNL A   1      46.901  24.637  26.236  1.00  0.00     0.029 A 
ATOM     48  C   UNL A   1      46.696  26.025  26.640  1.00  0.00     0.049 A 
ATOM     49  H   UNL A   1      44.959  26.876  27.411  1.00  0.00     0.167 HD
ATOM     50  C   UNL A   1      41.169  28.601  28.745  1.00  0.00     0.037 A 
ATOM     51  C   UNL A   1      47.625  26.998  26.578  1.00  0.00     0.037 A 
ATOM     52  C   UNL A   1      42.128  29.671  28.846  1.00  0.00     0.049 A 
ATOM     53  C   UNL A   1      47.271  28.383  27.045  1.00  0.00     0.074 A 
ATOM     54  C   UNL A   1      41.944  30.952  29.335  1.00  0.00     0.029 A 
ATOM     55  N   UNL A   1      43.452  29.587  28.437  1.00  0.00    -0.354 N 
ATOM     56  N   UNL A   1      46.129  28.834  27.504  1.00  0.00    -0.248 NA
ATOM     57  C   UNL A   1      48.337  29.392  26.996  1.00  0.00     0.031 C 
ATOM     58  C   UNL A   1      43.135  31.664  29.157  1.00  0.00     0.029 A 
ATOM     59  C   UNL A   1      44.084  30.807  28.624  1.00  0.00     0.049 A 
ATOM     60  H   UNL A   1      43.879  28.781  28.068  1.00  0.00     0.167 HD
ATOM     61  C   UNL A   1      46.341  30.170  27.816  1.00  0.00     0.074 A 
ATOM     62  C   UNL A   1      47.730  30.452  27.512  1.00  0.00     0.031 C 
ATOM     63  C   UNL A   1      45.465  31.080  28.309  1.00  0.00     0.037 A 
BRANCH  50  64
ATOM     64  C   UNL A   1      39.737  28.892  29.102  1.00  0.00     0.064 A 
ATOM     65  C   UNL A   1      39.243  28.705  30.403  1.00  0.00     0.173 A 
ATOM     66  C   UNL A   1      38.851  29.387  28.133  1.00  0.00     0.173 A 
ATOM     67  F   UNL A   1      40.044  28.228  31.368  1.00  0.00    -0.203 F 
ATOM     68  C   UNL A   1      37.908  28.960  30.708  1.00  0.00     0.198 A 
ATOM     69  C   UNL A   1      37.526  29.676  28.450  1.00  0.00     0.198 A 
ATOM     70  F   UNL A   1      39.269  29.594  26.875  1.00  0.00    -0.203 F 
ATOM     71  F   UNL A   1      37.444  28.712  31.941  1.00  0.00    -0.200 F 
ATOM     72  C   UNL A   1      37.052  29.452  29.733  1.00  0.00     0.200 A 
ATOM     73  F   UNL A   1      36.706  30.166  27.511  1.00  0.00    -0.200 F 
ATOM     74  F   UNL A   1      35.769  29.699  30.029  1.00  0.00    -0.200 F 
ENDBRANCH  50  64
BRANCH  51  75
ATOM     75  C   UNL A   1      48.984  26.684  26.061  1.00  0.00     0.064 A 
ATOM     76  C   UNL A   1      49.340  26.973  24.737  1.00  0.00     0.173 A 
ATOM     77  C   UNL A   1      49.960  26.111  26.889  1.00  0.00     0.173 A 
ATOM     78  F   UNL A   1      48.436  27.503  23.901  1.00  0.00    -0.203 F 
ATOM     79  C   UNL A   1      50.617  26.689  24.257  1.00  0.00     0.198 A 
ATOM     80  C   UNL A   1      51.246  25.857  26.417  1.00  0.00     0.198 A 
ATOM     81  F   UNL A   1      49.673  25.822  28.167  1.00  0.00    -0.203 F 
ATOM     82  F   UNL A   1      50.920  26.939  22.976  1.00  0.00    -0.200 F 
ATOM     83  C   UNL A   1      51.572  26.139  25.100  1.00  0.00     0.200 A 
ATOM     84  F   UNL A   1      52.170  25.343  27.241  1.00  0.00    -0.200 F 
ATOM     85  F   UNL A   1      52.804  25.880  24.642  1.00  0.00    -0.200 F 
ENDBRANCH  51  75
BRANCH  63  86
ATOM     86  C   UNL A   1      45.985  32.465  28.574  1.00  0.00     0.064 A 
ATOM     87  C   UNL A   1      46.581  32.809  29.796  1.00  0.00     0.173 A 
ATOM     88  C   UNL A   1      45.921  33.449  27.575  1.00  0.00     0.173 A 
ATOM     89  F   UNL A   1      46.654  31.911  30.790  1.00  0.00    -0.203 F 
ATOM     90  C   UNL A   1      47.069  34.095  30.018  1.00  0.00     0.198 A 
ATOM     91  C   UNL A   1      46.442  34.723  27.788  1.00  0.00     0.198 A 
ATOM     92  F   UNL A   1      45.368  33.172  26.385  1.00  0.00    -0.203 F 
ATOM     93  F   UNL A   1      47.587  34.416  31.212  1.00  0.00    -0.200 F 
ATOM     94  C   UNL A   1      47.008  35.047  29.012  1.00  0.00     0.200 A 
ATOM     95  F   UNL A   1      46.397  35.636  26.808  1.00  0.00    -0.200 F 
ATOM     96  F   UNL A   1      47.487  36.280  29.224  1.00  0.00    -0.200 F 
ENDBRANCH  63  86
ENDBRANCH  37  38
ENDBRANCH  29  32
ENDBRANCH  27  28
ENDBRANCH  26  27
ENDBRANCH   1  26
TORSDOF 14
ENDMDL
MODEL 2
REMARK VINA RESULT:     -12.2      5.600     11.106
REMARK SMILES CN(C(=O)N[C@](C)(C(=O)NCCCNC(=O)c1ccc(-c2c3nc(c(-c4c(F)c(F)c(F)c(F)c4F)c4ccc([nH]4)c(-c4c(F)c(F)c(F)c(F)c4F)c4nc(c(-c5c(F)c(F)c(F)c(F)c5F)c5ccc2[nH]5)C=C4)C=C3)cc1)C(F)(F)F)[C@@H]1CCC[N@@H+](C)C1
REMARK SMILES IDX 11 1 10 2 8 3 9 4 6 6 7 7 5 8 3 9 4 10 2 12 1 13 84 14 89 15
REMARK SMILES IDX 88 16 87 17 90 18 86 20 85 21 80 22 81 23 82 24 83 25 12 26
REMARK SMILES IDX 13 27 14 28 15 29 16 31 17 32 18 33 79 34 19 35 78 36 20 37
REMARK SMILES IDX 21 38 22 39 72 40 23 41 77 42 71 43 73 44 24 45 76 46 70 47
REMARK SMILES IDX 69 48 25 50 57 51 37 52 56 53 38 54 41 55 55 56 74 57 39 58
REMARK SMILES IDX 40 59 54 61 75 62 42 63 26 64 27 65 35 66 28 67 29 68 33 69
REMARK SMILES IDX 36 70 30 71 31 72 34 73 32 74 58 75 59 76 67 77 60 78 61 79
REMARK SMILES IDX 65 80 68 81 62 82 63 83 66 84 64 85 43 86 44 87 52 88 45 89
REMARK SMILES IDX 46 90 50 91 53 92 47 93 48 94 51 95 49 96
REMARK H PARENT 10 5 5 11 88 19 14 30 73 49 41 60
REMARK Flexibility Score: inf
ROOT
ATOM      1  C   UNL A   1      31.509  30.711  26.512  1.00  0.00     0.117 C 
ENDROOT
BRANCH   1   2
ATOM      2  N   UNL A   1      31.364  30.181  25.164  1.00  0.00    -0.354 N 
ATOM      3  C   UNL A   1      31.578  28.966  24.579  1.00  0.00     0.255 C 
ATOM      4  O   UNL A   1      31.300  28.943  23.376  1.00  0.00    -0.272 OA
ATOM      5  H   UNL A   1      31.034  30.856  24.527  1.00  0.00     0.163 HD
BRANCH   3   6
ATOM      6  C   UNL A   1      32.027  27.697  25.369  1.00  0.00     0.213 C 
ATOM      7  C   UNL A   1      31.476  27.706  26.799  1.00  0.00     0.056 C 
BRANCH   6   8
ATOM      8  N   UNL A   1      31.414  26.602  24.552  1.00  0.00    -0.316 N 
ATOM      9  C   UNL A   1      31.632  25.657  23.639  1.00  0.00     0.318 C 
ATOM     10  O   UNL A   1      30.605  24.999  23.456  1.00  0.00    -0.249 OA
ATOM     11  H   UNL A   1      30.458  26.566  24.785  1.00  0.00     0.166 HD
BRANCH   9  12
ATOM     12  N   UNL A   1      32.789  25.453  22.960  1.00  0.00    -0.319 N 
ATOM     13  C   UNL A   1      33.368  26.362  21.997  1.00  0.00     0.149 C 
BRANCH  12  14
ATOM     14  C   UNL A   1      33.590  24.210  23.171  1.00  0.00     0.141 C 
ATOM     15  C   UNL A   1      32.404  22.370  26.296  1.00  0.00     0.332 C 
ATOM     16  N   UNL A   1      32.418  22.796  24.902  1.00  0.00    -0.336 N 
ATOM     17  C   UNL A   1      32.379  21.651  23.988  1.00  0.00     0.262 C 
ATOM     18  C   UNL A   1      33.558  23.670  24.620  1.00  0.00     0.287 C 
ATOM     19  H   UNL A   1      31.571  23.341  24.743  1.00  0.00     0.347 HD
ATOM     20  C   UNL A   1      32.343  22.047  22.509  1.00  0.00     0.064 C 
ATOM     21  C   UNL A   1      33.385  23.095  22.131  1.00  0.00     0.037 C 
ENDBRANCH  12  14
ENDBRANCH   9  12
ENDBRANCH   6   8
BRANCH   6  22
ATOM     22  C   UNL A   1      33.572  27.807  25.411  1.00  0.00     0.420 C 
ATOM     23  F   UNL A   1      34.006  28.566  26.449  1.00  0.00    -0.168 F 
ATOM     24  F   UNL A   1      34.158  26.602  25.626  1.00  0.00    -0.168 F 
ATOM     25  F   UNL A   1      34.099  28.305  24.272  1.00  0.00    -0.168 F 
ENDBRANCH   6  22
ENDBRANCH   3   6
ENDBRANCH   1   2
BRANCH   1  26
ATOM     26  C   UNL A   1      31.487  32.239  26.542  1.00  0.00     0.042 C 
BRANCH  26  27
ATOM     27  C   UNL A   1      32.686  32.889  27.228  1.00  0.00     0.118 C 
BRANCH  27  28
ATOM     28  N   UNL A   1      32.434  34.256  27.651  1.00  0.00    -0.352 N 
ATOM     29  C   UNL A   1      33.029  35.000  28.643  1.00  0.00     0.251 C 
ATOM     30  H   UNL A   1      31.727  34.722  27.150  1.00  0.00     0.163 HD
ATOM     31  O   UNL A   1      32.560  36.091  28.946  1.00  0.00    -0.269 OA
BRANCH  29  32
ATOM     32  C   UNL A   1      34.209  34.484  29.372  1.00  0.00     0.039 A 
ATOM     33  C   UNL A   1      34.006  33.802  30.575  1.00  0.00     0.014 A 
ATOM     34  C   UNL A   1      35.508  34.680  28.895  1.00  0.00     0.014 A 
ATOM     35  C   UNL A   1      35.096  33.258  31.260  1.00  0.00     0.010 A 
ATOM     36  C   UNL A   1      36.583  34.065  29.532  1.00  0.00     0.010 A 
ATOM     37  C   UNL A   1      36.390  33.347  30.722  1.00  0.00    -0.014 A 
BRANCH  37  38
ATOM     38  C   UNL A   1      37.544  32.684  31.385  1.00  0.00     0.031 A 
ATOM     39  C   UNL A   1      38.240  31.525  30.728  1.00  0.00     0.074 A 
ATOM     40  C   UNL A   1      37.919  33.082  32.616  1.00  0.00     0.049 A 
ATOM     41  N   UNL A   1      39.225  30.786  31.178  1.00  0.00    -0.248 NA
ATOM     42  C   UNL A   1      37.747  31.123  29.403  1.00  0.00     0.031 C 
ATOM     43  C   UNL A   1      37.287  34.155  33.385  1.00  0.00     0.029 A 
ATOM     44  N   UNL A   1      38.914  32.623  33.444  1.00  0.00    -0.354 N 
ATOM     45  C   UNL A   1      39.453  29.826  30.201  1.00  0.00     0.074 A 
ATOM     46  C   UNL A   1      38.471  30.040  29.161  1.00  0.00     0.031 C 
ATOM     47  C   UNL A   1      37.917  34.283  34.562  1.00  0.00     0.029 A 
ATOM     48  C   UNL A   1      38.970  33.275  34.651  1.00  0.00     0.049 A 
ATOM     49  H   UNL A   1      39.528  31.895  33.196  1.00  0.00     0.167 HD
ATOM     50  C   UNL A   1      40.407  28.864  30.169  1.00  0.00     0.037 A 
ATOM     51  C   UNL A   1      39.767  33.077  35.718  1.00  0.00     0.037 A 
ATOM     52  C   UNL A   1      41.394  28.667  31.200  1.00  0.00     0.049 A 
ATOM     53  C   UNL A   1      40.821  32.005  35.659  1.00  0.00     0.074 A 
ATOM     54  C   UNL A   1      42.453  27.778  31.221  1.00  0.00     0.029 A 
ATOM     55  N   UNL A   1      41.431  29.362  32.401  1.00  0.00    -0.354 N 
ATOM     56  N   UNL A   1      41.088  31.162  34.691  1.00  0.00    -0.248 NA
ATOM     57  C   UNL A   1      41.689  31.863  36.834  1.00  0.00     0.031 C 
ATOM     58  C   UNL A   1      43.090  27.886  32.463  1.00  0.00     0.029 A 
ATOM     59  C   UNL A   1      42.472  28.891  33.188  1.00  0.00     0.049 A 
ATOM     60  H   UNL A   1      40.811  30.081  32.657  1.00  0.00     0.167 HD
ATOM     61  C   UNL A   1      42.165  30.403  35.131  1.00  0.00     0.074 A 
ATOM     62  C   UNL A   1      42.515  30.901  36.445  1.00  0.00     0.031 C 
ATOM     63  C   UNL A   1      42.806  29.387  34.500  1.00  0.00     0.037 A 
BRANCH  50  64
ATOM     64  C   UNL A   1      40.419  27.936  28.986  1.00  0.00     0.064 A 
ATOM     65  C   UNL A   1      41.175  28.208  27.834  1.00  0.00     0.173 A 
ATOM     66  C   UNL A   1      39.679  26.743  29.012  1.00  0.00     0.173 A 
ATOM     67  F   UNL A   1      41.896  29.337  27.751  1.00  0.00    -0.203 F 
ATOM     68  C   UNL A   1      41.154  27.346  26.740  1.00  0.00     0.198 A 
ATOM     69  C   UNL A   1      39.690  25.865  27.931  1.00  0.00     0.198 A 
ATOM     70  F   UNL A   1      38.945  26.426  30.089  1.00  0.00    -0.203 F 
ATOM     71  F   UNL A   1      41.833  27.661  25.628  1.00  0.00    -0.200 F 
ATOM     72  C   UNL A   1      40.418  26.172  26.792  1.00  0.00     0.200 A 
ATOM     73  F   UNL A   1      38.990  24.724  27.991  1.00  0.00    -0.200 F 
ATOM     74  F   UNL A   1      40.401  25.343  25.740  1.00  0.00    -0.200 F 
ENDBRANCH  50  64
BRANCH  51  75
ATOM     75  C   UNL A   1      39.600  33.925  36.928  1.00  0.00     0.064 A 
ATOM     76  C   UNL A   1      40.207  35.185  37.019  1.00  0.00     0.173 A 
ATOM     77  C   UNL A   1      38.807  33.503  38.006  1.00  0.00     0.173 A 
ATOM     78  F   UNL A   1      40.989  35.625  36.023  1.00  0.00    -0.203 F 
ATOM     79  C   UNL A   1      40.040  35.984  38.148  1.00  0.00     0.198 A 
ATOM     80  C   UNL A   1      38.616  34.317  39.120  1.00  0.00     0.198 A 
ATOM     81  F   UNL A   1      38.198  32.309  37.965  1.00  0.00    -0.203 F 
ATOM     82  F   UNL A   1      40.663  37.168  38.227  1.00  0.00    -0.200 F 
ATOM     83  C   UNL A   1      39.236  35.553  39.194  1.00  0.00     0.200 A 
ATOM     84  F   UNL A   1      37.823  33.903  40.119  1.00  0.00    -0.200 F 
ATOM     85  F   UNL A   1      39.064  36.328  40.274  1.00  0.00    -0.200 F 
ENDBRANCH  51  75
BRANCH  63  86
ATOM     86  C   UNL A   1      43.968  28.756  35.215  1.00  0.00     0.064 A 
ATOM     87  C   UNL A   1      45.277  29.237  35.066  1.00  0.00     0.173 A 
ATOM     88  C   UNL A   1      43.761  27.681  36.093  1.00  0.00     0.173 A 
ATOM     89  F   UNL A   1      45.532  30.254  34.227  1.00  0.00    -0.203 F 
ATOM     90  C   UNL A   1      46.340  28.647  35.746  1.00  0.00     0.198 A 
ATOM     91  C   UNL A   1      44.820  27.117  36.799  1.00  0.00     0.198 A 
ATOM     92  F   UNL A   1      42.528  27.185  36.279  1.00  0.00    -0.203 F 
ATOM     93  F   UNL A   1      47.589  29.091  35.547  1.00  0.00    -0.200 F 
ATOM     94  C   UNL A   1      46.109  27.595  36.619  1.00  0.00     0.200 A 
ATOM     95  F   UNL A   1      44.593  26.110  37.654  1.00  0.00    -0.200 F 
ATOM     96  F   UNL A   1      47.132  27.035  37.281  1.00  0.00    -0.200 F 
ENDBRANCH  63  86
ENDBRANCH  37  38
ENDBRANCH  29  32
ENDBRANCH  27  28
ENDBRANCH  26  27
ENDBRANCH   1  26
TORSDOF 14
ENDMDL
MODEL 3
REMARK VINA RESULT:     -12.2      5.676     11.128
REMARK SMILES CN(C(=O)N[C@](C)(C(=O)NCCCNC(=O)c1ccc(-c2c3nc(c(-c4c(F)c(F)c(F)c(F)c4F)c4ccc([nH]4)c(-c4c(F)c(F)c(F)c(F)c4F)c4nc(c(-c5c(F)c(F)c(F)c(F)c5F)c5ccc2[nH]5)C=C4)C=C3)cc1)C(F)(F)F)[C@@H]1CCC[N@@H+](C)C1
REMARK SMILES IDX 11 1 10 2 8 3 9 4 6 6 7 7 5 8 3 9 4 10 2 12 1 13 84 14 89 15
REMARK SMILES IDX 88 16 87 17 90 18 86 20 85 21 80 22 81 23 82 24 83 25 12 26
REMARK SMILES IDX 13 27 14 28 15 29 16 31 17 32 18 33 79 34 19 35 78 36 20 37
REMARK SMILES IDX 21 38 22 39 72 40 23 41 77 42 71 43 73 44 24 45 76 46 70 47
REMARK SMILES IDX 69 48 25 50 57 51 37 52 56 53 38 54 41 55 55 56 74 57 39 58
REMARK SMILES IDX 40 59 54 61 75 62 42 63 26 64 27 65 35 66 28 67 29 68 33 69
REMARK SMILES IDX 36 70 30 71 31 72 34 73 32 74 58 75 59 76 67 77 60 78 61 79
REMARK SMILES IDX 65 80 68 81 62 82 63 83 66 84 64 85 43 86 44 87 52 88 45 89
REMARK SMILES IDX 46 90 50 91 53 92 47 93 48 94 51 95 49 96
REMARK H PARENT 10 5 5 11 88 19 14 30 73 49 41 60
REMARK Flexibility Score: inf
ROOT
ATOM      1  C   UNL A   1      31.553  30.771  26.601  1.00  0.00     0.117 C 
ENDROOT
BRANCH   1   2
ATOM      2  N   UNL A   1      31.387  30.213  25.267  1.00  0.00    -0.354 N 
ATOM      3  C   UNL A   1      31.588  28.985  24.704  1.00  0.00     0.255 C 
ATOM      4  O   UNL A   1      31.293  28.938  23.507  1.00  0.00    -0.272 OA
ATOM      5  H   UNL A   1      31.051  30.875  24.620  1.00  0.00     0.163 HD
BRANCH   3   6
ATOM      6  C   UNL A   1      32.043  27.731  25.515  1.00  0.00     0.213 C 
ATOM      7  C   UNL A   1      31.557  27.799  26.967  1.00  0.00     0.056 C 
BRANCH   6   8
ATOM      8  N   UNL A   1      31.370  26.626  24.761  1.00  0.00    -0.316 N 
ATOM      9  C   UNL A   1      31.191  25.310  24.665  1.00  0.00     0.318 C 
ATOM     10  O   UNL A   1      30.369  25.056  23.782  1.00  0.00    -0.249 OA
ATOM     11  H   UNL A   1      30.843  27.044  24.041  1.00  0.00     0.166 HD
BRANCH   9  12
ATOM     12  N   UNL A   1      31.837  24.361  25.388  1.00  0.00    -0.319 N 
ATOM     13  C   UNL A   1      31.509  23.967  26.740  1.00  0.00     0.149 C 
BRANCH  12  14
ATOM     14  C   UNL A   1      32.994  23.613  24.808  1.00  0.00     0.141 C 
ATOM     15  C   UNL A   1      31.807  21.231  22.074  1.00  0.00     0.332 C 
ATOM     16  N   UNL A   1      32.224  22.487  22.685  1.00  0.00    -0.336 N 
ATOM     17  C   UNL A   1      33.293  23.132  21.916  1.00  0.00     0.262 C 
ATOM     18  C   UNL A   1      32.605  22.302  24.086  1.00  0.00     0.287 C 
ATOM     19  H   UNL A   1      31.419  23.114  22.669  1.00  0.00     0.347 HD
ATOM     20  C   UNL A   1      33.733  24.482  22.492  1.00  0.00     0.064 C 
ATOM     21  C   UNL A   1      33.994  24.451  23.995  1.00  0.00     0.037 C 
ENDBRANCH  12  14
ENDBRANCH   9  12
ENDBRANCH   6   8
BRANCH   6  22
ATOM     22  C   UNL A   1      33.590  27.806  25.485  1.00  0.00     0.420 C 
ATOM     23  F   UNL A   1      34.066  28.900  26.132  1.00  0.00    -0.168 F 
ATOM     24  F   UNL A   1      34.159  26.767  26.149  1.00  0.00    -0.168 F 
ATOM     25  F   UNL A   1      34.098  27.798  24.234  1.00  0.00    -0.168 F 
ENDBRANCH   6  22
ENDBRANCH   3   6
ENDBRANCH   1   2
BRANCH   1  26
ATOM     26  C   UNL A   1      31.480  32.297  26.607  1.00  0.00     0.042 C 
BRANCH  26  27
ATOM     27  C   UNL A   1      32.704  33.001  27.187  1.00  0.00     0.118 C 
BRANCH  27  28
ATOM     28  N   UNL A   1      32.427  34.353  27.643  1.00  0.00    -0.352 N 
ATOM     29  C   UNL A   1      32.996  35.078  28.662  1.00  0.00     0.251 C 
ATOM     30  H   UNL A   1      31.720  34.822  27.143  1.00  0.00     0.163 HD
ATOM     31  O   UNL A   1      32.508  36.155  28.986  1.00  0.00    -0.269 OA
BRANCH  29  32
ATOM     32  C   UNL A   1      34.174  34.559  29.394  1.00  0.00     0.039 A 
ATOM     33  C   UNL A   1      33.969  33.918  30.619  1.00  0.00     0.014 A 
ATOM     34  C   UNL A   1      35.471  34.715  28.900  1.00  0.00     0.014 A 
ATOM     35  C   UNL A   1      35.054  33.371  31.309  1.00  0.00     0.010 A 
ATOM     36  C   UNL A   1      36.540  34.096  29.544  1.00  0.00     0.010 A 
ATOM     37  C   UNL A   1      36.343  33.418  30.757  1.00  0.00    -0.014 A 
BRANCH  37  38
ATOM     38  C   UNL A   1      37.490  32.750  31.428  1.00  0.00     0.031 A 
ATOM     39  C   UNL A   1      38.177  31.579  30.783  1.00  0.00     0.074 A 
ATOM     40  C   UNL A   1      37.867  33.156  32.656  1.00  0.00     0.049 A 
ATOM     41  N   UNL A   1      39.154  30.835  31.242  1.00  0.00    -0.248 NA
ATOM     42  C   UNL A   1      37.683  31.169  29.461  1.00  0.00     0.031 C 
ATOM     43  C   UNL A   1      37.243  34.241  33.414  1.00  0.00     0.029 A 
ATOM     44  N   UNL A   1      38.856  32.695  33.490  1.00  0.00    -0.354 N 
ATOM     45  C   UNL A   1      39.375  29.864  30.274  1.00  0.00     0.074 A 
ATOM     46  C   UNL A   1      38.397  30.078  29.231  1.00  0.00     0.031 C 
ATOM     47  C   UNL A   1      37.872  34.375  34.591  1.00  0.00     0.029 A 
ATOM     48  C   UNL A   1      38.916  33.358  34.691  1.00  0.00     0.049 A 
ATOM     49  H   UNL A   1      39.464  31.960  33.250  1.00  0.00     0.167 HD
ATOM     50  C   UNL A   1      40.321  28.893  30.253  1.00  0.00     0.037 A 
ATOM     51  C   UNL A   1      39.709  33.162  35.762  1.00  0.00     0.037 A 
ATOM     52  C   UNL A   1      41.304  28.696  31.288  1.00  0.00     0.049 A 
ATOM     53  C   UNL A   1      40.753  32.080  35.714  1.00  0.00     0.074 A 
ATOM     54  C   UNL A   1      42.355  27.798  31.319  1.00  0.00     0.029 A 
ATOM     55  N   UNL A   1      41.345  29.402  32.482  1.00  0.00    -0.354 N 
ATOM     56  N   UNL A   1      41.014  31.226  34.755  1.00  0.00    -0.248 NA
ATOM     57  C   UNL A   1      41.618  31.942  36.892  1.00  0.00     0.031 C 
ATOM     58  C   UNL A   1      42.991  27.911  32.561  1.00  0.00     0.029 A 
ATOM     59  C   UNL A   1      42.381  28.929  33.275  1.00  0.00     0.049 A 
ATOM     60  H   UNL A   1      40.731  30.129  32.731  1.00  0.00     0.167 HD
ATOM     61  C   UNL A   1      42.084  30.462  35.203  1.00  0.00     0.074 A 
ATOM     62  C   UNL A   1      42.436  30.969  36.514  1.00  0.00     0.031 C 
ATOM     63  C   UNL A   1      42.716  29.435  34.584  1.00  0.00     0.037 A 
BRANCH  50  64
ATOM     64  C   UNL A   1      40.326  27.954  29.078  1.00  0.00     0.064 A 
ATOM     65  C   UNL A   1      39.580  26.764  29.074  1.00  0.00     0.173 A 
ATOM     66  C   UNL A   1      41.073  28.259  27.929  1.00  0.00     0.173 A 
ATOM     67  F   UNL A   1      38.853  26.419  30.148  1.00  0.00    -0.203 F 
ATOM     68  C   UNL A   1      39.616  25.898  27.984  1.00  0.00     0.198 A 
ATOM     69  C   UNL A   1      41.077  27.409  26.827  1.00  0.00     0.198 A 
ATOM     70  F   UNL A   1      41.798  29.386  27.873  1.00  0.00    -0.203 F 
ATOM     71  F   UNL A   1      38.946  24.737  28.030  1.00  0.00    -0.200 F 
ATOM     72  C   UNL A   1      40.359  26.223  26.859  1.00  0.00     0.200 A 
ATOM     73  F   UNL A   1      41.782  27.733  25.735  1.00  0.00    -0.200 F 
ATOM     74  F   UNL A   1      40.390  25.390  25.811  1.00  0.00    -0.200 F 
ENDBRANCH  50  64
BRANCH  51  75
ATOM     75  C   UNL A   1      39.547  34.023  36.963  1.00  0.00     0.064 A 
ATOM     76  C   UNL A   1      38.767  33.610  38.051  1.00  0.00     0.173 A 
ATOM     77  C   UNL A   1      40.191  35.266  37.057  1.00  0.00     0.173 A 
ATOM     78  F   UNL A   1      38.116  32.439  38.002  1.00  0.00    -0.203 F 
ATOM     79  C   UNL A   1      38.625  34.413  39.182  1.00  0.00     0.198 A 
ATOM     80  C   UNL A   1      40.074  36.053  38.200  1.00  0.00     0.198 A 
ATOM     81  F   UNL A   1      40.956  35.704  36.046  1.00  0.00    -0.203 F 
ATOM     82  F   UNL A   1      37.842  34.011  40.192  1.00  0.00    -0.200 F 
ATOM     83  C   UNL A   1      39.287  35.630  39.259  1.00  0.00     0.200 A 
ATOM     84  F   UNL A   1      40.730  37.219  38.277  1.00  0.00    -0.200 F 
ATOM     85  F   UNL A   1      39.162  36.395  40.352  1.00  0.00    -0.200 F 
ENDBRANCH  51  75
BRANCH  63  86
ATOM     86  C   UNL A   1      43.871  28.800  35.306  1.00  0.00     0.064 A 
ATOM     87  C   UNL A   1      45.190  29.244  35.127  1.00  0.00     0.173 A 
ATOM     88  C   UNL A   1      43.650  27.759  36.222  1.00  0.00     0.173 A 
ATOM     89  F   UNL A   1      45.459  30.225  34.253  1.00  0.00    -0.203 F 
ATOM     90  C   UNL A   1      46.246  28.651  35.815  1.00  0.00     0.198 A 
ATOM     91  C   UNL A   1      44.703  27.193  36.934  1.00  0.00     0.198 A 
ATOM     92  F   UNL A   1      42.408  27.300  36.438  1.00  0.00    -0.203 F 
ATOM     93  F   UNL A   1      47.503  29.057  35.588  1.00  0.00    -0.200 F 
ATOM     94  C   UNL A   1      46.001  27.634  36.725  1.00  0.00     0.200 A 
ATOM     95  F   UNL A   1      44.461  26.221  37.826  1.00  0.00    -0.200 F 
ATOM     96  F   UNL A   1      47.017  27.072  37.394  1.00  0.00    -0.200 F 
ENDBRANCH  63  86
ENDBRANCH  37  38
ENDBRANCH  29  32
ENDBRANCH  27  28
ENDBRANCH  26  27
ENDBRANCH   1  26
TORSDOF 14
ENDMDL
