MODEL 1
REMARK VINA RESULT:     -12.0      0.000      0.000
REMARK SMILES O=C(NCCCNC(=O)[C@H]1C[C@@H]1C(=O)Nc1ccc(Cl)c(Br)c1)c1ccc(-c2c3nc(c(-c4c(F)c(F)c(F)c(F)c4F)c4ccc([nH]4)c(-c4c(F)c(F)c(F)c(F)c4F)c4nc(c(-c5c(F)c(F)c(F)c(F)c5F)c5ccc2[nH]5)C=C4)C=C3)cc1
REMARK SMILES IDX 5 1 4 2 3 3 1 4 2 5 24 7 25 8 86 9 26 10 85 11 27 12 28 13
REMARK SMILES IDX 29 14 79 15 30 16 84 17 78 18 80 19 31 20 83 21 77 22 76 23
REMARK SMILES IDX 32 25 64 26 44 27 63 28 45 29 48 30 62 31 81 32 46 33 47 34
REMARK SMILES IDX 61 36 82 37 49 38 33 39 34 40 42 41 35 42 36 43 40 44 43 45
REMARK SMILES IDX 37 46 38 47 41 48 39 49 65 50 66 51 74 52 67 53 68 54 72 55
REMARK SMILES IDX 75 56 69 57 70 58 73 59 71 60 50 61 51 62 59 63 52 64 53 65
REMARK SMILES IDX 57 66 60 67 54 68 55 69 58 70 56 71 6 72 7 73 8 74 9 76
REMARK SMILES IDX 10 77 11 78 12 79 13 80 14 81 15 82 16 84 17 85 23 86 18 87
REMARK SMILES IDX 21 88 19 89 22 90 20 91
REMARK H PARENT 3 6 80 24 48 35 7 75 15 83
REMARK Flexibility Score: inf
ROOT
ATOM      1  C   UNL A   1      31.193  32.344  26.527  1.00  0.00     0.042 C 
ENDROOT
BRANCH   1   2
ATOM      2  C   UNL A   1      32.486  32.880  27.131  1.00  0.00     0.118 C 
BRANCH   2   3
ATOM      3  N   UNL A   1      32.372  34.256  27.588  1.00  0.00    -0.352 N 
ATOM      4  O   UNL A   1      32.623  36.047  28.912  1.00  0.00    -0.269 OA
ATOM      5  C   UNL A   1      33.009  34.922  28.604  1.00  0.00     0.251 C 
ATOM      6  H   UNL A   1      31.727  34.802  27.083  1.00  0.00     0.163 HD
BRANCH   5   7
ATOM      7  C   UNL A   1      34.138  34.313  29.345  1.00  0.00     0.039 A 
ATOM      8  C   UNL A   1      35.440  34.584  28.907  1.00  0.00     0.014 A 
ATOM      9  C   UNL A   1      33.938  33.427  30.406  1.00  0.00     0.014 A 
ATOM     10  C   UNL A   1      36.533  34.003  29.555  1.00  0.00     0.010 A 
ATOM     11  C   UNL A   1      35.031  32.909  31.102  1.00  0.00     0.010 A 
ATOM     12  C   UNL A   1      36.337  33.175  30.671  1.00  0.00    -0.014 A 
BRANCH  12  13
ATOM     13  C   UNL A   1      37.487  32.532  31.357  1.00  0.00     0.031 A 
ATOM     14  C   UNL A   1      38.257  31.440  30.665  1.00  0.00     0.074 A 
ATOM     15  C   UNL A   1      37.824  32.906  32.606  1.00  0.00     0.049 A 
ATOM     16  N   UNL A   1      39.246  30.710  31.119  1.00  0.00    -0.248 NA
ATOM     17  C   UNL A   1      37.847  31.105  29.292  1.00  0.00     0.031 C 
ATOM     18  C   UNL A   1      37.142  33.930  33.396  1.00  0.00     0.029 A 
ATOM     19  N   UNL A   1      38.831  32.466  33.429  1.00  0.00    -0.354 N 
ATOM     20  C   UNL A   1      39.550  29.814  30.103  1.00  0.00     0.074 A 
ATOM     21  C   UNL A   1      38.627  30.070  29.019  1.00  0.00     0.031 C 
ATOM     22  C   UNL A   1      37.770  34.065  34.576  1.00  0.00     0.029 A 
ATOM     23  C   UNL A   1      38.881  33.119  34.635  1.00  0.00     0.049 A 
ATOM     24  H   UNL A   1      39.457  31.749  33.178  1.00  0.00     0.167 HD
ATOM     25  C   UNL A   1      40.525  28.876  30.068  1.00  0.00     0.037 A 
ATOM     26  C   UNL A   1      39.733  32.975  35.668  1.00  0.00     0.037 A 
ATOM     27  C   UNL A   1      41.485  28.661  31.115  1.00  0.00     0.049 A 
ATOM     28  C   UNL A   1      40.840  31.961  35.584  1.00  0.00     0.074 A 
ATOM     29  C   UNL A   1      42.537  27.762  31.149  1.00  0.00     0.029 A 
ATOM     30  N   UNL A   1      41.521  29.369  32.306  1.00  0.00    -0.354 N 
ATOM     31  N   UNL A   1      41.126  31.134  34.609  1.00  0.00    -0.248 NA
ATOM     32  C   UNL A   1      41.742  31.863  36.740  1.00  0.00     0.031 C 
ATOM     33  C   UNL A   1      43.206  27.920  32.367  1.00  0.00     0.029 A 
ATOM     34  C   UNL A   1      42.581  28.932  33.080  1.00  0.00     0.049 A 
ATOM     35  H   UNL A   1      40.889  30.078  32.562  1.00  0.00     0.167 HD
ATOM     36  C   UNL A   1      42.248  30.433  35.023  1.00  0.00     0.074 A 
ATOM     37  C   UNL A   1      42.599  30.934  36.336  1.00  0.00     0.031 C 
ATOM     38  C   UNL A   1      42.927  29.458  34.372  1.00  0.00     0.037 A 
BRANCH  25  39
ATOM     39  C   UNL A   1      40.616  28.016  28.846  1.00  0.00     0.064 A 
ATOM     40  C   UNL A   1      39.888  26.823  28.739  1.00  0.00     0.173 A 
ATOM     41  C   UNL A   1      41.394  28.417  27.750  1.00  0.00     0.173 A 
ATOM     42  F   UNL A   1      39.142  26.394  29.768  1.00  0.00    -0.203 F 
ATOM     43  C   UNL A   1      39.947  26.053  27.582  1.00  0.00     0.198 A 
ATOM     44  C   UNL A   1      41.434  27.655  26.586  1.00  0.00     0.198 A 
ATOM     45  F   UNL A   1      42.105  29.554  27.805  1.00  0.00    -0.203 F 
ATOM     46  F   UNL A   1      39.266  24.901  27.510  1.00  0.00    -0.200 F 
ATOM     47  C   UNL A   1      40.714  26.472  26.504  1.00  0.00     0.200 A 
ATOM     48  F   UNL A   1      42.169  28.064  25.543  1.00  0.00    -0.200 F 
ATOM     49  F   UNL A   1      40.760  25.734  25.386  1.00  0.00    -0.200 F 
ENDBRANCH  25  39
BRANCH  26  50
ATOM     50  C   UNL A   1      39.601  33.853  36.855  1.00  0.00     0.064 A 
ATOM     51  C   UNL A   1      38.830  33.452  37.955  1.00  0.00     0.173 A 
ATOM     52  C   UNL A   1      40.246  35.094  36.923  1.00  0.00     0.173 A 
ATOM     53  F   UNL A   1      38.179  32.279  37.923  1.00  0.00    -0.203 F 
ATOM     54  C   UNL A   1      38.704  34.264  39.078  1.00  0.00     0.198 A 
ATOM     55  C   UNL A   1      40.133  35.900  38.055  1.00  0.00     0.198 A 
ATOM     56  F   UNL A   1      40.997  35.518  35.896  1.00  0.00    -0.203 F 
ATOM     57  F   UNL A   1      37.940  33.869  40.106  1.00  0.00    -0.200 F 
ATOM     58  C   UNL A   1      39.360  35.486  39.130  1.00  0.00     0.200 A 
ATOM     59  F   UNL A   1      40.774  37.075  38.105  1.00  0.00    -0.200 F 
ATOM     60  F   UNL A   1      39.242  36.266  40.212  1.00  0.00    -0.200 F 
ENDBRANCH  26  50
BRANCH  38  61
ATOM     61  C   UNL A   1      44.134  28.885  35.045  1.00  0.00     0.064 A 
ATOM     62  C   UNL A   1      44.041  27.746  35.856  1.00  0.00     0.173 A 
ATOM     63  C   UNL A   1      45.404  29.430  34.807  1.00  0.00     0.173 A 
ATOM     64  F   UNL A   1      42.844  27.200  36.116  1.00  0.00    -0.203 F 
ATOM     65  C   UNL A   1      45.182  27.172  36.407  1.00  0.00     0.198 A 
ATOM     66  C   UNL A   1      46.544  28.844  35.349  1.00  0.00     0.198 A 
ATOM     67  F   UNL A   1      45.538  30.519  34.034  1.00  0.00    -0.203 F 
ATOM     68  F   UNL A   1      45.074  26.089  37.189  1.00  0.00    -0.200 F 
ATOM     69  C   UNL A   1      46.432  27.715  36.148  1.00  0.00     0.200 A 
ATOM     70  F   UNL A   1      47.751  29.367  35.092  1.00  0.00    -0.200 F 
ATOM     71  F   UNL A   1      47.530  27.151  36.668  1.00  0.00    -0.200 F 
ENDBRANCH  38  61
ENDBRANCH  12  13
ENDBRANCH   5   7
ENDBRANCH   2   3
ENDBRANCH   1   2
BRANCH   1  72
ATOM     72  C   UNL A   1      31.302  30.946  25.935  1.00  0.00     0.117 C 
BRANCH  72  73
ATOM     73  N   UNL A   1      31.763  29.975  26.908  1.00  0.00    -0.356 N 
ATOM     74  C   UNL A   1      32.759  29.048  26.816  1.00  0.00     0.223 C 
ATOM     75  H   UNL A   1      31.282  29.986  27.767  1.00  0.00     0.163 HD
ATOM     76  O   UNL A   1      32.944  28.255  27.733  1.00  0.00    -0.275 OA
BRANCH  74  77
ATOM     77  C   UNL A   1      33.655  29.035  25.634  1.00  0.00     0.091 C 
ATOM     78  C   UNL A   1      34.436  27.811  25.233  1.00  0.00     0.028 C 
ATOM     79  C   UNL A   1      33.185  28.171  24.473  1.00  0.00     0.092 C 
BRANCH  79  80
ATOM     80  C   UNL A   1      33.344  28.548  23.051  1.00  0.00     0.228 C 
ATOM     81  O   UNL A   1      34.462  28.718  22.575  1.00  0.00    -0.274 OA
ATOM     82  N   UNL A   1      32.222  28.529  22.250  1.00  0.00    -0.326 N 
ATOM     83  H   UNL A   1      32.395  28.571  21.282  1.00  0.00     0.169 HD
BRANCH  82  84
ATOM     84  C   UNL A   1      30.866  28.457  22.618  1.00  0.00     0.042 A 
ATOM     85  C   UNL A   1      30.248  27.273  23.026  1.00  0.00     0.028 A 
ATOM     86  C   UNL A   1      30.121  29.639  22.603  1.00  0.00     0.043 A 
ATOM     87  C   UNL A   1      28.885  27.248  23.330  1.00  0.00     0.024 A 
ATOM     88  C   UNL A   1      28.750  29.617  22.897  1.00  0.00     0.038 A 
ATOM     89  C   UNL A   1      28.126  28.415  23.250  1.00  0.00     0.055 A 
ATOM     90  Br  UNL A   1      27.802  31.258  22.771  1.00  0.00    -0.049 Br
ATOM     91  Cl  UNL A   1      26.442  28.298  23.607  1.00  0.00    -0.083 Cl
ENDBRANCH  82  84
ENDBRANCH  79  80
ENDBRANCH  74  77
ENDBRANCH  72  73
ENDBRANCH   1  72
TORSDOF 12
ENDMDL
MODEL 2
REMARK VINA RESULT:     -11.9      3.361      8.712
REMARK SMILES O=C(NCCCNC(=O)[C@H]1C[C@@H]1C(=O)Nc1ccc(Cl)c(Br)c1)c1ccc(-c2c3nc(c(-c4c(F)c(F)c(F)c(F)c4F)c4ccc([nH]4)c(-c4c(F)c(F)c(F)c(F)c4F)c4nc(c(-c5c(F)c(F)c(F)c(F)c5F)c5ccc2[nH]5)C=C4)C=C3)cc1
REMARK SMILES IDX 5 1 4 2 3 3 1 4 2 5 24 7 25 8 86 9 26 10 85 11 27 12 28 13
REMARK SMILES IDX 29 14 79 15 30 16 84 17 78 18 80 19 31 20 83 21 77 22 76 23
REMARK SMILES IDX 32 25 64 26 44 27 63 28 45 29 48 30 62 31 81 32 46 33 47 34
REMARK SMILES IDX 61 36 82 37 49 38 33 39 34 40 42 41 35 42 36 43 40 44 43 45
REMARK SMILES IDX 37 46 38 47 41 48 39 49 65 50 66 51 74 52 67 53 68 54 72 55
REMARK SMILES IDX 75 56 69 57 70 58 73 59 71 60 50 61 51 62 59 63 52 64 53 65
REMARK SMILES IDX 57 66 60 67 54 68 55 69 58 70 56 71 6 72 7 73 8 74 9 76
REMARK SMILES IDX 10 77 11 78 12 79 13 80 14 81 15 82 16 84 17 85 23 86 18 87
REMARK SMILES IDX 21 88 19 89 22 90 20 91
REMARK H PARENT 3 6 80 24 48 35 7 75 15 83
REMARK Flexibility Score: inf
ROOT
ATOM      1  C   UNL A   1      33.445  28.942  23.390  1.00  0.00     0.042 C 
ENDROOT
BRANCH   1   2
ATOM      2  C   UNL A   1      33.568  28.972  24.908  1.00  0.00     0.118 C 
BRANCH   2   3
ATOM      3  N   UNL A   1      32.978  30.161  25.503  1.00  0.00    -0.352 N 
ATOM      4  O   UNL A   1      32.525  31.722  27.046  1.00  0.00    -0.269 OA
ATOM      5  C   UNL A   1      33.277  30.829  26.663  1.00  0.00     0.251 C 
ATOM      6  H   UNL A   1      32.238  30.552  24.986  1.00  0.00     0.163 HD
BRANCH   5   7
ATOM      7  C   UNL A   1      34.475  30.493  27.468  1.00  0.00     0.039 A 
ATOM      8  C   UNL A   1      35.463  31.472  27.626  1.00  0.00     0.014 A 
ATOM      9  C   UNL A   1      34.676  29.217  28.002  1.00  0.00     0.014 A 
ATOM     10  C   UNL A   1      36.624  31.185  28.348  1.00  0.00     0.010 A 
ATOM     11  C   UNL A   1      35.799  28.955  28.788  1.00  0.00     0.010 A 
ATOM     12  C   UNL A   1      36.792  29.930  28.952  1.00  0.00    -0.014 A 
BRANCH  12  13
ATOM     13  C   UNL A   1      38.031  29.602  29.703  1.00  0.00     0.031 A 
ATOM     14  C   UNL A   1      38.245  30.168  31.080  1.00  0.00     0.074 A 
ATOM     15  C   UNL A   1      38.974  28.822  29.141  1.00  0.00     0.049 A 
ATOM     16  N   UNL A   1      39.285  30.054  31.869  1.00  0.00    -0.248 NA
ATOM     17  C   UNL A   1      37.158  30.989  31.637  1.00  0.00     0.031 C 
ATOM     18  C   UNL A   1      38.903  28.235  27.804  1.00  0.00     0.029 A 
ATOM     19  N   UNL A   1      40.181  28.386  29.632  1.00  0.00    -0.354 N 
ATOM     20  C   UNL A   1      38.990  30.814  32.993  1.00  0.00     0.074 A 
ATOM     21  C   UNL A   1      37.688  31.406  32.777  1.00  0.00     0.031 C 
ATOM     22  C   UNL A   1      39.999  27.487  27.593  1.00  0.00     0.029 A 
ATOM     23  C   UNL A   1      40.862  27.564  28.769  1.00  0.00     0.049 A 
ATOM     24  H   UNL A   1      40.524  28.639  30.519  1.00  0.00     0.167 HD
ATOM     25  C   UNL A   1      39.729  30.987  34.113  1.00  0.00     0.037 A 
ATOM     26  C   UNL A   1      42.045  26.939  28.913  1.00  0.00     0.037 A 
ATOM     27  C   UNL A   1      40.994  30.350  34.360  1.00  0.00     0.049 A 
ATOM     28  C   UNL A   1      42.823  27.105  30.189  1.00  0.00     0.074 A 
ATOM     29  C   UNL A   1      41.794  30.430  35.486  1.00  0.00     0.029 A 
ATOM     30  N   UNL A   1      41.630  29.498  33.472  1.00  0.00    -0.354 N 
ATOM     31  N   UNL A   1      42.523  27.812  31.251  1.00  0.00    -0.248 NA
ATOM     32  C   UNL A   1      44.101  26.386  30.289  1.00  0.00     0.031 C 
ATOM     33  C   UNL A   1      42.923  29.633  35.276  1.00  0.00     0.029 A 
ATOM     34  C   UNL A   1      42.813  29.041  34.028  1.00  0.00     0.049 A 
ATOM     35  H   UNL A   1      41.293  29.253  32.581  1.00  0.00     0.167 HD
ATOM     36  C   UNL A   1      43.560  27.608  32.148  1.00  0.00     0.074 A 
ATOM     37  C   UNL A   1      44.497  26.706  31.513  1.00  0.00     0.031 C 
ATOM     38  C   UNL A   1      43.720  28.126  33.389  1.00  0.00     0.037 A 
BRANCH  25  39
ATOM     39  C   UNL A   1      39.181  31.891  35.173  1.00  0.00     0.064 A 
ATOM     40  C   UNL A   1      38.438  31.386  36.249  1.00  0.00     0.173 A 
ATOM     41  C   UNL A   1      39.448  33.268  35.141  1.00  0.00     0.173 A 
ATOM     42  F   UNL A   1      38.147  30.078  36.312  1.00  0.00    -0.203 F 
ATOM     43  C   UNL A   1      37.971  32.230  37.251  1.00  0.00     0.198 A 
ATOM     44  C   UNL A   1      38.996  34.106  36.157  1.00  0.00     0.198 A 
ATOM     45  F   UNL A   1      40.158  33.796  34.133  1.00  0.00    -0.203 F 
ATOM     46  F   UNL A   1      37.239  31.731  38.258  1.00  0.00    -0.200 F 
ATOM     47  C   UNL A   1      38.256  33.587  37.209  1.00  0.00     0.200 A 
ATOM     48  F   UNL A   1      39.278  35.415  36.119  1.00  0.00    -0.200 F 
ATOM     49  F   UNL A   1      37.813  34.396  38.181  1.00  0.00    -0.200 F 
ENDBRANCH  25  39
BRANCH  26  50
ATOM     50  C   UNL A   1      42.543  26.053  27.834  1.00  0.00     0.064 A 
ATOM     51  C   UNL A   1      43.461  26.530  26.889  1.00  0.00     0.173 A 
ATOM     52  C   UNL A   1      42.128  24.719  27.732  1.00  0.00     0.173 A 
ATOM     53  F   UNL A   1      43.870  27.807  26.939  1.00  0.00    -0.203 F 
ATOM     54  C   UNL A   1      43.942  25.705  25.875  1.00  0.00     0.198 A 
ATOM     55  C   UNL A   1      42.622  23.889  26.727  1.00  0.00     0.198 A 
ATOM     56  F   UNL A   1      41.253  24.218  28.616  1.00  0.00    -0.203 F 
ATOM     57  F   UNL A   1      44.799  26.193  24.968  1.00  0.00    -0.200 F 
ATOM     58  C   UNL A   1      43.526  24.384  25.797  1.00  0.00     0.200 A 
ATOM     59  F   UNL A   1      42.225  22.612  26.659  1.00  0.00    -0.200 F 
ATOM     60  F   UNL A   1      43.991  23.590  24.825  1.00  0.00    -0.200 F 
ENDBRANCH  26  50
BRANCH  38  61
ATOM     61  C   UNL A   1      44.933  27.712  34.162  1.00  0.00     0.064 A 
ATOM     62  C   UNL A   1      46.114  28.464  34.116  1.00  0.00     0.173 A 
ATOM     63  C   UNL A   1      44.882  26.605  35.020  1.00  0.00     0.173 A 
ATOM     64  F   UNL A   1      46.206  29.526  33.301  1.00  0.00    -0.203 F 
ATOM     65  C   UNL A   1      47.206  28.119  34.905  1.00  0.00     0.198 A 
ATOM     66  C   UNL A   1      45.973  26.271  35.818  1.00  0.00     0.198 A 
ATOM     67  F   UNL A   1      43.769  25.859  35.098  1.00  0.00    -0.203 F 
ATOM     68  F   UNL A   1      48.333  28.843  34.840  1.00  0.00    -0.200 F 
ATOM     69  C   UNL A   1      47.133  27.029  35.760  1.00  0.00     0.200 A 
ATOM     70  F   UNL A   1      45.898  25.222  36.648  1.00  0.00    -0.200 F 
ATOM     71  F   UNL A   1      48.183  26.708  36.529  1.00  0.00    -0.200 F 
ENDBRANCH  38  61
ENDBRANCH  12  13
ENDBRANCH   5   7
ENDBRANCH   2   3
ENDBRANCH   1   2
BRANCH   1  72
ATOM     72  C   UNL A   1      32.334  28.045  22.862  1.00  0.00     0.117 C 
BRANCH  72  73
ATOM     73  N   UNL A   1      32.769  27.240  21.737  1.00  0.00    -0.356 N 
ATOM     74  C   UNL A   1      32.792  25.885  21.588  1.00  0.00     0.223 C 
ATOM     75  H   UNL A   1      33.099  27.750  20.963  1.00  0.00     0.163 HD
ATOM     76  O   UNL A   1      33.278  25.389  20.577  1.00  0.00    -0.275 OA
BRANCH  74  77
ATOM     77  C   UNL A   1      32.180  25.013  22.620  1.00  0.00     0.091 C 
ATOM     78  C   UNL A   1      32.600  23.578  22.811  1.00  0.00     0.028 C 
ATOM     79  C   UNL A   1      33.098  24.628  23.772  1.00  0.00     0.092 C 
BRANCH  79  80
ATOM     80  C   UNL A   1      32.650  24.521  25.178  1.00  0.00     0.228 C 
ATOM     81  O   UNL A   1      31.625  25.085  25.548  1.00  0.00    -0.274 OA
ATOM     82  N   UNL A   1      33.316  23.639  26.001  1.00  0.00    -0.326 N 
ATOM     83  H   UNL A   1      32.865  23.434  26.852  1.00  0.00     0.169 HD
BRANCH  82  84
ATOM     84  C   UNL A   1      34.547  22.989  25.800  1.00  0.00     0.042 A 
ATOM     85  C   UNL A   1      34.651  21.696  25.281  1.00  0.00     0.028 A 
ATOM     86  C   UNL A   1      35.716  23.691  26.104  1.00  0.00     0.043 A 
ATOM     87  C   UNL A   1      35.897  21.078  25.150  1.00  0.00     0.024 A 
ATOM     88  C   UNL A   1      36.968  23.071  25.985  1.00  0.00     0.038 A 
ATOM     89  C   UNL A   1      37.059  21.755  25.518  1.00  0.00     0.055 A 
ATOM     90  Br  UNL A   1      38.495  24.077  26.501  1.00  0.00    -0.049 Br
ATOM     91  Cl  UNL A   1      38.557  20.913  25.360  1.00  0.00    -0.083 Cl
ENDBRANCH  82  84
ENDBRANCH  79  80
ENDBRANCH  74  77
ENDBRANCH  72  73
ENDBRANCH   1  72
TORSDOF 12
ENDMDL
MODEL 3
REMARK VINA RESULT:     -11.9      0.114      1.988
REMARK SMILES O=C(NCCCNC(=O)[C@H]1C[C@@H]1C(=O)Nc1ccc(Cl)c(Br)c1)c1ccc(-c2c3nc(c(-c4c(F)c(F)c(F)c(F)c4F)c4ccc([nH]4)c(-c4c(F)c(F)c(F)c(F)c4F)c4nc(c(-c5c(F)c(F)c(F)c(F)c5F)c5ccc2[nH]5)C=C4)C=C3)cc1
REMARK SMILES IDX 5 1 4 2 3 3 1 4 2 5 24 7 25 8 86 9 26 10 85 11 27 12 28 13
REMARK SMILES IDX 29 14 79 15 30 16 84 17 78 18 80 19 31 20 83 21 77 22 76 23
REMARK SMILES IDX 32 25 64 26 44 27 63 28 45 29 48 30 62 31 81 32 46 33 47 34
REMARK SMILES IDX 61 36 82 37 49 38 33 39 34 40 42 41 35 42 36 43 40 44 43 45
REMARK SMILES IDX 37 46 38 47 41 48 39 49 65 50 66 51 74 52 67 53 68 54 72 55
REMARK SMILES IDX 75 56 69 57 70 58 73 59 71 60 50 61 51 62 59 63 52 64 53 65
REMARK SMILES IDX 57 66 60 67 54 68 55 69 58 70 56 71 6 72 7 73 8 74 9 76
REMARK SMILES IDX 10 77 11 78 12 79 13 80 14 81 15 82 16 84 17 85 23 86 18 87
REMARK SMILES IDX 21 88 19 89 22 90 20 91
REMARK H PARENT 3 6 80 24 48 35 7 75 15 83
REMARK Flexibility Score: inf
ROOT
ATOM      1  C   UNL A   1      31.165  32.415  26.496  1.00  0.00     0.042 C 
ENDROOT
BRANCH   1   2
ATOM      2  C   UNL A   1      32.433  32.900  27.189  1.00  0.00     0.118 C 
BRANCH   2   3
ATOM      3  N   UNL A   1      32.345  34.284  27.629  1.00  0.00    -0.352 N 
ATOM      4  O   UNL A   1      32.647  36.090  28.922  1.00  0.00    -0.269 OA
ATOM      5  C   UNL A   1      33.011  34.955  28.623  1.00  0.00     0.251 C 
ATOM      6  H   UNL A   1      31.697  34.831  27.130  1.00  0.00     0.163 HD
BRANCH   5   7
ATOM      7  C   UNL A   1      34.149  34.343  29.349  1.00  0.00     0.039 A 
ATOM      8  C   UNL A   1      35.439  34.534  28.841  1.00  0.00     0.014 A 
ATOM      9  C   UNL A   1      33.962  33.527  30.467  1.00  0.00     0.014 A 
ATOM     10  C   UNL A   1      36.536  33.946  29.474  1.00  0.00     0.010 A 
ATOM     11  C   UNL A   1      35.064  33.003  31.144  1.00  0.00     0.010 A 
ATOM     12  C   UNL A   1      36.359  33.191  30.643  1.00  0.00    -0.014 A 
BRANCH  12  13
ATOM     13  C   UNL A   1      37.512  32.539  31.315  1.00  0.00     0.031 A 
ATOM     14  C   UNL A   1      38.282  31.460  30.604  1.00  0.00     0.074 A 
ATOM     15  C   UNL A   1      37.852  32.895  32.569  1.00  0.00     0.049 A 
ATOM     16  N   UNL A   1      39.275  30.726  31.044  1.00  0.00    -0.248 NA
ATOM     17  C   UNL A   1      37.869  31.146  29.227  1.00  0.00     0.031 C 
ATOM     18  C   UNL A   1      37.170  33.904  33.378  1.00  0.00     0.029 A 
ATOM     19  N   UNL A   1      38.862  32.444  33.382  1.00  0.00    -0.354 N 
ATOM     20  C   UNL A   1      39.578  29.847  30.013  1.00  0.00     0.074 A 
ATOM     21  C   UNL A   1      38.651  30.117  28.936  1.00  0.00     0.031 C 
ATOM     22  C   UNL A   1      37.802  34.023  34.557  1.00  0.00     0.029 A 
ATOM     23  C   UNL A   1      38.915  33.079  34.598  1.00  0.00     0.049 A 
ATOM     24  H   UNL A   1      39.490  31.733  33.118  1.00  0.00     0.167 HD
ATOM     25  C   UNL A   1      40.554  28.912  29.960  1.00  0.00     0.037 A 
ATOM     26  C   UNL A   1      39.770  32.921  35.626  1.00  0.00     0.037 A 
ATOM     27  C   UNL A   1      41.519  28.682  31.001  1.00  0.00     0.049 A 
ATOM     28  C   UNL A   1      40.879  31.911  35.522  1.00  0.00     0.074 A 
ATOM     29  C   UNL A   1      42.573  27.786  31.018  1.00  0.00     0.029 A 
ATOM     30  N   UNL A   1      41.556  29.372  32.202  1.00  0.00    -0.354 N 
ATOM     31  N   UNL A   1      41.165  31.100  34.534  1.00  0.00    -0.248 NA
ATOM     32  C   UNL A   1      41.785  31.797  36.674  1.00  0.00     0.031 C 
ATOM     33  C   UNL A   1      43.245  27.927  32.236  1.00  0.00     0.029 A 
ATOM     34  C   UNL A   1      42.620  28.925  32.967  1.00  0.00     0.049 A 
ATOM     35  H   UNL A   1      40.923  30.076  32.472  1.00  0.00     0.167 HD
ATOM     36  C   UNL A   1      42.290  30.395  34.934  1.00  0.00     0.074 A 
ATOM     37  C   UNL A   1      42.643  30.877  36.254  1.00  0.00     0.031 C 
ATOM     38  C   UNL A   1      42.969  29.432  34.266  1.00  0.00     0.037 A 
BRANCH  25  39
ATOM     39  C   UNL A   1      40.644  28.071  28.725  1.00  0.00     0.064 A 
ATOM     40  C   UNL A   1      41.457  28.445  27.646  1.00  0.00     0.173 A 
ATOM     41  C   UNL A   1      39.954  26.852  28.643  1.00  0.00     0.173 A 
ATOM     42  F   UNL A   1      42.123  29.608  27.677  1.00  0.00    -0.203 F 
ATOM     43  C   UNL A   1      41.566  27.634  26.521  1.00  0.00     0.198 A 
ATOM     44  C   UNL A   1      40.082  26.034  27.524  1.00  0.00     0.198 A 
ATOM     45  F   UNL A   1      39.167  26.451  29.652  1.00  0.00    -0.203 F 
ATOM     46  F   UNL A   1      42.327  28.023  25.488  1.00  0.00    -0.200 F 
ATOM     47  C   UNL A   1      40.885  26.427  26.463  1.00  0.00     0.200 A 
ATOM     48  F   UNL A   1      39.430  24.865  27.472  1.00  0.00    -0.200 F 
ATOM     49  F   UNL A   1      41.000  25.643  25.382  1.00  0.00    -0.200 F 
ENDBRANCH  25  39
BRANCH  26  50
ATOM     50  C   UNL A   1      39.640  33.780  36.827  1.00  0.00     0.064 A 
ATOM     51  C   UNL A   1      40.271  35.031  36.879  1.00  0.00     0.173 A 
ATOM     52  C   UNL A   1      38.877  33.383  37.933  1.00  0.00     0.173 A 
ATOM     53  F   UNL A   1      41.027  35.441  35.850  1.00  0.00    -0.203 F 
ATOM     54  C   UNL A   1      40.150  35.850  37.998  1.00  0.00     0.198 A 
ATOM     55  C   UNL A   1      38.743  34.210  39.046  1.00  0.00     0.198 A 
ATOM     56  F   UNL A   1      38.253  32.196  37.926  1.00  0.00    -0.203 F 
ATOM     57  F   UNL A   1      40.785  37.029  38.035  1.00  0.00    -0.200 F 
ATOM     58  C   UNL A   1      39.382  35.442  39.079  1.00  0.00     0.200 A 
ATOM     59  F   UNL A   1      37.994  33.817  40.085  1.00  0.00    -0.200 F 
ATOM     60  F   UNL A   1      39.262  36.231  40.154  1.00  0.00    -0.200 F 
ENDBRANCH  26  50
BRANCH  38  61
ATOM     61  C   UNL A   1      44.180  28.852  34.926  1.00  0.00     0.064 A 
ATOM     62  C   UNL A   1      45.446  29.426  34.752  1.00  0.00     0.173 A 
ATOM     63  C   UNL A   1      44.056  27.768  35.807  1.00  0.00     0.173 A 
ATOM     64  F   UNL A   1      45.609  30.458  33.911  1.00  0.00    -0.203 F 
ATOM     65  C   UNL A   1      46.550  28.931  35.438  1.00  0.00     0.198 A 
ATOM     66  C   UNL A   1      45.160  27.285  36.502  1.00  0.00     0.198 A 
ATOM     67  F   UNL A   1      42.860  27.192  36.006  1.00  0.00    -0.203 F 
ATOM     68  F   UNL A   1      47.757  29.483  35.251  1.00  0.00    -0.200 F 
ATOM     69  C   UNL A   1      46.406  27.867  36.318  1.00  0.00     0.200 A 
ATOM     70  F   UNL A   1      45.018  26.262  37.356  1.00  0.00    -0.200 F 
ATOM     71  F   UNL A   1      47.469  27.402  36.989  1.00  0.00    -0.200 F 
ENDBRANCH  38  61
ENDBRANCH  12  13
ENDBRANCH   5   7
ENDBRANCH   2   3
ENDBRANCH   1   2
BRANCH   1  72
ATOM     72  C   UNL A   1      31.258  31.009  25.918  1.00  0.00     0.117 C 
BRANCH  72  73
ATOM     73  N   UNL A   1      31.708  30.044  26.901  1.00  0.00    -0.356 N 
ATOM     74  C   UNL A   1      32.703  29.115  26.824  1.00  0.00     0.223 C 
ATOM     75  H   UNL A   1      31.219  30.060  27.756  1.00  0.00     0.163 HD
ATOM     76  O   UNL A   1      32.878  28.327  27.747  1.00  0.00    -0.275 OA
BRANCH  74  77
ATOM     77  C   UNL A   1      33.609  29.092  25.650  1.00  0.00     0.091 C 
ATOM     78  C   UNL A   1      34.415  27.874  25.280  1.00  0.00     0.028 C 
ATOM     79  C   UNL A   1      33.164  28.196  24.503  1.00  0.00     0.092 C 
BRANCH  79  80
ATOM     80  C   UNL A   1      33.329  28.547  23.075  1.00  0.00     0.228 C 
ATOM     81  O   UNL A   1      34.449  28.709  22.601  1.00  0.00    -0.274 OA
ATOM     82  N   UNL A   1      32.211  28.511  22.270  1.00  0.00    -0.326 N 
ATOM     83  H   UNL A   1      32.388  28.536  21.301  1.00  0.00     0.169 HD
BRANCH  82  84
ATOM     84  C   UNL A   1      30.854  28.445  22.632  1.00  0.00     0.042 A 
ATOM     85  C   UNL A   1      30.224  27.260  23.022  1.00  0.00     0.028 A 
ATOM     86  C   UNL A   1      30.117  29.633  22.633  1.00  0.00     0.043 A 
ATOM     87  C   UNL A   1      28.860  27.242  23.322  1.00  0.00     0.024 A 
ATOM     88  C   UNL A   1      28.745  29.618  22.923  1.00  0.00     0.038 A 
ATOM     89  C   UNL A   1      28.111  28.416  23.256  1.00  0.00     0.055 A 
ATOM     90  Br  UNL A   1      27.811  31.268  22.817  1.00  0.00    -0.049 Br
ATOM     91  Cl  UNL A   1      26.425  28.307  23.607  1.00  0.00    -0.083 Cl
ENDBRANCH  82  84
ENDBRANCH  79  80
ENDBRANCH  74  77
ENDBRANCH  72  73
ENDBRANCH   1  72
TORSDOF 12
ENDMDL
