MODEL 1
REMARK VINA RESULT:     -12.8      0.000      0.000
REMARK SMILES CCCc1nc(C)cc(N2CCC(C(=O)NCCCNC(=O)c3ccc(-c4c5nc(c(-c6c(F)c(F)c(F)c(F)c6F)c6ccc([nH]6)c(-c6c(F)c(F)c(F)c(F)c6F)c6nc(c(-c7c(F)c(F)c(F)c(F)c7F)c7ccc4[nH]7)C=C6)C=C5)cc3)(n3ccc(C(C)C)n3)CC2)n1
REMARK SMILES IDX 17 1 16 2 14 3 15 4 13 6 10 7 11 8 95 9 12 10 94 11 9 12
REMARK SMILES IDX 4 13 5 14 96 15 6 16 7 17 8 18 3 19 2 20 1 21 86 22 87 23
REMARK SMILES IDX 93 24 88 25 89 26 90 27 91 28 92 29 18 30 19 31 20 32 21 33
REMARK SMILES IDX 22 35 23 36 24 37 85 38 25 39 84 40 26 41 27 42 28 43 78 44
REMARK SMILES IDX 29 45 83 46 77 47 79 48 30 49 82 50 76 51 75 52 31 54 63 55
REMARK SMILES IDX 43 56 62 57 44 58 47 59 61 60 80 61 45 62 46 63 60 65 81 66
REMARK SMILES IDX 48 67 32 68 33 69 41 70 34 71 35 72 39 73 42 74 36 75 37 76
REMARK SMILES IDX 40 77 38 78 64 79 65 80 73 81 66 82 67 83 71 84 74 85 68 86
REMARK SMILES IDX 69 87 72 88 70 89 49 90 50 91 58 92 51 93 52 94 56 95 59 96
REMARK SMILES IDX 53 97 54 98 57 99 55 100
REMARK H PARENT 16 5 20 34 79 53 47 64
REMARK Flexibility Score: inf
ROOT
ATOM      1  C   UNL A   1      36.971  20.617  25.021  1.00  0.00     0.117 C 
ENDROOT
BRANCH   1   2
ATOM      2  N   UNL A   1      37.018  21.616  23.957  1.00  0.00    -0.354 N 
ATOM      3  C   UNL A   1      36.139  22.578  23.518  1.00  0.00     0.248 C 
ATOM      4  O   UNL A   1      36.596  23.243  22.587  1.00  0.00    -0.272 OA
ATOM      5  H   UNL A   1      37.858  21.595  23.444  1.00  0.00     0.163 HD
BRANCH   3   6
ATOM      6  C   UNL A   1      34.744  22.794  24.200  1.00  0.00     0.144 C 
ATOM      7  N   UNL A   1      33.201  25.153  24.590  1.00  0.00    -0.356 N 
ATOM      8  C   UNL A   1      33.825  24.634  25.792  1.00  0.00     0.121 C 
ATOM      9  C   UNL A   1      32.697  24.240  23.586  1.00  0.00     0.121 C 
ATOM     10  C   UNL A   1      34.970  23.695  25.444  1.00  0.00     0.062 C 
ATOM     11  C   UNL A   1      33.832  23.370  23.084  1.00  0.00     0.062 C 
BRANCH   7  12
ATOM     12  C   UNL A   1      32.523  26.349  24.753  1.00  0.00     0.132 A 
ATOM     13  C   UNL A   1      31.021  27.850  23.885  1.00  0.00     0.130 A 
ATOM     14  N   UNL A   1      31.029  28.619  24.989  1.00  0.00    -0.238 NA
ATOM     15  N   UNL A   1      31.748  26.732  23.732  1.00  0.00    -0.216 NA
ATOM     16  C   UNL A   1      31.831  28.226  25.998  1.00  0.00     0.043 A 
ATOM     17  C   UNL A   1      31.803  29.046  27.251  1.00  0.00     0.067 C 
ATOM     18  C   UNL A   1      32.602  27.085  25.918  1.00  0.00     0.070 A 
BRANCH  13  19
ATOM     19  C   UNL A   1      30.022  28.180  22.808  1.00  0.00     0.077 C 
BRANCH  19  20
ATOM     20  C   UNL A   1      29.440  29.596  22.869  1.00  0.00     0.005 C 
ATOM     21  C   UNL A   1      28.036  29.724  22.292  1.00  0.00     0.004 C 
ENDBRANCH  19  20
ENDBRANCH  13  19
ENDBRANCH   7  12
BRANCH   6  22
ATOM     22  N   UNL A   1      34.081  21.541  24.695  1.00  0.00    -0.257 N 
ATOM     23  C   UNL A   1      33.779  21.241  26.005  1.00  0.00     0.110 A 
ATOM     24  N   UNL A   1      33.699  20.548  23.874  1.00  0.00    -0.177 NA
ATOM     25  C   UNL A   1      33.156  20.020  26.010  1.00  0.00     0.045 A 
ATOM     26  C   UNL A   1      33.136  19.626  24.659  1.00  0.00     0.065 A 
BRANCH  26  27
ATOM     27  C   UNL A   1      32.587  18.358  24.077  1.00  0.00     0.034 C 
ATOM     28  C   UNL A   1      32.425  18.476  22.559  1.00  0.00     0.014 C 
ATOM     29  C   UNL A   1      33.467  17.157  24.431  1.00  0.00     0.014 C 
ENDBRANCH  26  27
ENDBRANCH   6  22
ENDBRANCH   3   6
ENDBRANCH   1   2
BRANCH   1  30
ATOM     30  C   UNL A   1      38.187  19.696  25.000  1.00  0.00     0.042 C 
BRANCH  30  31
ATOM     31  C   UNL A   1      39.187  19.946  26.123  1.00  0.00     0.118 C 
BRANCH  31  32
ATOM     32  N   UNL A   1      40.321  19.034  26.082  1.00  0.00    -0.352 N 
ATOM     33  C   UNL A   1      41.667  19.290  26.125  1.00  0.00     0.251 C 
ATOM     34  H   UNL A   1      40.084  18.080  26.014  1.00  0.00     0.163 HD
ATOM     35  O   UNL A   1      42.464  18.376  25.898  1.00  0.00    -0.269 OA
BRANCH  33  36
ATOM     36  C   UNL A   1      42.181  20.645  26.419  1.00  0.00     0.039 A 
ATOM     37  C   UNL A   1      42.361  21.540  25.358  1.00  0.00     0.014 A 
ATOM     38  C   UNL A   1      42.530  21.030  27.715  1.00  0.00     0.014 A 
ATOM     39  C   UNL A   1      42.832  22.831  25.606  1.00  0.00     0.010 A 
ATOM     40  C   UNL A   1      42.920  22.344  27.973  1.00  0.00     0.010 A 
ATOM     41  C   UNL A   1      43.085  23.256  26.920  1.00  0.00    -0.014 A 
BRANCH  41  42
ATOM     42  C   UNL A   1      43.542  24.640  27.208  1.00  0.00     0.031 A 
ATOM     43  C   UNL A   1      42.578  25.661  27.749  1.00  0.00     0.074 A 
ATOM     44  C   UNL A   1      44.811  24.995  26.929  1.00  0.00     0.049 A 
ATOM     45  N   UNL A   1      42.772  26.930  28.008  1.00  0.00    -0.248 NA
ATOM     46  C   UNL A   1      41.206  25.200  28.009  1.00  0.00     0.031 C 
ATOM     47  C   UNL A   1      45.830  24.116  26.355  1.00  0.00     0.029 A 
ATOM     48  N   UNL A   1      45.460  26.196  27.085  1.00  0.00    -0.354 N 
ATOM     49  C   UNL A   1      41.546  27.419  28.440  1.00  0.00     0.074 A 
ATOM     50  C   UNL A   1      40.602  26.327  28.358  1.00  0.00     0.031 C 
ATOM     51  C   UNL A   1      46.981  24.797  26.231  1.00  0.00     0.029 A 
ATOM     52  C   UNL A   1      46.772  26.169  26.683  1.00  0.00     0.049 A 
ATOM     53  H   UNL A   1      45.024  27.000  27.450  1.00  0.00     0.167 HD
ATOM     54  C   UNL A   1      41.240  28.661  28.887  1.00  0.00     0.037 A 
ATOM     55  C   UNL A   1      47.704  27.142  26.679  1.00  0.00     0.037 A 
ATOM     56  C   UNL A   1      42.187  29.738  28.999  1.00  0.00     0.049 A 
ATOM     57  C   UNL A   1      47.341  28.508  27.195  1.00  0.00     0.074 A 
ATOM     58  C   UNL A   1      41.989  31.016  29.495  1.00  0.00     0.029 A 
ATOM     59  N   UNL A   1      43.516  29.664  28.609  1.00  0.00    -0.354 N 
ATOM     60  N   UNL A   1      46.196  28.941  27.662  1.00  0.00    -0.248 NA
ATOM     61  C   UNL A   1      48.408  29.520  27.193  1.00  0.00     0.031 C 
ATOM     62  C   UNL A   1      43.188  31.725  29.370  1.00  0.00     0.029 A 
ATOM     63  C   UNL A   1      44.146  30.877  28.840  1.00  0.00     0.049 A 
ATOM     64  H   UNL A   1      43.948  28.867  28.224  1.00  0.00     0.167 HD
ATOM     65  C   UNL A   1      46.410  30.261  28.036  1.00  0.00     0.074 A 
ATOM     66  C   UNL A   1      47.800  30.555  27.754  1.00  0.00     0.031 C 
ATOM     67  C   UNL A   1      45.534  31.150  28.564  1.00  0.00     0.037 A 
BRANCH  54  68
ATOM     68  C   UNL A   1      39.819  28.917  29.301  1.00  0.00     0.064 A 
ATOM     69  C   UNL A   1      39.384  28.696  30.616  1.00  0.00     0.173 A 
ATOM     70  C   UNL A   1      38.888  29.419  28.379  1.00  0.00     0.173 A 
ATOM     71  F   UNL A   1      40.232  28.206  31.534  1.00  0.00    -0.203 F 
ATOM     72  C   UNL A   1      38.063  28.937  30.985  1.00  0.00     0.198 A 
ATOM     73  C   UNL A   1      37.576  29.688  28.760  1.00  0.00     0.198 A 
ATOM     74  F   UNL A   1      39.252  29.656  27.109  1.00  0.00    -0.203 F 
ATOM     75  F   UNL A   1      37.660  28.668  32.235  1.00  0.00    -0.200 F 
ATOM     76  C   UNL A   1      37.163  29.439  30.060  1.00  0.00     0.200 A 
ATOM     77  F   UNL A   1      36.709  30.187  27.866  1.00  0.00    -0.200 F 
ATOM     78  F   UNL A   1      35.892  29.676  30.418  1.00  0.00    -0.200 F 
ENDBRANCH  54  68
BRANCH  55  79
ATOM     79  C   UNL A   1      49.081  26.850  26.203  1.00  0.00     0.064 A 
ATOM     80  C   UNL A   1      50.070  26.414  27.096  1.00  0.00     0.173 A 
ATOM     81  C   UNL A   1      49.437  27.002  24.856  1.00  0.00     0.173 A 
ATOM     82  F   UNL A   1      49.782  26.273  28.398  1.00  0.00    -0.203 F 
ATOM     83  C   UNL A   1      51.370  26.163  26.662  1.00  0.00     0.198 A 
ATOM     84  C   UNL A   1      50.730  26.724  24.419  1.00  0.00     0.198 A 
ATOM     85  F   UNL A   1      48.525  27.412  23.963  1.00  0.00    -0.203 F 
ATOM     86  F   UNL A   1      52.308  25.791  27.544  1.00  0.00    -0.200 F 
ATOM     87  C   UNL A   1      51.698  26.312  25.323  1.00  0.00     0.200 A 
ATOM     88  F   UNL A   1      51.040  26.858  23.122  1.00  0.00    -0.200 F 
ATOM     89  F   UNL A   1      52.947  26.068  24.906  1.00  0.00    -0.200 F 
ENDBRANCH  55  79
BRANCH  67  90
ATOM     90  C   UNL A   1      46.062  32.511  28.911  1.00  0.00     0.064 A 
ATOM     91  C   UNL A   1      46.003  33.578  28.002  1.00  0.00     0.173 A 
ATOM     92  C   UNL A   1      46.605  32.758  30.180  1.00  0.00     0.173 A 
ATOM     93  F   UNL A   1      45.506  33.388  26.770  1.00  0.00    -0.203 F 
ATOM     94  C   UNL A   1      46.496  34.835  28.342  1.00  0.00     0.198 A 
ATOM     95  C   UNL A   1      47.070  34.023  30.527  1.00  0.00     0.198 A 
ATOM     96  F   UNL A   1      46.677  31.773  31.088  1.00  0.00    -0.203 F 
ATOM     97  F   UNL A   1      46.476  35.826  27.439  1.00  0.00    -0.200 F 
ATOM     98  C   UNL A   1      47.023  35.058  29.606  1.00  0.00     0.200 A 
ATOM     99  F   UNL A   1      47.566  34.241  31.753  1.00  0.00    -0.200 F 
ATOM    100  F   UNL A   1      47.493  36.269  29.932  1.00  0.00    -0.200 F 
ENDBRANCH  67  90
ENDBRANCH  41  42
ENDBRANCH  33  36
ENDBRANCH  31  32
ENDBRANCH  30  31
ENDBRANCH   1  30
TORSDOF 15
ENDMDL
MODEL 2
REMARK VINA RESULT:     -12.7      0.561      7.217
REMARK SMILES CCCc1nc(C)cc(N2CCC(C(=O)NCCCNC(=O)c3ccc(-c4c5nc(c(-c6c(F)c(F)c(F)c(F)c6F)c6ccc([nH]6)c(-c6c(F)c(F)c(F)c(F)c6F)c6nc(c(-c7c(F)c(F)c(F)c(F)c7F)c7ccc4[nH]7)C=C6)C=C5)cc3)(n3ccc(C(C)C)n3)CC2)n1
REMARK SMILES IDX 17 1 16 2 14 3 15 4 13 6 10 7 11 8 95 9 12 10 94 11 9 12
REMARK SMILES IDX 4 13 5 14 96 15 6 16 7 17 8 18 3 19 2 20 1 21 86 22 87 23
REMARK SMILES IDX 93 24 88 25 89 26 90 27 91 28 92 29 18 30 19 31 20 32 21 33
REMARK SMILES IDX 22 35 23 36 24 37 85 38 25 39 84 40 26 41 27 42 28 43 78 44
REMARK SMILES IDX 29 45 83 46 77 47 79 48 30 49 82 50 76 51 75 52 31 54 63 55
REMARK SMILES IDX 43 56 62 57 44 58 47 59 61 60 80 61 45 62 46 63 60 65 81 66
REMARK SMILES IDX 48 67 32 68 33 69 41 70 34 71 35 72 39 73 42 74 36 75 37 76
REMARK SMILES IDX 40 77 38 78 64 79 65 80 73 81 66 82 67 83 71 84 74 85 68 86
REMARK SMILES IDX 69 87 72 88 70 89 49 90 50 91 58 92 51 93 52 94 56 95 59 96
REMARK SMILES IDX 53 97 54 98 57 99 55 100
REMARK H PARENT 16 5 20 34 79 53 47 64
REMARK Flexibility Score: inf
ROOT
ATOM      1  C   UNL A   1      36.979  20.633  24.996  1.00  0.00     0.117 C 
ENDROOT
BRANCH   1   2
ATOM      2  N   UNL A   1      37.020  21.633  23.933  1.00  0.00    -0.354 N 
ATOM      3  C   UNL A   1      36.138  22.596  23.501  1.00  0.00     0.248 C 
ATOM      4  O   UNL A   1      36.591  23.263  22.568  1.00  0.00    -0.272 OA
ATOM      5  H   UNL A   1      37.857  21.614  23.416  1.00  0.00     0.163 HD
BRANCH   3   6
ATOM      6  C   UNL A   1      34.747  22.811  24.191  1.00  0.00     0.144 C 
ATOM      7  N   UNL A   1      33.202  25.167  24.585  1.00  0.00    -0.356 N 
ATOM      8  C   UNL A   1      33.834  24.652  25.785  1.00  0.00     0.121 C 
ATOM      9  C   UNL A   1      32.694  24.251  23.586  1.00  0.00     0.121 C 
ATOM     10  C   UNL A   1      34.979  23.715  25.432  1.00  0.00     0.062 C 
ATOM     11  C   UNL A   1      33.827  23.383  23.079  1.00  0.00     0.062 C 
BRANCH   7  12
ATOM     12  C   UNL A   1      32.522  26.362  24.750  1.00  0.00     0.132 A 
ATOM     13  C   UNL A   1      31.012  27.858  23.887  1.00  0.00     0.130 A 
ATOM     14  N   UNL A   1      31.025  28.629  24.990  1.00  0.00    -0.238 NA
ATOM     15  N   UNL A   1      31.740  26.742  23.733  1.00  0.00    -0.216 NA
ATOM     16  C   UNL A   1      31.833  28.240  25.995  1.00  0.00     0.043 A 
ATOM     17  C   UNL A   1      31.812  29.063  27.247  1.00  0.00     0.067 C 
ATOM     18  C   UNL A   1      32.606  27.100  25.913  1.00  0.00     0.070 A 
BRANCH  13  19
ATOM     19  C   UNL A   1      30.005  28.184  22.816  1.00  0.00     0.077 C 
BRANCH  19  20
ATOM     20  C   UNL A   1      29.433  29.604  22.868  1.00  0.00     0.005 C 
ATOM     21  C   UNL A   1      28.029  29.737  22.290  1.00  0.00     0.004 C 
ENDBRANCH  19  20
ENDBRANCH  13  19
ENDBRANCH   7  12
BRANCH   6  22
ATOM     22  N   UNL A   1      34.090  21.557  24.692  1.00  0.00    -0.257 N 
ATOM     23  C   UNL A   1      33.815  21.250  26.007  1.00  0.00     0.110 A 
ATOM     24  N   UNL A   1      33.686  20.571  23.874  1.00  0.00    -0.177 NA
ATOM     25  C   UNL A   1      33.188  20.032  26.018  1.00  0.00     0.045 A 
ATOM     26  C   UNL A   1      33.136  19.646  24.666  1.00  0.00     0.065 A 
BRANCH  26  27
ATOM     27  C   UNL A   1      32.570  18.384  24.087  1.00  0.00     0.034 C 
ATOM     28  C   UNL A   1      32.366  18.515  22.575  1.00  0.00     0.014 C 
ATOM     29  C   UNL A   1      33.457  17.179  24.407  1.00  0.00     0.014 C 
ENDBRANCH  26  27
ENDBRANCH   6  22
ENDBRANCH   3   6
ENDBRANCH   1   2
BRANCH   1  30
ATOM     30  C   UNL A   1      38.221  19.746  24.999  1.00  0.00     0.042 C 
BRANCH  30  31
ATOM     31  C   UNL A   1      39.183  20.013  26.150  1.00  0.00     0.118 C 
BRANCH  31  32
ATOM     32  N   UNL A   1      40.376  19.180  26.093  1.00  0.00    -0.352 N 
ATOM     33  C   UNL A   1      41.702  19.526  26.130  1.00  0.00     0.251 C 
ATOM     34  H   UNL A   1      40.203  18.214  26.018  1.00  0.00     0.163 HD
ATOM     35  O   UNL A   1      42.557  18.670  25.889  1.00  0.00    -0.269 OA
BRANCH  33  36
ATOM     36  C   UNL A   1      42.126  20.910  26.432  1.00  0.00     0.039 A 
ATOM     37  C   UNL A   1      42.270  21.815  25.374  1.00  0.00     0.014 A 
ATOM     38  C   UNL A   1      42.425  21.316  27.735  1.00  0.00     0.014 A 
ATOM     39  C   UNL A   1      42.656  23.133  25.630  1.00  0.00     0.010 A 
ATOM     40  C   UNL A   1      42.728  22.651  27.999  1.00  0.00     0.010 A 
ATOM     41  C   UNL A   1      42.857  23.572  26.949  1.00  0.00    -0.014 A 
BRANCH  41  42
ATOM     42  C   UNL A   1      43.222  24.982  27.244  1.00  0.00     0.031 A 
ATOM     43  C   UNL A   1      44.609  25.484  26.949  1.00  0.00     0.074 A 
ATOM     44  C   UNL A   1      42.322  25.795  27.829  1.00  0.00     0.049 A 
ATOM     45  N   UNL A   1      45.134  26.660  27.188  1.00  0.00    -0.248 NA
ATOM     46  C   UNL A   1      45.540  24.530  26.328  1.00  0.00     0.031 C 
ATOM     47  C   UNL A   1      40.962  25.417  28.212  1.00  0.00     0.029 A 
ATOM     48  N   UNL A   1      42.421  27.111  28.212  1.00  0.00    -0.354 N 
ATOM     49  C   UNL A   1      46.454  26.578  26.766  1.00  0.00     0.074 A 
ATOM     50  C   UNL A   1      46.668  25.224  26.306  1.00  0.00     0.031 C 
ATOM     51  C   UNL A   1      40.344  26.480  28.751  1.00  0.00     0.029 A 
ATOM     52  C   UNL A   1      41.274  27.605  28.783  1.00  0.00     0.049 A 
ATOM     53  H   UNL A   1      43.236  27.648  28.089  1.00  0.00     0.167 HD
ATOM     54  C   UNL A   1      47.398  27.550  26.741  1.00  0.00     0.037 A 
ATOM     55  C   UNL A   1      41.003  28.827  29.278  1.00  0.00     0.037 A 
ATOM     56  C   UNL A   1      47.175  28.907  27.169  1.00  0.00     0.049 A 
ATOM     57  C   UNL A   1      42.064  29.893  29.226  1.00  0.00     0.074 A 
ATOM     58  C   UNL A   1      48.049  29.980  27.129  1.00  0.00     0.029 A 
ATOM     59  N   UNL A   1      45.991  29.377  27.716  1.00  0.00    -0.354 N 
ATOM     60  N   UNL A   1      43.287  29.822  28.764  1.00  0.00    -0.248 NA
ATOM     61  C   UNL A   1      41.699  31.215  29.755  1.00  0.00     0.031 C 
ATOM     62  C   UNL A   1      47.405  31.089  27.687  1.00  0.00     0.029 A 
ATOM     63  C   UNL A   1      46.115  30.721  28.031  1.00  0.00     0.049 A 
ATOM     64  H   UNL A   1      45.181  28.835  27.859  1.00  0.00     0.167 HD
ATOM     65  C   UNL A   1      43.829  31.091  28.918  1.00  0.00     0.074 A 
ATOM     66  C   UNL A   1      42.794  31.918  29.503  1.00  0.00     0.031 C 
ATOM     67  C   UNL A   1      45.071  31.533  28.603  1.00  0.00     0.037 A 
BRANCH  54  68
ATOM     68  C   UNL A   1      48.759  27.182  26.223  1.00  0.00     0.064 A 
ATOM     69  C   UNL A   1      49.074  27.269  24.858  1.00  0.00     0.173 A 
ATOM     70  C   UNL A   1      49.768  26.767  27.103  1.00  0.00     0.173 A 
ATOM     71  F   UNL A   1      48.141  27.650  23.973  1.00  0.00    -0.203 F 
ATOM     72  C   UNL A   1      50.339  26.924  24.391  1.00  0.00     0.198 A 
ATOM     73  C   UNL A   1      51.042  26.453  26.636  1.00  0.00     0.198 A 
ATOM     74  F   UNL A   1      49.523  26.673  28.419  1.00  0.00    -0.203 F 
ATOM     75  F   UNL A   1      50.600  26.966  23.077  1.00  0.00    -0.200 F 
ATOM     76  C   UNL A   1      51.324  26.523  25.280  1.00  0.00     0.200 A 
ATOM     77  F   UNL A   1      51.997  26.077  27.499  1.00  0.00    -0.200 F 
ATOM     78  F   UNL A   1      52.544  26.196  24.829  1.00  0.00    -0.200 F 
ENDBRANCH  54  68
BRANCH  55  79
ATOM     79  C   UNL A   1      39.657  29.121  29.835  1.00  0.00     0.064 A 
ATOM     80  C   UNL A   1      38.646  29.656  29.023  1.00  0.00     0.173 A 
ATOM     81  C   UNL A   1      39.353  28.880  31.182  1.00  0.00     0.173 A 
ATOM     82  F   UNL A   1      38.896  29.923  27.733  1.00  0.00    -0.203 F 
ATOM     83  C   UNL A   1      37.390  29.959  29.543  1.00  0.00     0.198 A 
ATOM     84  C   UNL A   1      38.088  29.158  31.695  1.00  0.00     0.198 A 
ATOM     85  F   UNL A   1      40.284  28.365  31.998  1.00  0.00    -0.203 F 
ATOM     86  F   UNL A   1      36.456  30.511  28.757  1.00  0.00    -0.200 F 
ATOM     87  C   UNL A   1      37.110  29.704  30.877  1.00  0.00     0.200 A 
ATOM     88  F   UNL A   1      37.817  28.898  32.981  1.00  0.00    -0.200 F 
ATOM     89  F   UNL A   1      35.901  29.992  31.376  1.00  0.00    -0.200 F 
ENDBRANCH  55  79
BRANCH  67  90
ATOM     90  C   UNL A   1      45.367  32.983  28.847  1.00  0.00     0.064 A 
ATOM     91  C   UNL A   1      45.943  33.426  30.047  1.00  0.00     0.173 A 
ATOM     92  C   UNL A   1      45.099  33.938  27.854  1.00  0.00     0.173 A 
ATOM     93  F   UNL A   1      46.204  32.554  31.033  1.00  0.00    -0.203 F 
ATOM     94  C   UNL A   1      46.212  34.777  30.255  1.00  0.00     0.198 A 
ATOM     95  C   UNL A   1      45.397  35.282  28.054  1.00  0.00     0.198 A 
ATOM     96  F   UNL A   1      44.555  33.564  26.686  1.00  0.00    -0.203 F 
ATOM     97  F   UNL A   1      46.715  35.184  31.429  1.00  0.00    -0.200 F 
ATOM     98  C   UNL A   1      45.945  35.702  29.256  1.00  0.00     0.200 A 
ATOM     99  F   UNL A   1      45.150  36.173  27.084  1.00  0.00    -0.200 F 
ATOM    100  F   UNL A   1      46.209  37.000  29.457  1.00  0.00    -0.200 F 
ENDBRANCH  67  90
ENDBRANCH  41  42
ENDBRANCH  33  36
ENDBRANCH  31  32
ENDBRANCH  30  31
ENDBRANCH   1  30
TORSDOF 15
ENDMDL
MODEL 3
REMARK VINA RESULT:     -12.2      1.304      7.343
REMARK SMILES CCCc1nc(C)cc(N2CCC(C(=O)NCCCNC(=O)c3ccc(-c4c5nc(c(-c6c(F)c(F)c(F)c(F)c6F)c6ccc([nH]6)c(-c6c(F)c(F)c(F)c(F)c6F)c6nc(c(-c7c(F)c(F)c(F)c(F)c7F)c7ccc4[nH]7)C=C6)C=C5)cc3)(n3ccc(C(C)C)n3)CC2)n1
REMARK SMILES IDX 17 1 16 2 14 3 15 4 13 6 10 7 11 8 95 9 12 10 94 11 9 12
REMARK SMILES IDX 4 13 5 14 96 15 6 16 7 17 8 18 3 19 2 20 1 21 86 22 87 23
REMARK SMILES IDX 93 24 88 25 89 26 90 27 91 28 92 29 18 30 19 31 20 32 21 33
REMARK SMILES IDX 22 35 23 36 24 37 85 38 25 39 84 40 26 41 27 42 28 43 78 44
REMARK SMILES IDX 29 45 83 46 77 47 79 48 30 49 82 50 76 51 75 52 31 54 63 55
REMARK SMILES IDX 43 56 62 57 44 58 47 59 61 60 80 61 45 62 46 63 60 65 81 66
REMARK SMILES IDX 48 67 32 68 33 69 41 70 34 71 35 72 39 73 42 74 36 75 37 76
REMARK SMILES IDX 40 77 38 78 64 79 65 80 73 81 66 82 67 83 71 84 74 85 68 86
REMARK SMILES IDX 69 87 72 88 70 89 49 90 50 91 58 92 51 93 52 94 56 95 59 96
REMARK SMILES IDX 53 97 54 98 57 99 55 100
REMARK H PARENT 16 5 20 34 79 53 47 64
REMARK Flexibility Score: inf
ROOT
ATOM      1  C   UNL A   1      37.005  20.943  25.445  1.00  0.00     0.117 C 
ENDROOT
BRANCH   1   2
ATOM      2  N   UNL A   1      37.072  21.839  24.295  1.00  0.00    -0.354 N 
ATOM      3  C   UNL A   1      36.168  22.689  23.700  1.00  0.00     0.248 C 
ATOM      4  O   UNL A   1      36.654  23.297  22.744  1.00  0.00    -0.272 OA
ATOM      5  H   UNL A   1      37.950  21.834  23.850  1.00  0.00     0.163 HD
BRANCH   3   6
ATOM      6  C   UNL A   1      34.711  22.863  24.251  1.00  0.00     0.144 C 
ATOM      7  N   UNL A   1      33.046  25.162  24.436  1.00  0.00    -0.356 N 
ATOM      8  C   UNL A   1      33.582  24.703  25.703  1.00  0.00     0.121 C 
ATOM      9  C   UNL A   1      32.669  24.203  23.420  1.00  0.00     0.121 C 
ATOM     10  C   UNL A   1      34.791  23.805  25.483  1.00  0.00     0.062 C 
ATOM     11  C   UNL A   1      33.878  23.370  23.044  1.00  0.00     0.062 C 
BRANCH   7  12
ATOM     12  C   UNL A   1      32.308  26.332  24.504  1.00  0.00     0.132 A 
ATOM     13  C   UNL A   1      32.053  28.400  25.464  1.00  0.00     0.130 A 
ATOM     14  N   UNL A   1      31.028  28.736  24.660  1.00  0.00    -0.238 NA
ATOM     15  N   UNL A   1      32.700  27.225  25.420  1.00  0.00    -0.216 NA
ATOM     16  C   UNL A   1      30.636  27.815  23.758  1.00  0.00     0.043 A 
ATOM     17  C   UNL A   1      29.532  28.202  22.822  1.00  0.00     0.067 C 
ATOM     18  C   UNL A   1      31.257  26.588  23.646  1.00  0.00     0.070 A 
BRANCH  13  19
ATOM     19  C   UNL A   1      32.609  29.464  26.372  1.00  0.00     0.077 C 
BRANCH  19  20
ATOM     20  C   UNL A   1      33.561  28.961  27.462  1.00  0.00     0.005 C 
ATOM     21  C   UNL A   1      35.023  29.328  27.237  1.00  0.00     0.004 C 
ENDBRANCH  19  20
ENDBRANCH  13  19
ENDBRANCH   7  12
BRANCH   6  22
ATOM     22  N   UNL A   1      34.059  21.596  24.724  1.00  0.00    -0.257 N 
ATOM     23  C   UNL A   1      33.339  21.434  25.888  1.00  0.00     0.110 A 
ATOM     24  N   UNL A   1      34.113  20.447  24.030  1.00  0.00    -0.177 NA
ATOM     25  C   UNL A   1      32.898  20.136  25.916  1.00  0.00     0.045 A 
ATOM     26  C   UNL A   1      33.411  19.560  24.740  1.00  0.00     0.065 A 
BRANCH  26  27
ATOM     27  C   UNL A   1      33.256  18.148  24.261  1.00  0.00     0.034 C 
ATOM     28  C   UNL A   1      32.528  17.292  25.301  1.00  0.00     0.014 C 
ATOM     29  C   UNL A   1      32.528  18.094  22.916  1.00  0.00     0.014 C 
ENDBRANCH  26  27
ENDBRANCH   6  22
ENDBRANCH   3   6
ENDBRANCH   1   2
BRANCH   1  30
ATOM     30  C   UNL A   1      38.020  19.807  25.348  1.00  0.00     0.042 C 
BRANCH  30  31
ATOM     31  C   UNL A   1      39.474  20.262  25.318  1.00  0.00     0.118 C 
BRANCH  31  32
ATOM     32  N   UNL A   1      40.317  19.522  26.246  1.00  0.00    -0.352 N 
ATOM     33  C   UNL A   1      41.349  19.949  27.041  1.00  0.00     0.251 C 
ATOM     34  H   UNL A   1      40.112  18.561  26.315  1.00  0.00     0.163 HD
ATOM     35  O   UNL A   1      42.047  19.116  27.624  1.00  0.00    -0.269 OA
BRANCH  33  36
ATOM     36  C   UNL A   1      41.654  21.388  27.196  1.00  0.00     0.039 A 
ATOM     37  C   UNL A   1      42.254  21.823  28.383  1.00  0.00     0.014 A 
ATOM     38  C   UNL A   1      41.319  22.317  26.208  1.00  0.00     0.014 A 
ATOM     39  C   UNL A   1      42.566  23.174  28.553  1.00  0.00     0.010 A 
ATOM     40  C   UNL A   1      41.707  23.649  26.343  1.00  0.00     0.010 A 
ATOM     41  C   UNL A   1      42.325  24.095  27.520  1.00  0.00    -0.014 A 
BRANCH  41  42
ATOM     42  C   UNL A   1      42.694  25.527  27.664  1.00  0.00     0.031 A 
ATOM     43  C   UNL A   1      44.009  26.029  27.134  1.00  0.00     0.074 A 
ATOM     44  C   UNL A   1      41.870  26.365  28.322  1.00  0.00     0.049 A 
ATOM     45  N   UNL A   1      44.534  27.227  27.213  1.00  0.00    -0.248 NA
ATOM     46  C   UNL A   1      44.862  25.048  26.445  1.00  0.00     0.031 C 
ATOM     47  C   UNL A   1      40.592  25.994  28.928  1.00  0.00     0.029 A 
ATOM     48  N   UNL A   1      41.991  27.705  28.599  1.00  0.00    -0.354 N 
ATOM     49  C   UNL A   1      45.779  27.136  26.605  1.00  0.00     0.074 A 
ATOM     50  C   UNL A   1      45.956  25.756  26.208  1.00  0.00     0.031 C 
ATOM     51  C   UNL A   1      40.034  27.082  29.482  1.00  0.00     0.029 A 
ATOM     52  C   UNL A   1      40.929  28.220  29.301  1.00  0.00     0.049 A 
ATOM     53  H   UNL A   1      42.766  28.245  28.320  1.00  0.00     0.167 HD
ATOM     54  C   UNL A   1      46.683  28.118  26.376  1.00  0.00     0.037 A 
ATOM     55  C   UNL A   1      40.704  29.470  29.749  1.00  0.00     0.037 A 
ATOM     56  C   UNL A   1      46.493  29.497  26.742  1.00  0.00     0.049 A 
ATOM     57  C   UNL A   1      41.718  30.546  29.469  1.00  0.00     0.074 A 
ATOM     58  C   UNL A   1      47.324  30.578  26.501  1.00  0.00     0.029 A 
ATOM     59  N   UNL A   1      45.390  29.985  27.427  1.00  0.00    -0.354 N 
ATOM     60  N   UNL A   1      42.861  30.461  28.835  1.00  0.00    -0.248 NA
ATOM     61  C   UNL A   1      41.402  31.895  29.958  1.00  0.00     0.031 C 
ATOM     62  C   UNL A   1      46.741  31.713  27.075  1.00  0.00     0.029 A 
ATOM     63  C   UNL A   1      45.526  31.350  27.631  1.00  0.00     0.049 A 
ATOM     64  H   UNL A   1      44.624  29.443  27.725  1.00  0.00     0.167 HD
ATOM     65  C   UNL A   1      43.387  31.746  28.823  1.00  0.00     0.074 A 
ATOM     66  C   UNL A   1      42.430  32.596  29.501  1.00  0.00     0.031 C 
ATOM     67  C   UNL A   1      44.558  32.183  28.298  1.00  0.00     0.037 A 
BRANCH  54  68
ATOM     68  C   UNL A   1      47.961  27.736  25.685  1.00  0.00     0.064 A 
ATOM     69  C   UNL A   1      48.039  27.630  24.288  1.00  0.00     0.173 A 
ATOM     70  C   UNL A   1      49.129  27.501  26.426  1.00  0.00     0.173 A 
ATOM     71  F   UNL A   1      46.948  27.833  23.534  1.00  0.00    -0.203 F 
ATOM     72  C   UNL A   1      49.231  27.274  23.661  1.00  0.00     0.198 A 
ATOM     73  C   UNL A   1      50.326  27.176  25.793  1.00  0.00     0.198 A 
ATOM     74  F   UNL A   1      49.112  27.596  27.765  1.00  0.00    -0.203 F 
ATOM     75  F   UNL A   1      49.267  27.129  22.329  1.00  0.00    -0.200 F 
ATOM     76  C   UNL A   1      50.374  27.054  24.413  1.00  0.00     0.200 A 
ATOM     77  F   UNL A   1      51.435  26.976  26.521  1.00  0.00    -0.200 F 
ATOM     78  F   UNL A   1      51.522  26.716  23.807  1.00  0.00    -0.200 F 
ENDBRANCH  54  68
BRANCH  55  79
ATOM     79  C   UNL A   1      39.448  29.781  30.481  1.00  0.00     0.064 A 
ATOM     80  C   UNL A   1      38.316  30.244  29.795  1.00  0.00     0.173 A 
ATOM     81  C   UNL A   1      39.353  29.628  31.870  1.00  0.00     0.173 A 
ATOM     82  F   UNL A   1      38.365  30.425  28.467  1.00  0.00    -0.203 F 
ATOM     83  C   UNL A   1      37.143  30.563  30.476  1.00  0.00     0.198 A 
ATOM     84  C   UNL A   1      38.171  29.921  32.547  1.00  0.00     0.198 A 
ATOM     85  F   UNL A   1      40.407  29.185  32.571  1.00  0.00    -0.203 F 
ATOM     86  F   UNL A   1      36.090  31.046  29.803  1.00  0.00    -0.200 F 
ATOM     87  C   UNL A   1      37.070  30.395  31.850  1.00  0.00     0.200 A 
ATOM     88  F   UNL A   1      38.100  29.747  33.873  1.00  0.00    -0.200 F 
ATOM     89  F   UNL A   1      35.940  30.699  32.504  1.00  0.00    -0.200 F 
ENDBRANCH  55  79
BRANCH  67  90
ATOM     90  C   UNL A   1      44.850  33.652  28.399  1.00  0.00     0.064 A 
ATOM     91  C   UNL A   1      44.393  34.562  27.436  1.00  0.00     0.173 A 
ATOM     92  C   UNL A   1      45.572  34.157  29.491  1.00  0.00     0.173 A 
ATOM     93  F   UNL A   1      43.712  34.127  26.364  1.00  0.00    -0.203 F 
ATOM     94  C   UNL A   1      44.672  35.922  27.547  1.00  0.00     0.198 A 
ATOM     95  C   UNL A   1      45.823  35.519  29.615  1.00  0.00     0.198 A 
ATOM     96  F   UNL A   1      46.026  33.328  30.443  1.00  0.00    -0.203 F 
ATOM     97  F   UNL A   1      44.269  36.767  26.589  1.00  0.00    -0.200 F 
ATOM     98  C   UNL A   1      45.381  36.400  28.640  1.00  0.00     0.200 A 
ATOM     99  F   UNL A   1      46.497  35.981  30.678  1.00  0.00    -0.200 F 
ATOM    100  F   UNL A   1      45.645  37.709  28.748  1.00  0.00    -0.200 F 
ENDBRANCH  67  90
ENDBRANCH  41  42
ENDBRANCH  33  36
ENDBRANCH  31  32
ENDBRANCH  30  31
ENDBRANCH   1  30
TORSDOF 15
ENDMDL
