MODEL 1
REMARK VINA RESULT:     -12.9      0.000      0.000
REMARK SMILES COc1ccc([C@H]2[C@H](C(=O)NCCCNC(=O)c3ccc(-c4c5nc(c(-c6c(F)c(F)c(F)c(F)c6F)c6ccc([nH]6)c(-c6c(F)c(F)c(F)c(F)c6F)c6nc(c(-c7c(F)c(F)c(F)c(F)c7F)c7ccc4[nH]7)C=C6)C=C5)cc3)CCN2c2ccc(F)cc2)cc1
REMARK SMILES IDX 13 1 12 2 11 3 9 4 10 5 8 7 7 8 83 9 81 10 82 11 6 12 3 13
REMARK SMILES IDX 4 14 92 15 5 16 91 17 2 18 1 19 84 20 85 21 90 22 86 23
REMARK SMILES IDX 89 24 87 25 88 26 14 27 15 28 16 29 17 31 18 32 19 33 80 34
REMARK SMILES IDX 20 35 79 36 21 37 22 38 23 39 73 40 24 41 78 42 72 43 74 44
REMARK SMILES IDX 25 45 77 46 71 47 70 48 26 50 58 51 38 52 57 53 39 54 42 55
REMARK SMILES IDX 56 56 75 57 40 58 41 59 55 61 76 62 43 63 27 64 28 65 36 66
REMARK SMILES IDX 29 67 30 68 34 69 37 70 31 71 32 72 35 73 33 74 59 75 60 76
REMARK SMILES IDX 68 77 61 78 62 79 66 80 69 81 63 82 64 83 67 84 65 85 44 86
REMARK SMILES IDX 45 87 53 88 46 89 47 90 51 91 54 92 48 93 49 94 52 95 50 96
REMARK H PARENT 11 6 15 30 74 49 42 60
REMARK Flexibility Score: inf
ROOT
ATOM      1  C   UNL A   1      32.113  28.320  26.095  1.00  0.00     0.042 C 
ENDROOT
BRANCH   1   2
ATOM      2  C   UNL A   1      32.071  27.053  25.254  1.00  0.00     0.117 C 
BRANCH   2   3
ATOM      3  N   UNL A   1      31.928  25.869  26.083  1.00  0.00    -0.356 N 
ATOM      4  C   UNL A   1      32.549  24.665  26.102  1.00  0.00     0.225 C 
ATOM      5  O   UNL A   1      32.038  23.822  26.852  1.00  0.00    -0.275 OA
ATOM      6  H   UNL A   1      31.235  25.961  26.777  1.00  0.00     0.163 HD
BRANCH   4   7
ATOM      7  C   UNL A   1      33.764  24.253  25.277  1.00  0.00     0.107 C 
ATOM      8  C   UNL A   1      34.225  22.818  25.608  1.00  0.00     0.125 C 
ATOM      9  N   UNL A   1      33.633  22.050  24.495  1.00  0.00    -0.364 N 
ATOM     10  C   UNL A   1      33.713  24.316  23.757  1.00  0.00     0.037 C 
ATOM     11  C   UNL A   1      33.586  22.867  23.280  1.00  0.00     0.118 C 
BRANCH   8  12
ATOM     12  C   UNL A   1      35.760  22.712  25.600  1.00  0.00    -0.024 A 
ATOM     13  C   UNL A   1      38.560  22.381  25.842  1.00  0.00     0.118 A 
ATOM     14  C   UNL A   1      37.768  21.348  25.343  1.00  0.00     0.047 A 
ATOM     15  C   UNL A   1      37.974  23.609  26.128  1.00  0.00     0.047 A 
ATOM     16  C   UNL A   1      36.383  21.511  25.219  1.00  0.00     0.010 A 
ATOM     17  C   UNL A   1      36.593  23.772  26.000  1.00  0.00     0.010 A 
BRANCH  13  18
ATOM     18  O   UNL A   1      39.893  22.107  25.985  1.00  0.00    -0.497 OA
ATOM     19  C   UNL A   1      40.176  20.806  26.497  1.00  0.00     0.278 C 
ENDBRANCH  13  18
ENDBRANCH   8  12
BRANCH   9  20
ATOM     20  C   UNL A   1      33.183  20.749  24.545  1.00  0.00     0.037 A 
ATOM     21  C   UNL A   1      33.232  20.003  25.737  1.00  0.00     0.029 A 
ATOM     22  C   UNL A   1      32.718  20.069  23.404  1.00  0.00     0.029 A 
ATOM     23  C   UNL A   1      32.904  18.643  25.780  1.00  0.00     0.041 A 
ATOM     24  C   UNL A   1      32.411  18.702  23.430  1.00  0.00     0.041 A 
ATOM     25  C   UNL A   1      32.515  17.999  24.619  1.00  0.00     0.123 A 
ATOM     26  F   UNL A   1      32.246  16.687  24.643  1.00  0.00    -0.207 F 
ENDBRANCH   9  20
ENDBRANCH   4   7
ENDBRANCH   2   3
ENDBRANCH   1   2
BRANCH   1  27
ATOM     27  C   UNL A   1      33.076  29.382  25.585  1.00  0.00     0.118 C 
BRANCH  27  28
ATOM     28  N   UNL A   1      32.793  30.692  26.149  1.00  0.00    -0.352 N 
ATOM     29  C   UNL A   1      33.405  31.389  27.156  1.00  0.00     0.251 C 
ATOM     30  H   UNL A   1      32.029  31.157  25.736  1.00  0.00     0.163 HD
ATOM     31  O   UNL A   1      32.830  32.394  27.600  1.00  0.00    -0.269 OA
BRANCH  29  32
ATOM     32  C   UNL A   1      34.720  31.004  27.726  1.00  0.00     0.039 A 
ATOM     33  C   UNL A   1      34.912  29.670  28.109  1.00  0.00     0.014 A 
ATOM     34  C   UNL A   1      35.726  31.934  28.001  1.00  0.00     0.014 A 
ATOM     35  C   UNL A   1      36.090  29.276  28.754  1.00  0.00     0.010 A 
ATOM     36  C   UNL A   1      36.939  31.526  28.559  1.00  0.00     0.010 A 
ATOM     37  C   UNL A   1      37.118  30.201  28.983  1.00  0.00    -0.014 A 
BRANCH  37  38
ATOM     38  C   UNL A   1      38.335  29.822  29.752  1.00  0.00     0.031 A 
ATOM     39  C   UNL A   1      38.526  30.334  31.159  1.00  0.00     0.074 A 
ATOM     40  C   UNL A   1      39.277  29.039  29.195  1.00  0.00     0.049 A 
ATOM     41  N   UNL A   1      39.532  30.159  31.981  1.00  0.00    -0.248 NA
ATOM     42  C   UNL A   1      37.454  31.183  31.704  1.00  0.00     0.031 C 
ATOM     43  C   UNL A   1      39.241  28.508  27.832  1.00  0.00     0.029 A 
ATOM     44  N   UNL A   1      40.454  28.552  29.711  1.00  0.00    -0.354 N 
ATOM     45  C   UNL A   1      39.225  30.897  33.118  1.00  0.00     0.074 A 
ATOM     46  C   UNL A   1      37.967  31.562  32.864  1.00  0.00     0.031 C 
ATOM     47  C   UNL A   1      40.326  27.743  27.631  1.00  0.00     0.029 A 
ATOM     48  C   UNL A   1      41.149  27.751  28.837  1.00  0.00     0.049 A 
ATOM     49  H   UNL A   1      40.768  28.756  30.621  1.00  0.00     0.167 HD
ATOM     50  C   UNL A   1      39.912  30.989  34.283  1.00  0.00     0.037 A 
ATOM     51  C   UNL A   1      42.315  27.096  28.997  1.00  0.00     0.037 A 
ATOM     52  C   UNL A   1      41.136  30.287  34.561  1.00  0.00     0.049 A 
ATOM     53  C   UNL A   1      43.039  27.184  30.314  1.00  0.00     0.074 A 
ATOM     54  C   UNL A   1      41.880  30.274  35.727  1.00  0.00     0.029 A 
ATOM     55  N   UNL A   1      41.789  29.459  33.661  1.00  0.00    -0.354 N 
ATOM     56  N   UNL A   1      42.715  27.846  31.397  1.00  0.00    -0.248 NA
ATOM     57  C   UNL A   1      44.290  26.420  30.430  1.00  0.00     0.031 C 
ATOM     58  C   UNL A   1      42.999  29.458  35.525  1.00  0.00     0.029 A 
ATOM     59  C   UNL A   1      42.931  28.933  34.245  1.00  0.00     0.049 A 
ATOM     60  H   UNL A   1      41.486  29.271  32.742  1.00  0.00     0.167 HD
ATOM     61  C   UNL A   1      43.703  27.562  32.328  1.00  0.00     0.074 A 
ATOM     62  C   UNL A   1      44.630  26.650  31.691  1.00  0.00     0.031 C 
ATOM     63  C   UNL A   1      43.835  28.019  33.599  1.00  0.00     0.037 A 
BRANCH  50  64
ATOM     64  C   UNL A   1      39.344  31.878  35.352  1.00  0.00     0.064 A 
ATOM     65  C   UNL A   1      38.501  31.373  36.354  1.00  0.00     0.173 A 
ATOM     66  C   UNL A   1      39.664  33.244  35.390  1.00  0.00     0.173 A 
ATOM     67  F   UNL A   1      38.152  30.078  36.355  1.00  0.00    -0.203 F 
ATOM     68  C   UNL A   1      37.973  32.209  37.335  1.00  0.00     0.198 A 
ATOM     69  C   UNL A   1      39.158  34.070  36.390  1.00  0.00     0.198 A 
ATOM     70  F   UNL A   1      40.471  33.776  34.460  1.00  0.00    -0.203 F 
ATOM     71  F   UNL A   1      37.128  31.715  38.250  1.00  0.00    -0.200 F 
ATOM     72  C   UNL A   1      38.306  33.555  37.356  1.00  0.00     0.200 A 
ATOM     73  F   UNL A   1      39.490  35.369  36.416  1.00  0.00    -0.200 F 
ATOM     74  F   UNL A   1      37.801  34.358  38.302  1.00  0.00    -0.200 F 
ENDBRANCH  50  64
BRANCH  51  75
ATOM     75  C   UNL A   1      42.853  26.260  27.894  1.00  0.00     0.064 A 
ATOM     76  C   UNL A   1      42.553  24.892  27.820  1.00  0.00     0.173 A 
ATOM     77  C   UNL A   1      43.685  26.801  26.904  1.00  0.00     0.173 A 
ATOM     78  F   UNL A   1      41.782  24.324  28.759  1.00  0.00    -0.203 F 
ATOM     79  C   UNL A   1      43.083  24.093  26.810  1.00  0.00     0.198 A 
ATOM     80  C   UNL A   1      44.193  26.005  25.879  1.00  0.00     0.198 A 
ATOM     81  F   UNL A   1      44.000  28.104  26.931  1.00  0.00    -0.203 F 
ATOM     82  F   UNL A   1      42.821  22.779  26.791  1.00  0.00    -0.200 F 
ATOM     83  C   UNL A   1      43.899  24.650  25.838  1.00  0.00     0.200 A 
ATOM     84  F   UNL A   1      44.975  26.549  24.937  1.00  0.00    -0.200 F 
ATOM     85  F   UNL A   1      44.410  23.881  24.867  1.00  0.00    -0.200 F 
ENDBRANCH  51  75
BRANCH  63  86
ATOM     86  C   UNL A   1      45.003  27.510  34.390  1.00  0.00     0.064 A 
ATOM     87  C   UNL A   1      44.920  26.331  35.147  1.00  0.00     0.173 A 
ATOM     88  C   UNL A   1      46.227  28.195  34.371  1.00  0.00     0.173 A 
ATOM     89  F   UNL A   1      43.767  25.648  35.207  1.00  0.00    -0.203 F 
ATOM     90  C   UNL A   1      46.011  25.875  35.881  1.00  0.00     0.198 A 
ATOM     91  C   UNL A   1      47.323  27.722  35.085  1.00  0.00     0.198 A 
ATOM     92  F   UNL A   1      46.359  29.323  33.658  1.00  0.00    -0.203 F 
ATOM     93  F   UNL A   1      45.895  24.775  36.637  1.00  0.00    -0.200 F 
ATOM     94  C   UNL A   1      47.213  26.567  35.846  1.00  0.00     0.200 A 
ATOM     95  F   UNL A   1      48.487  28.386  35.042  1.00  0.00    -0.200 F 
ATOM     96  F   UNL A   1      48.262  26.127  36.553  1.00  0.00    -0.200 F 
ENDBRANCH  63  86
ENDBRANCH  37  38
ENDBRANCH  29  32
ENDBRANCH  27  28
ENDBRANCH   1  27
TORSDOF 13
ENDMDL
MODEL 2
REMARK VINA RESULT:     -12.9      4.247      9.902
REMARK SMILES COc1ccc([C@H]2[C@H](C(=O)NCCCNC(=O)c3ccc(-c4c5nc(c(-c6c(F)c(F)c(F)c(F)c6F)c6ccc([nH]6)c(-c6c(F)c(F)c(F)c(F)c6F)c6nc(c(-c7c(F)c(F)c(F)c(F)c7F)c7ccc4[nH]7)C=C6)C=C5)cc3)CCN2c2ccc(F)cc2)cc1
REMARK SMILES IDX 13 1 12 2 11 3 9 4 10 5 8 7 7 8 83 9 81 10 82 11 6 12 3 13
REMARK SMILES IDX 4 14 92 15 5 16 91 17 2 18 1 19 84 20 85 21 90 22 86 23
REMARK SMILES IDX 89 24 87 25 88 26 14 27 15 28 16 29 17 31 18 32 19 33 80 34
REMARK SMILES IDX 20 35 79 36 21 37 22 38 23 39 73 40 24 41 78 42 72 43 74 44
REMARK SMILES IDX 25 45 77 46 71 47 70 48 26 50 58 51 38 52 57 53 39 54 42 55
REMARK SMILES IDX 56 56 75 57 40 58 41 59 55 61 76 62 43 63 27 64 28 65 36 66
REMARK SMILES IDX 29 67 30 68 34 69 37 70 31 71 32 72 35 73 33 74 59 75 60 76
REMARK SMILES IDX 68 77 61 78 62 79 66 80 69 81 63 82 64 83 67 84 65 85 44 86
REMARK SMILES IDX 45 87 53 88 46 89 47 90 51 91 54 92 48 93 49 94 52 95 50 96
REMARK H PARENT 11 6 15 30 74 49 42 60
REMARK Flexibility Score: inf
ROOT
ATOM      1  C   UNL A   1      35.859  22.725  24.316  1.00  0.00     0.042 C 
ENDROOT
BRANCH   1   2
ATOM      2  C   UNL A   1      34.393  23.110  24.181  1.00  0.00     0.117 C 
BRANCH   2   3
ATOM      3  N   UNL A   1      34.213  24.198  23.237  1.00  0.00    -0.356 N 
ATOM      4  C   UNL A   1      33.636  25.421  23.325  1.00  0.00     0.225 C 
ATOM      5  O   UNL A   1      33.514  26.023  22.249  1.00  0.00    -0.275 OA
ATOM      6  H   UNL A   1      34.590  24.009  22.347  1.00  0.00     0.163 HD
BRANCH   4   7
ATOM      7  C   UNL A   1      33.102  26.088  24.589  1.00  0.00     0.107 C 
ATOM      8  C   UNL A   1      32.606  27.524  24.316  1.00  0.00     0.125 C 
ATOM      9  N   UNL A   1      31.148  27.323  24.213  1.00  0.00    -0.364 N 
ATOM     10  C   UNL A   1      31.990  25.427  25.391  1.00  0.00     0.037 C 
ATOM     11  C   UNL A   1      30.722  26.230  25.091  1.00  0.00     0.118 C 
BRANCH   8  12
ATOM     12  C   UNL A   1      32.956  28.463  25.483  1.00  0.00    -0.024 A 
ATOM     13  C   UNL A   1      33.713  30.370  27.432  1.00  0.00     0.118 A 
ATOM     14  C   UNL A   1      32.521  30.519  26.726  1.00  0.00     0.047 A 
ATOM     15  C   UNL A   1      34.480  29.226  27.241  1.00  0.00     0.047 A 
ATOM     16  C   UNL A   1      32.142  29.574  25.764  1.00  0.00     0.010 A 
ATOM     17  C   UNL A   1      34.099  28.282  26.283  1.00  0.00     0.010 A 
BRANCH  13  18
ATOM     18  O   UNL A   1      34.028  31.375  28.307  1.00  0.00    -0.497 OA
ATOM     19  C   UNL A   1      35.238  32.066  27.999  1.00  0.00     0.278 C 
ENDBRANCH  13  18
ENDBRANCH   8  12
BRANCH   9  20
ATOM     20  C   UNL A   1      30.274  28.039  23.425  1.00  0.00     0.037 A 
ATOM     21  C   UNL A   1      30.734  29.031  22.540  1.00  0.00     0.029 A 
ATOM     22  C   UNL A   1      28.880  27.875  23.507  1.00  0.00     0.029 A 
ATOM     23  C   UNL A   1      29.858  29.859  21.828  1.00  0.00     0.041 A 
ATOM     24  C   UNL A   1      27.993  28.715  22.818  1.00  0.00     0.041 A 
ATOM     25  C   UNL A   1      28.493  29.706  21.991  1.00  0.00     0.123 A 
ATOM     26  F   UNL A   1      27.650  30.527  21.350  1.00  0.00    -0.207 F 
ENDBRANCH   9  20
ENDBRANCH   4   7
ENDBRANCH   2   3
ENDBRANCH   1   2
BRANCH   1  27
ATOM     27  C   UNL A   1      36.307  22.447  25.743  1.00  0.00     0.118 C 
BRANCH  27  28
ATOM     28  N   UNL A   1      37.376  21.462  25.797  1.00  0.00    -0.352 N 
ATOM     29  C   UNL A   1      38.714  21.600  26.053  1.00  0.00     0.251 C 
ATOM     30  H   UNL A   1      37.088  20.538  25.618  1.00  0.00     0.163 HD
ATOM     31  O   UNL A   1      39.454  20.634  25.817  1.00  0.00    -0.269 OA
BRANCH  29  32
ATOM     32  C   UNL A   1      39.310  22.842  26.605  1.00  0.00     0.039 A 
ATOM     33  C   UNL A   1      38.869  24.072  26.099  1.00  0.00     0.014 A 
ATOM     34  C   UNL A   1      40.366  22.831  27.520  1.00  0.00     0.014 A 
ATOM     35  C   UNL A   1      39.475  25.268  26.503  1.00  0.00     0.010 A 
ATOM     36  C   UNL A   1      40.909  24.027  27.995  1.00  0.00     0.010 A 
ATOM     37  C   UNL A   1      40.501  25.256  27.458  1.00  0.00    -0.014 A 
BRANCH  37  38
ATOM     38  C   UNL A   1      41.220  26.507  27.827  1.00  0.00     0.031 A 
ATOM     39  C   UNL A   1      42.620  26.746  27.317  1.00  0.00     0.074 A 
ATOM     40  C   UNL A   1      40.637  27.419  28.626  1.00  0.00     0.049 A 
ATOM     41  N   UNL A   1      43.435  27.745  27.557  1.00  0.00    -0.248 NA
ATOM     42  C   UNL A   1      43.194  25.708  26.445  1.00  0.00     0.031 C 
ATOM     43  C   UNL A   1      39.307  27.297  29.222  1.00  0.00     0.029 A 
ATOM     44  N   UNL A   1      41.093  28.634  29.077  1.00  0.00    -0.354 N 
ATOM     45  C   UNL A   1      44.617  27.439  26.892  1.00  0.00     0.074 A 
ATOM     46  C   UNL A   1      44.435  26.140  26.283  1.00  0.00     0.031 C 
ATOM     47  C   UNL A   1      39.040  28.405  29.931  1.00  0.00     0.029 A 
ATOM     48  C   UNL A   1      40.189  29.304  29.865  1.00  0.00     0.049 A 
ATOM     49  H   UNL A   1      41.983  28.992  28.853  1.00  0.00     0.167 HD
ATOM     50  C   UNL A   1      45.743  28.183  26.773  1.00  0.00     0.037 A 
ATOM     51  C   UNL A   1      40.279  30.508  30.462  1.00  0.00     0.037 A 
ATOM     52  C   UNL A   1      45.910  29.498  27.331  1.00  0.00     0.049 A 
ATOM     53  C   UNL A   1      41.526  31.332  30.281  1.00  0.00     0.074 A 
ATOM     54  C   UNL A   1      46.993  30.353  27.222  1.00  0.00     0.029 A 
ATOM     55  N   UNL A   1      44.957  30.154  28.095  1.00  0.00    -0.354 N 
ATOM     56  N   UNL A   1      42.617  31.051  29.613  1.00  0.00    -0.248 NA
ATOM     57  C   UNL A   1      41.546  32.649  30.934  1.00  0.00     0.031 C 
ATOM     58  C   UNL A   1      46.705  31.518  27.942  1.00  0.00     0.029 A 
ATOM     59  C   UNL A   1      45.429  31.403  28.468  1.00  0.00     0.049 A 
ATOM     60  H   UNL A   1      44.075  29.788  28.336  1.00  0.00     0.167 HD
ATOM     61  C   UNL A   1      43.441  32.160  29.742  1.00  0.00     0.074 A 
ATOM     62  C   UNL A   1      42.716  33.129  30.537  1.00  0.00     0.031 C 
ATOM     63  C   UNL A   1      44.689  32.358  29.250  1.00  0.00     0.037 A 
BRANCH  50  64
ATOM     64  C   UNL A   1      46.883  27.591  25.995  1.00  0.00     0.064 A 
ATOM     65  C   UNL A   1      47.035  27.828  24.619  1.00  0.00     0.173 A 
ATOM     66  C   UNL A   1      47.849  26.798  26.634  1.00  0.00     0.173 A 
ATOM     67  F   UNL A   1      46.132  28.568  23.958  1.00  0.00    -0.203 F 
ATOM     68  C   UNL A   1      48.091  27.267  23.907  1.00  0.00     0.198 A 
ATOM     69  C   UNL A   1      48.920  26.263  25.924  1.00  0.00     0.198 A 
ATOM     70  F   UNL A   1      47.755  26.546  27.948  1.00  0.00    -0.203 F 
ATOM     71  F   UNL A   1      48.185  27.463  22.585  1.00  0.00    -0.200 F 
ATOM     72  C   UNL A   1      49.036  26.489  24.561  1.00  0.00     0.200 A 
ATOM     73  F   UNL A   1      49.839  25.521  26.559  1.00  0.00    -0.200 F 
ATOM     74  F   UNL A   1      50.055  25.952  23.875  1.00  0.00    -0.200 F 
ENDBRANCH  50  64
BRANCH  51  75
ATOM     75  C   UNL A   1      39.136  31.031  31.253  1.00  0.00     0.064 A 
ATOM     76  C   UNL A   1      39.000  30.711  32.611  1.00  0.00     0.173 A 
ATOM     77  C   UNL A   1      38.154  31.844  30.670  1.00  0.00     0.173 A 
ATOM     78  F   UNL A   1      39.900  29.916  33.205  1.00  0.00    -0.203 F 
ATOM     79  C   UNL A   1      37.911  31.166  33.351  1.00  0.00     0.198 A 
ATOM     80  C   UNL A   1      37.080  32.320  31.419  1.00  0.00     0.198 A 
ATOM     81  F   UNL A   1      38.241  32.178  29.374  1.00  0.00    -0.203 F 
ATOM     82  F   UNL A   1      37.778  30.805  34.635  1.00  0.00    -0.200 F 
ATOM     83  C   UNL A   1      36.954  31.974  32.756  1.00  0.00     0.200 A 
ATOM     84  F   UNL A   1      36.161  33.107  30.843  1.00  0.00    -0.200 F 
ATOM     85  F   UNL A   1      35.907  32.411  33.468  1.00  0.00    -0.200 F 
ENDBRANCH  51  75
BRANCH  63  86
ATOM     86  C   UNL A   1      45.332  33.684  29.530  1.00  0.00     0.064 A 
ATOM     87  C   UNL A   1      46.123  33.891  30.670  1.00  0.00     0.173 A 
ATOM     88  C   UNL A   1      45.175  34.753  28.634  1.00  0.00     0.173 A 
ATOM     89  F   UNL A   1      46.290  32.904  31.562  1.00  0.00    -0.203 F 
ATOM     90  C   UNL A   1      46.706  35.130  30.919  1.00  0.00     0.198 A 
ATOM     91  C   UNL A   1      45.782  35.982  28.874  1.00  0.00     0.198 A 
ATOM     92  F   UNL A   1      44.434  34.603  27.526  1.00  0.00    -0.203 F 
ATOM     93  F   UNL A   1      47.416  35.320  32.040  1.00  0.00    -0.200 F 
ATOM     94  C   UNL A   1      46.541  36.172  30.019  1.00  0.00     0.200 A 
ATOM     95  F   UNL A   1      45.630  36.985  27.998  1.00  0.00    -0.200 F 
ATOM     96  F   UNL A   1      47.104  37.364  30.261  1.00  0.00    -0.200 F 
ENDBRANCH  63  86
ENDBRANCH  37  38
ENDBRANCH  29  32
ENDBRANCH  27  28
ENDBRANCH   1  27
TORSDOF 13
ENDMDL
MODEL 3
REMARK VINA RESULT:     -12.8      2.898      8.568
REMARK SMILES COc1ccc([C@H]2[C@H](C(=O)NCCCNC(=O)c3ccc(-c4c5nc(c(-c6c(F)c(F)c(F)c(F)c6F)c6ccc([nH]6)c(-c6c(F)c(F)c(F)c(F)c6F)c6nc(c(-c7c(F)c(F)c(F)c(F)c7F)c7ccc4[nH]7)C=C6)C=C5)cc3)CCN2c2ccc(F)cc2)cc1
REMARK SMILES IDX 13 1 12 2 11 3 9 4 10 5 8 7 7 8 83 9 81 10 82 11 6 12 3 13
REMARK SMILES IDX 4 14 92 15 5 16 91 17 2 18 1 19 84 20 85 21 90 22 86 23
REMARK SMILES IDX 89 24 87 25 88 26 14 27 15 28 16 29 17 31 18 32 19 33 80 34
REMARK SMILES IDX 20 35 79 36 21 37 22 38 23 39 73 40 24 41 78 42 72 43 74 44
REMARK SMILES IDX 25 45 77 46 71 47 70 48 26 50 58 51 38 52 57 53 39 54 42 55
REMARK SMILES IDX 56 56 75 57 40 58 41 59 55 61 76 62 43 63 27 64 28 65 36 66
REMARK SMILES IDX 29 67 30 68 34 69 37 70 31 71 32 72 35 73 33 74 59 75 60 76
REMARK SMILES IDX 68 77 61 78 62 79 66 80 69 81 63 82 64 83 67 84 65 85 44 86
REMARK SMILES IDX 45 87 53 88 46 89 47 90 51 91 54 92 48 93 49 94 52 95 50 96
REMARK H PARENT 11 6 15 30 74 49 42 60
REMARK Flexibility Score: inf
ROOT
ATOM      1  C   UNL A   1      31.421  32.149  26.576  1.00  0.00     0.042 C 
ENDROOT
BRANCH   1   2
ATOM      2  C   UNL A   1      31.582  30.723  26.070  1.00  0.00     0.117 C 
BRANCH   2   3
ATOM      3  N   UNL A   1      31.554  29.766  27.161  1.00  0.00    -0.356 N 
ATOM      4  C   UNL A   1      31.743  28.426  27.229  1.00  0.00     0.225 C 
ATOM      5  O   UNL A   1      31.467  27.910  28.321  1.00  0.00    -0.275 OA
ATOM      6  H   UNL A   1      31.356  30.175  28.035  1.00  0.00     0.163 HD
BRANCH   4   7
ATOM      7  C   UNL A   1      32.217  27.514  26.102  1.00  0.00     0.107 C 
ATOM      8  C   UNL A   1      31.069  27.143  25.140  1.00  0.00     0.125 C 
ATOM      9  N   UNL A   1      31.300  28.079  24.023  1.00  0.00    -0.364 N 
ATOM     10  C   UNL A   1      33.368  27.944  25.202  1.00  0.00     0.037 C 
ATOM     11  C   UNL A   1      32.732  28.345  23.869  1.00  0.00     0.118 C 
BRANCH   8  12
ATOM     12  C   UNL A   1      31.186  25.681  24.673  1.00  0.00    -0.024 A 
ATOM     13  C   UNL A   1      31.627  23.079  23.654  1.00  0.00     0.118 A 
ATOM     14  C   UNL A   1      32.366  23.545  24.740  1.00  0.00     0.047 A 
ATOM     15  C   UNL A   1      30.604  23.866  23.138  1.00  0.00     0.047 A 
ATOM     16  C   UNL A   1      32.146  24.831  25.249  1.00  0.00     0.010 A 
ATOM     17  C   UNL A   1      30.384  25.148  23.648  1.00  0.00     0.010 A 
BRANCH  13  18
ATOM     18  O   UNL A   1      31.955  21.833  23.189  1.00  0.00    -0.497 OA
ATOM     19  C   UNL A   1      32.368  20.917  24.200  1.00  0.00     0.278 C 
ENDBRANCH  13  18
ENDBRANCH   8  12
BRANCH   9  20
ATOM     20  C   UNL A   1      30.339  28.640  23.211  1.00  0.00     0.037 A 
ATOM     21  C   UNL A   1      30.678  29.579  22.219  1.00  0.00     0.029 A 
ATOM     22  C   UNL A   1      28.968  28.367  23.368  1.00  0.00     0.029 A 
ATOM     23  C   UNL A   1      29.707  30.258  21.473  1.00  0.00     0.041 A 
ATOM     24  C   UNL A   1      27.987  29.059  22.644  1.00  0.00     0.041 A 
ATOM     25  C   UNL A   1      28.368  30.006  21.708  1.00  0.00     0.123 A 
ATOM     26  F   UNL A   1      27.433  30.687  21.031  1.00  0.00    -0.207 F 
ENDBRANCH   9  20
ENDBRANCH   4   7
ENDBRANCH   2   3
ENDBRANCH   1   2
BRANCH   1  27
ATOM     27  C   UNL A   1      32.682  32.747  27.184  1.00  0.00     0.118 C 
BRANCH  27  28
ATOM     28  N   UNL A   1      32.491  34.133  27.582  1.00  0.00    -0.352 N 
ATOM     29  C   UNL A   1      33.013  34.850  28.625  1.00  0.00     0.251 C 
ATOM     30  H   UNL A   1      31.883  34.643  27.000  1.00  0.00     0.163 HD
ATOM     31  O   UNL A   1      32.517  35.957  28.875  1.00  0.00    -0.269 OA
BRANCH  29  32
ATOM     32  C   UNL A   1      34.144  34.366  29.456  1.00  0.00     0.039 A 
ATOM     33  C   UNL A   1      35.440  34.457  28.930  1.00  0.00     0.014 A 
ATOM     34  C   UNL A   1      33.959  33.725  30.683  1.00  0.00     0.014 A 
ATOM     35  C   UNL A   1      36.530  33.916  29.622  1.00  0.00     0.010 A 
ATOM     36  C   UNL A   1      35.055  33.268  31.419  1.00  0.00     0.010 A 
ATOM     37  C   UNL A   1      36.347  33.318  30.877  1.00  0.00    -0.014 A 
BRANCH  37  38
ATOM     38  C   UNL A   1      37.478  32.652  31.582  1.00  0.00     0.031 A 
ATOM     39  C   UNL A   1      38.223  31.525  30.911  1.00  0.00     0.074 A 
ATOM     40  C   UNL A   1      37.829  33.038  32.823  1.00  0.00     0.049 A 
ATOM     41  N   UNL A   1      39.205  30.786  31.368  1.00  0.00    -0.248 NA
ATOM     42  C   UNL A   1      37.787  31.159  29.553  1.00  0.00     0.031 C 
ATOM     43  C   UNL A   1      37.170  34.084  33.604  1.00  0.00     0.029 A 
ATOM     44  N   UNL A   1      38.833  32.591  33.646  1.00  0.00    -0.354 N 
ATOM     45  C   UNL A   1      39.477  29.857  30.370  1.00  0.00     0.074 A 
ATOM     46  C   UNL A   1      38.527  30.090  29.305  1.00  0.00     0.031 C 
ATOM     47  C   UNL A   1      37.806  34.221  34.779  1.00  0.00     0.029 A 
ATOM     48  C   UNL A   1      38.899  33.256  34.846  1.00  0.00     0.049 A 
ATOM     49  H   UNL A   1      39.449  31.863  33.399  1.00  0.00     0.167 HD
ATOM     50  C   UNL A   1      40.449  28.914  30.328  1.00  0.00     0.037 A 
ATOM     51  C   UNL A   1      39.749  33.104  35.880  1.00  0.00     0.037 A 
ATOM     52  C   UNL A   1      41.431  28.714  31.360  1.00  0.00     0.049 A 
ATOM     53  C   UNL A   1      40.845  32.075  35.792  1.00  0.00     0.074 A 
ATOM     54  C   UNL A   1      42.487  27.821  31.388  1.00  0.00     0.029 A 
ATOM     55  N   UNL A   1      41.483  29.432  32.545  1.00  0.00    -0.354 N 
ATOM     56  N   UNL A   1      41.120  31.236  34.825  1.00  0.00    -0.248 NA
ATOM     57  C   UNL A   1      41.756  31.983  36.943  1.00  0.00     0.031 C 
ATOM     58  C   UNL A   1      43.164  27.980  32.603  1.00  0.00     0.029 A 
ATOM     59  C   UNL A   1      42.552  28.999  33.314  1.00  0.00     0.049 A 
ATOM     60  H   UNL A   1      40.854  30.145  32.802  1.00  0.00     0.167 HD
ATOM     61  C   UNL A   1      42.245  30.535  35.235  1.00  0.00     0.074 A 
ATOM     62  C   UNL A   1      42.616  31.061  36.533  1.00  0.00     0.031 C 
ATOM     63  C   UNL A   1      42.912  29.541  34.597  1.00  0.00     0.037 A 
BRANCH  50  64
ATOM     64  C   UNL A   1      40.504  28.032  29.114  1.00  0.00     0.064 A 
ATOM     65  C   UNL A   1      39.751  26.850  29.031  1.00  0.00     0.173 A 
ATOM     66  C   UNL A   1      41.299  28.382  28.012  1.00  0.00     0.173 A 
ATOM     67  F   UNL A   1      38.986  26.462  30.062  1.00  0.00    -0.203 F 
ATOM     68  C   UNL A   1      39.818  26.036  27.903  1.00  0.00     0.198 A 
ATOM     69  C   UNL A   1      41.340  27.581  26.874  1.00  0.00     0.198 A 
ATOM     70  F   UNL A   1      42.033  29.505  28.037  1.00  0.00    -0.203 F 
ATOM     71  F   UNL A   1      39.131  24.886  27.868  1.00  0.00    -0.200 F 
ATOM     72  C   UNL A   1      40.607  26.405  26.824  1.00  0.00     0.200 A 
ATOM     73  F   UNL A   1      42.094  27.944  25.827  1.00  0.00    -0.200 F 
ATOM     74  F   UNL A   1      40.667  25.622  25.737  1.00  0.00    -0.200 F 
ENDBRANCH  50  64
BRANCH  51  75
ATOM     75  C   UNL A   1      39.628  33.978  37.074  1.00  0.00     0.064 A 
ATOM     76  C   UNL A   1      38.889  33.564  38.193  1.00  0.00     0.173 A 
ATOM     77  C   UNL A   1      40.229  35.243  37.120  1.00  0.00     0.173 A 
ATOM     78  F   UNL A   1      38.275  32.373  38.185  1.00  0.00    -0.203 F 
ATOM     79  C   UNL A   1      38.739  34.393  39.302  1.00  0.00     0.198 A 
ATOM     80  C   UNL A   1      40.099  36.060  38.242  1.00  0.00     0.198 A 
ATOM     81  F   UNL A   1      40.946  35.684  36.076  1.00  0.00    -0.203 F 
ATOM     82  F   UNL A   1      37.987  33.993  40.337  1.00  0.00    -0.200 F 
ATOM     83  C   UNL A   1      39.347  35.638  39.328  1.00  0.00     0.200 A 
ATOM     84  F   UNL A   1      40.696  37.260  38.267  1.00  0.00    -0.200 F 
ATOM     85  F   UNL A   1      39.202  36.435  40.395  1.00  0.00    -0.200 F 
ENDBRANCH  51  75
BRANCH  63  86
ATOM     86  C   UNL A   1      44.126  28.985  35.279  1.00  0.00     0.064 A 
ATOM     87  C   UNL A   1      45.405  29.515  35.047  1.00  0.00     0.173 A 
ATOM     88  C   UNL A   1      44.007  27.928  36.192  1.00  0.00     0.173 A 
ATOM     89  F   UNL A   1      45.571  30.518  34.172  1.00  0.00    -0.203 F 
ATOM     90  C   UNL A   1      46.524  28.984  35.683  1.00  0.00     0.198 A 
ATOM     91  C   UNL A   1      45.125  27.417  36.846  1.00  0.00     0.198 A 
ATOM     92  F   UNL A   1      42.806  27.391  36.453  1.00  0.00    -0.203 F 
ATOM     93  F   UNL A   1      47.741  29.472  35.409  1.00  0.00    -0.200 F 
ATOM     94  C   UNL A   1      46.383  27.940  36.585  1.00  0.00     0.200 A 
ATOM     95  F   UNL A   1      44.986  26.415  37.725  1.00  0.00    -0.200 F 
ATOM     96  F   UNL A   1      47.461  27.430  37.196  1.00  0.00    -0.200 F 
ENDBRANCH  63  86
ENDBRANCH  37  38
ENDBRANCH  29  32
ENDBRANCH  27  28
ENDBRANCH   1  27
TORSDOF 13
ENDMDL
