MODEL 1
REMARK VINA RESULT:     -10.8      0.000      0.000
REMARK SMILES O=C(NCCCNC(=O)[C@H]1C=C[C@H](NS(=O)(=O)c2ccc(F)c(F)c2F)C1)c1ccc(-c2c3nc(c(-c4c(F)c(F)c(F)c(F)c4F)c4ccc([nH]4)c(-c4c(F)c(F)c(F)c(F)c4F)c4nc(c(-c5c(F)c(F)c(F)c(F)c5F)c5ccc2[nH]5)C=C4)C=C3)cc1
REMARK SMILES IDX 5 1 4 2 3 3 1 4 2 5 28 7 29 8 90 9 30 10 89 11 31 12 32 13
REMARK SMILES IDX 33 14 83 15 34 16 88 17 82 18 84 19 35 20 87 21 81 22 80 23
REMARK SMILES IDX 36 25 68 26 48 27 67 28 49 29 52 30 66 31 85 32 50 33 51 34
REMARK SMILES IDX 65 36 86 37 53 38 37 39 38 40 46 41 39 42 40 43 44 44 47 45
REMARK SMILES IDX 41 46 42 47 45 48 43 49 69 50 70 51 78 52 71 53 72 54 76 55
REMARK SMILES IDX 79 56 73 57 74 58 77 59 75 60 54 61 55 62 63 63 56 64 57 65
REMARK SMILES IDX 61 66 64 67 58 68 59 69 62 70 60 71 6 72 7 73 8 74 9 76
REMARK SMILES IDX 10 77 11 78 27 79 12 80 13 81 14 82 15 84 16 85 17 86 18 87
REMARK SMILES IDX 19 88 25 89 20 90 23 91 26 92 21 93 24 94 22 95
REMARK H PARENT 3 6 84 24 52 35 7 75 14 83
REMARK Flexibility Score: inf
ROOT
ATOM      1  C   UNL A   1      43.115  18.127  26.687  1.00  0.00     0.042 C 
ENDROOT
BRANCH   1   2
ATOM      2  C   UNL A   1      42.154  19.076  27.394  1.00  0.00     0.118 C 
BRANCH   2   3
ATOM      3  N   UNL A   1      41.008  19.420  26.564  1.00  0.00    -0.352 N 
ATOM      4  O   UNL A   1      39.232  20.601  25.864  1.00  0.00    -0.269 OA
ATOM      5  C   UNL A   1      40.315  20.596  26.442  1.00  0.00     0.251 C 
ATOM      6  H   UNL A   1      40.675  18.686  25.998  1.00  0.00     0.163 HD
BRANCH   5   7
ATOM      7  C   UNL A   1      40.853  21.858  26.996  1.00  0.00     0.039 A 
ATOM      8  C   UNL A   1      40.768  23.056  26.282  1.00  0.00     0.014 A 
ATOM      9  C   UNL A   1      41.376  21.856  28.293  1.00  0.00     0.014 A 
ATOM     10  C   UNL A   1      41.308  24.223  26.813  1.00  0.00     0.010 A 
ATOM     11  C   UNL A   1      41.846  23.044  28.858  1.00  0.00     0.010 A 
ATOM     12  C   UNL A   1      41.831  24.233  28.115  1.00  0.00    -0.014 A 
BRANCH  12  13
ATOM     13  C   UNL A   1      42.274  25.513  28.716  1.00  0.00     0.031 A 
ATOM     14  C   UNL A   1      41.294  26.604  29.025  1.00  0.00     0.074 A 
ATOM     15  C   UNL A   1      43.585  25.681  28.979  1.00  0.00     0.049 A 
ATOM     16  N   UNL A   1      41.517  27.789  29.535  1.00  0.00    -0.248 NA
ATOM     17  C   UNL A   1      39.882  26.338  28.716  1.00  0.00     0.031 C 
ATOM     18  C   UNL A   1      44.628  24.691  28.708  1.00  0.00     0.029 A 
ATOM     19  N   UNL A   1      44.262  26.734  29.539  1.00  0.00    -0.354 N 
ATOM     20  C   UNL A   1      40.281  28.417  29.587  1.00  0.00     0.074 A 
ATOM     21  C   UNL A   1      39.312  27.491  29.042  1.00  0.00     0.031 C 
ATOM     22  C   UNL A   1      45.806  25.167  29.133  1.00  0.00     0.029 A 
ATOM     23  C   UNL A   1      45.612  26.516  29.654  1.00  0.00     0.049 A 
ATOM     24  H   UNL A   1      43.822  27.565  29.830  1.00  0.00     0.167 HD
ATOM     25  C   UNL A   1      39.988  29.653  30.055  1.00  0.00     0.037 A 
ATOM     26  C   UNL A   1      46.592  27.318  30.109  1.00  0.00     0.037 A 
ATOM     27  C   UNL A   1      40.957  30.556  30.623  1.00  0.00     0.049 A 
ATOM     28  C   UNL A   1      46.245  28.691  30.601  1.00  0.00     0.074 A 
ATOM     29  C   UNL A   1      40.743  31.798  31.193  1.00  0.00     0.029 A 
ATOM     30  N   UNL A   1      42.321  30.315  30.684  1.00  0.00    -0.354 N 
ATOM     31  N   UNL A   1      45.067  29.260  30.683  1.00  0.00    -0.248 NA
ATOM     32  C   UNL A   1      47.357  29.539  31.050  1.00  0.00     0.031 C 
ATOM     33  C   UNL A   1      41.985  32.332  31.554  1.00  0.00     0.029 A 
ATOM     34  C   UNL A   1      42.967  31.402  31.252  1.00  0.00     0.049 A 
ATOM     35  H   UNL A   1      42.766  29.494  30.372  1.00  0.00     0.167 HD
ATOM     36  C   UNL A   1      45.290  30.528  31.197  1.00  0.00     0.074 A 
ATOM     37  C   UNL A   1      46.717  30.642  31.422  1.00  0.00     0.031 C 
ATOM     38  C   UNL A   1      44.390  31.506  31.458  1.00  0.00     0.037 A 
BRANCH  25  39
ATOM     39  C   UNL A   1      38.567  30.121  29.964  1.00  0.00     0.064 A 
ATOM     40  C   UNL A   1      38.019  30.484  28.724  1.00  0.00     0.173 A 
ATOM     41  C   UNL A   1      37.767  30.276  31.105  1.00  0.00     0.173 A 
ATOM     42  F   UNL A   1      38.745  30.360  27.603  1.00  0.00    -0.203 F 
ATOM     43  C   UNL A   1      36.727  30.994  28.631  1.00  0.00     0.198 A 
ATOM     44  C   UNL A   1      36.466  30.763  31.007  1.00  0.00     0.198 A 
ATOM     45  F   UNL A   1      38.240  29.933  32.313  1.00  0.00    -0.203 F 
ATOM     46  F   UNL A   1      36.234  31.356  27.439  1.00  0.00    -0.200 F 
ATOM     47  C   UNL A   1      35.950  31.129  29.772  1.00  0.00     0.200 A 
ATOM     48  F   UNL A   1      35.708  30.874  32.106  1.00  0.00    -0.200 F 
ATOM     49  F   UNL A   1      34.702  31.609  29.681  1.00  0.00    -0.200 F 
ENDBRANCH  25  39
BRANCH  26  50
ATOM     50  C   UNL A   1      47.986  26.812  30.116  1.00  0.00     0.064 A 
ATOM     51  C   UNL A   1      48.455  25.993  31.155  1.00  0.00     0.173 A 
ATOM     52  C   UNL A   1      48.900  27.215  29.135  1.00  0.00     0.173 A 
ATOM     53  F   UNL A   1      47.618  25.590  32.121  1.00  0.00    -0.203 F 
ATOM     54  C   UNL A   1      49.797  25.627  31.230  1.00  0.00     0.198 A 
ATOM     55  C   UNL A   1      50.237  26.829  29.199  1.00  0.00     0.198 A 
ATOM     56  F   UNL A   1      48.492  27.986  28.116  1.00  0.00    -0.203 F 
ATOM     57  F   UNL A   1      50.231  24.887  32.260  1.00  0.00    -0.200 F 
ATOM     58  C   UNL A   1      50.687  26.046  30.253  1.00  0.00     0.200 A 
ATOM     59  F   UNL A   1      51.092  27.224  28.246  1.00  0.00    -0.200 F 
ATOM     60  F   UNL A   1      51.979  25.702  30.329  1.00  0.00    -0.200 F 
ENDBRANCH  26  50
BRANCH  38  61
ATOM     61  C   UNL A   1      44.909  32.796  32.013  1.00  0.00     0.064 A 
ATOM     62  C   UNL A   1      45.298  33.836  31.154  1.00  0.00     0.173 A 
ATOM     63  C   UNL A   1      45.113  32.966  33.390  1.00  0.00     0.173 A 
ATOM     64  F   UNL A   1      45.127  33.716  29.829  1.00  0.00    -0.203 F 
ATOM     65  C   UNL A   1      45.893  34.990  31.653  1.00  0.00     0.198 A 
ATOM     66  C   UNL A   1      45.688  34.131  33.887  1.00  0.00     0.198 A 
ATOM     67  F   UNL A   1      44.744  32.005  34.249  1.00  0.00    -0.203 F 
ATOM     68  F   UNL A   1      46.291  35.954  30.812  1.00  0.00    -0.200 F 
ATOM     69  C   UNL A   1      46.089  35.137  33.019  1.00  0.00     0.200 A 
ATOM     70  F   UNL A   1      45.860  34.281  35.208  1.00  0.00    -0.200 F 
ATOM     71  F   UNL A   1      46.664  36.247  33.498  1.00  0.00    -0.200 F 
ENDBRANCH  38  61
ENDBRANCH  12  13
ENDBRANCH   5   7
ENDBRANCH   2   3
ENDBRANCH   1   2
BRANCH   1  72
ATOM     72  C   UNL A   1      43.619  18.657  25.351  1.00  0.00     0.117 C 
BRANCH  72  73
ATOM     73  N   UNL A   1      45.061  18.810  25.320  1.00  0.00    -0.356 N 
ATOM     74  C   UNL A   1      45.854  19.859  24.977  1.00  0.00     0.226 C 
ATOM     75  H   UNL A   1      45.556  18.007  25.600  1.00  0.00     0.163 HD
ATOM     76  O   UNL A   1      47.072  19.652  24.968  1.00  0.00    -0.274 OA
BRANCH  74  77
ATOM     77  C   UNL A   1      45.308  21.238  24.596  1.00  0.00     0.103 C 
ATOM     78  C   UNL A   1      44.283  21.757  25.548  1.00  0.00    -0.016 C 
ATOM     79  C   UNL A   1      46.342  22.365  24.494  1.00  0.00     0.042 C 
ATOM     80  C   UNL A   1      44.572  22.991  25.968  1.00  0.00    -0.011 C 
ATOM     81  C   UNL A   1      45.857  23.505  25.418  1.00  0.00     0.093 C 
BRANCH  81  82
ATOM     82  N   UNL A   1      45.679  24.721  24.646  1.00  0.00    -0.204 NA
ATOM     83  H   UNL A   1      44.676  24.798  24.479  1.00  0.00     0.142 HD
BRANCH  82  84
ATOM     84  S   UNL A   1      46.168  26.236  25.149  1.00  0.00     0.244 S 
ATOM     85  O   UNL A   1      46.910  26.039  26.374  1.00  0.00    -0.207 OA
ATOM     86  O   UNL A   1      46.761  26.908  24.013  1.00  0.00    -0.207 OA
BRANCH  84  87
ATOM     87  C   UNL A   1      44.721  27.149  25.577  1.00  0.00     0.121 A 
ATOM     88  C   UNL A   1      43.482  26.732  25.064  1.00  0.00     0.028 A 
ATOM     89  C   UNL A   1      44.798  28.263  26.400  1.00  0.00     0.181 A 
ATOM     90  C   UNL A   1      42.321  27.432  25.396  1.00  0.00     0.044 A 
ATOM     91  C   UNL A   1      43.637  28.949  26.741  1.00  0.00     0.195 A 
ATOM     92  F   UNL A   1      45.971  28.676  26.902  1.00  0.00    -0.202 F 
ATOM     93  C   UNL A   1      42.406  28.535  26.240  1.00  0.00     0.161 A 
ATOM     94  F   UNL A   1      43.700  30.001  27.570  1.00  0.00    -0.200 F 
ATOM     95  F   UNL A   1      41.286  29.190  26.574  1.00  0.00    -0.204 F 
ENDBRANCH  84  87
ENDBRANCH  82  84
ENDBRANCH  81  82
ENDBRANCH  74  77
ENDBRANCH  72  73
ENDBRANCH   1  72
TORSDOF 13
ENDMDL
MODEL 2
REMARK VINA RESULT:     -10.7      6.015     11.359
REMARK SMILES O=C(NCCCNC(=O)[C@H]1C=C[C@H](NS(=O)(=O)c2ccc(F)c(F)c2F)C1)c1ccc(-c2c3nc(c(-c4c(F)c(F)c(F)c(F)c4F)c4ccc([nH]4)c(-c4c(F)c(F)c(F)c(F)c4F)c4nc(c(-c5c(F)c(F)c(F)c(F)c5F)c5ccc2[nH]5)C=C4)C=C3)cc1
REMARK SMILES IDX 5 1 4 2 3 3 1 4 2 5 28 7 29 8 90 9 30 10 89 11 31 12 32 13
REMARK SMILES IDX 33 14 83 15 34 16 88 17 82 18 84 19 35 20 87 21 81 22 80 23
REMARK SMILES IDX 36 25 68 26 48 27 67 28 49 29 52 30 66 31 85 32 50 33 51 34
REMARK SMILES IDX 65 36 86 37 53 38 37 39 38 40 46 41 39 42 40 43 44 44 47 45
REMARK SMILES IDX 41 46 42 47 45 48 43 49 69 50 70 51 78 52 71 53 72 54 76 55
REMARK SMILES IDX 79 56 73 57 74 58 77 59 75 60 54 61 55 62 63 63 56 64 57 65
REMARK SMILES IDX 61 66 64 67 58 68 59 69 62 70 60 71 6 72 7 73 8 74 9 76
REMARK SMILES IDX 10 77 11 78 27 79 12 80 13 81 14 82 15 84 16 85 17 86 18 87
REMARK SMILES IDX 19 88 25 89 20 90 23 91 26 92 21 93 24 94 22 95
REMARK H PARENT 3 6 84 24 52 35 7 75 14 83
REMARK Flexibility Score: inf
ROOT
ATOM      1  C   UNL A   1      31.421  32.338  26.714  1.00  0.00     0.042 C 
ENDROOT
BRANCH   1   2
ATOM      2  C   UNL A   1      32.737  33.001  27.103  1.00  0.00     0.118 C 
BRANCH   2   3
ATOM      3  N   UNL A   1      32.541  34.337  27.650  1.00  0.00    -0.352 N 
ATOM      4  O   UNL A   1      32.597  35.984  29.175  1.00  0.00    -0.269 OA
ATOM      5  C   UNL A   1      33.081  34.935  28.759  1.00  0.00     0.251 C 
ATOM      6  H   UNL A   1      31.918  34.903  27.140  1.00  0.00     0.163 HD
BRANCH   5   7
ATOM      7  C   UNL A   1      34.236  34.335  29.461  1.00  0.00     0.039 A 
ATOM      8  C   UNL A   1      34.055  33.473  30.546  1.00  0.00     0.014 A 
ATOM      9  C   UNL A   1      35.524  34.574  28.969  1.00  0.00     0.014 A 
ATOM     10  C   UNL A   1      35.160  32.944  31.208  1.00  0.00     0.010 A 
ATOM     11  C   UNL A   1      36.628  33.980  29.584  1.00  0.00     0.010 A 
ATOM     12  C   UNL A   1      36.455  33.174  30.719  1.00  0.00    -0.014 A 
BRANCH  12  13
ATOM     13  C   UNL A   1      37.608  32.491  31.352  1.00  0.00     0.031 A 
ATOM     14  C   UNL A   1      38.347  31.399  30.640  1.00  0.00     0.074 A 
ATOM     15  C   UNL A   1      37.982  32.872  32.589  1.00  0.00     0.049 A 
ATOM     16  N   UNL A   1      39.364  30.687  31.056  1.00  0.00    -0.248 NA
ATOM     17  C   UNL A   1      37.882  31.050  29.290  1.00  0.00     0.031 C 
ATOM     18  C   UNL A   1      37.327  33.915  33.379  1.00  0.00     0.029 A 
ATOM     19  N   UNL A   1      39.003  32.436  33.393  1.00  0.00    -0.354 N 
ATOM     20  C   UNL A   1      39.647  29.795  30.033  1.00  0.00     0.074 A 
ATOM     21  C   UNL A   1      38.684  30.040  28.980  1.00  0.00     0.031 C 
ATOM     22  C   UNL A   1      37.982  34.064  34.538  1.00  0.00     0.029 A 
ATOM     23  C   UNL A   1      39.067  33.090  34.598  1.00  0.00     0.049 A 
ATOM     24  H   UNL A   1      39.630  31.723  33.132  1.00  0.00     0.167 HD
ATOM     25  C   UNL A   1      40.626  28.862  29.980  1.00  0.00     0.037 A 
ATOM     26  C   UNL A   1      39.893  32.915  35.646  1.00  0.00     0.037 A 
ATOM     27  C   UNL A   1      41.598  28.648  31.022  1.00  0.00     0.049 A 
ATOM     28  C   UNL A   1      40.955  31.860  35.573  1.00  0.00     0.074 A 
ATOM     29  C   UNL A   1      42.674  27.779  31.027  1.00  0.00     0.029 A 
ATOM     30  N   UNL A   1      41.605  29.302  32.245  1.00  0.00    -0.354 N 
ATOM     31  N   UNL A   1      41.238  31.049  34.584  1.00  0.00    -0.248 NA
ATOM     32  C   UNL A   1      41.804  31.684  36.759  1.00  0.00     0.031 C 
ATOM     33  C   UNL A   1      43.304  27.872  32.273  1.00  0.00     0.029 A 
ATOM     34  C   UNL A   1      42.647  28.832  33.027  1.00  0.00     0.049 A 
ATOM     35  H   UNL A   1      40.964  29.999  32.517  1.00  0.00     0.167 HD
ATOM     36  C   UNL A   1      42.299  30.270  35.020  1.00  0.00     0.074 A 
ATOM     37  C   UNL A   1      42.619  30.715  36.362  1.00  0.00     0.031 C 
ATOM     38  C   UNL A   1      42.946  29.276  34.365  1.00  0.00     0.037 A 
BRANCH  25  39
ATOM     39  C   UNL A   1      40.698  27.985  28.766  1.00  0.00     0.064 A 
ATOM     40  C   UNL A   1      41.473  28.369  27.661  1.00  0.00     0.173 A 
ATOM     41  C   UNL A   1      39.951  26.803  28.666  1.00  0.00     0.173 A 
ATOM     42  F   UNL A   1      42.201  29.494  27.705  1.00  0.00    -0.203 F 
ATOM     43  C   UNL A   1      41.490  27.606  26.496  1.00  0.00     0.198 A 
ATOM     44  C   UNL A   1      39.989  26.029  27.508  1.00  0.00     0.198 A 
ATOM     45  F   UNL A   1      39.202  26.387  29.698  1.00  0.00    -0.203 F 
ATOM     46  F   UNL A   1      42.219  28.006  25.446  1.00  0.00    -0.200 F 
ATOM     47  C   UNL A   1      40.751  26.435  26.423  1.00  0.00     0.200 A 
ATOM     48  F   UNL A   1      39.292  24.887  27.444  1.00  0.00    -0.200 F 
ATOM     49  F   UNL A   1      40.777  25.695  25.305  1.00  0.00    -0.200 F 
ENDBRANCH  25  39
BRANCH  26  50
ATOM     50  C   UNL A   1      39.727  33.780  36.840  1.00  0.00     0.064 A 
ATOM     51  C   UNL A   1      38.905  33.391  37.909  1.00  0.00     0.173 A 
ATOM     52  C   UNL A   1      40.311  35.051  36.890  1.00  0.00     0.173 A 
ATOM     53  F   UNL A   1      38.317  32.186  37.899  1.00  0.00    -0.203 F 
ATOM     54  C   UNL A   1      38.644  34.259  38.967  1.00  0.00     0.198 A 
ATOM     55  C   UNL A   1      40.068  35.910  37.960  1.00  0.00     0.198 A 
ATOM     56  F   UNL A   1      41.115  35.459  35.897  1.00  0.00    -0.203 F 
ATOM     57  F   UNL A   1      37.814  33.884  39.950  1.00  0.00    -0.200 F 
ATOM     58  C   UNL A   1      39.225  35.517  38.991  1.00  0.00     0.200 A 
ATOM     59  F   UNL A   1      40.641  37.120  37.989  1.00  0.00    -0.200 F 
ATOM     60  F   UNL A   1      38.968  36.356  40.004  1.00  0.00    -0.200 F 
ENDBRANCH  26  50
BRANCH  38  61
ATOM     61  C   UNL A   1      44.067  28.588  35.081  1.00  0.00     0.064 A 
ATOM     62  C   UNL A   1      43.815  27.473  35.895  1.00  0.00     0.173 A 
ATOM     63  C   UNL A   1      45.375  29.092  35.038  1.00  0.00     0.173 A 
ATOM     64  F   UNL A   1      42.577  26.960  35.972  1.00  0.00    -0.203 F 
ATOM     65  C   UNL A   1      44.827  26.902  36.658  1.00  0.00     0.198 A 
ATOM     66  C   UNL A   1      46.390  28.504  35.785  1.00  0.00     0.198 A 
ATOM     67  F   UNL A   1      45.665  30.147  34.262  1.00  0.00    -0.203 F 
ATOM     68  F   UNL A   1      44.556  25.862  37.458  1.00  0.00    -0.200 F 
ATOM     69  C   UNL A   1      46.114  27.418  36.604  1.00  0.00     0.200 A 
ATOM     70  F   UNL A   1      47.637  28.990  35.718  1.00  0.00    -0.200 F 
ATOM     71  F   UNL A   1      47.088  26.868  37.341  1.00  0.00    -0.200 F 
ENDBRANCH  38  61
ENDBRANCH  12  13
ENDBRANCH   5   7
ENDBRANCH   2   3
ENDBRANCH   1   2
BRANCH   1  72
ATOM     72  C   UNL A   1      31.555  30.851  26.417  1.00  0.00     0.117 C 
BRANCH  72  73
ATOM     73  N   UNL A   1      32.893  30.351  26.666  1.00  0.00    -0.356 N 
ATOM     74  C   UNL A   1      33.473  29.148  26.414  1.00  0.00     0.226 C 
ATOM     75  H   UNL A   1      33.491  31.002  27.097  1.00  0.00     0.163 HD
ATOM     76  O   UNL A   1      34.626  28.991  26.830  1.00  0.00    -0.274 OA
BRANCH  74  77
ATOM     77  C   UNL A   1      32.766  28.012  25.670  1.00  0.00     0.103 C 
ATOM     78  C   UNL A   1      33.577  27.430  24.561  1.00  0.00    -0.016 C 
ATOM     79  C   UNL A   1      32.357  26.803  26.521  1.00  0.00     0.042 C 
ATOM     80  C   UNL A   1      33.663  26.100  24.651  1.00  0.00    -0.011 C 
ATOM     81  C   UNL A   1      32.971  25.553  25.851  1.00  0.00     0.093 C 
BRANCH  81  82
ATOM     82  N   UNL A   1      31.919  24.616  25.503  1.00  0.00    -0.204 NA
ATOM     83  H   UNL A   1      32.110  24.331  24.542  1.00  0.00     0.142 HD
BRANCH  82  84
ATOM     84  S   UNL A   1      31.602  23.204  26.336  1.00  0.00     0.244 S 
ATOM     85  O   UNL A   1      31.845  23.491  27.731  1.00  0.00    -0.207 OA
ATOM     86  O   UNL A   1      30.322  22.704  25.885  1.00  0.00    -0.207 OA
BRANCH  84  87
ATOM     87  C   UNL A   1      32.809  22.015  25.847  1.00  0.00     0.121 A 
ATOM     88  C   UNL A   1      32.400  20.912  25.079  1.00  0.00     0.028 A 
ATOM     89  C   UNL A   1      34.139  22.155  26.217  1.00  0.00     0.181 A 
ATOM     90  C   UNL A   1      33.339  19.962  24.673  1.00  0.00     0.044 A 
ATOM     91  C   UNL A   1      35.074  21.214  25.796  1.00  0.00     0.195 A 
ATOM     92  F   UNL A   1      34.550  23.201  26.947  1.00  0.00    -0.202 F 
ATOM     93  C   UNL A   1      34.673  20.124  25.029  1.00  0.00     0.161 A 
ATOM     94  F   UNL A   1      36.367  21.368  26.114  1.00  0.00    -0.200 F 
ATOM     95  F   UNL A   1      35.573  19.222  24.617  1.00  0.00    -0.204 F 
ENDBRANCH  84  87
ENDBRANCH  82  84
ENDBRANCH  81  82
ENDBRANCH  74  77
ENDBRANCH  72  73
ENDBRANCH   1  72
TORSDOF 13
ENDMDL
MODEL 3
REMARK VINA RESULT:     -10.7      4.079      9.683
REMARK SMILES O=C(NCCCNC(=O)[C@H]1C=C[C@H](NS(=O)(=O)c2ccc(F)c(F)c2F)C1)c1ccc(-c2c3nc(c(-c4c(F)c(F)c(F)c(F)c4F)c4ccc([nH]4)c(-c4c(F)c(F)c(F)c(F)c4F)c4nc(c(-c5c(F)c(F)c(F)c(F)c5F)c5ccc2[nH]5)C=C4)C=C3)cc1
REMARK SMILES IDX 5 1 4 2 3 3 1 4 2 5 28 7 29 8 90 9 30 10 89 11 31 12 32 13
REMARK SMILES IDX 33 14 83 15 34 16 88 17 82 18 84 19 35 20 87 21 81 22 80 23
REMARK SMILES IDX 36 25 68 26 48 27 67 28 49 29 52 30 66 31 85 32 50 33 51 34
REMARK SMILES IDX 65 36 86 37 53 38 37 39 38 40 46 41 39 42 40 43 44 44 47 45
REMARK SMILES IDX 41 46 42 47 45 48 43 49 69 50 70 51 78 52 71 53 72 54 76 55
REMARK SMILES IDX 79 56 73 57 74 58 77 59 75 60 54 61 55 62 63 63 56 64 57 65
REMARK SMILES IDX 61 66 64 67 58 68 59 69 62 70 60 71 6 72 7 73 8 74 9 76
REMARK SMILES IDX 10 77 11 78 27 79 12 80 13 81 14 82 15 84 16 85 17 86 18 87
REMARK SMILES IDX 19 88 25 89 20 90 23 91 26 92 21 93 24 94 22 95
REMARK H PARENT 3 6 84 24 52 35 7 75 14 83
REMARK Flexibility Score: inf
ROOT
ATOM      1  C   UNL A   1      37.918  19.524  25.064  1.00  0.00     0.042 C 
ENDROOT
BRANCH   1   2
ATOM      2  C   UNL A   1      39.107  20.133  25.798  1.00  0.00     0.118 C 
BRANCH   2   3
ATOM      3  N   UNL A   1      40.205  19.189  25.949  1.00  0.00    -0.352 N 
ATOM      4  O   UNL A   1      42.329  18.463  25.981  1.00  0.00    -0.269 OA
ATOM      5  C   UNL A   1      41.550  19.401  26.114  1.00  0.00     0.251 C 
ATOM      6  H   UNL A   1      39.939  18.241  25.929  1.00  0.00     0.163 HD
BRANCH   5   7
ATOM      7  C   UNL A   1      42.072  20.743  26.451  1.00  0.00     0.039 A 
ATOM      8  C   UNL A   1      42.340  21.686  25.454  1.00  0.00     0.014 A 
ATOM      9  C   UNL A   1      42.216  21.093  27.797  1.00  0.00     0.014 A 
ATOM     10  C   UNL A   1      42.859  22.931  25.795  1.00  0.00     0.010 A 
ATOM     11  C   UNL A   1      42.661  22.372  28.143  1.00  0.00     0.010 A 
ATOM     12  C   UNL A   1      43.002  23.294  27.143  1.00  0.00    -0.014 A 
BRANCH  12  13
ATOM     13  C   UNL A   1      43.424  24.672  27.490  1.00  0.00     0.031 A 
ATOM     14  C   UNL A   1      44.870  25.066  27.474  1.00  0.00     0.074 A 
ATOM     15  C   UNL A   1      42.478  25.570  27.825  1.00  0.00     0.049 A 
ATOM     16  N   UNL A   1      45.411  26.222  27.768  1.00  0.00    -0.248 NA
ATOM     17  C   UNL A   1      45.839  24.030  27.088  1.00  0.00     0.031 C 
ATOM     18  C   UNL A   1      41.042  25.292  27.886  1.00  0.00     0.029 A 
ATOM     19  N   UNL A   1      42.576  26.894  28.168  1.00  0.00    -0.354 N 
ATOM     20  C   UNL A   1      46.779  26.047  27.624  1.00  0.00     0.074 A 
ATOM     21  C   UNL A   1      46.991  24.670  27.234  1.00  0.00     0.031 C 
ATOM     22  C   UNL A   1      40.390  26.417  28.208  1.00  0.00     0.029 A 
ATOM     23  C   UNL A   1      41.364  27.481  28.434  1.00  0.00     0.049 A 
ATOM     24  H   UNL A   1      43.432  27.377  28.220  1.00  0.00     0.167 HD
ATOM     25  C   UNL A   1      47.763  26.960  27.797  1.00  0.00     0.037 A 
ATOM     26  C   UNL A   1      41.066  28.731  28.833  1.00  0.00     0.037 A 
ATOM     27  C   UNL A   1      47.538  28.337  28.157  1.00  0.00     0.049 A 
ATOM     28  C   UNL A   1      42.176  29.717  29.040  1.00  0.00     0.074 A 
ATOM     29  C   UNL A   1      48.465  29.356  28.282  1.00  0.00     0.029 A 
ATOM     30  N   UNL A   1      46.299  28.884  28.457  1.00  0.00    -0.354 N 
ATOM     31  N   UNL A   1      43.463  29.552  28.863  1.00  0.00    -0.248 NA
ATOM     32  C   UNL A   1      41.798  31.055  29.514  1.00  0.00     0.031 C 
ATOM     33  C   UNL A   1      47.794  30.508  28.706  1.00  0.00     0.029 A 
ATOM     34  C   UNL A   1      46.442  30.219  28.801  1.00  0.00     0.049 A 
ATOM     35  H   UNL A   1      45.444  28.396  28.430  1.00  0.00     0.167 HD
ATOM     36  C   UNL A   1      44.053  30.763  29.195  1.00  0.00     0.074 A 
ATOM     37  C   UNL A   1      42.979  31.659  29.574  1.00  0.00     0.031 C 
ATOM     38  C   UNL A   1      45.366  31.095  29.186  1.00  0.00     0.037 A 
BRANCH  25  39
ATOM     39  C   UNL A   1      49.182  26.508  27.618  1.00  0.00     0.064 A 
ATOM     40  C   UNL A   1      50.002  26.290  28.736  1.00  0.00     0.173 A 
ATOM     41  C   UNL A   1      49.752  26.357  26.346  1.00  0.00     0.173 A 
ATOM     42  F   UNL A   1      49.505  26.427  29.974  1.00  0.00    -0.203 F 
ATOM     43  C   UNL A   1      51.342  25.945  28.587  1.00  0.00     0.198 A 
ATOM     44  C   UNL A   1      51.087  25.989  26.200  1.00  0.00     0.198 A 
ATOM     45  F   UNL A   1      49.008  26.544  25.245  1.00  0.00    -0.203 F 
ATOM     46  F   UNL A   1      52.111  25.766  29.669  1.00  0.00    -0.200 F 
ATOM     47  C   UNL A   1      51.882  25.791  27.319  1.00  0.00     0.200 A 
ATOM     48  F   UNL A   1      51.604  25.819  24.975  1.00  0.00    -0.200 F 
ATOM     49  F   UNL A   1      53.171  25.448  27.177  1.00  0.00    -0.200 F 
ENDBRANCH  25  39
BRANCH  26  50
ATOM     50  C   UNL A   1      39.643  29.093  29.048  1.00  0.00     0.064 A 
ATOM     51  C   UNL A   1      39.053  28.991  30.318  1.00  0.00     0.173 A 
ATOM     52  C   UNL A   1      38.825  29.455  27.972  1.00  0.00     0.173 A 
ATOM     53  F   UNL A   1      39.796  28.639  31.376  1.00  0.00    -0.203 F 
ATOM     54  C   UNL A   1      37.688  29.203  30.494  1.00  0.00     0.198 A 
ATOM     55  C   UNL A   1      37.463  29.689  28.153  1.00  0.00     0.198 A 
ATOM     56  F   UNL A   1      39.350  29.578  26.743  1.00  0.00    -0.203 F 
ATOM     57  F   UNL A   1      37.139  29.049  31.706  1.00  0.00    -0.200 F 
ATOM     58  C   UNL A   1      36.894  29.551  29.412  1.00  0.00     0.200 A 
ATOM     59  F   UNL A   1      36.701  30.038  27.108  1.00  0.00    -0.200 F 
ATOM     60  F   UNL A   1      35.580  29.746  29.578  1.00  0.00    -0.200 F 
ENDBRANCH  26  50
BRANCH  38  61
ATOM     61  C   UNL A   1      45.731  32.487  29.601  1.00  0.00     0.064 A 
ATOM     62  C   UNL A   1      45.816  33.515  28.650  1.00  0.00     0.173 A 
ATOM     63  C   UNL A   1      46.092  32.780  30.924  1.00  0.00     0.173 A 
ATOM     64  F   UNL A   1      45.486  33.279  27.370  1.00  0.00    -0.203 F 
ATOM     65  C   UNL A   1      46.271  34.781  29.003  1.00  0.00     0.198 A 
ATOM     66  C   UNL A   1      46.525  34.054  31.278  1.00  0.00     0.198 A 
ATOM     67  F   UNL A   1      46.013  31.833  31.870  1.00  0.00    -0.203 F 
ATOM     68  F   UNL A   1      46.380  35.737  28.071  1.00  0.00    -0.200 F 
ATOM     69  C   UNL A   1      46.626  35.049  30.317  1.00  0.00     0.200 A 
ATOM     70  F   UNL A   1      46.851  34.319  32.552  1.00  0.00    -0.200 F 
ATOM     71  F   UNL A   1      47.066  36.268  30.657  1.00  0.00    -0.200 F 
ENDBRANCH  38  61
ENDBRANCH  12  13
ENDBRANCH   5   7
ENDBRANCH   2   3
ENDBRANCH   1   2
BRANCH   1  72
ATOM     72  C   UNL A   1      36.797  20.518  24.794  1.00  0.00     0.117 C 
BRANCH  72  73
ATOM     73  N   UNL A   1      35.484  19.964  25.063  1.00  0.00    -0.356 N 
ATOM     74  C   UNL A   1      34.235  20.474  24.901  1.00  0.00     0.226 C 
ATOM     75  H   UNL A   1      35.501  19.052  25.431  1.00  0.00     0.163 HD
ATOM     76  O   UNL A   1      33.297  19.782  25.312  1.00  0.00    -0.274 OA
BRANCH  74  77
ATOM     77  C   UNL A   1      33.958  21.838  24.264  1.00  0.00     0.103 C 
ATOM     78  C   UNL A   1      32.666  21.896  23.518  1.00  0.00    -0.016 C 
ATOM     79  C   UNL A   1      33.899  23.031  25.226  1.00  0.00     0.042 C 
ATOM     80  C   UNL A   1      31.918  22.936  23.898  1.00  0.00    -0.011 C 
ATOM     81  C   UNL A   1      32.542  23.733  24.990  1.00  0.00     0.093 C 
BRANCH  81  82
ATOM     82  N   UNL A   1      32.765  25.115  24.606  1.00  0.00    -0.204 NA
ATOM     83  H   UNL A   1      33.146  25.081  23.661  1.00  0.00     0.142 HD
BRANCH  82  84
ATOM     84  S   UNL A   1      31.576  26.285  24.571  1.00  0.00     0.244 S 
ATOM     85  O   UNL A   1      31.457  26.704  23.193  1.00  0.00    -0.207 OA
ATOM     86  O   UNL A   1      30.435  25.776  25.301  1.00  0.00    -0.207 OA
BRANCH  84  87
ATOM     87  C   UNL A   1      32.172  27.679  25.472  1.00  0.00     0.121 A 
ATOM     88  C   UNL A   1      33.277  27.512  26.323  1.00  0.00     0.028 A 
ATOM     89  C   UNL A   1      31.561  28.919  25.354  1.00  0.00     0.181 A 
ATOM     90  C   UNL A   1      33.773  28.602  27.040  1.00  0.00     0.044 A 
ATOM     91  C   UNL A   1      32.069  30.006  26.058  1.00  0.00     0.195 A 
ATOM     92  F   UNL A   1      30.507  29.100  24.545  1.00  0.00    -0.202 F 
ATOM     93  C   UNL A   1      33.168  29.846  26.896  1.00  0.00     0.161 A 
ATOM     94  F   UNL A   1      31.509  31.216  25.914  1.00  0.00    -0.200 F 
ATOM     95  F   UNL A   1      33.662  30.894  27.569  1.00  0.00    -0.204 F 
ENDBRANCH  84  87
ENDBRANCH  82  84
ENDBRANCH  81  82
ENDBRANCH  74  77
ENDBRANCH  72  73
ENDBRANCH   1  72
TORSDOF 13
ENDMDL
