MODEL 1
REMARK VINA RESULT:     -13.6      0.000      0.000
REMARK SMILES Cc1c2c([nH]c(=O)c1C(=O)NCCCNC(=O)c1ccc(-c3c4nc(c(-c5c(F)c(F)c(F)c(F)c5F)c5ccc([nH]5)c(-c5c(F)c(F)c(F)c(F)c5F)c5nc(c(-c6c(F)c(F)c(F)c(F)c6F)c6ccc3[nH]6)C=C5)C=C4)cc1)CC(C)(C)CC2=O
REMARK SMILES IDX 14 1 13 2 12 3 11 4 9 5 10 6 8 8 1 9 2 10 3 11 4 12 86 13
REMARK SMILES IDX 6 14 5 15 81 16 85 17 87 18 7 19 82 21 83 22 84 23 15 24
REMARK SMILES IDX 16 25 17 27 18 28 19 29 80 30 20 31 79 32 21 33 22 34 23 35
REMARK SMILES IDX 73 36 24 37 78 38 72 39 74 40 25 41 77 42 71 43 70 44 26 46
REMARK SMILES IDX 58 47 38 48 57 49 39 50 42 51 56 52 75 53 40 54 41 55 55 57
REMARK SMILES IDX 76 58 43 59 27 60 28 61 36 62 29 63 30 64 34 65 37 66 31 67
REMARK SMILES IDX 32 68 35 69 33 70 59 71 60 72 68 73 61 74 62 75 66 76 69 77
REMARK SMILES IDX 63 78 64 79 67 80 65 81 44 82 45 83 53 84 46 85 47 86 51 87
REMARK SMILES IDX 54 88 48 89 49 90 52 91 50 92
REMARK H PARENT 11 7 5 20 15 26 74 45 42 56
REMARK Flexibility Score: inf
ROOT
ATOM      1  C   UNL A   1      32.928  29.053  25.447  1.00  0.00     0.118 C 
ENDROOT
BRANCH   1   2
ATOM      2  C   UNL A   1      34.000  29.137  24.369  1.00  0.00     0.042 C 
BRANCH   2   3
ATOM      3  C   UNL A   1      33.760  28.235  23.172  1.00  0.00     0.118 C 
BRANCH   3   4
ATOM      4  N   UNL A   1      32.465  28.408  22.529  1.00  0.00    -0.352 N 
ATOM      5  C   UNL A   1      31.453  27.505  22.338  1.00  0.00     0.257 C 
ATOM      6  O   UNL A   1      30.369  27.911  21.928  1.00  0.00    -0.269 OA
ATOM      7  H   UNL A   1      32.292  29.312  22.179  1.00  0.00     0.163 HD
BRANCH   5   8
ATOM      8  C   UNL A   1      31.697  26.065  22.604  1.00  0.00     0.108 A 
ATOM      9  C   UNL A   1      29.921  25.932  24.396  1.00  0.00     0.046 C 
ATOM     10  C   UNL A   1      31.095  25.393  23.614  1.00  0.00    -0.020 A 
ATOM     11  C   UNL A   1      31.514  24.022  23.921  1.00  0.00     0.041 A 
ATOM     12  C   UNL A   1      32.160  23.296  22.991  1.00  0.00     0.030 A 
ATOM     13  C   UNL A   1      31.330  23.419  25.282  1.00  0.00     0.165 C 
ATOM     14  C   UNL A   1      32.521  25.283  21.629  1.00  0.00     0.261 A 
ATOM     15  N   UNL A   1      32.597  23.924  21.847  1.00  0.00    -0.325 N 
ATOM     16  C   UNL A   1      32.537  21.844  23.142  1.00  0.00     0.061 C 
ATOM     17  C   UNL A   1      31.504  21.928  25.434  1.00  0.00     0.088 C 
ATOM     18  O   UNL A   1      31.057  24.115  26.258  1.00  0.00    -0.294 OA
ATOM     19  O   UNL A   1      33.105  25.786  20.675  1.00  0.00    -0.269 OA
ATOM     20  H   UNL A   1      32.990  23.366  21.138  1.00  0.00     0.169 HD
ATOM     21  C   UNL A   1      32.683  21.391  24.609  1.00  0.00    -0.023 C 
ATOM     22  C   UNL A   1      34.027  21.888  25.182  1.00  0.00     0.012 C 
ATOM     23  C   UNL A   1      32.667  19.855  24.679  1.00  0.00     0.012 C 
ENDBRANCH   5   8
ENDBRANCH   3   4
ENDBRANCH   2   3
ENDBRANCH   1   2
BRANCH   1  24
ATOM     24  N   UNL A   1      32.519  30.347  25.982  1.00  0.00    -0.352 N 
ATOM     25  C   UNL A   1      33.076  31.174  26.926  1.00  0.00     0.251 C 
ATOM     26  H   UNL A   1      31.685  30.693  25.589  1.00  0.00     0.163 HD
ATOM     27  O   UNL A   1      32.460  32.177  27.283  1.00  0.00    -0.269 OA
BRANCH  25  28
ATOM     28  C   UNL A   1      34.377  30.862  27.559  1.00  0.00     0.039 A 
ATOM     29  C   UNL A   1      35.323  31.883  27.701  1.00  0.00     0.014 A 
ATOM     30  C   UNL A   1      34.691  29.576  27.993  1.00  0.00     0.014 A 
ATOM     31  C   UNL A   1      36.527  31.635  28.364  1.00  0.00     0.010 A 
ATOM     32  C   UNL A   1      35.830  29.357  28.759  1.00  0.00     0.010 A 
ATOM     33  C   UNL A   1      36.767  30.382  28.951  1.00  0.00    -0.014 A 
BRANCH  33  34
ATOM     34  C   UNL A   1      37.990  30.105  29.747  1.00  0.00     0.031 A 
ATOM     35  C   UNL A   1      39.060  29.202  29.192  1.00  0.00     0.074 A 
ATOM     36  C   UNL A   1      38.104  30.593  30.998  1.00  0.00     0.049 A 
ATOM     37  N   UNL A   1      40.129  28.725  29.779  1.00  0.00    -0.248 NA
ATOM     38  C   UNL A   1      38.884  28.741  27.805  1.00  0.00     0.031 C 
ATOM     39  C   UNL A   1      37.117  31.439  31.671  1.00  0.00     0.029 A 
ATOM     40  N   UNL A   1      39.099  30.440  31.932  1.00  0.00    -0.354 N 
ATOM     41  C   UNL A   1      40.728  27.889  28.846  1.00  0.00     0.074 A 
ATOM     42  C   UNL A   1      39.878  27.875  27.677  1.00  0.00     0.031 C 
ATOM     43  C   UNL A   1      37.573  31.764  32.891  1.00  0.00     0.029 A 
ATOM     44  C   UNL A   1      38.862  31.113  33.106  1.00  0.00     0.049 A 
ATOM     45  H   UNL A   1      39.907  29.899  31.775  1.00  0.00     0.167 HD
ATOM     46  C   UNL A   1      41.902  27.220  28.941  1.00  0.00     0.037 A 
ATOM     47  C   UNL A   1      39.599  31.192  34.230  1.00  0.00     0.037 A 
ATOM     48  C   UNL A   1      42.776  27.281  30.080  1.00  0.00     0.049 A 
ATOM     49  C   UNL A   1      40.906  30.453  34.305  1.00  0.00     0.074 A 
ATOM     50  C   UNL A   1      44.015  26.688  30.249  1.00  0.00     0.029 A 
ATOM     51  N   UNL A   1      42.508  27.992  31.240  1.00  0.00    -0.354 N 
ATOM     52  N   UNL A   1      41.479  29.695  33.403  1.00  0.00    -0.248 NA
ATOM     53  C   UNL A   1      41.668  30.576  35.556  1.00  0.00     0.031 C 
ATOM     54  C   UNL A   1      44.485  27.017  31.524  1.00  0.00     0.029 A 
ATOM     55  C   UNL A   1      43.556  27.845  32.134  1.00  0.00     0.049 A 
ATOM     56  H   UNL A   1      41.695  28.521  31.405  1.00  0.00     0.167 HD
ATOM     57  C   UNL A   1      42.674  29.268  33.965  1.00  0.00     0.074 A 
ATOM     58  C   UNL A   1      42.752  29.864  35.283  1.00  0.00     0.031 C 
ATOM     59  C   UNL A   1      43.619  28.453  33.438  1.00  0.00     0.037 A 
BRANCH  46  60
ATOM     60  C   UNL A   1      42.323  26.385  27.767  1.00  0.00     0.064 A 
ATOM     61  C   UNL A   1      43.244  26.863  26.823  1.00  0.00     0.173 A 
ATOM     62  C   UNL A   1      41.835  25.079  27.606  1.00  0.00     0.173 A 
ATOM     63  F   UNL A   1      43.730  28.109  26.926  1.00  0.00    -0.203 F 
ATOM     64  C   UNL A   1      43.642  26.075  25.747  1.00  0.00     0.198 A 
ATOM     65  C   UNL A   1      42.258  24.283  26.545  1.00  0.00     0.198 A 
ATOM     66  F   UNL A   1      40.956  24.572  28.483  1.00  0.00    -0.203 F 
ATOM     67  F   UNL A   1      44.488  26.571  24.833  1.00  0.00    -0.200 F 
ATOM     68  C   UNL A   1      43.155  24.784  25.612  1.00  0.00     0.200 A 
ATOM     69  F   UNL A   1      41.796  23.031  26.422  1.00  0.00    -0.200 F 
ATOM     70  F   UNL A   1      43.547  24.023  24.581  1.00  0.00    -0.200 F 
ENDBRANCH  46  60
BRANCH  47  71
ATOM     71  C   UNL A   1      39.137  32.045  35.356  1.00  0.00     0.064 A 
ATOM     72  C   UNL A   1      38.394  31.490  36.408  1.00  0.00     0.173 A 
ATOM     73  C   UNL A   1      39.440  33.411  35.418  1.00  0.00     0.173 A 
ATOM     74  F   UNL A   1      38.064  30.191  36.382  1.00  0.00    -0.203 F 
ATOM     75  C   UNL A   1      37.964  32.274  37.476  1.00  0.00     0.198 A 
ATOM     76  C   UNL A   1      39.030  34.189  36.499  1.00  0.00     0.198 A 
ATOM     77  F   UNL A   1      40.152  33.988  34.439  1.00  0.00    -0.203 F 
ATOM     78  F   UNL A   1      37.230  31.726  38.453  1.00  0.00    -0.200 F 
ATOM     79  C   UNL A   1      38.289  33.622  37.525  1.00  0.00     0.200 A 
ATOM     80  F   UNL A   1      39.355  35.489  36.550  1.00  0.00    -0.200 F 
ATOM     81  F   UNL A   1      37.883  34.373  38.558  1.00  0.00    -0.200 F 
ENDBRANCH  47  71
BRANCH  59  82
ATOM     82  C   UNL A   1      44.832  28.168  34.271  1.00  0.00     0.064 A 
ATOM     83  C   UNL A   1      45.948  29.015  34.249  1.00  0.00     0.173 A 
ATOM     84  C   UNL A   1      44.844  27.081  35.159  1.00  0.00     0.173 A 
ATOM     85  F   UNL A   1      45.986  30.059  33.407  1.00  0.00    -0.203 F 
ATOM     86  C   UNL A   1      47.038  28.779  35.080  1.00  0.00     0.198 A 
ATOM     87  C   UNL A   1      45.926  26.863  36.006  1.00  0.00     0.198 A 
ATOM     88  F   UNL A   1      43.796  26.246  35.221  1.00  0.00    -0.203 F 
ATOM     89  F   UNL A   1      48.107  29.586  35.026  1.00  0.00    -0.200 F 
ATOM     90  C   UNL A   1      47.023  27.711  35.965  1.00  0.00     0.200 A 
ATOM     91  F   UNL A   1      45.903  25.839  36.871  1.00  0.00    -0.200 F 
ATOM     92  F   UNL A   1      48.066  27.497  36.778  1.00  0.00    -0.200 F 
ENDBRANCH  59  82
ENDBRANCH  33  34
ENDBRANCH  25  28
ENDBRANCH   1  24
TORSDOF 10
ENDMDL
MODEL 2
REMARK VINA RESULT:     -13.6      0.106      1.144
REMARK SMILES Cc1c2c([nH]c(=O)c1C(=O)NCCCNC(=O)c1ccc(-c3c4nc(c(-c5c(F)c(F)c(F)c(F)c5F)c5ccc([nH]5)c(-c5c(F)c(F)c(F)c(F)c5F)c5nc(c(-c6c(F)c(F)c(F)c(F)c6F)c6ccc3[nH]6)C=C5)C=C4)cc1)CC(C)(C)CC2=O
REMARK SMILES IDX 14 1 13 2 12 3 11 4 9 5 10 6 8 8 1 9 2 10 3 11 4 12 86 13
REMARK SMILES IDX 6 14 5 15 81 16 85 17 87 18 7 19 82 21 83 22 84 23 15 24
REMARK SMILES IDX 16 25 17 27 18 28 19 29 80 30 20 31 79 32 21 33 22 34 23 35
REMARK SMILES IDX 73 36 24 37 78 38 72 39 74 40 25 41 77 42 71 43 70 44 26 46
REMARK SMILES IDX 58 47 38 48 57 49 39 50 42 51 56 52 75 53 40 54 41 55 55 57
REMARK SMILES IDX 76 58 43 59 27 60 28 61 36 62 29 63 30 64 34 65 37 66 31 67
REMARK SMILES IDX 32 68 35 69 33 70 59 71 60 72 68 73 61 74 62 75 66 76 69 77
REMARK SMILES IDX 63 78 64 79 67 80 65 81 44 82 45 83 53 84 46 85 47 86 51 87
REMARK SMILES IDX 54 88 48 89 49 90 52 91 50 92
REMARK H PARENT 11 7 5 20 15 26 74 45 42 56
REMARK Flexibility Score: inf
ROOT
ATOM      1  C   UNL A   1      32.942  29.076  25.439  1.00  0.00     0.118 C 
ENDROOT
BRANCH   1   2
ATOM      2  C   UNL A   1      33.990  29.149  24.337  1.00  0.00     0.042 C 
BRANCH   2   3
ATOM      3  C   UNL A   1      33.721  28.237  23.153  1.00  0.00     0.118 C 
BRANCH   3   4
ATOM      4  N   UNL A   1      32.413  28.408  22.538  1.00  0.00    -0.352 N 
ATOM      5  C   UNL A   1      31.406  27.498  22.350  1.00  0.00     0.257 C 
ATOM      6  O   UNL A   1      30.310  27.900  21.969  1.00  0.00    -0.269 OA
ATOM      7  H   UNL A   1      32.223  29.316  22.208  1.00  0.00     0.163 HD
BRANCH   5   8
ATOM      8  C   UNL A   1      31.669  26.056  22.586  1.00  0.00     0.108 A 
ATOM      9  C   UNL A   1      29.935  25.874  24.414  1.00  0.00     0.046 C 
ATOM     10  C   UNL A   1      31.096  25.361  23.597  1.00  0.00    -0.020 A 
ATOM     11  C   UNL A   1      31.535  23.989  23.871  1.00  0.00     0.041 A 
ATOM     12  C   UNL A   1      32.168  23.286  22.914  1.00  0.00     0.030 A 
ATOM     13  C   UNL A   1      31.388  23.361  25.225  1.00  0.00     0.165 C 
ATOM     14  C   UNL A   1      32.480  25.299  21.580  1.00  0.00     0.261 A 
ATOM     15  N   UNL A   1      32.573  23.938  21.773  1.00  0.00    -0.325 N 
ATOM     16  C   UNL A   1      32.562  21.836  23.032  1.00  0.00     0.061 C 
ATOM     17  C   UNL A   1      31.579  21.869  25.348  1.00  0.00     0.088 C 
ATOM     18  O   UNL A   1      31.129  24.037  26.219  1.00  0.00    -0.294 OA
ATOM     19  O   UNL A   1      33.037  25.825  20.622  1.00  0.00    -0.269 OA
ATOM     20  H   UNL A   1      32.956  23.396  21.045  1.00  0.00     0.169 HD
ATOM     21  C   UNL A   1      32.745  21.359  24.488  1.00  0.00    -0.023 C 
ATOM     22  C   UNL A   1      34.097  21.859  25.040  1.00  0.00     0.012 C 
ATOM     23  C   UNL A   1      32.745  19.821  24.531  1.00  0.00     0.012 C 
ENDBRANCH   5   8
ENDBRANCH   3   4
ENDBRANCH   2   3
ENDBRANCH   1   2
BRANCH   1  24
ATOM     24  N   UNL A   1      32.542  30.375  25.966  1.00  0.00    -0.352 N 
ATOM     25  C   UNL A   1      33.102  31.203  26.909  1.00  0.00     0.251 C 
ATOM     26  H   UNL A   1      31.713  30.727  25.569  1.00  0.00     0.163 HD
ATOM     27  O   UNL A   1      32.494  32.213  27.259  1.00  0.00    -0.269 OA
BRANCH  25  28
ATOM     28  C   UNL A   1      34.399  30.882  27.548  1.00  0.00     0.039 A 
ATOM     29  C   UNL A   1      35.348  31.899  27.698  1.00  0.00     0.014 A 
ATOM     30  C   UNL A   1      34.704  29.594  27.980  1.00  0.00     0.014 A 
ATOM     31  C   UNL A   1      36.548  31.643  28.366  1.00  0.00     0.010 A 
ATOM     32  C   UNL A   1      35.838  29.368  28.752  1.00  0.00     0.010 A 
ATOM     33  C   UNL A   1      36.778  30.387  28.951  1.00  0.00    -0.014 A 
BRANCH  33  34
ATOM     34  C   UNL A   1      37.997  30.103  29.753  1.00  0.00     0.031 A 
ATOM     35  C   UNL A   1      39.066  29.198  29.201  1.00  0.00     0.074 A 
ATOM     36  C   UNL A   1      38.105  30.585  31.007  1.00  0.00     0.049 A 
ATOM     37  N   UNL A   1      40.130  28.714  29.792  1.00  0.00    -0.248 NA
ATOM     38  C   UNL A   1      38.896  28.743  27.811  1.00  0.00     0.031 C 
ATOM     39  C   UNL A   1      37.117  31.432  31.678  1.00  0.00     0.029 A 
ATOM     40  N   UNL A   1      39.094  30.424  31.945  1.00  0.00    -0.354 N 
ATOM     41  C   UNL A   1      40.731  27.880  28.858  1.00  0.00     0.074 A 
ATOM     42  C   UNL A   1      39.887  27.874  27.685  1.00  0.00     0.031 C 
ATOM     43  C   UNL A   1      37.568  31.750  32.902  1.00  0.00     0.029 A 
ATOM     44  C   UNL A   1      38.852  31.093  33.121  1.00  0.00     0.049 A 
ATOM     45  H   UNL A   1      39.900  29.880  31.791  1.00  0.00     0.167 HD
ATOM     46  C   UNL A   1      41.902  27.205  28.957  1.00  0.00     0.037 A 
ATOM     47  C   UNL A   1      39.584  31.165  34.250  1.00  0.00     0.037 A 
ATOM     48  C   UNL A   1      42.769  27.258  30.102  1.00  0.00     0.049 A 
ATOM     49  C   UNL A   1      40.887  30.420  34.329  1.00  0.00     0.074 A 
ATOM     50  C   UNL A   1      44.005  26.660  30.276  1.00  0.00     0.029 A 
ATOM     51  N   UNL A   1      42.498  27.965  31.263  1.00  0.00    -0.354 N 
ATOM     52  N   UNL A   1      41.463  29.664  33.427  1.00  0.00    -0.248 NA
ATOM     53  C   UNL A   1      41.642  30.535  35.585  1.00  0.00     0.031 C 
ATOM     54  C   UNL A   1      44.469  26.982  31.555  1.00  0.00     0.029 A 
ATOM     55  C   UNL A   1      43.539  27.811  32.163  1.00  0.00     0.049 A 
ATOM     56  H   UNL A   1      41.685  28.497  31.426  1.00  0.00     0.167 HD
ATOM     57  C   UNL A   1      42.653  29.230  33.994  1.00  0.00     0.074 A 
ATOM     58  C   UNL A   1      42.725  29.820  35.315  1.00  0.00     0.031 C 
ATOM     59  C   UNL A   1      43.598  28.414  33.470  1.00  0.00     0.037 A 
BRANCH  46  60
ATOM     60  C   UNL A   1      42.326  26.374  27.782  1.00  0.00     0.064 A 
ATOM     61  C   UNL A   1      43.254  26.853  26.846  1.00  0.00     0.173 A 
ATOM     62  C   UNL A   1      41.835  25.071  27.614  1.00  0.00     0.173 A 
ATOM     63  F   UNL A   1      43.743  28.097  26.956  1.00  0.00    -0.203 F 
ATOM     64  C   UNL A   1      43.655  26.068  25.768  1.00  0.00     0.198 A 
ATOM     65  C   UNL A   1      42.261  24.278  26.551  1.00  0.00     0.198 A 
ATOM     66  F   UNL A   1      40.949  24.562  28.484  1.00  0.00    -0.203 F 
ATOM     67  F   UNL A   1      44.508  26.564  24.861  1.00  0.00    -0.200 F 
ATOM     68  C   UNL A   1      43.164  24.779  25.626  1.00  0.00     0.200 A 
ATOM     69  F   UNL A   1      41.795  23.027  26.421  1.00  0.00    -0.200 F 
ATOM     70  F   UNL A   1      43.560  24.021  24.594  1.00  0.00    -0.200 F 
ENDBRANCH  46  60
BRANCH  47  71
ATOM     71  C   UNL A   1      39.118  32.014  35.377  1.00  0.00     0.064 A 
ATOM     72  C   UNL A   1      38.360  31.460  36.418  1.00  0.00     0.173 A 
ATOM     73  C   UNL A   1      39.434  33.377  35.451  1.00  0.00     0.173 A 
ATOM     74  F   UNL A   1      38.017  30.164  36.380  1.00  0.00    -0.203 F 
ATOM     75  C   UNL A   1      37.927  32.241  37.487  1.00  0.00     0.198 A 
ATOM     76  C   UNL A   1      39.020  34.152  36.533  1.00  0.00     0.198 A 
ATOM     77  F   UNL A   1      40.160  33.954  34.482  1.00  0.00    -0.203 F 
ATOM     78  F   UNL A   1      37.177  31.693  38.453  1.00  0.00    -0.200 F 
ATOM     79  C   UNL A   1      38.263  33.585  37.548  1.00  0.00     0.200 A 
ATOM     80  F   UNL A   1      39.357  35.449  36.595  1.00  0.00    -0.200 F 
ATOM     81  F   UNL A   1      37.854  34.333  38.581  1.00  0.00    -0.200 F 
ENDBRANCH  47  71
BRANCH  59  82
ATOM     82  C   UNL A   1      44.804  28.120  34.308  1.00  0.00     0.064 A 
ATOM     83  C   UNL A   1      44.856  26.994  35.142  1.00  0.00     0.173 A 
ATOM     84  C   UNL A   1      45.949  28.927  34.216  1.00  0.00     0.173 A 
ATOM     85  F   UNL A   1      43.782  26.201  35.272  1.00  0.00    -0.203 F 
ATOM     86  C   UNL A   1      46.008  26.692  35.861  1.00  0.00     0.198 A 
ATOM     87  C   UNL A   1      47.106  28.607  34.916  1.00  0.00     0.198 A 
ATOM     88  F   UNL A   1      45.949  30.011  33.426  1.00  0.00    -0.203 F 
ATOM     89  F   UNL A   1      46.029  25.625  36.672  1.00  0.00    -0.200 F 
ATOM     90  C   UNL A   1      47.135  27.492  35.740  1.00  0.00     0.200 A 
ATOM     91  F   UNL A   1      48.200  29.373  34.788  1.00  0.00    -0.200 F 
ATOM     92  F   UNL A   1      48.250  27.187  36.418  1.00  0.00    -0.200 F 
ENDBRANCH  59  82
ENDBRANCH  33  34
ENDBRANCH  25  28
ENDBRANCH   1  24
TORSDOF 10
ENDMDL
MODEL 3
REMARK VINA RESULT:     -13.4      1.255      2.557
REMARK SMILES Cc1c2c([nH]c(=O)c1C(=O)NCCCNC(=O)c1ccc(-c3c4nc(c(-c5c(F)c(F)c(F)c(F)c5F)c5ccc([nH]5)c(-c5c(F)c(F)c(F)c(F)c5F)c5nc(c(-c6c(F)c(F)c(F)c(F)c6F)c6ccc3[nH]6)C=C5)C=C4)cc1)CC(C)(C)CC2=O
REMARK SMILES IDX 14 1 13 2 12 3 11 4 9 5 10 6 8 8 1 9 2 10 3 11 4 12 86 13
REMARK SMILES IDX 6 14 5 15 81 16 85 17 87 18 7 19 82 21 83 22 84 23 15 24
REMARK SMILES IDX 16 25 17 27 18 28 19 29 80 30 20 31 79 32 21 33 22 34 23 35
REMARK SMILES IDX 73 36 24 37 78 38 72 39 74 40 25 41 77 42 71 43 70 44 26 46
REMARK SMILES IDX 58 47 38 48 57 49 39 50 42 51 56 52 75 53 40 54 41 55 55 57
REMARK SMILES IDX 76 58 43 59 27 60 28 61 36 62 29 63 30 64 34 65 37 66 31 67
REMARK SMILES IDX 32 68 35 69 33 70 59 71 60 72 68 73 61 74 62 75 66 76 69 77
REMARK SMILES IDX 63 78 64 79 67 80 65 81 44 82 45 83 53 84 46 85 47 86 51 87
REMARK SMILES IDX 54 88 48 89 49 90 52 91 50 92
REMARK H PARENT 11 7 5 20 15 26 74 45 42 56
REMARK Flexibility Score: inf
ROOT
ATOM      1  C   UNL A   1      33.236  29.450  25.067  1.00  0.00     0.118 C 
ENDROOT
BRANCH   1   2
ATOM      2  C   UNL A   1      32.191  28.702  24.250  1.00  0.00     0.042 C 
BRANCH   2   3
ATOM      3  C   UNL A   1      31.247  27.843  25.074  1.00  0.00     0.118 C 
BRANCH   3   4
ATOM      4  N   UNL A   1      30.538  26.822  24.317  1.00  0.00    -0.352 N 
ATOM      5  C   UNL A   1      30.822  25.490  24.160  1.00  0.00     0.257 C 
ATOM      6  O   UNL A   1      29.988  24.768  23.621  1.00  0.00    -0.269 OA
ATOM      7  H   UNL A   1      29.732  27.136  23.846  1.00  0.00     0.163 HD
BRANCH   5   8
ATOM      8  C   UNL A   1      32.132  24.962  24.619  1.00  0.00     0.108 A 
ATOM      9  C   UNL A   1      33.263  25.391  22.402  1.00  0.00     0.046 C 
ATOM     10  C   UNL A   1      33.191  24.803  23.791  1.00  0.00    -0.020 A 
ATOM     11  C   UNL A   1      34.392  24.118  24.277  1.00  0.00     0.041 A 
ATOM     12  C   UNL A   1      34.619  24.022  25.600  1.00  0.00     0.030 A 
ATOM     13  C   UNL A   1      35.346  23.428  23.347  1.00  0.00     0.165 C 
ATOM     14  C   UNL A   1      32.343  24.739  26.085  1.00  0.00     0.261 A 
ATOM     15  N   UNL A   1      33.618  24.386  26.470  1.00  0.00    -0.325 N 
ATOM     16  C   UNL A   1      35.868  23.449  26.218  1.00  0.00     0.061 C 
ATOM     17  C   UNL A   1      36.696  23.015  23.883  1.00  0.00     0.088 C 
ATOM     18  O   UNL A   1      35.042  23.189  22.180  1.00  0.00    -0.294 OA
ATOM     19  O   UNL A   1      31.457  24.861  26.925  1.00  0.00    -0.269 OA
ATOM     20  H   UNL A   1      33.826  24.394  27.432  1.00  0.00     0.169 HD
ATOM     21  C   UNL A   1      36.609  22.448  25.307  1.00  0.00    -0.023 C 
ATOM     22  C   UNL A   1      35.878  21.089  25.315  1.00  0.00     0.012 C 
ATOM     23  C   UNL A   1      38.038  22.231  25.833  1.00  0.00     0.012 C 
ENDBRANCH   5   8
ENDBRANCH   3   4
ENDBRANCH   2   3
ENDBRANCH   1   2
BRANCH   1  24
ATOM     24  N   UNL A   1      32.708  30.588  25.810  1.00  0.00    -0.352 N 
ATOM     25  C   UNL A   1      33.159  31.255  26.924  1.00  0.00     0.251 C 
ATOM     26  H   UNL A   1      31.868  30.948  25.443  1.00  0.00     0.163 HD
ATOM     27  O   UNL A   1      32.455  32.128  27.427  1.00  0.00    -0.269 OA
BRANCH  25  28
ATOM     28  C   UNL A   1      34.451  30.912  27.560  1.00  0.00     0.039 A 
ATOM     29  C   UNL A   1      35.421  31.911  27.700  1.00  0.00     0.014 A 
ATOM     30  C   UNL A   1      34.733  29.621  27.999  1.00  0.00     0.014 A 
ATOM     31  C   UNL A   1      36.619  31.636  28.366  1.00  0.00     0.010 A 
ATOM     32  C   UNL A   1      35.866  29.377  28.767  1.00  0.00     0.010 A 
ATOM     33  C   UNL A   1      36.826  30.379  28.957  1.00  0.00    -0.014 A 
BRANCH  33  34
ATOM     34  C   UNL A   1      38.042  30.076  29.757  1.00  0.00     0.031 A 
ATOM     35  C   UNL A   1      39.098  29.158  29.199  1.00  0.00     0.074 A 
ATOM     36  C   UNL A   1      38.158  30.552  31.012  1.00  0.00     0.049 A 
ATOM     37  N   UNL A   1      40.156  28.658  29.787  1.00  0.00    -0.248 NA
ATOM     38  C   UNL A   1      38.920  28.710  27.809  1.00  0.00     0.031 C 
ATOM     39  C   UNL A   1      37.184  31.410  31.687  1.00  0.00     0.029 A 
ATOM     40  N   UNL A   1      39.147  30.375  31.948  1.00  0.00    -0.354 N 
ATOM     41  C   UNL A   1      40.745  27.819  28.850  1.00  0.00     0.074 A 
ATOM     42  C   UNL A   1      39.899  27.828  27.678  1.00  0.00     0.031 C 
ATOM     43  C   UNL A   1      37.640  31.718  32.911  1.00  0.00     0.029 A 
ATOM     44  C   UNL A   1      38.916  31.043  33.126  1.00  0.00     0.049 A 
ATOM     45  H   UNL A   1      39.945  29.821  31.790  1.00  0.00     0.167 HD
ATOM     46  C   UNL A   1      41.906  27.128  28.945  1.00  0.00     0.037 A 
ATOM     47  C   UNL A   1      39.650  31.102  34.254  1.00  0.00     0.037 A 
ATOM     48  C   UNL A   1      42.776  27.166  30.089  1.00  0.00     0.049 A 
ATOM     49  C   UNL A   1      40.944  30.339  34.329  1.00  0.00     0.074 A 
ATOM     50  C   UNL A   1      44.004  26.551  30.259  1.00  0.00     0.029 A 
ATOM     51  N   UNL A   1      42.516  27.873  31.253  1.00  0.00    -0.354 N 
ATOM     52  N   UNL A   1      41.507  29.578  33.424  1.00  0.00    -0.248 NA
ATOM     53  C   UNL A   1      41.702  30.440  35.584  1.00  0.00     0.031 C 
ATOM     54  C   UNL A   1      44.474  26.862  31.538  1.00  0.00     0.029 A 
ATOM     55  C   UNL A   1      43.557  27.701  32.150  1.00  0.00     0.049 A 
ATOM     56  H   UNL A   1      41.711  28.415  31.418  1.00  0.00     0.167 HD
ATOM     57  C   UNL A   1      42.692  29.127  33.987  1.00  0.00     0.074 A 
ATOM     58  C   UNL A   1      42.775  29.711  35.311  1.00  0.00     0.031 C 
ATOM     59  C   UNL A   1      43.625  28.299  33.459  1.00  0.00     0.037 A 
BRANCH  46  60
ATOM     60  C   UNL A   1      42.317  26.295  27.767  1.00  0.00     0.064 A 
ATOM     61  C   UNL A   1      43.262  26.758  26.839  1.00  0.00     0.173 A 
ATOM     62  C   UNL A   1      41.796  25.005  27.587  1.00  0.00     0.173 A 
ATOM     63  F   UNL A   1      43.780  27.990  26.961  1.00  0.00    -0.203 F 
ATOM     64  C   UNL A   1      43.651  25.971  25.759  1.00  0.00     0.198 A 
ATOM     65  C   UNL A   1      42.209  24.209  26.521  1.00  0.00     0.198 A 
ATOM     66  F   UNL A   1      40.894  24.512  28.448  1.00  0.00    -0.203 F 
ATOM     67  F   UNL A   1      44.521  26.453  24.860  1.00  0.00    -0.200 F 
ATOM     68  C   UNL A   1      43.130  24.696  25.604  1.00  0.00     0.200 A 
ATOM     69  F   UNL A   1      41.715  22.972  26.379  1.00  0.00    -0.200 F 
ATOM     70  F   UNL A   1      43.513  23.935  24.569  1.00  0.00    -0.200 F 
ENDBRANCH  46  60
BRANCH  47  71
ATOM     71  C   UNL A   1      39.198  31.954  35.384  1.00  0.00     0.064 A 
ATOM     72  C   UNL A   1      39.529  33.316  35.424  1.00  0.00     0.173 A 
ATOM     73  C   UNL A   1      38.417  31.440  36.428  1.00  0.00     0.173 A 
ATOM     74  F   UNL A   1      40.290  33.848  34.457  1.00  0.00    -0.203 F 
ATOM     75  C   UNL A   1      39.102  34.130  36.471  1.00  0.00     0.198 A 
ATOM     76  C   UNL A   1      37.971  32.261  37.463  1.00  0.00     0.198 A 
ATOM     77  F   UNL A   1      38.071  30.144  36.434  1.00  0.00    -0.203 F 
ATOM     78  F   UNL A   1      39.458  35.421  36.500  1.00  0.00    -0.200 F 
ATOM     79  C   UNL A   1      38.317  33.603  37.486  1.00  0.00     0.200 A 
ATOM     80  F   UNL A   1      37.202  31.751  38.436  1.00  0.00    -0.200 F 
ATOM     81  F   UNL A   1      37.899  34.389  38.487  1.00  0.00    -0.200 F 
ENDBRANCH  47  71
BRANCH  59  82
ATOM     82  C   UNL A   1      44.829  27.986  34.295  1.00  0.00     0.064 A 
ATOM     83  C   UNL A   1      44.860  26.867  35.138  1.00  0.00     0.173 A 
ATOM     84  C   UNL A   1      45.990  28.768  34.190  1.00  0.00     0.173 A 
ATOM     85  F   UNL A   1      43.770  26.099  35.280  1.00  0.00    -0.203 F 
ATOM     86  C   UNL A   1      46.009  26.546  35.854  1.00  0.00     0.198 A 
ATOM     87  C   UNL A   1      47.144  28.429  34.888  1.00  0.00     0.198 A 
ATOM     88  F   UNL A   1      46.011  29.844  33.390  1.00  0.00    -0.203 F 
ATOM     89  F   UNL A   1      46.010  25.486  36.675  1.00  0.00    -0.200 F 
ATOM     90  C   UNL A   1      47.152  27.320  35.721  1.00  0.00     0.200 A 
ATOM     91  F   UNL A   1      48.253  29.169  34.748  1.00  0.00    -0.200 F 
ATOM     92  F   UNL A   1      48.263  26.997  36.397  1.00  0.00    -0.200 F 
ENDBRANCH  59  82
ENDBRANCH  33  34
ENDBRANCH  25  28
ENDBRANCH   1  24
TORSDOF 10
ENDMDL
