MODEL 1
REMARK VINA RESULT:     -13.1      0.000      0.000
REMARK SMILES CC[N@@H+](C)Cc1cc2c(cc1Cl)C=C(C(=O)NCCCNC(=O)c1ccc(-c3c4nc(c(-c5c(F)c(F)c(F)c(F)c5F)c5ccc([nH]5)c(-c5c(F)c(F)c(F)c(F)c5F)c5nc(c(-c6c(F)c(F)c(F)c(F)c6F)c6ccc3[nH]6)C=C5)C=C4)cc1)[C@@H](C(F)(F)F)O2
REMARK SMILES IDX 18 1 17 2 15 3 16 4 14 6 6 7 7 8 11 9 8 10 10 11 12 12 9 13
REMARK SMILES IDX 92 14 13 15 87 16 5 17 3 18 4 19 2 21 1 22 88 23 89 24 90 25
REMARK SMILES IDX 91 26 19 27 20 28 21 29 22 30 23 32 24 33 25 34 86 35 26 36
REMARK SMILES IDX 85 37 27 38 28 39 29 40 79 41 30 42 84 43 78 44 80 45 31 46
REMARK SMILES IDX 83 47 77 48 76 49 32 51 64 52 44 53 63 54 45 55 48 56 62 57
REMARK SMILES IDX 81 58 46 59 47 60 61 62 82 63 49 64 33 65 34 66 42 67 35 68
REMARK SMILES IDX 36 69 40 70 43 71 37 72 38 73 41 74 39 75 65 76 66 77 74 78
REMARK SMILES IDX 67 79 68 80 72 81 75 82 69 83 70 84 73 85 71 86 50 87 51 88
REMARK SMILES IDX 59 89 52 90 53 91 57 92 60 93 54 94 55 95 58 96 56 97
REMARK H PARENT 17 5 3 20 21 31 80 50 48 61
REMARK Flexibility Score: inf
ROOT
ATOM      1  C   UNL A   1      31.594  30.660  26.507  1.00  0.00     0.118 C 
ENDROOT
BRANCH   1   2
ATOM      2  N   UNL A   1      31.340  30.235  25.139  1.00  0.00    -0.352 N 
ATOM      3  C   UNL A   1      31.380  29.082  24.432  1.00  0.00     0.251 C 
ATOM      4  O   UNL A   1      31.118  29.196  23.231  1.00  0.00    -0.270 OA
ATOM      5  H   UNL A   1      31.063  30.992  24.573  1.00  0.00     0.163 HD
BRANCH   3   6
ATOM      6  C   UNL A   1      31.701  27.740  24.995  1.00  0.00     0.067 C 
ATOM      7  C   UNL A   1      33.994  23.428  26.252  1.00  0.00     0.029 A 
ATOM      8  C   UNL A   1      32.740  24.001  26.527  1.00  0.00     0.058 A 
ATOM      9  C   UNL A   1      34.967  24.243  25.649  1.00  0.00     0.050 A 
ATOM     10  C   UNL A   1      32.434  25.291  26.110  1.00  0.00     0.128 A 
ATOM     11  C   UNL A   1      34.659  25.551  25.243  1.00  0.00     0.033 A 
ATOM     12  Cl  UNL A   1      36.591  23.710  25.392  1.00  0.00    -0.084 Cl
ATOM     13  C   UNL A   1      33.379  26.068  25.446  1.00  0.00     0.019 A 
ATOM     14  O   UNL A   1      31.182  25.748  26.400  1.00  0.00    -0.475 OA
ATOM     15  C   UNL A   1      33.005  27.399  24.989  1.00  0.00     0.025 C 
ATOM     16  C   UNL A   1      30.669  26.769  25.500  1.00  0.00     0.314 C 
BRANCH   7  17
ATOM     17  C   UNL A   1      34.203  21.964  26.595  1.00  0.00     0.300 C 
BRANCH  17  18
ATOM     18  N   UNL A   1      34.082  20.995  25.487  1.00  0.00    -0.334 N 
ATOM     19  C   UNL A   1      35.381  20.528  25.009  1.00  0.00     0.333 C 
ATOM     20  H   UNL A   1      33.582  20.219  25.923  1.00  0.00     0.348 HD
BRANCH  18  21
ATOM     21  C   UNL A   1      33.234  21.404  24.359  1.00  0.00     0.258 C 
ATOM     22  C   UNL A   1      32.439  20.254  23.751  1.00  0.00     0.071 C 
ENDBRANCH  18  21
ENDBRANCH  17  18
ENDBRANCH   7  17
BRANCH  16  23
ATOM     23  C   UNL A   1      29.869  26.088  24.371  1.00  0.00     0.429 C 
ATOM     24  F   UNL A   1      28.542  26.329  24.528  1.00  0.00    -0.167 F 
ATOM     25  F   UNL A   1      30.200  26.552  23.144  1.00  0.00    -0.167 F 
ATOM     26  F   UNL A   1      30.036  24.748  24.343  1.00  0.00    -0.167 F 
ENDBRANCH  16  23
ENDBRANCH   3   6
ENDBRANCH   1   2
BRANCH   1  27
ATOM     27  C   UNL A   1      31.438  32.164  26.669  1.00  0.00     0.042 C 
BRANCH  27  28
ATOM     28  C   UNL A   1      32.693  32.817  27.237  1.00  0.00     0.118 C 
BRANCH  28  29
ATOM     29  N   UNL A   1      32.459  34.202  27.638  1.00  0.00    -0.352 N 
ATOM     30  C   UNL A   1      33.009  34.943  28.656  1.00  0.00     0.251 C 
ATOM     31  H   UNL A   1      31.799  34.684  27.088  1.00  0.00     0.163 HD
ATOM     32  O   UNL A   1      32.508  36.017  28.973  1.00  0.00    -0.269 OA
BRANCH  30  33
ATOM     33  C   UNL A   1      34.192  34.439  29.381  1.00  0.00     0.039 A 
ATOM     34  C   UNL A   1      35.471  34.637  28.864  1.00  0.00     0.014 A 
ATOM     35  C   UNL A   1      34.023  33.762  30.593  1.00  0.00     0.014 A 
ATOM     36  C   UNL A   1      36.553  33.989  29.442  1.00  0.00     0.010 A 
ATOM     37  C   UNL A   1      35.133  33.203  31.235  1.00  0.00     0.010 A 
ATOM     38  C   UNL A   1      36.400  33.266  30.636  1.00  0.00    -0.014 A 
BRANCH  38  39
ATOM     39  C   UNL A   1      37.584  32.586  31.221  1.00  0.00     0.031 A 
ATOM     40  C   UNL A   1      38.053  32.919  32.612  1.00  0.00     0.074 A 
ATOM     41  C   UNL A   1      38.188  31.607  30.518  1.00  0.00     0.049 A 
ATOM     42  N   UNL A   1      39.056  32.413  33.286  1.00  0.00    -0.248 NA
ATOM     43  C   UNL A   1      37.306  33.954  33.346  1.00  0.00     0.031 C 
ATOM     44  C   UNL A   1      37.815  31.191  29.165  1.00  0.00     0.029 A 
ATOM     45  N   UNL A   1      39.216  30.762  30.851  1.00  0.00    -0.354 N 
ATOM     46  C   UNL A   1      39.076  33.084  34.502  1.00  0.00     0.074 A 
ATOM     47  C   UNL A   1      37.998  34.047  34.473  1.00  0.00     0.031 C 
ATOM     48  C   UNL A   1      38.556  30.132  28.809  1.00  0.00     0.029 A 
ATOM     49  C   UNL A   1      39.506  29.840  29.875  1.00  0.00     0.049 A 
ATOM     50  H   UNL A   1      39.699  30.813  31.707  1.00  0.00     0.167 HD
ATOM     51  C   UNL A   1      39.914  32.901  35.549  1.00  0.00     0.037 A 
ATOM     52  C   UNL A   1      40.444  28.876  29.835  1.00  0.00     0.037 A 
ATOM     53  C   UNL A   1      40.956  31.908  35.591  1.00  0.00     0.049 A 
ATOM     54  C   UNL A   1      41.368  28.710  31.007  1.00  0.00     0.074 A 
ATOM     55  C   UNL A   1      41.837  31.630  36.620  1.00  0.00     0.029 A 
ATOM     56  N   UNL A   1      41.247  31.025  34.562  1.00  0.00    -0.354 N 
ATOM     57  N   UNL A   1      41.377  29.356  32.147  1.00  0.00    -0.248 NA
ATOM     58  C   UNL A   1      42.421  27.693  30.883  1.00  0.00     0.031 C 
ATOM     59  C   UNL A   1      42.686  30.602  36.204  1.00  0.00     0.029 A 
ATOM     60  C   UNL A   1      42.307  30.211  34.929  1.00  0.00     0.049 A 
ATOM     61  H   UNL A   1      40.773  30.983  33.702  1.00  0.00     0.167 HD
ATOM     62  C   UNL A   1      42.429  28.824  32.877  1.00  0.00     0.074 A 
ATOM     63  C   UNL A   1      43.019  27.781  32.063  1.00  0.00     0.031 C 
ATOM     64  C   UNL A   1      42.876  29.178  34.105  1.00  0.00     0.037 A 
BRANCH  51  65
ATOM     65  C   UNL A   1      39.753  33.784  36.750  1.00  0.00     0.064 A 
ATOM     66  C   UNL A   1      40.330  35.061  36.805  1.00  0.00     0.173 A 
ATOM     67  C   UNL A   1      38.922  33.391  37.811  1.00  0.00     0.173 A 
ATOM     68  F   UNL A   1      41.141  35.477  35.822  1.00  0.00    -0.203 F 
ATOM     69  C   UNL A   1      40.079  35.913  37.878  1.00  0.00     0.198 A 
ATOM     70  C   UNL A   1      38.656  34.253  38.870  1.00  0.00     0.198 A 
ATOM     71  F   UNL A   1      38.343  32.181  37.802  1.00  0.00    -0.203 F 
ATOM     72  F   UNL A   1      40.651  37.124  37.917  1.00  0.00    -0.200 F 
ATOM     73  C   UNL A   1      39.233  35.514  38.903  1.00  0.00     0.200 A 
ATOM     74  F   UNL A   1      37.829  33.870  39.853  1.00  0.00    -0.200 F 
ATOM     75  F   UNL A   1      38.974  36.345  39.921  1.00  0.00    -0.200 F 
ENDBRANCH  51  65
BRANCH  52  76
ATOM     76  C   UNL A   1      40.564  28.012  28.632  1.00  0.00     0.064 A 
ATOM     77  C   UNL A   1      39.897  26.782  28.556  1.00  0.00     0.173 A 
ATOM     78  C   UNL A   1      41.339  28.403  27.530  1.00  0.00     0.173 A 
ATOM     79  F   UNL A   1      39.162  26.354  29.593  1.00  0.00    -0.203 F 
ATOM     80  C   UNL A   1      40.009  25.972  27.429  1.00  0.00     0.198 A 
ATOM     81  C   UNL A   1      41.425  27.608  26.391  1.00  0.00     0.198 A 
ATOM     82  F   UNL A   1      41.995  29.574  27.552  1.00  0.00    -0.203 F 
ATOM     83  F   UNL A   1      39.393  24.783  27.396  1.00  0.00    -0.200 F 
ATOM     84  C   UNL A   1      40.766  26.390  26.343  1.00  0.00     0.200 A 
ATOM     85  F   UNL A   1      42.143  28.024  25.338  1.00  0.00    -0.200 F 
ATOM     86  F   UNL A   1      40.864  25.615  25.254  1.00  0.00    -0.200 F 
ENDBRANCH  52  76
BRANCH  64  87
ATOM     87  C   UNL A   1      44.053  28.430  34.650  1.00  0.00     0.064 A 
ATOM     88  C   UNL A   1      45.360  28.912  34.487  1.00  0.00     0.173 A 
ATOM     89  C   UNL A   1      43.870  27.257  35.398  1.00  0.00     0.173 A 
ATOM     90  F   UNL A   1      45.585  30.021  33.767  1.00  0.00    -0.203 F 
ATOM     91  C   UNL A   1      46.444  28.238  35.042  1.00  0.00     0.198 A 
ATOM     92  C   UNL A   1      44.953  26.601  35.974  1.00  0.00     0.198 A 
ATOM     93  F   UNL A   1      42.637  26.763  35.588  1.00  0.00    -0.203 F 
ATOM     94  F   UNL A   1      47.687  28.697  34.847  1.00  0.00    -0.200 F 
ATOM     95  C   UNL A   1      46.239  27.089  35.792  1.00  0.00     0.200 A 
ATOM     96  F   UNL A   1      44.753  25.498  36.709  1.00  0.00    -0.200 F 
ATOM     97  F   UNL A   1      47.282  26.450  36.338  1.00  0.00    -0.200 F 
ENDBRANCH  64  87
ENDBRANCH  38  39
ENDBRANCH  30  33
ENDBRANCH  28  29
ENDBRANCH  27  28
ENDBRANCH   1  27
TORSDOF 14
ENDMDL
MODEL 2
REMARK VINA RESULT:     -13.1      0.616      7.328
REMARK SMILES CC[N@@H+](C)Cc1cc2c(cc1Cl)C=C(C(=O)NCCCNC(=O)c1ccc(-c3c4nc(c(-c5c(F)c(F)c(F)c(F)c5F)c5ccc([nH]5)c(-c5c(F)c(F)c(F)c(F)c5F)c5nc(c(-c6c(F)c(F)c(F)c(F)c6F)c6ccc3[nH]6)C=C5)C=C4)cc1)[C@@H](C(F)(F)F)O2
REMARK SMILES IDX 18 1 17 2 15 3 16 4 14 6 6 7 7 8 11 9 8 10 10 11 12 12 9 13
REMARK SMILES IDX 92 14 13 15 87 16 5 17 3 18 4 19 2 21 1 22 88 23 89 24 90 25
REMARK SMILES IDX 91 26 19 27 20 28 21 29 22 30 23 32 24 33 25 34 86 35 26 36
REMARK SMILES IDX 85 37 27 38 28 39 29 40 79 41 30 42 84 43 78 44 80 45 31 46
REMARK SMILES IDX 83 47 77 48 76 49 32 51 64 52 44 53 63 54 45 55 48 56 62 57
REMARK SMILES IDX 81 58 46 59 47 60 61 62 82 63 49 64 33 65 34 66 42 67 35 68
REMARK SMILES IDX 36 69 40 70 43 71 37 72 38 73 41 74 39 75 65 76 66 77 74 78
REMARK SMILES IDX 67 79 68 80 72 81 75 82 69 83 70 84 73 85 71 86 50 87 51 88
REMARK SMILES IDX 59 89 52 90 53 91 57 92 60 93 54 94 55 95 58 96 56 97
REMARK H PARENT 17 5 3 20 21 31 80 50 48 61
REMARK Flexibility Score: inf
ROOT
ATOM      1  C   UNL A   1      31.725  30.705  26.508  1.00  0.00     0.118 C 
ENDROOT
BRANCH   1   2
ATOM      2  N   UNL A   1      31.278  30.387  25.161  1.00  0.00    -0.352 N 
ATOM      3  C   UNL A   1      31.157  29.282  24.388  1.00  0.00     0.251 C 
ATOM      4  O   UNL A   1      30.756  29.490  23.238  1.00  0.00    -0.270 OA
ATOM      5  H   UNL A   1      30.983  31.194  24.680  1.00  0.00     0.163 HD
BRANCH   3   6
ATOM      6  C   UNL A   1      31.457  27.890  24.826  1.00  0.00     0.067 C 
ATOM      7  C   UNL A   1      33.752  23.527  25.889  1.00  0.00     0.029 A 
ATOM      8  C   UNL A   1      32.442  24.020  26.034  1.00  0.00     0.058 A 
ATOM      9  C   UNL A   1      34.761  24.443  25.548  1.00  0.00     0.050 A 
ATOM     10  C   UNL A   1      32.138  25.343  25.734  1.00  0.00     0.128 A 
ATOM     11  C   UNL A   1      34.452  25.781  25.262  1.00  0.00     0.033 A 
ATOM     12  Cl  UNL A   1      36.431  23.999  25.483  1.00  0.00    -0.084 Cl
ATOM     13  C   UNL A   1      33.131  26.228  25.325  1.00  0.00     0.019 A 
ATOM     14  O   UNL A   1      30.835  25.719  25.880  1.00  0.00    -0.475 OA
ATOM     15  C   UNL A   1      32.763  27.594  24.981  1.00  0.00     0.025 C 
ATOM     16  C   UNL A   1      30.411  26.830  25.042  1.00  0.00     0.314 C 
BRANCH   7  17
ATOM     17  C   UNL A   1      33.981  22.039  26.080  1.00  0.00     0.300 C 
BRANCH  17  18
ATOM     18  N   UNL A   1      34.229  21.240  24.861  1.00  0.00    -0.334 N 
ATOM     19  C   UNL A   1      32.991  20.821  24.207  1.00  0.00     0.333 C 
ATOM     20  H   UNL A   1      34.723  21.899  24.260  1.00  0.00     0.348 HD
BRANCH  18  21
ATOM     21  C   UNL A   1      35.145  20.102  25.009  1.00  0.00     0.258 C 
ATOM     22  C   UNL A   1      36.616  20.501  24.981  1.00  0.00     0.071 C 
ENDBRANCH  18  21
ENDBRANCH  17  18
ENDBRANCH   7  17
BRANCH  16  23
ATOM     23  C   UNL A   1      29.826  26.275  23.729  1.00  0.00     0.429 C 
ATOM     24  F   UNL A   1      29.657  24.931  23.824  1.00  0.00    -0.167 F 
ATOM     25  F   UNL A   1      28.610  26.793  23.439  1.00  0.00    -0.167 F 
ATOM     26  F   UNL A   1      30.617  26.509  22.660  1.00  0.00    -0.167 F 
ENDBRANCH  16  23
ENDBRANCH   3   6
ENDBRANCH   1   2
BRANCH   1  27
ATOM     27  C   UNL A   1      31.498  32.170  26.847  1.00  0.00     0.042 C 
BRANCH  27  28
ATOM     28  C   UNL A   1      32.785  32.872  27.265  1.00  0.00     0.118 C 
BRANCH  28  29
ATOM     29  N   UNL A   1      32.554  34.265  27.640  1.00  0.00    -0.352 N 
ATOM     30  C   UNL A   1      33.044  35.000  28.692  1.00  0.00     0.251 C 
ATOM     31  H   UNL A   1      31.949  34.759  27.040  1.00  0.00     0.163 HD
ATOM     32  O   UNL A   1      32.546  36.088  28.966  1.00  0.00    -0.269 OA
BRANCH  30  33
ATOM     33  C   UNL A   1      34.157  34.474  29.507  1.00  0.00     0.039 A 
ATOM     34  C   UNL A   1      35.465  34.526  29.028  1.00  0.00     0.014 A 
ATOM     35  C   UNL A   1      33.893  33.924  30.765  1.00  0.00     0.014 A 
ATOM     36  C   UNL A   1      36.470  33.850  29.704  1.00  0.00     0.010 A 
ATOM     37  C   UNL A   1      34.931  33.341  31.499  1.00  0.00     0.010 A 
ATOM     38  C   UNL A   1      36.219  33.251  30.949  1.00  0.00    -0.014 A 
BRANCH  38  39
ATOM     39  C   UNL A   1      37.324  32.537  31.639  1.00  0.00     0.031 A 
ATOM     40  C   UNL A   1      38.078  31.435  30.946  1.00  0.00     0.074 A 
ATOM     41  C   UNL A   1      37.695  32.943  32.870  1.00  0.00     0.049 A 
ATOM     42  N   UNL A   1      39.079  30.716  31.391  1.00  0.00    -0.248 NA
ATOM     43  C   UNL A   1      37.659  31.086  29.578  1.00  0.00     0.031 C 
ATOM     44  C   UNL A   1      37.044  34.008  33.636  1.00  0.00     0.029 A 
ATOM     45  N   UNL A   1      38.726  32.538  33.679  1.00  0.00    -0.354 N 
ATOM     46  C   UNL A   1      39.387  29.820  30.376  1.00  0.00     0.074 A 
ATOM     47  C   UNL A   1      38.459  30.067  29.295  1.00  0.00     0.031 C 
ATOM     48  C   UNL A   1      37.727  34.216  34.770  1.00  0.00     0.029 A 
ATOM     49  C   UNL A   1      38.818  33.252  34.849  1.00  0.00     0.049 A 
ATOM     50  H   UNL A   1      39.340  31.807  33.443  1.00  0.00     0.167 HD
ATOM     51  C   UNL A   1      40.365  28.884  30.348  1.00  0.00     0.037 A 
ATOM     52  C   UNL A   1      39.675  33.134  35.879  1.00  0.00     0.037 A 
ATOM     53  C   UNL A   1      41.316  28.674  31.408  1.00  0.00     0.049 A 
ATOM     54  C   UNL A   1      40.738  32.075  35.824  1.00  0.00     0.074 A 
ATOM     55  C   UNL A   1      42.361  27.767  31.458  1.00  0.00     0.029 A 
ATOM     56  N   UNL A   1      41.346  29.387  32.597  1.00  0.00    -0.354 N 
ATOM     57  N   UNL A   1      41.013  31.233  34.859  1.00  0.00    -0.248 NA
ATOM     58  C   UNL A   1      41.601  31.940  37.005  1.00  0.00     0.031 C 
ATOM     59  C   UNL A   1      43.002  27.906  32.691  1.00  0.00     0.029 A 
ATOM     60  C   UNL A   1      42.382  28.928  33.394  1.00  0.00     0.049 A 
ATOM     61  H   UNL A   1      40.724  30.109  32.838  1.00  0.00     0.167 HD
ATOM     62  C   UNL A   1      42.078  30.470  35.312  1.00  0.00     0.074 A 
ATOM     63  C   UNL A   1      42.422  30.969  36.627  1.00  0.00     0.031 C 
ATOM     64  C   UNL A   1      42.708  29.440  34.698  1.00  0.00     0.037 A 
BRANCH  51  65
ATOM     65  C   UNL A   1      40.474  28.005  29.138  1.00  0.00     0.064 A 
ATOM     66  C   UNL A   1      39.708  26.839  29.008  1.00  0.00     0.173 A 
ATOM     67  C   UNL A   1      41.271  28.395  28.051  1.00  0.00     0.173 A 
ATOM     68  F   UNL A   1      38.939  26.419  30.023  1.00  0.00    -0.203 F 
ATOM     69  C   UNL A   1      39.736  26.094  27.831  1.00  0.00     0.198 A 
ATOM     70  C   UNL A   1      41.280  27.660  26.869  1.00  0.00     0.198 A 
ATOM     71  F   UNL A   1      42.018  29.507  28.125  1.00  0.00    -0.203 F 
ATOM     72  F   UNL A   1      39.006  24.974  27.732  1.00  0.00    -0.200 F 
ATOM     73  C   UNL A   1      40.511  26.511  26.759  1.00  0.00     0.200 A 
ATOM     74  F   UNL A   1      42.020  28.072  25.830  1.00  0.00    -0.200 F 
ATOM     75  F   UNL A   1      40.517  25.806  25.620  1.00  0.00    -0.200 F 
ENDBRANCH  51  65
BRANCH  52  76
ATOM     76  C   UNL A   1      39.544  34.032  37.056  1.00  0.00     0.064 A 
ATOM     77  C   UNL A   1      40.159  35.292  37.076  1.00  0.00     0.173 A 
ATOM     78  C   UNL A   1      38.792  33.655  38.178  1.00  0.00     0.173 A 
ATOM     79  F   UNL A   1      40.905  35.689  36.035  1.00  0.00    -0.203 F 
ATOM     80  C   UNL A   1      40.035  36.134  38.179  1.00  0.00     0.198 A 
ATOM     81  C   UNL A   1      38.644  34.510  39.267  1.00  0.00     0.198 A 
ATOM     82  F   UNL A   1      38.182  32.461  38.207  1.00  0.00    -0.203 F 
ATOM     83  F   UNL A   1      40.664  37.317  38.189  1.00  0.00    -0.200 F 
ATOM     84  C   UNL A   1      39.270  35.746  39.270  1.00  0.00     0.200 A 
ATOM     85  F   UNL A   1      37.890  34.137  40.311  1.00  0.00    -0.200 F 
ATOM     86  F   UNL A   1      39.143  36.561  40.326  1.00  0.00    -0.200 F 
ENDBRANCH  52  76
BRANCH  64  87
ATOM     87  C   UNL A   1      43.835  28.786  35.436  1.00  0.00     0.064 A 
ATOM     88  C   UNL A   1      45.159  29.216  35.270  1.00  0.00     0.173 A 
ATOM     89  C   UNL A   1      43.583  27.767  36.366  1.00  0.00     0.173 A 
ATOM     90  F   UNL A   1      45.450  30.177  34.381  1.00  0.00    -0.203 F 
ATOM     91  C   UNL A   1      46.194  28.638  36.000  1.00  0.00     0.198 A 
ATOM     92  C   UNL A   1      44.616  27.210  37.113  1.00  0.00     0.198 A 
ATOM     93  F   UNL A   1      42.330  27.329  36.565  1.00  0.00    -0.203 F 
ATOM     94  F   UNL A   1      47.456  29.040  35.803  1.00  0.00    -0.200 F 
ATOM     95  C   UNL A   1      45.920  27.643  36.927  1.00  0.00     0.200 A 
ATOM     96  F   UNL A   1      44.348  26.257  38.018  1.00  0.00    -0.200 F 
ATOM     97  F   UNL A   1      46.916  27.098  37.638  1.00  0.00    -0.200 F 
ENDBRANCH  64  87
ENDBRANCH  38  39
ENDBRANCH  30  33
ENDBRANCH  28  29
ENDBRANCH  27  28
ENDBRANCH   1  27
TORSDOF 14
ENDMDL
MODEL 3
REMARK VINA RESULT:     -12.9      5.440      9.861
REMARK SMILES CC[N@@H+](C)Cc1cc2c(cc1Cl)C=C(C(=O)NCCCNC(=O)c1ccc(-c3c4nc(c(-c5c(F)c(F)c(F)c(F)c5F)c5ccc([nH]5)c(-c5c(F)c(F)c(F)c(F)c5F)c5nc(c(-c6c(F)c(F)c(F)c(F)c6F)c6ccc3[nH]6)C=C5)C=C4)cc1)[C@@H](C(F)(F)F)O2
REMARK SMILES IDX 18 1 17 2 15 3 16 4 14 6 6 7 7 8 11 9 8 10 10 11 12 12 9 13
REMARK SMILES IDX 92 14 13 15 87 16 5 17 3 18 4 19 2 21 1 22 88 23 89 24 90 25
REMARK SMILES IDX 91 26 19 27 20 28 21 29 22 30 23 32 24 33 25 34 86 35 26 36
REMARK SMILES IDX 85 37 27 38 28 39 29 40 79 41 30 42 84 43 78 44 80 45 31 46
REMARK SMILES IDX 83 47 77 48 76 49 32 51 64 52 44 53 63 54 45 55 48 56 62 57
REMARK SMILES IDX 81 58 46 59 47 60 61 62 82 63 49 64 33 65 34 66 42 67 35 68
REMARK SMILES IDX 36 69 40 70 43 71 37 72 38 73 41 74 39 75 65 76 66 77 74 78
REMARK SMILES IDX 67 79 68 80 72 81 75 82 69 83 70 84 73 85 71 86 50 87 51 88
REMARK SMILES IDX 59 89 52 90 53 91 57 92 60 93 54 94 55 95 58 96 56 97
REMARK H PARENT 17 5 3 20 21 31 80 50 48 61
REMARK Flexibility Score: inf
ROOT
ATOM      1  C   UNL A   1      36.589  20.432  25.045  1.00  0.00     0.118 C 
ENDROOT
BRANCH   1   2
ATOM      2  N   UNL A   1      35.424  19.562  25.001  1.00  0.00    -0.352 N 
ATOM      3  C   UNL A   1      34.080  19.701  24.931  1.00  0.00     0.251 C 
ATOM      4  O   UNL A   1      33.442  18.644  24.965  1.00  0.00    -0.270 OA
ATOM      5  H   UNL A   1      35.685  18.612  25.031  1.00  0.00     0.163 HD
BRANCH   3   6
ATOM      6  C   UNL A   1      33.356  20.998  24.812  1.00  0.00     0.067 C 
ATOM      7  C   UNL A   1      31.598  25.443  23.205  1.00  0.00     0.029 A 
ATOM      8  C   UNL A   1      31.377  24.641  24.339  1.00  0.00     0.058 A 
ATOM      9  C   UNL A   1      32.315  24.881  22.136  1.00  0.00     0.050 A 
ATOM     10  C   UNL A   1      31.951  23.378  24.445  1.00  0.00     0.128 A 
ATOM     11  C   UNL A   1      32.879  23.600  22.242  1.00  0.00     0.033 A 
ATOM     12  Cl  UNL A   1      32.528  25.703  20.630  1.00  0.00    -0.084 Cl
ATOM     13  C   UNL A   1      32.723  22.857  23.412  1.00  0.00     0.019 A 
ATOM     14  O   UNL A   1      31.701  22.689  25.596  1.00  0.00    -0.475 OA
ATOM     15  C   UNL A   1      33.340  21.549  23.582  1.00  0.00     0.025 C 
ATOM     16  C   UNL A   1      32.715  21.715  25.969  1.00  0.00     0.314 C 
BRANCH   7  17
ATOM     17  C   UNL A   1      31.074  26.867  23.224  1.00  0.00     0.300 C 
BRANCH  17  18
ATOM     18  N   UNL A   1      31.986  27.906  23.745  1.00  0.00    -0.334 N 
ATOM     19  C   UNL A   1      31.403  28.654  24.858  1.00  0.00     0.333 C 
ATOM     20  H   UNL A   1      32.778  27.359  24.083  1.00  0.00     0.348 HD
BRANCH  18  21
ATOM     21  C   UNL A   1      32.557  28.824  22.751  1.00  0.00     0.258 C 
ATOM     22  C   UNL A   1      34.030  28.562  22.461  1.00  0.00     0.071 C 
ENDBRANCH  18  21
ENDBRANCH  17  18
ENDBRANCH   7  17
BRANCH  16  23
ATOM     23  C   UNL A   1      33.734  22.387  26.910  1.00  0.00     0.429 C 
ATOM     24  F   UNL A   1      34.347  21.452  27.679  1.00  0.00    -0.167 F 
ATOM     25  F   UNL A   1      34.716  23.033  26.239  1.00  0.00    -0.167 F 
ATOM     26  F   UNL A   1      33.168  23.288  27.741  1.00  0.00    -0.167 F 
ENDBRANCH  16  23
ENDBRANCH   3   6
ENDBRANCH   1   2
BRANCH   1  27
ATOM     27  C   UNL A   1      37.882  19.656  24.845  1.00  0.00     0.042 C 
BRANCH  27  28
ATOM     28  C   UNL A   1      39.002  20.158  25.749  1.00  0.00     0.118 C 
BRANCH  28  29
ATOM     29  N   UNL A   1      40.025  19.140  25.974  1.00  0.00    -0.352 N 
ATOM     30  C   UNL A   1      41.385  19.259  26.128  1.00  0.00     0.251 C 
ATOM     31  H   UNL A   1      39.685  18.217  26.023  1.00  0.00     0.163 HD
ATOM     32  O   UNL A   1      42.099  18.262  26.072  1.00  0.00    -0.269 OA
BRANCH  30  33
ATOM     33  C   UNL A   1      41.992  20.588  26.341  1.00  0.00     0.039 A 
ATOM     34  C   UNL A   1      42.169  21.080  27.634  1.00  0.00     0.014 A 
ATOM     35  C   UNL A   1      42.391  21.351  25.240  1.00  0.00     0.014 A 
ATOM     36  C   UNL A   1      42.548  22.402  27.819  1.00  0.00     0.010 A 
ATOM     37  C   UNL A   1      42.879  22.647  25.435  1.00  0.00     0.010 A 
ATOM     38  C   UNL A   1      42.910  23.202  26.723  1.00  0.00    -0.014 A 
BRANCH  38  39
ATOM     39  C   UNL A   1      43.309  24.613  26.965  1.00  0.00     0.031 A 
ATOM     40  C   UNL A   1      42.353  25.583  27.606  1.00  0.00     0.074 A 
ATOM     41  C   UNL A   1      44.568  24.994  26.674  1.00  0.00     0.049 A 
ATOM     42  N   UNL A   1      42.539  26.845  27.906  1.00  0.00    -0.248 NA
ATOM     43  C   UNL A   1      41.014  25.080  27.955  1.00  0.00     0.031 C 
ATOM     44  C   UNL A   1      45.586  24.138  26.060  1.00  0.00     0.029 A 
ATOM     45  N   UNL A   1      45.221  26.183  26.885  1.00  0.00    -0.354 N 
ATOM     46  C   UNL A   1      41.340  27.289  28.448  1.00  0.00     0.074 A 
ATOM     47  C   UNL A   1      40.423  26.171  28.424  1.00  0.00     0.031 C 
ATOM     48  C   UNL A   1      46.748  24.804  26.003  1.00  0.00     0.029 A 
ATOM     49  C   UNL A   1      46.541  26.157  26.506  1.00  0.00     0.049 A 
ATOM     50  H   UNL A   1      44.785  26.976  27.270  1.00  0.00     0.167 HD
ATOM     51  C   UNL A   1      41.040  28.516  28.933  1.00  0.00     0.037 A 
ATOM     52  C   UNL A   1      47.480  27.121  26.543  1.00  0.00     0.037 A 
ATOM     53  C   UNL A   1      41.971  29.612  28.999  1.00  0.00     0.049 A 
ATOM     54  C   UNL A   1      47.109  28.477  27.073  1.00  0.00     0.074 A 
ATOM     55  C   UNL A   1      41.765  30.886  29.500  1.00  0.00     0.029 A 
ATOM     56  N   UNL A   1      43.285  29.560  28.562  1.00  0.00    -0.354 N 
ATOM     57  N   UNL A   1      45.970  28.882  27.578  1.00  0.00    -0.248 NA
ATOM     58  C   UNL A   1      48.149  29.514  27.025  1.00  0.00     0.031 C 
ATOM     59  C   UNL A   1      42.945  31.616  29.334  1.00  0.00     0.029 A 
ATOM     60  C   UNL A   1      43.898  30.785  28.767  1.00  0.00     0.049 A 
ATOM     61  H   UNL A   1      43.718  28.771  28.165  1.00  0.00     0.167 HD
ATOM     62  C   UNL A   1      46.154  30.215  27.910  1.00  0.00     0.074 A 
ATOM     63  C   UNL A   1      47.524  30.545  27.577  1.00  0.00     0.031 C 
ATOM     64  C   UNL A   1      45.263  31.091  28.431  1.00  0.00     0.037 A 
BRANCH  51  65
ATOM     65  C   UNL A   1      39.649  28.760  29.439  1.00  0.00     0.064 A 
ATOM     66  C   UNL A   1      39.300  28.512  30.774  1.00  0.00     0.173 A 
ATOM     67  C   UNL A   1      38.687  29.352  28.606  1.00  0.00     0.173 A 
ATOM     68  F   UNL A   1      40.181  27.937  31.606  1.00  0.00    -0.203 F 
ATOM     69  C   UNL A   1      38.038  28.849  31.257  1.00  0.00     0.198 A 
ATOM     70  C   UNL A   1      37.435  29.707  29.097  1.00  0.00     0.198 A 
ATOM     71  F   UNL A   1      38.975  29.614  27.322  1.00  0.00    -0.203 F 
ATOM     72  F   UNL A   1      37.720  28.591  32.533  1.00  0.00    -0.200 F 
ATOM     73  C   UNL A   1      37.111  29.458  30.423  1.00  0.00     0.200 A 
ATOM     74  F   UNL A   1      36.545  30.306  28.293  1.00  0.00    -0.200 F 
ATOM     75  F   UNL A   1      35.906  29.803  30.896  1.00  0.00    -0.200 F 
ENDBRANCH  51  65
BRANCH  52  76
ATOM     76  C   UNL A   1      48.851  26.838  26.046  1.00  0.00     0.064 A 
ATOM     77  C   UNL A   1      49.208  27.109  24.718  1.00  0.00     0.173 A 
ATOM     78  C   UNL A   1      49.834  26.301  26.890  1.00  0.00     0.173 A 
ATOM     79  F   UNL A   1      48.298  27.603  23.867  1.00  0.00    -0.203 F 
ATOM     80  C   UNL A   1      50.494  26.844  24.251  1.00  0.00     0.198 A 
ATOM     81  C   UNL A   1      51.127  26.065  26.431  1.00  0.00     0.198 A 
ATOM     82  F   UNL A   1      49.542  26.026  28.170  1.00  0.00    -0.203 F 
ATOM     83  F   UNL A   1      50.800  27.076  22.968  1.00  0.00    -0.200 F 
ATOM     84  C   UNL A   1      51.455  26.330  25.111  1.00  0.00     0.200 A 
ATOM     85  F   UNL A   1      52.056  25.585  27.270  1.00  0.00    -0.200 F 
ATOM     86  F   UNL A   1      52.695  26.085  24.665  1.00  0.00    -0.200 F 
ENDBRANCH  52  76
BRANCH  64  87
ATOM     87  C   UNL A   1      45.740  32.489  28.681  1.00  0.00     0.064 A 
ATOM     88  C   UNL A   1      45.582  33.494  27.717  1.00  0.00     0.173 A 
ATOM     89  C   UNL A   1      46.298  32.842  29.918  1.00  0.00     0.173 A 
ATOM     90  F   UNL A   1      45.066  33.200  26.514  1.00  0.00    -0.203 F 
ATOM     91  C   UNL A   1      45.979  34.803  27.978  1.00  0.00     0.198 A 
ATOM     92  C   UNL A   1      46.670  34.156  30.185  1.00  0.00     0.198 A 
ATOM     93  F   UNL A   1      46.461  31.915  30.875  1.00  0.00    -0.203 F 
ATOM     94  F   UNL A   1      45.850  35.741  27.031  1.00  0.00    -0.200 F 
ATOM     95  C   UNL A   1      46.514  35.134  29.214  1.00  0.00     0.200 A 
ATOM     96  F   UNL A   1      47.175  34.477  31.385  1.00  0.00    -0.200 F 
ATOM     97  F   UNL A   1      46.883  36.396  29.468  1.00  0.00    -0.200 F 
ENDBRANCH  64  87
ENDBRANCH  38  39
ENDBRANCH  30  33
ENDBRANCH  28  29
ENDBRANCH  27  28
ENDBRANCH   1  27
TORSDOF 14
ENDMDL
