MODEL 1
REMARK VINA RESULT:     -12.8      0.000      0.000
REMARK SMILES CCN1C(=O)CC[C@H](C(=O)NCCCNC(=O)c2ccc(-c3c4nc(c(-c5c(F)c(F)c(F)c(F)c5F)c5ccc([nH]5)c(-c5c(F)c(F)c(F)c(F)c5F)c5nc(c(-c6c(F)c(F)c(F)c(F)c6F)c6ccc3[nH]6)C=C5)C=C4)cc2)[C@@H]1c1ccc(OC)cc1
REMARK SMILES IDX 13 1 12 2 11 3 9 4 10 5 8 7 3 8 4 9 81 10 5 11 6 12 7 13
REMARK SMILES IDX 2 14 1 15 82 16 83 17 89 18 84 19 88 20 85 21 86 22 87 23
REMARK SMILES IDX 14 24 15 25 16 26 17 28 18 29 19 30 80 31 20 32 79 33 21 34
REMARK SMILES IDX 22 35 23 36 73 37 24 38 78 39 72 40 74 41 25 42 77 43 71 44
REMARK SMILES IDX 70 45 26 47 58 48 38 49 57 50 39 51 42 52 56 53 75 54 40 55
REMARK SMILES IDX 41 56 55 58 76 59 43 60 27 61 28 62 36 63 29 64 30 65 34 66
REMARK SMILES IDX 37 67 31 68 32 69 35 70 33 71 59 72 60 73 68 74 61 75 62 76
REMARK SMILES IDX 66 77 69 78 63 79 64 80 67 81 65 82 44 83 45 84 53 85 46 86
REMARK SMILES IDX 47 87 51 88 54 89 48 90 49 91 52 92 50 93
REMARK H PARENT 11 6 15 27 74 46 42 57
REMARK Flexibility Score: inf
ROOT
ATOM      1  C   UNL A   1      31.873  29.285  27.245  1.00  0.00     0.042 C 
ENDROOT
BRANCH   1   2
ATOM      2  C   UNL A   1      32.175  27.811  27.147  1.00  0.00     0.117 C 
BRANCH   2   3
ATOM      3  N   UNL A   1      31.011  26.964  26.983  1.00  0.00    -0.356 N 
ATOM      4  C   UNL A   1      30.824  25.924  26.125  1.00  0.00     0.225 C 
ATOM      5  O   UNL A   1      29.936  25.115  26.408  1.00  0.00    -0.275 OA
ATOM      6  H   UNL A   1      30.251  27.169  27.573  1.00  0.00     0.163 HD
BRANCH   4   7
ATOM      7  C   UNL A   1      31.643  25.746  24.852  1.00  0.00     0.106 C 
ATOM      8  N   UNL A   1      32.562  26.703  22.714  1.00  0.00    -0.335 N 
ATOM      9  C   UNL A   1      32.724  25.433  22.177  1.00  0.00     0.223 C 
ATOM     10  C   UNL A   1      31.846  27.005  23.981  1.00  0.00     0.128 C 
ATOM     11  O   UNL A   1      33.275  25.242  21.091  1.00  0.00    -0.275 OA
ATOM     12  C   UNL A   1      32.319  24.230  23.000  1.00  0.00     0.101 C 
ATOM     13  C   UNL A   1      31.279  24.497  24.059  1.00  0.00     0.026 C 
BRANCH   8  14
ATOM     14  C   UNL A   1      33.210  27.816  22.009  1.00  0.00     0.117 C 
ATOM     15  C   UNL A   1      34.217  28.594  22.846  1.00  0.00     0.027 C 
ENDBRANCH   8  14
BRANCH  10  16
ATOM     16  C   UNL A   1      30.619  27.891  23.760  1.00  0.00    -0.024 A 
ATOM     17  C   UNL A   1      30.683  29.292  23.808  1.00  0.00     0.010 A 
ATOM     18  C   UNL A   1      29.378  27.301  23.446  1.00  0.00     0.010 A 
ATOM     19  C   UNL A   1      29.560  30.072  23.504  1.00  0.00     0.047 A 
ATOM     20  C   UNL A   1      28.259  28.086  23.126  1.00  0.00     0.047 A 
ATOM     21  C   UNL A   1      28.357  29.475  23.124  1.00  0.00     0.118 A 
BRANCH  21  22
ATOM     22  O   UNL A   1      27.369  30.347  22.764  1.00  0.00    -0.497 OA
ATOM     23  C   UNL A   1      27.653  31.734  22.926  1.00  0.00     0.278 C 
ENDBRANCH  21  22
ENDBRANCH  10  16
ENDBRANCH   4   7
ENDBRANCH   2   3
ENDBRANCH   1   2
BRANCH   1  24
ATOM     24  C   UNL A   1      32.887  30.133  26.501  1.00  0.00     0.118 C 
BRANCH  24  25
ATOM     25  N   UNL A   1      32.825  31.554  26.844  1.00  0.00    -0.352 N 
ATOM     26  C   UNL A   1      33.655  32.320  27.625  1.00  0.00     0.251 C 
ATOM     27  H   UNL A   1      32.065  32.041  26.451  1.00  0.00     0.163 HD
ATOM     28  O   UNL A   1      33.376  33.485  27.892  1.00  0.00    -0.269 OA
BRANCH  26  29
ATOM     29  C   UNL A   1      34.885  31.721  28.163  1.00  0.00     0.039 A 
ATOM     30  C   UNL A   1      36.017  32.518  28.348  1.00  0.00     0.014 A 
ATOM     31  C   UNL A   1      34.890  30.376  28.528  1.00  0.00     0.014 A 
ATOM     32  C   UNL A   1      37.131  31.978  28.989  1.00  0.00     0.010 A 
ATOM     33  C   UNL A   1      35.940  29.884  29.279  1.00  0.00     0.010 A 
ATOM     34  C   UNL A   1      37.079  30.673  29.500  1.00  0.00    -0.014 A 
BRANCH  34  35
ATOM     35  C   UNL A   1      38.210  30.065  30.234  1.00  0.00     0.031 A 
ATOM     36  C   UNL A   1      38.449  30.476  31.660  1.00  0.00     0.074 A 
ATOM     37  C   UNL A   1      39.067  29.252  29.589  1.00  0.00     0.049 A 
ATOM     38  N   UNL A   1      39.473  30.231  32.433  1.00  0.00    -0.248 NA
ATOM     39  C   UNL A   1      37.419  31.327  32.281  1.00  0.00     0.031 C 
ATOM     40  C   UNL A   1      38.956  28.837  28.189  1.00  0.00     0.029 A 
ATOM     41  N   UNL A   1      40.218  28.647  30.023  1.00  0.00    -0.354 N 
ATOM     42  C   UNL A   1      39.227  30.929  33.609  1.00  0.00     0.074 A 
ATOM     43  C   UNL A   1      37.994  31.658  33.425  1.00  0.00     0.031 C 
ATOM     44  C   UNL A   1      39.983  28.027  27.887  1.00  0.00     0.029 A 
ATOM     45  C   UNL A   1      40.849  27.904  29.054  1.00  0.00     0.049 A 
ATOM     46  H   UNL A   1      40.560  28.735  30.942  1.00  0.00     0.167 HD
ATOM     47  C   UNL A   1      39.956  30.936  34.749  1.00  0.00     0.037 A 
ATOM     48  C   UNL A   1      42.004  27.216  29.108  1.00  0.00     0.037 A 
ATOM     49  C   UNL A   1      41.151  30.158  34.929  1.00  0.00     0.049 A 
ATOM     50  C   UNL A   1      42.775  27.207  30.402  1.00  0.00     0.074 A 
ATOM     51  C   UNL A   1      41.936  30.028  36.059  1.00  0.00     0.029 A 
ATOM     52  N   UNL A   1      41.726  29.366  33.944  1.00  0.00    -0.354 N 
ATOM     53  N   UNL A   1      42.508  27.826  31.528  1.00  0.00    -0.248 NA
ATOM     54  C   UNL A   1      44.002  26.402  30.436  1.00  0.00     0.031 C 
ATOM     55  C   UNL A   1      43.007  29.185  35.748  1.00  0.00     0.029 A 
ATOM     56  C   UNL A   1      42.863  28.751  34.439  1.00  0.00     0.049 A 
ATOM     57  H   UNL A   1      41.378  29.259  33.029  1.00  0.00     0.167 HD
ATOM     58  C   UNL A   1      43.513  27.462  32.412  1.00  0.00     0.074 A 
ATOM     59  C   UNL A   1      44.388  26.556  31.695  1.00  0.00     0.031 C 
ATOM     60  C   UNL A   1      43.701  27.841  33.700  1.00  0.00     0.037 A 
BRANCH  47  61
ATOM     61  C   UNL A   1      39.473  31.796  35.880  1.00  0.00     0.064 A 
ATOM     62  C   UNL A   1      38.461  31.367  36.753  1.00  0.00     0.173 A 
ATOM     63  C   UNL A   1      40.039  33.058  36.107  1.00  0.00     0.173 A 
ATOM     64  F   UNL A   1      37.872  30.175  36.572  1.00  0.00    -0.203 F 
ATOM     65  C   UNL A   1      38.012  32.183  37.789  1.00  0.00     0.198 A 
ATOM     66  C   UNL A   1      39.612  33.858  37.164  1.00  0.00     0.198 A 
ATOM     67  F   UNL A   1      41.009  33.520  35.303  1.00  0.00    -0.203 F 
ATOM     68  F   UNL A   1      37.004  31.775  38.572  1.00  0.00    -0.200 F 
ATOM     69  C   UNL A   1      38.593  33.424  37.999  1.00  0.00     0.200 A 
ATOM     70  F   UNL A   1      40.183  35.053  37.372  1.00  0.00    -0.200 F 
ATOM     71  F   UNL A   1      38.165  34.205  39.000  1.00  0.00    -0.200 F 
ENDBRANCH  47  61
BRANCH  48  72
ATOM     72  C   UNL A   1      42.479  26.457  27.922  1.00  0.00     0.064 A 
ATOM     73  C   UNL A   1      42.045  25.143  27.689  1.00  0.00     0.173 A 
ATOM     74  C   UNL A   1      43.369  27.021  26.996  1.00  0.00     0.173 A 
ATOM     75  F   UNL A   1      41.206  24.554  28.553  1.00  0.00    -0.203 F 
ATOM     76  C   UNL A   1      42.501  24.417  26.591  1.00  0.00     0.198 A 
ATOM     77  C   UNL A   1      43.801  26.304  25.883  1.00  0.00     0.198 A 
ATOM     78  F   UNL A   1      43.807  28.277  27.166  1.00  0.00    -0.203 F 
ATOM     79  F   UNL A   1      42.105  23.148  26.420  1.00  0.00    -0.200 F 
ATOM     80  C   UNL A   1      43.375  24.999  25.686  1.00  0.00     0.200 A 
ATOM     81  F   UNL A   1      44.632  26.876  25.001  1.00  0.00    -0.200 F 
ATOM     82  F   UNL A   1      43.809  24.301  24.627  1.00  0.00    -0.200 F 
ENDBRANCH  48  72
BRANCH  60  83
ATOM     83  C   UNL A   1      44.867  27.240  34.426  1.00  0.00     0.064 A 
ATOM     84  C   UNL A   1      46.123  27.863  34.442  1.00  0.00     0.173 A 
ATOM     85  C   UNL A   1      44.709  26.053  35.155  1.00  0.00     0.173 A 
ATOM     86  F   UNL A   1      46.325  28.993  33.747  1.00  0.00    -0.203 F 
ATOM     87  C   UNL A   1      47.186  27.304  35.144  1.00  0.00     0.198 A 
ATOM     88  C   UNL A   1      45.765  25.514  35.882  1.00  0.00     0.198 A 
ATOM     89  F   UNL A   1      43.523  25.425  35.178  1.00  0.00    -0.203 F 
ATOM     90  F   UNL A   1      48.391  27.890  35.108  1.00  0.00    -0.200 F 
ATOM     91  C   UNL A   1      47.004  26.136  35.869  1.00  0.00     0.200 A 
ATOM     92  F   UNL A   1      45.583  24.395  36.595  1.00  0.00    -0.200 F 
ATOM     93  F   UNL A   1      48.027  25.605  36.553  1.00  0.00    -0.200 F 
ENDBRANCH  60  83
ENDBRANCH  34  35
ENDBRANCH  26  29
ENDBRANCH  24  25
ENDBRANCH   1  24
TORSDOF 13
ENDMDL
MODEL 2
REMARK VINA RESULT:     -12.7      0.531      7.443
REMARK SMILES CCN1C(=O)CC[C@H](C(=O)NCCCNC(=O)c2ccc(-c3c4nc(c(-c5c(F)c(F)c(F)c(F)c5F)c5ccc([nH]5)c(-c5c(F)c(F)c(F)c(F)c5F)c5nc(c(-c6c(F)c(F)c(F)c(F)c6F)c6ccc3[nH]6)C=C5)C=C4)cc2)[C@@H]1c1ccc(OC)cc1
REMARK SMILES IDX 13 1 12 2 11 3 9 4 10 5 8 7 3 8 4 9 81 10 5 11 6 12 7 13
REMARK SMILES IDX 2 14 1 15 82 16 83 17 89 18 84 19 88 20 85 21 86 22 87 23
REMARK SMILES IDX 14 24 15 25 16 26 17 28 18 29 19 30 80 31 20 32 79 33 21 34
REMARK SMILES IDX 22 35 23 36 73 37 24 38 78 39 72 40 74 41 25 42 77 43 71 44
REMARK SMILES IDX 70 45 26 47 58 48 38 49 57 50 39 51 42 52 56 53 75 54 40 55
REMARK SMILES IDX 41 56 55 58 76 59 43 60 27 61 28 62 36 63 29 64 30 65 34 66
REMARK SMILES IDX 37 67 31 68 32 69 35 70 33 71 59 72 60 73 68 74 61 75 62 76
REMARK SMILES IDX 66 77 69 78 63 79 64 80 67 81 65 82 44 83 45 84 53 85 46 86
REMARK SMILES IDX 47 87 51 88 54 89 48 90 49 91 52 92 50 93
REMARK H PARENT 11 6 15 27 74 46 42 57
REMARK Flexibility Score: inf
ROOT
ATOM      1  C   UNL A   1      31.869  29.269  27.251  1.00  0.00     0.042 C 
ENDROOT
BRANCH   1   2
ATOM      2  C   UNL A   1      32.180  27.798  27.143  1.00  0.00     0.117 C 
BRANCH   2   3
ATOM      3  N   UNL A   1      31.021  26.944  26.983  1.00  0.00    -0.356 N 
ATOM      4  C   UNL A   1      30.837  25.902  26.127  1.00  0.00     0.225 C 
ATOM      5  O   UNL A   1      29.955  25.089  26.413  1.00  0.00    -0.275 OA
ATOM      6  H   UNL A   1      30.261  27.146  27.575  1.00  0.00     0.163 HD
BRANCH   4   7
ATOM      7  C   UNL A   1      31.653  25.727  24.852  1.00  0.00     0.106 C 
ATOM      8  N   UNL A   1      32.559  26.686  22.709  1.00  0.00    -0.335 N 
ATOM      9  C   UNL A   1      32.729  25.417  22.174  1.00  0.00     0.223 C 
ATOM     10  C   UNL A   1      31.845  26.986  23.977  1.00  0.00     0.128 C 
ATOM     11  O   UNL A   1      33.278  25.228  21.087  1.00  0.00    -0.275 OA
ATOM     12  C   UNL A   1      32.335  24.213  23.001  1.00  0.00     0.101 C 
ATOM     13  C   UNL A   1      31.295  24.474  24.063  1.00  0.00     0.026 C 
BRANCH   8  14
ATOM     14  C   UNL A   1      33.198  27.802  22.000  1.00  0.00     0.117 C 
ATOM     15  C   UNL A   1      34.214  28.579  22.828  1.00  0.00     0.027 C 
ENDBRANCH   8  14
BRANCH  10  16
ATOM     16  C   UNL A   1      30.612  27.863  23.759  1.00  0.00    -0.024 A 
ATOM     17  C   UNL A   1      30.664  29.265  23.809  1.00  0.00     0.010 A 
ATOM     18  C   UNL A   1      29.375  27.264  23.444  1.00  0.00     0.010 A 
ATOM     19  C   UNL A   1      29.536  30.037  23.507  1.00  0.00     0.047 A 
ATOM     20  C   UNL A   1      28.249  28.041  23.126  1.00  0.00     0.047 A 
ATOM     21  C   UNL A   1      28.337  29.431  23.126  1.00  0.00     0.118 A 
BRANCH  21  22
ATOM     22  O   UNL A   1      27.342  30.296  22.769  1.00  0.00    -0.497 OA
ATOM     23  C   UNL A   1      27.358  31.578  23.391  1.00  0.00     0.278 C 
ENDBRANCH  21  22
ENDBRANCH  10  16
ENDBRANCH   4   7
ENDBRANCH   2   3
ENDBRANCH   1   2
BRANCH   1  24
ATOM     24  C   UNL A   1      32.909  30.131  26.560  1.00  0.00     0.118 C 
BRANCH  24  25
ATOM     25  N   UNL A   1      32.726  31.565  26.790  1.00  0.00    -0.352 N 
ATOM     26  C   UNL A   1      33.484  32.457  27.509  1.00  0.00     0.251 C 
ATOM     27  H   UNL A   1      31.931  31.954  26.359  1.00  0.00     0.163 HD
ATOM     28  O   UNL A   1      33.106  33.612  27.683  1.00  0.00    -0.269 OA
BRANCH  26  29
ATOM     29  C   UNL A   1      34.756  32.008  28.093  1.00  0.00     0.039 A 
ATOM     30  C   UNL A   1      35.858  32.865  28.090  1.00  0.00     0.014 A 
ATOM     31  C   UNL A   1      34.830  30.750  28.688  1.00  0.00     0.014 A 
ATOM     32  C   UNL A   1      37.015  32.488  28.770  1.00  0.00     0.010 A 
ATOM     33  C   UNL A   1      35.925  30.436  29.471  1.00  0.00     0.010 A 
ATOM     34  C   UNL A   1      37.035  31.293  29.504  1.00  0.00    -0.014 A 
BRANCH  34  35
ATOM     35  C   UNL A   1      38.216  30.865  30.287  1.00  0.00     0.031 A 
ATOM     36  C   UNL A   1      39.180  29.895  29.666  1.00  0.00     0.074 A 
ATOM     37  C   UNL A   1      38.345  31.255  31.569  1.00  0.00     0.049 A 
ATOM     38  N   UNL A   1      40.165  29.237  30.217  1.00  0.00    -0.248 NA
ATOM     39  C   UNL A   1      38.971  29.579  28.242  1.00  0.00     0.031 C 
ATOM     40  C   UNL A   1      37.432  32.150  32.283  1.00  0.00     0.029 A 
ATOM     41  N   UNL A   1      39.288  30.927  32.508  1.00  0.00    -0.354 N 
ATOM     42  C   UNL A   1      40.661  28.405  29.221  1.00  0.00     0.074 A 
ATOM     43  C   UNL A   1      39.830  28.592  28.054  1.00  0.00     0.031 C 
ATOM     44  C   UNL A   1      37.873  32.317  33.540  1.00  0.00     0.029 A 
ATOM     45  C   UNL A   1      39.069  31.506  33.734  1.00  0.00     0.049 A 
ATOM     46  H   UNL A   1      40.051  30.333  32.322  1.00  0.00     0.167 HD
ATOM     47  C   UNL A   1      41.732  27.580  29.272  1.00  0.00     0.037 A 
ATOM     48  C   UNL A   1      39.756  31.380  34.885  1.00  0.00     0.037 A 
ATOM     49  C   UNL A   1      42.578  27.453  30.427  1.00  0.00     0.049 A 
ATOM     50  C   UNL A   1      40.968  30.488  34.903  1.00  0.00     0.074 A 
ATOM     51  C   UNL A   1      43.732  26.706  30.576  1.00  0.00     0.029 A 
ATOM     52  N   UNL A   1      42.361  28.107  31.633  1.00  0.00    -0.354 N 
ATOM     53  N   UNL A   1      41.464  29.746  33.941  1.00  0.00    -0.248 NA
ATOM     54  C   UNL A   1      41.720  30.418  36.162  1.00  0.00     0.031 C 
ATOM     55  C   UNL A   1      44.193  26.877  31.884  1.00  0.00     0.029 A 
ATOM     56  C   UNL A   1      43.356  27.770  32.535  1.00  0.00     0.049 A 
ATOM     57  H   UNL A   1      41.611  28.717  31.819  1.00  0.00     0.167 HD
ATOM     58  C   UNL A   1      42.600  29.147  34.466  1.00  0.00     0.074 A 
ATOM     59  C   UNL A   1      42.728  29.624  35.829  1.00  0.00     0.031 C 
ATOM     60  C   UNL A   1      43.461  28.279  33.879  1.00  0.00     0.037 A 
BRANCH  47  61
ATOM     61  C   UNL A   1      42.049  26.772  28.048  1.00  0.00     0.064 A 
ATOM     62  C   UNL A   1      42.958  27.225  27.079  1.00  0.00     0.173 A 
ATOM     63  C   UNL A   1      41.450  25.520  27.847  1.00  0.00     0.173 A 
ATOM     64  F   UNL A   1      43.546  28.423  27.212  1.00  0.00    -0.203 F 
ATOM     65  C   UNL A   1      43.230  26.470  25.940  1.00  0.00     0.198 A 
ATOM     66  C   UNL A   1      41.750  24.752  26.725  1.00  0.00     0.198 A 
ATOM     67  F   UNL A   1      40.573  25.038  28.740  1.00  0.00    -0.203 F 
ATOM     68  F   UNL A   1      44.056  26.951  25.001  1.00  0.00    -0.200 F 
ATOM     69  C   UNL A   1      42.632  25.231  25.767  1.00  0.00     0.200 A 
ATOM     70  F   UNL A   1      41.180  23.550  26.565  1.00  0.00    -0.200 F 
ATOM     71  F   UNL A   1      42.899  24.502  24.675  1.00  0.00    -0.200 F 
ENDBRANCH  47  61
BRANCH  48  72
ATOM     72  C   UNL A   1      39.337  32.138  36.093  1.00  0.00     0.064 A 
ATOM     73  C   UNL A   1      38.359  31.625  36.958  1.00  0.00     0.173 A 
ATOM     74  C   UNL A   1      39.902  33.381  36.415  1.00  0.00     0.173 A 
ATOM     75  F   UNL A   1      37.778  30.447  36.687  1.00  0.00    -0.203 F 
ATOM     76  C   UNL A   1      37.945  32.337  38.082  1.00  0.00     0.198 A 
ATOM     77  C   UNL A   1      39.507  34.078  37.555  1.00  0.00     0.198 A 
ATOM     78  F   UNL A   1      40.849  33.912  35.627  1.00  0.00    -0.203 F 
ATOM     79  F   UNL A   1      36.974  31.844  38.864  1.00  0.00    -0.200 F 
ATOM     80  C   UNL A   1      38.523  33.561  38.382  1.00  0.00     0.200 A 
ATOM     81  F   UNL A   1      40.081  35.253  37.851  1.00  0.00    -0.200 F 
ATOM     82  F   UNL A   1      38.128  34.243  39.466  1.00  0.00    -0.200 F 
ENDBRANCH  48  72
BRANCH  60  83
ATOM     83  C   UNL A   1      44.638  27.830  34.692  1.00  0.00     0.064 A 
ATOM     84  C   UNL A   1      44.593  26.665  35.471  1.00  0.00     0.173 A 
ATOM     85  C   UNL A   1      45.841  28.550  34.649  1.00  0.00     0.173 A 
ATOM     86  F   UNL A   1      43.459  25.952  35.553  1.00  0.00    -0.203 F 
ATOM     87  C   UNL A   1      45.704  26.250  36.197  1.00  0.00     0.198 A 
ATOM     88  C   UNL A   1      46.960  28.115  35.350  1.00  0.00     0.198 A 
ATOM     89  F   UNL A   1      45.935  29.666  33.910  1.00  0.00    -0.203 F 
ATOM     90  F   UNL A   1      45.626  25.159  36.971  1.00  0.00    -0.200 F 
ATOM     91  C   UNL A   1      46.888  26.969  36.129  1.00  0.00     0.200 A 
ATOM     92  F   UNL A   1      48.107  28.801  35.271  1.00  0.00    -0.200 F 
ATOM     93  F   UNL A   1      47.961  26.562  36.821  1.00  0.00    -0.200 F 
ENDBRANCH  60  83
ENDBRANCH  34  35
ENDBRANCH  26  29
ENDBRANCH  24  25
ENDBRANCH   1  24
TORSDOF 13
ENDMDL
MODEL 3
REMARK VINA RESULT:     -12.7      5.092      8.481
REMARK SMILES CCN1C(=O)CC[C@H](C(=O)NCCCNC(=O)c2ccc(-c3c4nc(c(-c5c(F)c(F)c(F)c(F)c5F)c5ccc([nH]5)c(-c5c(F)c(F)c(F)c(F)c5F)c5nc(c(-c6c(F)c(F)c(F)c(F)c6F)c6ccc3[nH]6)C=C5)C=C4)cc2)[C@@H]1c1ccc(OC)cc1
REMARK SMILES IDX 13 1 12 2 11 3 9 4 10 5 8 7 3 8 4 9 81 10 5 11 6 12 7 13
REMARK SMILES IDX 2 14 1 15 82 16 83 17 89 18 84 19 88 20 85 21 86 22 87 23
REMARK SMILES IDX 14 24 15 25 16 26 17 28 18 29 19 30 80 31 20 32 79 33 21 34
REMARK SMILES IDX 22 35 23 36 73 37 24 38 78 39 72 40 74 41 25 42 77 43 71 44
REMARK SMILES IDX 70 45 26 47 58 48 38 49 57 50 39 51 42 52 56 53 75 54 40 55
REMARK SMILES IDX 41 56 55 58 76 59 43 60 27 61 28 62 36 63 29 64 30 65 34 66
REMARK SMILES IDX 37 67 31 68 32 69 35 70 33 71 59 72 60 73 68 74 61 75 62 76
REMARK SMILES IDX 66 77 69 78 63 79 64 80 67 81 65 82 44 83 45 84 53 85 46 86
REMARK SMILES IDX 47 87 51 88 54 89 48 90 49 91 52 92 50 93
REMARK H PARENT 11 6 15 27 74 46 42 57
REMARK Flexibility Score: inf
ROOT
ATOM      1  C   UNL A   1      38.252  20.343  25.087  1.00  0.00     0.042 C 
ENDROOT
BRANCH   1   2
ATOM      2  C   UNL A   1      37.479  21.635  24.993  1.00  0.00     0.117 C 
BRANCH   2   3
ATOM      3  N   UNL A   1      36.556  21.868  26.083  1.00  0.00    -0.356 N 
ATOM      4  C   UNL A   1      35.219  21.619  26.140  1.00  0.00     0.225 C 
ATOM      5  O   UNL A   1      34.711  21.531  27.261  1.00  0.00    -0.275 OA
ATOM      6  H   UNL A   1      36.949  22.262  26.895  1.00  0.00     0.163 HD
BRANCH   4   7
ATOM      7  C   UNL A   1      34.353  21.469  24.895  1.00  0.00     0.106 C 
ATOM      8  N   UNL A   1      33.100  22.526  22.986  1.00  0.00    -0.335 N 
ATOM      9  C   UNL A   1      32.312  21.393  22.832  1.00  0.00     0.223 C 
ATOM     10  C   UNL A   1      34.035  22.764  24.115  1.00  0.00     0.128 C 
ATOM     11  O   UNL A   1      31.507  21.270  21.907  1.00  0.00    -0.275 OA
ATOM     12  C   UNL A   1      32.529  20.217  23.759  1.00  0.00     0.101 C 
ATOM     13  C   UNL A   1      33.150  20.555  25.092  1.00  0.00     0.026 C 
BRANCH   8  14
ATOM     14  C   UNL A   1      33.051  23.525  21.911  1.00  0.00     0.117 C 
ATOM     15  C   UNL A   1      32.099  24.686  22.169  1.00  0.00     0.027 C 
ENDBRANCH   8  14
BRANCH  10  16
ATOM     16  C   UNL A   1      33.645  23.986  24.948  1.00  0.00    -0.024 A 
ATOM     17  C   UNL A   1      34.441  25.141  25.011  1.00  0.00     0.010 A 
ATOM     18  C   UNL A   1      32.420  23.996  25.645  1.00  0.00     0.010 A 
ATOM     19  C   UNL A   1      34.005  26.276  25.704  1.00  0.00     0.047 A 
ATOM     20  C   UNL A   1      31.978  25.142  26.325  1.00  0.00     0.047 A 
ATOM     21  C   UNL A   1      32.757  26.296  26.329  1.00  0.00     0.118 A 
BRANCH  21  22
ATOM     22  O   UNL A   1      32.412  27.493  26.889  1.00  0.00    -0.497 OA
ATOM     23  C   UNL A   1      33.432  28.485  26.951  1.00  0.00     0.278 C 
ENDBRANCH  21  22
ENDBRANCH  10  16
ENDBRANCH   4   7
ENDBRANCH   2   3
ENDBRANCH   1   2
BRANCH   1  24
ATOM     24  C   UNL A   1      39.326  20.390  26.158  1.00  0.00     0.118 C 
BRANCH  24  25
ATOM     25  N   UNL A   1      40.308  19.310  26.048  1.00  0.00    -0.352 N 
ATOM     26  C   UNL A   1      41.681  19.347  26.071  1.00  0.00     0.251 C 
ATOM     27  H   UNL A   1      39.922  18.410  25.940  1.00  0.00     0.163 HD
ATOM     28  O   UNL A   1      42.345  18.339  25.849  1.00  0.00    -0.269 OA
BRANCH  26  29
ATOM     29  C   UNL A   1      42.357  20.622  26.347  1.00  0.00     0.039 A 
ATOM     30  C   UNL A   1      42.709  21.462  25.288  1.00  0.00     0.014 A 
ATOM     31  C   UNL A   1      42.594  21.001  27.667  1.00  0.00     0.014 A 
ATOM     32  C   UNL A   1      43.220  22.729  25.564  1.00  0.00     0.010 A 
ATOM     33  C   UNL A   1      42.973  22.301  27.940  1.00  0.00     0.010 A 
ATOM     34  C   UNL A   1      43.308  23.172  26.892  1.00  0.00    -0.014 A 
BRANCH  34  35
ATOM     35  C   UNL A   1      43.793  24.524  27.245  1.00  0.00     0.031 A 
ATOM     36  C   UNL A   1      42.810  25.524  27.785  1.00  0.00     0.074 A 
ATOM     37  C   UNL A   1      45.064  24.872  26.971  1.00  0.00     0.049 A 
ATOM     38  N   UNL A   1      42.955  26.808  27.980  1.00  0.00    -0.248 NA
ATOM     39  C   UNL A   1      41.461  25.020  28.096  1.00  0.00     0.031 C 
ATOM     40  C   UNL A   1      46.081  23.992  26.392  1.00  0.00     0.029 A 
ATOM     41  N   UNL A   1      45.711  26.071  27.122  1.00  0.00    -0.354 N 
ATOM     42  C   UNL A   1      41.710  27.265  28.393  1.00  0.00     0.074 A 
ATOM     43  C   UNL A   1      40.807  26.139  28.360  1.00  0.00     0.031 C 
ATOM     44  C   UNL A   1      47.230  24.674  26.259  1.00  0.00     0.029 A 
ATOM     45  C   UNL A   1      47.018  26.049  26.697  1.00  0.00     0.049 A 
ATOM     46  H   UNL A   1      45.281  26.872  27.499  1.00  0.00     0.167 HD
ATOM     47  C   UNL A   1      41.364  28.511  28.792  1.00  0.00     0.037 A 
ATOM     48  C   UNL A   1      47.930  27.037  26.658  1.00  0.00     0.037 A 
ATOM     49  C   UNL A   1      42.293  29.604  28.872  1.00  0.00     0.049 A 
ATOM     50  C   UNL A   1      47.530  28.404  27.146  1.00  0.00     0.074 A 
ATOM     51  C   UNL A   1      42.078  30.891  29.327  1.00  0.00     0.029 A 
ATOM     52  N   UNL A   1      43.627  29.527  28.493  1.00  0.00    -0.354 N 
ATOM     53  N   UNL A   1      46.365  28.816  27.587  1.00  0.00    -0.248 NA
ATOM     54  C   UNL A   1      48.568  29.442  27.135  1.00  0.00     0.031 C 
ATOM     55  C   UNL A   1      43.272  31.604  29.189  1.00  0.00     0.029 A 
ATOM     56  C   UNL A   1      44.245  30.749  28.695  1.00  0.00     0.049 A 
ATOM     57  H   UNL A   1      44.068  28.723  28.133  1.00  0.00     0.167 HD
ATOM     58  C   UNL A   1      46.537  30.148  27.936  1.00  0.00     0.074 A 
ATOM     59  C   UNL A   1      47.925  30.471  27.667  1.00  0.00     0.031 C 
ATOM     60  C   UNL A   1      45.634  31.029  28.432  1.00  0.00     0.037 A 
BRANCH  47  61
ATOM     61  C   UNL A   1      39.933  28.746  29.180  1.00  0.00     0.064 A 
ATOM     62  C   UNL A   1      39.475  28.515  30.487  1.00  0.00     0.173 A 
ATOM     63  C   UNL A   1      39.009  29.223  28.240  1.00  0.00     0.173 A 
ATOM     64  F   UNL A   1      40.312  28.041  31.422  1.00  0.00    -0.203 F 
ATOM     65  C   UNL A   1      38.140  28.723  30.828  1.00  0.00     0.198 A 
ATOM     66  C   UNL A   1      37.683  29.463  28.592  1.00  0.00     0.198 A 
ATOM     67  F   UNL A   1      39.391  29.461  26.976  1.00  0.00    -0.203 F 
ATOM     68  F   UNL A   1      37.715  28.439  32.067  1.00  0.00    -0.200 F 
ATOM     69  C   UNL A   1      37.248  29.204  29.883  1.00  0.00     0.200 A 
ATOM     70  F   UNL A   1      36.824  29.939  27.680  1.00  0.00    -0.200 F 
ATOM     71  F   UNL A   1      35.965  29.410  30.214  1.00  0.00    -0.200 F 
ENDBRANCH  47  61
BRANCH  48  72
ATOM     72  C   UNL A   1      49.309  26.764  26.175  1.00  0.00     0.064 A 
ATOM     73  C   UNL A   1      50.286  26.254  27.042  1.00  0.00     0.173 A 
ATOM     74  C   UNL A   1      49.681  26.999  24.843  1.00  0.00     0.173 A 
ATOM     75  F   UNL A   1      49.984  26.026  28.329  1.00  0.00    -0.203 F 
ATOM     76  C   UNL A   1      51.587  26.014  26.604  1.00  0.00     0.198 A 
ATOM     77  C   UNL A   1      50.974  26.731  24.398  1.00  0.00     0.198 A 
ATOM     78  F   UNL A   1      48.783  27.476  23.969  1.00  0.00    -0.203 F 
ATOM     79  F   UNL A   1      52.511  25.572  27.467  1.00  0.00    -0.200 F 
ATOM     80  C   UNL A   1      51.929  26.248  25.280  1.00  0.00     0.200 A 
ATOM     81  F   UNL A   1      51.296  26.941  23.114  1.00  0.00    -0.200 F 
ATOM     82  F   UNL A   1      53.179  26.012  24.858  1.00  0.00    -0.200 F 
ENDBRANCH  48  72
BRANCH  60  83
ATOM     83  C   UNL A   1      46.129  32.406  28.759  1.00  0.00     0.064 A 
ATOM     84  C   UNL A   1      46.081  33.446  27.821  1.00  0.00     0.173 A 
ATOM     85  C   UNL A   1      46.611  32.696  30.044  1.00  0.00     0.173 A 
ATOM     86  F   UNL A   1      45.641  33.212  26.575  1.00  0.00    -0.203 F 
ATOM     87  C   UNL A   1      46.521  34.724  28.152  1.00  0.00     0.198 A 
ATOM     88  C   UNL A   1      47.020  33.981  30.381  1.00  0.00     0.198 A 
ATOM     89  F   UNL A   1      46.667  31.734  30.978  1.00  0.00    -0.203 F 
ATOM     90  F   UNL A   1      46.510  35.693  27.227  1.00  0.00    -0.200 F 
ATOM     91  C   UNL A   1      46.981  34.992  29.432  1.00  0.00     0.200 A 
ATOM     92  F   UNL A   1      47.449  34.242  31.622  1.00  0.00    -0.200 F 
ATOM     93  F   UNL A   1      47.395  36.226  29.752  1.00  0.00    -0.200 F 
ENDBRANCH  60  83
ENDBRANCH  34  35
ENDBRANCH  26  29
ENDBRANCH  24  25
ENDBRANCH   1  24
TORSDOF 13
ENDMDL
