MODEL 1
REMARK VINA RESULT:     -12.1      0.000      0.000
REMARK SMILES C[C@@]1(O)N(CC(=O)NCCCNC(=O)c2ccc(-c3c4nc(c(-c5c(F)c(F)c(F)c(F)c5F)c5ccc([nH]5)c(-c5c(F)c(F)c(F)c(F)c5F)c5nc(c(-c6c(F)c(F)c(F)c(F)c6F)c6ccc3[nH]6)C=C5)C=C4)cc2)C(=O)OC12CCCCC2
REMARK SMILES IDX 10 1 9 2 8 3 6 4 7 5 5 7 4 8 1 9 2 10 81 11 78 12 80 13
REMARK SMILES IDX 82 14 86 15 79 16 83 17 85 18 84 19 3 20 11 22 12 23 13 24
REMARK SMILES IDX 14 26 15 27 16 28 77 29 17 30 76 31 18 32 19 33 20 34 70 35
REMARK SMILES IDX 21 36 75 37 69 38 71 39 22 40 74 41 68 42 67 43 23 45 55 46
REMARK SMILES IDX 35 47 54 48 36 49 39 50 53 51 72 52 37 53 38 54 52 56 73 57
REMARK SMILES IDX 40 58 24 59 25 60 33 61 26 62 27 63 31 64 34 65 28 66 29 67
REMARK SMILES IDX 32 68 30 69 56 70 57 71 65 72 58 73 59 74 63 75 66 76 60 77
REMARK SMILES IDX 61 78 64 79 62 80 41 81 42 82 50 83 43 84 44 85 48 86 51 87
REMARK SMILES IDX 45 88 46 89 49 90 47 91
REMARK H PARENT 8 6 3 21 12 25 71 44 39 55
REMARK Flexibility Score: inf
ROOT
ATOM      1  C   UNL A   1      34.227  34.451  27.795  1.00  0.00     0.042 C 
ENDROOT
BRANCH   1   2
ATOM      2  C   UNL A   1      33.019  34.639  28.708  1.00  0.00     0.117 C 
BRANCH   2   3
ATOM      3  N   UNL A   1      32.954  35.977  29.268  1.00  0.00    -0.354 N 
ATOM      4  C   UNL A   1      32.970  36.372  30.574  1.00  0.00     0.239 C 
ATOM      5  O   UNL A   1      32.953  37.579  30.822  1.00  0.00    -0.273 OA
ATOM      6  H   UNL A   1      32.890  36.706  28.610  1.00  0.00     0.163 HD
BRANCH   4   7
ATOM      7  C   UNL A   1      33.019  35.329  31.684  1.00  0.00     0.226 C 
BRANCH   7   8
ATOM      8  N   UNL A   1      34.336  35.113  32.271  1.00  0.00    -0.267 N 
ATOM      9  C   UNL A   1      34.590  32.741  31.608  1.00  0.00     0.072 C 
ATOM     10  C   UNL A   1      35.258  34.091  31.862  1.00  0.00     0.181 C 
ATOM     11  C   UNL A   1      36.331  34.118  33.004  1.00  0.00     0.161 C 
ATOM     12  C   UNL A   1      34.723  35.724  33.429  1.00  0.00     0.413 C 
ATOM     13  O   UNL A   1      35.890  35.194  33.875  1.00  0.00    -0.438 OA
ATOM     14  C   UNL A   1      36.387  32.832  33.852  1.00  0.00     0.054 C 
ATOM     15  C   UNL A   1      37.745  34.523  32.533  1.00  0.00     0.054 C 
ATOM     16  O   UNL A   1      34.130  36.623  34.002  1.00  0.00    -0.224 OA
ATOM     17  C   UNL A   1      37.423  32.889  34.976  1.00  0.00     0.004 C 
ATOM     18  C   UNL A   1      38.757  34.578  33.682  1.00  0.00     0.004 C 
ATOM     19  C   UNL A   1      38.802  33.264  34.450  1.00  0.00     0.000 C 
BRANCH  10  20
ATOM     20  O   UNL A   1      35.805  34.512  30.623  1.00  0.00    -0.367 OA
ATOM     21  H   UNL A   1      35.158  35.062  30.153  1.00  0.00     0.213 HD
ENDBRANCH  10  20
ENDBRANCH   7   8
ENDBRANCH   4   7
ENDBRANCH   2   3
ENDBRANCH   1   2
BRANCH   1  22
ATOM     22  C   UNL A   1      34.952  33.122  27.990  1.00  0.00     0.118 C 
BRANCH  22  23
ATOM     23  N   UNL A   1      34.080  31.981  27.762  1.00  0.00    -0.352 N 
ATOM     24  C   UNL A   1      34.382  30.643  27.718  1.00  0.00     0.251 C 
ATOM     25  H   UNL A   1      33.131  32.200  27.619  1.00  0.00     0.163 HD
ATOM     26  O   UNL A   1      33.554  29.843  27.295  1.00  0.00    -0.269 OA
BRANCH  24  27
ATOM     27  C   UNL A   1      35.707  30.160  28.166  1.00  0.00     0.039 A 
ATOM     28  C   UNL A   1      36.763  30.142  27.251  1.00  0.00     0.014 A 
ATOM     29  C   UNL A   1      35.901  29.695  29.469  1.00  0.00     0.014 A 
ATOM     30  C   UNL A   1      38.027  29.711  27.659  1.00  0.00     0.010 A 
ATOM     31  C   UNL A   1      37.178  29.337  29.895  1.00  0.00     0.010 A 
ATOM     32  C   UNL A   1      38.251  29.333  28.993  1.00  0.00    -0.014 A 
BRANCH  32  33
ATOM     33  C   UNL A   1      39.601  28.924  29.460  1.00  0.00     0.031 A 
ATOM     34  C   UNL A   1      40.360  29.785  30.428  1.00  0.00     0.074 A 
ATOM     35  C   UNL A   1      40.167  27.808  28.962  1.00  0.00     0.049 A 
ATOM     36  N   UNL A   1      41.568  29.625  30.912  1.00  0.00    -0.248 NA
ATOM     37  C   UNL A   1      39.684  31.004  30.895  1.00  0.00     0.031 C 
ATOM     38  C   UNL A   1      39.549  26.909  27.987  1.00  0.00     0.029 A 
ATOM     39  N   UNL A   1      41.394  27.244  29.205  1.00  0.00    -0.354 N 
ATOM     40  C   UNL A   1      41.798  30.728  31.723  1.00  0.00     0.074 A 
ATOM     41  C   UNL A   1      40.632  31.578  31.619  1.00  0.00     0.031 C 
ATOM     42  C   UNL A   1      40.384  25.888  27.742  1.00  0.00     0.029 A 
ATOM     43  C   UNL A   1      41.611  26.081  28.508  1.00  0.00     0.049 A 
ATOM     44  H   UNL A   1      42.055  27.635  29.821  1.00  0.00     0.167 HD
ATOM     45  C   UNL A   1      42.875  30.996  32.501  1.00  0.00     0.037 A 
ATOM     46  C   UNL A   1      42.680  25.263  28.489  1.00  0.00     0.037 A 
ATOM     47  C   UNL A   1      44.026  30.138  32.612  1.00  0.00     0.049 A 
ATOM     48  C   UNL A   1      43.875  25.594  29.340  1.00  0.00     0.074 A 
ATOM     49  C   UNL A   1      45.139  30.286  33.421  1.00  0.00     0.029 A 
ATOM     50  N   UNL A   1      44.216  28.973  31.881  1.00  0.00    -0.354 N 
ATOM     51  N   UNL A   1      44.055  26.602  30.159  1.00  0.00    -0.248 NA
ATOM     52  C   UNL A   1      45.015  24.671  29.263  1.00  0.00     0.031 C 
ATOM     53  C   UNL A   1      46.028  29.242  33.137  1.00  0.00     0.029 A 
ATOM     54  C   UNL A   1      45.443  28.410  32.196  1.00  0.00     0.049 A 
ATOM     55  H   UNL A   1      43.573  28.602  31.234  1.00  0.00     0.167 HD
ATOM     56  C   UNL A   1      45.313  26.420  30.718  1.00  0.00     0.074 A 
ATOM     57  C   UNL A   1      45.847  25.198  30.151  1.00  0.00     0.031 C 
ATOM     58  C   UNL A   1      45.963  27.193  31.623  1.00  0.00     0.037 A 
BRANCH  45  59
ATOM     59  C   UNL A   1      42.856  32.282  33.281  1.00  0.00     0.064 A 
ATOM     60  C   UNL A   1      42.357  32.345  34.593  1.00  0.00     0.173 A 
ATOM     61  C   UNL A   1      43.337  33.469  32.708  1.00  0.00     0.173 A 
ATOM     62  F   UNL A   1      41.875  31.242  35.186  1.00  0.00    -0.203 F 
ATOM     63  C   UNL A   1      42.294  33.555  35.279  1.00  0.00     0.198 A 
ATOM     64  C   UNL A   1      43.307  34.670  33.413  1.00  0.00     0.198 A 
ATOM     65  F   UNL A   1      43.834  33.467  31.463  1.00  0.00    -0.203 F 
ATOM     66  F   UNL A   1      41.746  33.601  36.502  1.00  0.00    -0.200 F 
ATOM     67  C   UNL A   1      42.772  34.715  34.691  1.00  0.00     0.200 A 
ATOM     68  F   UNL A   1      43.784  35.788  32.847  1.00  0.00    -0.200 F 
ATOM     69  F   UNL A   1      42.707  35.880  35.351  1.00  0.00    -0.200 F 
ENDBRANCH  45  59
BRANCH  46  70
ATOM     70  C   UNL A   1      42.643  24.024  27.669  1.00  0.00     0.064 A 
ATOM     71  C   UNL A   1      43.018  24.052  26.319  1.00  0.00     0.173 A 
ATOM     72  C   UNL A   1      42.261  22.791  28.217  1.00  0.00     0.173 A 
ATOM     73  F   UNL A   1      43.372  25.212  25.746  1.00  0.00    -0.203 F 
ATOM     74  C   UNL A   1      43.004  22.894  25.545  1.00  0.00     0.198 A 
ATOM     75  C   UNL A   1      42.273  21.629  27.448  1.00  0.00     0.198 A 
ATOM     76  F   UNL A   1      41.899  22.711  29.506  1.00  0.00    -0.203 F 
ATOM     77  F   UNL A   1      43.336  22.956  24.248  1.00  0.00    -0.200 F 
ATOM     78  C   UNL A   1      42.640  21.682  26.111  1.00  0.00     0.200 A 
ATOM     79  F   UNL A   1      41.935  20.458  28.003  1.00  0.00    -0.200 F 
ATOM     80  F   UNL A   1      42.639  20.567  25.369  1.00  0.00    -0.200 F 
ENDBRANCH  46  70
BRANCH  58  81
ATOM     81  C   UNL A   1      47.315  26.724  32.083  1.00  0.00     0.064 A 
ATOM     82  C   UNL A   1      47.461  25.791  33.119  1.00  0.00     0.173 A 
ATOM     83  C   UNL A   1      48.478  27.191  31.451  1.00  0.00     0.173 A 
ATOM     84  F   UNL A   1      46.381  25.327  33.766  1.00  0.00    -0.203 F 
ATOM     85  C   UNL A   1      48.722  25.361  33.523  1.00  0.00     0.198 A 
ATOM     86  C   UNL A   1      49.735  26.734  31.836  1.00  0.00     0.198 A 
ATOM     87  F   UNL A   1      48.394  28.080  30.451  1.00  0.00    -0.203 F 
ATOM     88  F   UNL A   1      48.840  24.506  34.549  1.00  0.00    -0.200 F 
ATOM     89  C   UNL A   1      49.857  25.827  32.877  1.00  0.00     0.200 A 
ATOM     90  F   UNL A   1      50.830  27.175  31.199  1.00  0.00    -0.200 F 
ATOM     91  F   UNL A   1      51.070  25.405  33.261  1.00  0.00    -0.200 F 
ENDBRANCH  58  81
ENDBRANCH  32  33
ENDBRANCH  24  27
ENDBRANCH  22  23
ENDBRANCH   1  22
TORSDOF 12
ENDMDL
MODEL 2
REMARK VINA RESULT:     -12.1      4.798     11.897
REMARK SMILES C[C@@]1(O)N(CC(=O)NCCCNC(=O)c2ccc(-c3c4nc(c(-c5c(F)c(F)c(F)c(F)c5F)c5ccc([nH]5)c(-c5c(F)c(F)c(F)c(F)c5F)c5nc(c(-c6c(F)c(F)c(F)c(F)c6F)c6ccc3[nH]6)C=C5)C=C4)cc2)C(=O)OC12CCCCC2
REMARK SMILES IDX 10 1 9 2 8 3 6 4 7 5 5 7 4 8 1 9 2 10 81 11 78 12 80 13
REMARK SMILES IDX 82 14 86 15 79 16 83 17 85 18 84 19 3 20 11 22 12 23 13 24
REMARK SMILES IDX 14 26 15 27 16 28 77 29 17 30 76 31 18 32 19 33 20 34 70 35
REMARK SMILES IDX 21 36 75 37 69 38 71 39 22 40 74 41 68 42 67 43 23 45 55 46
REMARK SMILES IDX 35 47 54 48 36 49 39 50 53 51 72 52 37 53 38 54 52 56 73 57
REMARK SMILES IDX 40 58 24 59 25 60 33 61 26 62 27 63 31 64 34 65 28 66 29 67
REMARK SMILES IDX 32 68 30 69 56 70 57 71 65 72 58 73 59 74 63 75 66 76 60 77
REMARK SMILES IDX 61 78 64 79 62 80 41 81 42 82 50 83 43 84 44 85 48 86 51 87
REMARK SMILES IDX 45 88 46 89 49 90 47 91
REMARK H PARENT 8 6 3 21 12 25 71 44 39 55
REMARK Flexibility Score: inf
ROOT
ATOM      1  C   UNL A   1      41.156  20.000  27.533  1.00  0.00     0.042 C 
ENDROOT
BRANCH   1   2
ATOM      2  C   UNL A   1      41.474  19.383  26.175  1.00  0.00     0.117 C 
BRANCH   2   3
ATOM      3  N   UNL A   1      42.705  18.612  26.194  1.00  0.00    -0.354 N 
ATOM      4  C   UNL A   1      43.886  18.849  25.556  1.00  0.00     0.239 C 
ATOM      5  O   UNL A   1      44.826  18.078  25.756  1.00  0.00    -0.273 OA
ATOM      6  H   UNL A   1      42.683  17.800  26.749  1.00  0.00     0.163 HD
BRANCH   4   7
ATOM      7  C   UNL A   1      44.024  20.053  24.630  1.00  0.00     0.226 C 
BRANCH   7   8
ATOM      8  N   UNL A   1      44.798  21.163  25.173  1.00  0.00    -0.267 N 
ATOM      9  C   UNL A   1      43.028  22.887  25.012  1.00  0.00     0.072 C 
ATOM     10  C   UNL A   1      44.234  22.339  25.773  1.00  0.00     0.181 C 
ATOM     11  C   UNL A   1      45.469  23.299  25.878  1.00  0.00     0.161 C 
ATOM     12  C   UNL A   1      46.138  21.290  24.949  1.00  0.00     0.413 C 
ATOM     13  O   UNL A   1      46.574  22.506  25.367  1.00  0.00    -0.438 OA
ATOM     14  C   UNL A   1      45.367  24.563  25.001  1.00  0.00     0.054 C 
ATOM     15  C   UNL A   1      45.862  23.669  27.325  1.00  0.00     0.054 C 
ATOM     16  O   UNL A   1      46.869  20.449  24.452  1.00  0.00    -0.224 OA
ATOM     17  C   UNL A   1      46.592  25.473  25.099  1.00  0.00     0.004 C 
ATOM     18  C   UNL A   1      47.096  24.574  27.389  1.00  0.00     0.004 C 
ATOM     19  C   UNL A   1      46.914  25.827  26.544  1.00  0.00     0.000 C 
BRANCH  10  20
ATOM     20  O   UNL A   1      43.764  21.954  27.054  1.00  0.00    -0.367 OA
ATOM     21  H   UNL A   1      43.001  21.363  26.955  1.00  0.00     0.213 HD
ENDBRANCH  10  20
ENDBRANCH   7   8
ENDBRANCH   4   7
ENDBRANCH   2   3
ENDBRANCH   1   2
BRANCH   1  22
ATOM     22  C   UNL A   1      40.680  21.448  27.460  1.00  0.00     0.118 C 
BRANCH  22  23
ATOM     23  N   UNL A   1      39.605  21.627  26.497  1.00  0.00    -0.352 N 
ATOM     24  C   UNL A   1      38.864  22.746  26.209  1.00  0.00     0.251 C 
ATOM     25  H   UNL A   1      39.374  20.826  25.973  1.00  0.00     0.163 HD
ATOM     26  O   UNL A   1      37.852  22.649  25.522  1.00  0.00    -0.269 OA
BRANCH  24  27
ATOM     27  C   UNL A   1      39.271  24.068  26.732  1.00  0.00     0.039 A 
ATOM     28  C   UNL A   1      38.902  24.422  28.033  1.00  0.00     0.014 A 
ATOM     29  C   UNL A   1      39.984  24.969  25.937  1.00  0.00     0.014 A 
ATOM     30  C   UNL A   1      39.295  25.657  28.554  1.00  0.00     0.010 A 
ATOM     31  C   UNL A   1      40.440  26.166  26.483  1.00  0.00     0.010 A 
ATOM     32  C   UNL A   1      40.093  26.527  27.793  1.00  0.00    -0.014 A 
BRANCH  32  33
ATOM     33  C   UNL A   1      40.567  27.819  28.349  1.00  0.00     0.031 A 
ATOM     34  C   UNL A   1      42.026  28.028  28.643  1.00  0.00     0.074 A 
ATOM     35  C   UNL A   1      39.676  28.783  28.648  1.00  0.00     0.049 A 
ATOM     36  N   UNL A   1      42.626  29.063  29.176  1.00  0.00    -0.248 NA
ATOM     37  C   UNL A   1      42.928  26.913  28.320  1.00  0.00     0.031 C 
ATOM     38  C   UNL A   1      38.230  28.687  28.446  1.00  0.00     0.029 A 
ATOM     39  N   UNL A   1      39.855  30.030  29.190  1.00  0.00    -0.354 N 
ATOM     40  C   UNL A   1      43.967  28.717  29.267  1.00  0.00     0.074 A 
ATOM     41  C   UNL A   1      44.084  27.356  28.790  1.00  0.00     0.031 C 
ATOM     42  C   UNL A   1      37.657  29.840  28.826  1.00  0.00     0.029 A 
ATOM     43  C   UNL A   1      38.688  30.739  29.336  1.00  0.00     0.049 A 
ATOM     44  H   UNL A   1      40.736  30.384  29.450  1.00  0.00     0.167 HD
ATOM     45  C   UNL A   1      45.011  29.473  29.688  1.00  0.00     0.037 A 
ATOM     46  C   UNL A   1      38.474  31.974  29.826  1.00  0.00     0.037 A 
ATOM     47  C   UNL A   1      44.890  30.832  30.146  1.00  0.00     0.049 A 
ATOM     48  C   UNL A   1      39.643  32.786  30.312  1.00  0.00     0.074 A 
ATOM     49  C   UNL A   1      45.892  31.706  30.532  1.00  0.00     0.029 A 
ATOM     50  N   UNL A   1      43.689  31.513  30.291  1.00  0.00    -0.354 N 
ATOM     51  N   UNL A   1      40.917  32.476  30.327  1.00  0.00    -0.248 NA
ATOM     52  C   UNL A   1      39.342  34.119  30.850  1.00  0.00     0.031 C 
ATOM     53  C   UNL A   1      45.293  32.895  30.965  1.00  0.00     0.029 A 
ATOM     54  C   UNL A   1      43.922  32.785  30.792  1.00  0.00     0.049 A 
ATOM     55  H   UNL A   1      42.803  31.146  30.071  1.00  0.00     0.167 HD
ATOM     56  C   UNL A   1      41.573  33.585  30.845  1.00  0.00     0.074 A 
ATOM     57  C   UNL A   1      40.555  34.578  31.123  1.00  0.00     0.031 C 
ATOM     58  C   UNL A   1      42.899  33.764  31.065  1.00  0.00     0.037 A 
BRANCH  45  59
ATOM     59  C   UNL A   1      46.371  28.831  29.681  1.00  0.00     0.064 A 
ATOM     60  C   UNL A   1      47.228  28.924  28.572  1.00  0.00     0.173 A 
ATOM     61  C   UNL A   1      46.822  28.109  30.797  1.00  0.00     0.173 A 
ATOM     62  F   UNL A   1      46.844  29.594  27.476  1.00  0.00    -0.203 F 
ATOM     63  C   UNL A   1      48.460  28.275  28.562  1.00  0.00     0.198 A 
ATOM     64  C   UNL A   1      48.072  27.493  30.796  1.00  0.00     0.198 A 
ATOM     65  F   UNL A   1      46.050  27.994  31.887  1.00  0.00    -0.203 F 
ATOM     66  F   UNL A   1      49.228  28.318  27.464  1.00  0.00    -0.200 F 
ATOM     67  C   UNL A   1      48.882  27.564  29.674  1.00  0.00     0.200 A 
ATOM     68  F   UNL A   1      48.484  26.818  31.878  1.00  0.00    -0.200 F 
ATOM     69  F   UNL A   1      50.067  26.937  29.661  1.00  0.00    -0.200 F 
ENDBRANCH  45  59
BRANCH  46  70
ATOM     70  C   UNL A   1      37.098  32.534  29.832  1.00  0.00     0.064 A 
ATOM     71  C   UNL A   1      36.266  32.369  30.948  1.00  0.00     0.173 A 
ATOM     72  C   UNL A   1      36.595  33.262  28.744  1.00  0.00     0.173 A 
ATOM     73  F   UNL A   1      36.696  31.663  32.004  1.00  0.00    -0.203 F 
ATOM     74  C   UNL A   1      34.980  32.904  30.972  1.00  0.00     0.198 A 
ATOM     75  C   UNL A   1      35.319  33.819  28.780  1.00  0.00     0.198 A 
ATOM     76  F   UNL A   1      37.354  33.453  27.654  1.00  0.00    -0.203 F 
ATOM     77  F   UNL A   1      34.195  32.703  32.039  1.00  0.00    -0.200 F 
ATOM     78  C   UNL A   1      34.510  33.636  29.892  1.00  0.00     0.200 A 
ATOM     79  F   UNL A   1      34.874  34.539  27.741  1.00  0.00    -0.200 F 
ATOM     80  F   UNL A   1      33.278  34.161  29.922  1.00  0.00    -0.200 F 
ENDBRANCH  46  70
BRANCH  58  81
ATOM     81  C   UNL A   1      43.333  35.098  31.605  1.00  0.00     0.064 A 
ATOM     82  C   UNL A   1      43.725  36.146  30.760  1.00  0.00     0.173 A 
ATOM     83  C   UNL A   1      43.319  35.339  32.988  1.00  0.00     0.173 A 
ATOM     84  F   UNL A   1      43.772  35.961  29.432  1.00  0.00    -0.203 F 
ATOM     85  C   UNL A   1      44.113  37.378  31.280  1.00  0.00     0.198 A 
ATOM     86  C   UNL A   1      43.676  36.583  33.502  1.00  0.00     0.198 A 
ATOM     87  F   UNL A   1      42.946  34.373  33.840  1.00  0.00    -0.203 F 
ATOM     88  F   UNL A   1      44.533  38.349  30.457  1.00  0.00    -0.200 F 
ATOM     89  C   UNL A   1      44.081  37.598  32.650  1.00  0.00     0.200 A 
ATOM     90  F   UNL A   1      43.629  36.797  34.825  1.00  0.00    -0.200 F 
ATOM     91  F   UNL A   1      44.446  38.787  33.148  1.00  0.00    -0.200 F 
ENDBRANCH  58  81
ENDBRANCH  32  33
ENDBRANCH  24  27
ENDBRANCH  22  23
ENDBRANCH   1  22
TORSDOF 12
ENDMDL
MODEL 3
REMARK VINA RESULT:     -11.7      0.946      7.544
REMARK SMILES C[C@@]1(O)N(CC(=O)NCCCNC(=O)c2ccc(-c3c4nc(c(-c5c(F)c(F)c(F)c(F)c5F)c5ccc([nH]5)c(-c5c(F)c(F)c(F)c(F)c5F)c5nc(c(-c6c(F)c(F)c(F)c(F)c6F)c6ccc3[nH]6)C=C5)C=C4)cc2)C(=O)OC12CCCCC2
REMARK SMILES IDX 10 1 9 2 8 3 6 4 7 5 5 7 4 8 1 9 2 10 81 11 78 12 80 13
REMARK SMILES IDX 82 14 86 15 79 16 83 17 85 18 84 19 3 20 11 22 12 23 13 24
REMARK SMILES IDX 14 26 15 27 16 28 77 29 17 30 76 31 18 32 19 33 20 34 70 35
REMARK SMILES IDX 21 36 75 37 69 38 71 39 22 40 74 41 68 42 67 43 23 45 55 46
REMARK SMILES IDX 35 47 54 48 36 49 39 50 53 51 72 52 37 53 38 54 52 56 73 57
REMARK SMILES IDX 40 58 24 59 25 60 33 61 26 62 27 63 31 64 34 65 28 66 29 67
REMARK SMILES IDX 32 68 30 69 56 70 57 71 65 72 58 73 59 74 63 75 66 76 60 77
REMARK SMILES IDX 61 78 64 79 62 80 41 81 42 82 50 83 43 84 44 85 48 86 51 87
REMARK SMILES IDX 45 88 46 89 49 90 47 91
REMARK H PARENT 8 6 3 21 12 25 71 44 39 55
REMARK Flexibility Score: inf
ROOT
ATOM      1  C   UNL A   1      34.158  34.242  27.775  1.00  0.00     0.042 C 
ENDROOT
BRANCH   1   2
ATOM      2  C   UNL A   1      32.947  34.577  28.640  1.00  0.00     0.117 C 
BRANCH   2   3
ATOM      3  N   UNL A   1      33.003  35.929  29.168  1.00  0.00    -0.354 N 
ATOM      4  C   UNL A   1      33.091  36.352  30.462  1.00  0.00     0.239 C 
ATOM      5  O   UNL A   1      33.175  37.562  30.679  1.00  0.00    -0.273 OA
ATOM      6  H   UNL A   1      32.975  36.645  28.493  1.00  0.00     0.163 HD
BRANCH   4   7
ATOM      7  C   UNL A   1      33.095  35.334  31.597  1.00  0.00     0.226 C 
BRANCH   7   8
ATOM      8  N   UNL A   1      34.378  35.161  32.267  1.00  0.00    -0.267 N 
ATOM      9  C   UNL A   1      34.658  32.747  31.792  1.00  0.00     0.072 C 
ATOM     10  C   UNL A   1      35.317  34.113  31.983  1.00  0.00     0.181 C 
ATOM     11  C   UNL A   1      36.328  34.223  33.176  1.00  0.00     0.161 C 
ATOM     12  C   UNL A   1      34.706  35.855  33.396  1.00  0.00     0.413 C 
ATOM     13  O   UNL A   1      35.846  35.359  33.941  1.00  0.00    -0.438 OA
ATOM     14  C   UNL A   1      36.334  33.002  34.117  1.00  0.00     0.054 C 
ATOM     15  C   UNL A   1      37.767  34.592  32.753  1.00  0.00     0.054 C 
ATOM     16  O   UNL A   1      34.087  36.793  33.870  1.00  0.00    -0.224 OA
ATOM     17  C   UNL A   1      37.309  33.140  35.287  1.00  0.00     0.004 C 
ATOM     18  C   UNL A   1      38.716  34.731  33.947  1.00  0.00     0.004 C 
ATOM     19  C   UNL A   1      38.715  33.476  34.810  1.00  0.00     0.000 C 
BRANCH  10  20
ATOM     20  O   UNL A   1      35.930  34.442  30.747  1.00  0.00    -0.367 OA
ATOM     21  H   UNL A   1      36.807  34.029  30.700  1.00  0.00     0.213 HD
ENDBRANCH  10  20
ENDBRANCH   7   8
ENDBRANCH   4   7
ENDBRANCH   2   3
ENDBRANCH   1   2
BRANCH   1  22
ATOM     22  C   UNL A   1      34.864  32.948  28.171  1.00  0.00     0.118 C 
BRANCH  22  23
ATOM     23  N   UNL A   1      34.161  31.769  27.690  1.00  0.00    -0.352 N 
ATOM     24  C   UNL A   1      34.611  30.480  27.546  1.00  0.00     0.251 C 
ATOM     25  H   UNL A   1      33.223  31.916  27.431  1.00  0.00     0.163 HD
ATOM     26  O   UNL A   1      33.941  29.666  26.918  1.00  0.00    -0.269 OA
BRANCH  24  27
ATOM     27  C   UNL A   1      35.905  30.068  28.132  1.00  0.00     0.039 A 
ATOM     28  C   UNL A   1      37.051  30.111  27.334  1.00  0.00     0.014 A 
ATOM     29  C   UNL A   1      35.986  29.612  29.450  1.00  0.00     0.014 A 
ATOM     30  C   UNL A   1      38.286  29.747  27.874  1.00  0.00     0.010 A 
ATOM     31  C   UNL A   1      37.228  29.323  30.009  1.00  0.00     0.010 A 
ATOM     32  C   UNL A   1      38.389  29.379  29.226  1.00  0.00    -0.014 A 
BRANCH  32  33
ATOM     33  C   UNL A   1      39.702  29.043  29.834  1.00  0.00     0.031 A 
ATOM     34  C   UNL A   1      40.508  27.889  29.308  1.00  0.00     0.074 A 
ATOM     35  C   UNL A   1      40.139  29.739  30.900  1.00  0.00     0.049 A 
ATOM     36  N   UNL A   1      41.649  27.408  29.736  1.00  0.00    -0.248 NA
ATOM     37  C   UNL A   1      39.942  27.159  28.164  1.00  0.00     0.031 C 
ATOM     38  C   UNL A   1      39.432  30.855  31.528  1.00  0.00     0.029 A 
ATOM     39  N   UNL A   1      41.282  29.606  31.647  1.00  0.00    -0.354 N 
ATOM     40  C   UNL A   1      41.925  26.315  28.927  1.00  0.00     0.074 A 
ATOM     41  C   UNL A   1      40.806  26.166  28.022  1.00  0.00     0.031 C 
ATOM     42  C   UNL A   1      40.172  31.327  32.543  1.00  0.00     0.029 A 
ATOM     43  C   UNL A   1      41.384  30.523  32.664  1.00  0.00     0.049 A 
ATOM     44  H   UNL A   1      41.964  28.918  31.472  1.00  0.00     0.167 HD
ATOM     45  C   UNL A   1      43.024  25.520  28.924  1.00  0.00     0.037 A 
ATOM     46  C   UNL A   1      42.347  30.695  33.589  1.00  0.00     0.037 A 
ATOM     47  C   UNL A   1      44.141  25.683  29.817  1.00  0.00     0.049 A 
ATOM     48  C   UNL A   1      43.544  29.786  33.584  1.00  0.00     0.074 A 
ATOM     49  C   UNL A   1      45.329  24.974  29.853  1.00  0.00     0.029 A 
ATOM     50  N   UNL A   1      44.204  26.617  30.842  1.00  0.00    -0.354 N 
ATOM     51  N   UNL A   1      43.831  28.799  32.769  1.00  0.00    -0.248 NA
ATOM     52  C   UNL A   1      44.551  30.015  34.628  1.00  0.00     0.031 C 
ATOM     53  C   UNL A   1      46.085  25.440  30.935  1.00  0.00     0.029 A 
ATOM     54  C   UNL A   1      45.396  26.481  31.537  1.00  0.00     0.049 A 
ATOM     55  H   UNL A   1      43.504  27.279  31.045  1.00  0.00     0.167 HD
ATOM     56  C   UNL A   1      45.064  28.311  33.181  1.00  0.00     0.074 A 
ATOM     57  C   UNL A   1      45.473  29.117  34.313  1.00  0.00     0.031 C 
ATOM     58  C   UNL A   1      45.791  27.290  32.664  1.00  0.00     0.037 A 
BRANCH  45  59
ATOM     59  C   UNL A   1      43.055  24.395  27.927  1.00  0.00     0.064 A 
ATOM     60  C   UNL A   1      42.644  23.095  28.265  1.00  0.00     0.173 A 
ATOM     61  C   UNL A   1      43.507  24.617  26.617  1.00  0.00     0.173 A 
ATOM     62  F   UNL A   1      42.212  22.824  29.505  1.00  0.00    -0.203 F 
ATOM     63  C   UNL A   1      42.734  22.052  27.346  1.00  0.00     0.198 A 
ATOM     64  C   UNL A   1      43.560  23.579  25.690  1.00  0.00     0.198 A 
ATOM     65  F   UNL A   1      43.903  25.840  26.235  1.00  0.00    -0.203 F 
ATOM     66  F   UNL A   1      42.405  20.806  27.715  1.00  0.00    -0.200 F 
ATOM     67  C   UNL A   1      43.188  22.296  26.059  1.00  0.00     0.200 A 
ATOM     68  F   UNL A   1      43.985  23.820  24.442  1.00  0.00    -0.200 F 
ATOM     69  F   UNL A   1      43.278  21.290  25.176  1.00  0.00    -0.200 F 
ENDBRANCH  45  59
BRANCH  46  70
ATOM     70  C   UNL A   1      42.235  31.810  34.566  1.00  0.00     0.064 A 
ATOM     71  C   UNL A   1      41.729  31.582  35.853  1.00  0.00     0.173 A 
ATOM     72  C   UNL A   1      42.652  33.111  34.248  1.00  0.00     0.173 A 
ATOM     73  F   UNL A   1      41.300  30.358  36.196  1.00  0.00    -0.203 F 
ATOM     74  C   UNL A   1      41.637  32.614  36.783  1.00  0.00     0.198 A 
ATOM     75  C   UNL A   1      42.583  34.137  35.188  1.00  0.00     0.198 A 
ATOM     76  F   UNL A   1      43.148  33.379  33.031  1.00  0.00    -0.203 F 
ATOM     77  F   UNL A   1      41.119  32.375  37.996  1.00  0.00    -0.200 F 
ATOM     78  C   UNL A   1      42.071  33.889  36.453  1.00  0.00     0.200 A 
ATOM     79  F   UNL A   1      43.018  35.364  34.870  1.00  0.00    -0.200 F 
ATOM     80  F   UNL A   1      41.993  34.879  37.353  1.00  0.00    -0.200 F 
ENDBRANCH  46  70
BRANCH  58  81
ATOM     81  C   UNL A   1      47.123  27.004  33.298  1.00  0.00     0.064 A 
ATOM     82  C   UNL A   1      48.293  27.660  32.887  1.00  0.00     0.173 A 
ATOM     83  C   UNL A   1      47.221  26.088  34.356  1.00  0.00     0.173 A 
ATOM     84  F   UNL A   1      48.256  28.532  31.869  1.00  0.00    -0.203 F 
ATOM     85  C   UNL A   1      49.516  27.388  33.495  1.00  0.00     0.198 A 
ATOM     86  C   UNL A   1      48.440  25.844  34.983  1.00  0.00     0.198 A 
ATOM     87  F   UNL A   1      46.132  25.438  34.792  1.00  0.00    -0.203 F 
ATOM     88  F   UNL A   1      50.629  27.989  33.052  1.00  0.00    -0.200 F 
ATOM     89  C   UNL A   1      49.588  26.487  34.547  1.00  0.00     0.200 A 
ATOM     90  F   UNL A   1      48.503  24.983  36.009  1.00  0.00    -0.200 F 
ATOM     91  F   UNL A   1      50.764  26.235  35.136  1.00  0.00    -0.200 F 
ENDBRANCH  58  81
ENDBRANCH  32  33
ENDBRANCH  24  27
ENDBRANCH  22  23
ENDBRANCH   1  22
TORSDOF 12
ENDMDL
