MODEL 1
REMARK VINA RESULT:     -12.1      0.000      0.000
REMARK SMILES COc1c(N)cc(-c2ccccc2)cc1C(=O)NCCCNC(=O)c1ccc(-c2c3nc(c(-c4c(F)c(F)c(F)c(F)c4F)c4ccc([nH]4)c(-c4c(F)c(F)c(F)c(F)c4F)c4nc(c(-c5c(F)c(F)c(F)c(F)c5F)c5ccc2[nH]5)C=C4)C=C3)cc1
REMARK SMILES IDX 20 1 19 2 18 3 16 4 17 5 15 7 3 8 4 9 6 10 14 11 7 12 2 13
REMARK SMILES IDX 1 14 5 15 8 18 9 19 13 20 10 21 12 22 11 23 21 24 22 25
REMARK SMILES IDX 23 26 24 28 25 29 26 30 87 31 27 32 86 33 28 34 29 35 30 36
REMARK SMILES IDX 80 37 31 38 85 39 79 40 81 41 32 42 84 43 78 44 77 45 33 47
REMARK SMILES IDX 65 48 45 49 64 50 46 51 49 52 63 53 82 54 47 55 48 56 62 58
REMARK SMILES IDX 83 59 50 60 34 61 35 62 43 63 36 64 37 65 41 66 44 67 38 68
REMARK SMILES IDX 39 69 42 70 40 71 66 72 67 73 75 74 68 75 69 76 73 77 76 78
REMARK SMILES IDX 70 79 71 80 74 81 72 82 51 83 52 84 60 85 53 86 54 87 58 88
REMARK SMILES IDX 61 89 55 90 56 91 59 92 57 93
REMARK H PARENT 18 6 5 16 5 17 22 27 81 46 49 57
REMARK Flexibility Score: inf
ROOT
ATOM      1  C   UNL A   1      33.596  29.168  23.838  1.00  0.00     0.042 C 
ENDROOT
BRANCH   1   2
ATOM      2  C   UNL A   1      32.574  28.600  22.887  1.00  0.00     0.118 C 
BRANCH   2   3
ATOM      3  N   UNL A   1      33.002  27.552  22.014  1.00  0.00    -0.352 N 
ATOM      4  C   UNL A   1      33.281  26.237  22.299  1.00  0.00     0.255 C 
ATOM      5  O   UNL A   1      33.567  25.554  21.309  1.00  0.00    -0.269 OA
ATOM      6  H   UNL A   1      33.115  27.811  21.071  1.00  0.00     0.163 HD
BRANCH   4   7
ATOM      7  C   UNL A   1      33.340  25.587  23.669  1.00  0.00     0.084 A 
ATOM      8  C   UNL A   1      32.361  25.464  24.689  1.00  0.00     0.154 A 
ATOM      9  C   UNL A   1      32.635  24.703  25.855  1.00  0.00     0.076 A 
ATOM     10  C   UNL A   1      33.903  24.165  26.050  1.00  0.00     0.038 A 
ATOM     11  C   UNL A   1      34.592  24.949  23.894  1.00  0.00     0.026 A 
ATOM     12  C   UNL A   1      34.882  24.228  25.059  1.00  0.00    -0.015 A 
BRANCH   8  13
ATOM     13  O   UNL A   1      31.069  25.944  24.566  1.00  0.00    -0.494 OA
ATOM     14  C   UNL A   1      30.277  25.151  23.651  1.00  0.00     0.278 C 
ENDBRANCH   8  13
BRANCH   9  15
ATOM     15  N   UNL A   1      31.686  24.506  26.863  1.00  0.00    -0.396 N 
ATOM     16  H   UNL A   1      30.985  25.180  27.017  1.00  0.00     0.156 HD
ATOM     17  H   UNL A   1      31.719  23.694  27.418  1.00  0.00     0.156 HD
ENDBRANCH   9  15
BRANCH  12  18
ATOM     18  C   UNL A   1      36.132  23.477  25.245  1.00  0.00    -0.018 A 
ATOM     19  C   UNL A   1      36.219  22.150  24.780  1.00  0.00     0.009 A 
ATOM     20  C   UNL A   1      37.229  24.012  25.930  1.00  0.00     0.009 A 
ATOM     21  C   UNL A   1      37.342  21.366  25.035  1.00  0.00     0.001 A 
ATOM     22  C   UNL A   1      38.358  23.226  26.185  1.00  0.00     0.001 A 
ATOM     23  C   UNL A   1      38.408  21.902  25.748  1.00  0.00     0.000 A 
ENDBRANCH  12  18
ENDBRANCH   4   7
ENDBRANCH   2   3
ENDBRANCH   1   2
BRANCH   1  24
ATOM     24  C   UNL A   1      33.202  29.133  25.293  1.00  0.00     0.118 C 
BRANCH  24  25
ATOM     25  N   UNL A   1      32.795  30.436  25.805  1.00  0.00    -0.352 N 
ATOM     26  C   UNL A   1      33.236  31.197  26.862  1.00  0.00     0.251 C 
ATOM     27  H   UNL A   1      32.063  30.853  25.295  1.00  0.00     0.163 HD
ATOM     28  O   UNL A   1      32.590  32.189  27.190  1.00  0.00    -0.269 OA
BRANCH  26  29
ATOM     29  C   UNL A   1      34.457  30.843  27.626  1.00  0.00     0.039 A 
ATOM     30  C   UNL A   1      35.500  31.773  27.716  1.00  0.00     0.014 A 
ATOM     31  C   UNL A   1      34.622  29.588  28.204  1.00  0.00     0.014 A 
ATOM     32  C   UNL A   1      36.670  31.448  28.410  1.00  0.00     0.010 A 
ATOM     33  C   UNL A   1      35.703  29.328  29.033  1.00  0.00     0.010 A 
ATOM     34  C   UNL A   1      36.771  30.228  29.096  1.00  0.00    -0.014 A 
BRANCH  34  35
ATOM     35  C   UNL A   1      38.014  29.812  29.792  1.00  0.00     0.031 A 
ATOM     36  C   UNL A   1      38.314  30.356  31.168  1.00  0.00     0.074 A 
ATOM     37  C   UNL A   1      38.894  28.999  29.177  1.00  0.00     0.049 A 
ATOM     38  N   UNL A   1      39.374  30.186  31.918  1.00  0.00    -0.248 NA
ATOM     39  C   UNL A   1      37.307  31.252  31.764  1.00  0.00     0.031 C 
ATOM     40  C   UNL A   1      38.747  28.457  27.825  1.00  0.00     0.029 A 
ATOM     41  N   UNL A   1      40.091  28.489  29.611  1.00  0.00    -0.354 N 
ATOM     42  C   UNL A   1      39.168  30.973  33.046  1.00  0.00     0.074 A 
ATOM     43  C   UNL A   1      37.929  31.687  32.848  1.00  0.00     0.031 C 
ATOM     44  C   UNL A   1      39.791  27.657  27.556  1.00  0.00     0.029 A 
ATOM     45  C   UNL A   1      40.698  27.661  28.699  1.00  0.00     0.049 A 
ATOM     46  H   UNL A   1      40.478  28.697  30.491  1.00  0.00     0.167 HD
ATOM     47  C   UNL A   1      39.919  31.059  34.169  1.00  0.00     0.037 A 
ATOM     48  C   UNL A   1      41.856  26.978  28.784  1.00  0.00     0.037 A 
ATOM     49  C   UNL A   1      41.125  30.307  34.382  1.00  0.00     0.049 A 
ATOM     50  C   UNL A   1      42.662  27.071  30.053  1.00  0.00     0.074 A 
ATOM     51  C   UNL A   1      41.938  30.273  35.500  1.00  0.00     0.029 A 
ATOM     52  N   UNL A   1      41.685  29.443  33.450  1.00  0.00    -0.354 N 
ATOM     53  N   UNL A   1      42.424  27.766  31.140  1.00  0.00    -0.248 NA
ATOM     54  C   UNL A   1      43.889  26.267  30.113  1.00  0.00     0.031 C 
ATOM     55  C   UNL A   1      43.015  29.423  35.229  1.00  0.00     0.029 A 
ATOM     56  C   UNL A   1      42.838  28.879  33.966  1.00  0.00     0.049 A 
ATOM     57  H   UNL A   1      41.316  29.261  32.557  1.00  0.00     0.167 HD
ATOM     58  C   UNL A   1      43.445  27.451  32.027  1.00  0.00     0.074 A 
ATOM     59  C   UNL A   1      44.297  26.493  31.354  1.00  0.00     0.031 C 
ATOM     60  C   UNL A   1      43.658  27.909  33.285  1.00  0.00     0.037 A 
BRANCH  47  61
ATOM     61  C   UNL A   1      39.445  31.986  35.254  1.00  0.00     0.064 A 
ATOM     62  C   UNL A   1      38.589  31.549  36.278  1.00  0.00     0.173 A 
ATOM     63  C   UNL A   1      39.865  33.325  35.282  1.00  0.00     0.173 A 
ATOM     64  F   UNL A   1      38.143  30.284  36.292  1.00  0.00    -0.203 F 
ATOM     65  C   UNL A   1      38.140  32.425  37.264  1.00  0.00     0.198 A 
ATOM     66  C   UNL A   1      39.445  34.188  36.292  1.00  0.00     0.198 A 
ATOM     67  F   UNL A   1      40.685  33.797  34.332  1.00  0.00    -0.203 F 
ATOM     68  F   UNL A   1      37.272  31.998  38.192  1.00  0.00    -0.200 F 
ATOM     69  C   UNL A   1      38.576  33.741  37.276  1.00  0.00     0.200 A 
ATOM     70  F   UNL A   1      39.878  35.457  36.309  1.00  0.00    -0.200 F 
ATOM     71  F   UNL A   1      38.150  34.581  38.228  1.00  0.00    -0.200 F 
ENDBRANCH  47  61
BRANCH  48  72
ATOM     72  C   UNL A   1      42.295  26.109  27.661  1.00  0.00     0.064 A 
ATOM     73  C   UNL A   1      41.769  24.818  27.502  1.00  0.00     0.173 A 
ATOM     74  C   UNL A   1      43.251  26.541  26.731  1.00  0.00     0.173 A 
ATOM     75  F   UNL A   1      40.862  24.354  28.374  1.00  0.00    -0.203 F 
ATOM     76  C   UNL A   1      42.206  23.983  26.477  1.00  0.00     0.198 A 
ATOM     77  C   UNL A   1      43.664  25.715  25.687  1.00  0.00     0.198 A 
ATOM     78  F   UNL A   1      43.778  27.770  26.830  1.00  0.00    -0.203 F 
ATOM     79  F   UNL A   1      41.728  22.735  26.383  1.00  0.00    -0.200 F 
ATOM     80  C   UNL A   1      43.150  24.433  25.568  1.00  0.00     0.200 A 
ATOM     81  F   UNL A   1      44.563  26.161  24.798  1.00  0.00    -0.200 F 
ATOM     82  F   UNL A   1      43.570  23.629  24.581  1.00  0.00    -0.200 F 
ENDBRANCH  48  72
BRANCH  60  83
ATOM     83  C   UNL A   1      44.819  27.328  34.040  1.00  0.00     0.064 A 
ATOM     84  C   UNL A   1      44.696  26.162  34.810  1.00  0.00     0.173 A 
ATOM     85  C   UNL A   1      46.081  27.938  33.965  1.00  0.00     0.173 A 
ATOM     86  F   UNL A   1      43.510  25.548  34.922  1.00  0.00    -0.203 F 
ATOM     87  C   UNL A   1      45.787  25.651  35.509  1.00  0.00     0.198 A 
ATOM     88  C   UNL A   1      47.177  27.404  34.636  1.00  0.00     0.198 A 
ATOM     89  F   UNL A   1      46.255  29.048  33.232  1.00  0.00    -0.203 F 
ATOM     90  F   UNL A   1      45.632  24.573  36.290  1.00  0.00    -0.200 F 
ATOM     91  C   UNL A   1      47.025  26.268  35.417  1.00  0.00     0.200 A 
ATOM     92  F   UNL A   1      48.376  27.989  34.529  1.00  0.00    -0.200 F 
ATOM     93  F   UNL A   1      48.074  25.772  36.089  1.00  0.00    -0.200 F 
ENDBRANCH  60  83
ENDBRANCH  34  35
ENDBRANCH  26  29
ENDBRANCH  24  25
ENDBRANCH   1  24
TORSDOF 13
ENDMDL
MODEL 2
REMARK VINA RESULT:     -12.1      0.202      1.706
REMARK SMILES COc1c(N)cc(-c2ccccc2)cc1C(=O)NCCCNC(=O)c1ccc(-c2c3nc(c(-c4c(F)c(F)c(F)c(F)c4F)c4ccc([nH]4)c(-c4c(F)c(F)c(F)c(F)c4F)c4nc(c(-c5c(F)c(F)c(F)c(F)c5F)c5ccc2[nH]5)C=C4)C=C3)cc1
REMARK SMILES IDX 20 1 19 2 18 3 16 4 17 5 15 7 3 8 4 9 6 10 14 11 7 12 2 13
REMARK SMILES IDX 1 14 5 15 8 18 9 19 13 20 10 21 12 22 11 23 21 24 22 25
REMARK SMILES IDX 23 26 24 28 25 29 26 30 87 31 27 32 86 33 28 34 29 35 30 36
REMARK SMILES IDX 80 37 31 38 85 39 79 40 81 41 32 42 84 43 78 44 77 45 33 47
REMARK SMILES IDX 65 48 45 49 64 50 46 51 49 52 63 53 82 54 47 55 48 56 62 58
REMARK SMILES IDX 83 59 50 60 34 61 35 62 43 63 36 64 37 65 41 66 44 67 38 68
REMARK SMILES IDX 39 69 42 70 40 71 66 72 67 73 75 74 68 75 69 76 73 77 76 78
REMARK SMILES IDX 70 79 71 80 74 81 72 82 51 83 52 84 60 85 53 86 54 87 58 88
REMARK SMILES IDX 61 89 55 90 56 91 59 92 57 93
REMARK H PARENT 18 6 5 16 5 17 22 27 81 46 49 57
REMARK Flexibility Score: inf
ROOT
ATOM      1  C   UNL A   1      32.935  29.076  23.715  1.00  0.00     0.042 C 
ENDROOT
BRANCH   1   2
ATOM      2  C   UNL A   1      34.040  28.590  22.812  1.00  0.00     0.118 C 
BRANCH   2   3
ATOM      3  N   UNL A   1      33.749  27.481  21.958  1.00  0.00    -0.352 N 
ATOM      4  C   UNL A   1      33.414  26.190  22.287  1.00  0.00     0.255 C 
ATOM      5  O   UNL A   1      33.153  25.471  21.315  1.00  0.00    -0.269 OA
ATOM      6  H   UNL A   1      33.797  27.670  20.993  1.00  0.00     0.163 HD
BRANCH   4   7
ATOM      7  C   UNL A   1      33.407  25.567  23.671  1.00  0.00     0.084 A 
ATOM      8  C   UNL A   1      32.399  25.519  24.670  1.00  0.00     0.154 A 
ATOM      9  C   UNL A   1      32.604  24.768  25.857  1.00  0.00     0.076 A 
ATOM     10  C   UNL A   1      33.837  24.168  26.093  1.00  0.00     0.038 A 
ATOM     11  C   UNL A   1      34.617  24.867  23.939  1.00  0.00     0.026 A 
ATOM     12  C   UNL A   1      34.840  24.156  25.125  1.00  0.00    -0.015 A 
BRANCH   8  13
ATOM     13  O   UNL A   1      31.139  26.064  24.506  1.00  0.00    -0.494 OA
ATOM     14  C   UNL A   1      30.295  25.246  23.661  1.00  0.00     0.278 C 
ENDBRANCH   8  13
BRANCH   9  15
ATOM     15  N   UNL A   1      31.623  24.645  26.845  1.00  0.00    -0.396 N 
ATOM     16  H   UNL A   1      30.692  24.452  26.593  1.00  0.00     0.156 HD
ATOM     17  H   UNL A   1      31.865  24.751  27.794  1.00  0.00     0.156 HD
ENDBRANCH   9  15
BRANCH  12  18
ATOM     18  C   UNL A   1      36.043  23.344  25.355  1.00  0.00    -0.018 A 
ATOM     19  C   UNL A   1      37.147  23.914  26.021  1.00  0.00     0.009 A 
ATOM     20  C   UNL A   1      36.163  22.034  24.878  1.00  0.00     0.009 A 
ATOM     21  C   UNL A   1      38.347  23.219  26.160  1.00  0.00     0.001 A 
ATOM     22  C   UNL A   1      37.366  21.334  25.019  1.00  0.00     0.001 A 
ATOM     23  C   UNL A   1      38.459  21.932  25.647  1.00  0.00     0.000 A 
ENDBRANCH  12  18
ENDBRANCH   4   7
ENDBRANCH   2   3
ENDBRANCH   1   2
BRANCH   1  24
ATOM     24  C   UNL A   1      33.320  29.241  25.164  1.00  0.00     0.118 C 
BRANCH  24  25
ATOM     25  N   UNL A   1      32.865  30.502  25.735  1.00  0.00    -0.352 N 
ATOM     26  C   UNL A   1      33.266  31.221  26.837  1.00  0.00     0.251 C 
ATOM     27  H   UNL A   1      32.127  30.921  25.236  1.00  0.00     0.163 HD
ATOM     28  O   UNL A   1      32.584  32.173  27.205  1.00  0.00    -0.269 OA
BRANCH  26  29
ATOM     29  C   UNL A   1      34.487  30.867  27.599  1.00  0.00     0.039 A 
ATOM     30  C   UNL A   1      35.526  31.800  27.699  1.00  0.00     0.014 A 
ATOM     31  C   UNL A   1      34.657  29.607  28.168  1.00  0.00     0.014 A 
ATOM     32  C   UNL A   1      36.696  31.476  28.393  1.00  0.00     0.010 A 
ATOM     33  C   UNL A   1      35.737  29.347  28.998  1.00  0.00     0.010 A 
ATOM     34  C   UNL A   1      36.801  30.251  29.070  1.00  0.00    -0.014 A 
BRANCH  34  35
ATOM     35  C   UNL A   1      38.045  29.836  29.765  1.00  0.00     0.031 A 
ATOM     36  C   UNL A   1      38.337  30.367  31.147  1.00  0.00     0.074 A 
ATOM     37  C   UNL A   1      38.931  29.034  29.144  1.00  0.00     0.049 A 
ATOM     38  N   UNL A   1      39.396  30.196  31.898  1.00  0.00    -0.248 NA
ATOM     39  C   UNL A   1      37.324  31.251  31.750  1.00  0.00     0.031 C 
ATOM     40  C   UNL A   1      38.792  28.505  27.786  1.00  0.00     0.029 A 
ATOM     41  N   UNL A   1      40.130  28.527  29.576  1.00  0.00    -0.354 N 
ATOM     42  C   UNL A   1      39.183  30.969  33.034  1.00  0.00     0.074 A 
ATOM     43  C   UNL A   1      37.939  31.678  32.840  1.00  0.00     0.031 C 
ATOM     44  C   UNL A   1      39.841  27.714  27.512  1.00  0.00     0.029 A 
ATOM     45  C   UNL A   1      40.745  27.712  28.658  1.00  0.00     0.049 A 
ATOM     46  H   UNL A   1      40.513  28.728  30.460  1.00  0.00     0.167 HD
ATOM     47  C   UNL A   1      39.930  31.049  34.160  1.00  0.00     0.037 A 
ATOM     48  C   UNL A   1      41.907  27.035  28.739  1.00  0.00     0.037 A 
ATOM     49  C   UNL A   1      41.140  30.302  34.369  1.00  0.00     0.049 A 
ATOM     50  C   UNL A   1      42.708  27.120  30.011  1.00  0.00     0.074 A 
ATOM     51  C   UNL A   1      41.950  30.262  35.489  1.00  0.00     0.029 A 
ATOM     52  N   UNL A   1      41.707  29.451  33.429  1.00  0.00    -0.354 N 
ATOM     53  N   UNL A   1      42.463  27.802  31.104  1.00  0.00    -0.248 NA
ATOM     54  C   UNL A   1      43.940  26.323  30.066  1.00  0.00     0.031 C 
ATOM     55  C   UNL A   1      43.032  29.421  35.212  1.00  0.00     0.029 A 
ATOM     56  C   UNL A   1      42.863  28.889  33.943  1.00  0.00     0.049 A 
ATOM     57  H   UNL A   1      41.342  29.276  32.533  1.00  0.00     0.167 HD
ATOM     58  C   UNL A   1      43.484  27.484  31.991  1.00  0.00     0.074 A 
ATOM     59  C   UNL A   1      44.344  26.539  31.311  1.00  0.00     0.031 C 
ATOM     60  C   UNL A   1      43.690  27.931  33.254  1.00  0.00     0.037 A 
BRANCH  47  61
ATOM     61  C   UNL A   1      39.448  31.962  35.253  1.00  0.00     0.064 A 
ATOM     62  C   UNL A   1      39.832  33.312  35.313  1.00  0.00     0.173 A 
ATOM     63  C   UNL A   1      38.576  31.488  36.245  1.00  0.00     0.173 A 
ATOM     64  F   UNL A   1      40.676  33.816  34.400  1.00  0.00    -0.203 F 
ATOM     65  C   UNL A   1      39.394  34.139  36.344  1.00  0.00     0.198 A 
ATOM     66  C   UNL A   1      38.110  32.328  37.254  1.00  0.00     0.198 A 
ATOM     67  F   UNL A   1      38.173  30.208  36.237  1.00  0.00    -0.203 F 
ATOM     68  F   UNL A   1      39.828  35.406  36.414  1.00  0.00    -0.200 F 
ATOM     69  C   UNL A   1      38.527  33.650  37.308  1.00  0.00     0.200 A 
ATOM     70  F   UNL A   1      37.260  31.857  38.177  1.00  0.00    -0.200 F 
ATOM     71  F   UNL A   1      38.100  34.448  38.296  1.00  0.00    -0.200 F 
ENDBRANCH  47  61
BRANCH  48  72
ATOM     72  C   UNL A   1      42.354  26.181  27.608  1.00  0.00     0.064 A 
ATOM     73  C   UNL A   1      41.813  24.900  27.416  1.00  0.00     0.173 A 
ATOM     74  C   UNL A   1      43.333  26.615  26.704  1.00  0.00     0.173 A 
ATOM     75  F   UNL A   1      40.884  24.434  28.262  1.00  0.00    -0.203 F 
ATOM     76  C   UNL A   1      42.257  24.077  26.384  1.00  0.00     0.198 A 
ATOM     77  C   UNL A   1      43.754  25.802  25.652  1.00  0.00     0.198 A 
ATOM     78  F   UNL A   1      43.876  27.835  26.835  1.00  0.00    -0.203 F 
ATOM     79  F   UNL A   1      41.763  22.839  26.258  1.00  0.00    -0.200 F 
ATOM     80  C   UNL A   1      43.224  24.530  25.500  1.00  0.00     0.200 A 
ATOM     81  F   UNL A   1      44.676  26.251  24.789  1.00  0.00    -0.200 F 
ATOM     82  F   UNL A   1      43.651  23.739  24.507  1.00  0.00    -0.200 F 
ENDBRANCH  48  72
BRANCH  60  83
ATOM     83  C   UNL A   1      44.853  27.349  34.007  1.00  0.00     0.064 A 
ATOM     84  C   UNL A   1      46.117  27.956  34.006  1.00  0.00     0.173 A 
ATOM     85  C   UNL A   1      44.685  26.179  34.764  1.00  0.00     0.173 A 
ATOM     86  F   UNL A   1      46.332  29.069  33.290  1.00  0.00    -0.203 F 
ATOM     87  C   UNL A   1      47.181  27.390  34.703  1.00  0.00     0.198 A 
ATOM     88  C   UNL A   1      45.740  25.636  35.489  1.00  0.00     0.198 A 
ATOM     89  F   UNL A   1      43.492  25.566  34.808  1.00  0.00    -0.203 F 
ATOM     90  F   UNL A   1      48.396  27.951  34.637  1.00  0.00    -0.200 F 
ATOM     91  C   UNL A   1      46.990  26.236  35.448  1.00  0.00     0.200 A 
ATOM     92  F   UNL A   1      45.549  24.533  36.224  1.00  0.00    -0.200 F 
ATOM     93  F   UNL A   1      48.015  25.694  36.121  1.00  0.00    -0.200 F 
ENDBRANCH  60  83
ENDBRANCH  34  35
ENDBRANCH  26  29
ENDBRANCH  24  25
ENDBRANCH   1  24
TORSDOF 13
ENDMDL
MODEL 3
REMARK VINA RESULT:     -12.0      0.655      7.550
REMARK SMILES COc1c(N)cc(-c2ccccc2)cc1C(=O)NCCCNC(=O)c1ccc(-c2c3nc(c(-c4c(F)c(F)c(F)c(F)c4F)c4ccc([nH]4)c(-c4c(F)c(F)c(F)c(F)c4F)c4nc(c(-c5c(F)c(F)c(F)c(F)c5F)c5ccc2[nH]5)C=C4)C=C3)cc1
REMARK SMILES IDX 20 1 19 2 18 3 16 4 17 5 15 7 3 8 4 9 6 10 14 11 7 12 2 13
REMARK SMILES IDX 1 14 5 15 8 18 9 19 13 20 10 21 12 22 11 23 21 24 22 25
REMARK SMILES IDX 23 26 24 28 25 29 26 30 87 31 27 32 86 33 28 34 29 35 30 36
REMARK SMILES IDX 80 37 31 38 85 39 79 40 81 41 32 42 84 43 78 44 77 45 33 47
REMARK SMILES IDX 65 48 45 49 64 50 46 51 49 52 63 53 82 54 47 55 48 56 62 58
REMARK SMILES IDX 83 59 50 60 34 61 35 62 43 63 36 64 37 65 41 66 44 67 38 68
REMARK SMILES IDX 39 69 42 70 40 71 66 72 67 73 75 74 68 75 69 76 73 77 76 78
REMARK SMILES IDX 70 79 71 80 74 81 72 82 51 83 52 84 60 85 53 86 54 87 58 88
REMARK SMILES IDX 61 89 55 90 56 91 59 92 57 93
REMARK H PARENT 18 6 5 16 5 17 22 27 81 46 49 57
REMARK Flexibility Score: inf
ROOT
ATOM      1  C   UNL A   1      33.870  28.998  23.431  1.00  0.00     0.042 C 
ENDROOT
BRANCH   1   2
ATOM      2  C   UNL A   1      32.785  28.411  22.563  1.00  0.00     0.118 C 
BRANCH   2   3
ATOM      3  N   UNL A   1      33.119  27.258  21.787  1.00  0.00    -0.352 N 
ATOM      4  C   UNL A   1      33.294  25.955  22.188  1.00  0.00     0.255 C 
ATOM      5  O   UNL A   1      33.515  25.166  21.262  1.00  0.00    -0.269 OA
ATOM      6  H   UNL A   1      33.244  27.422  20.824  1.00  0.00     0.163 HD
BRANCH   4   7
ATOM      7  C   UNL A   1      33.314  25.428  23.611  1.00  0.00     0.084 A 
ATOM      8  C   UNL A   1      32.324  25.445  24.629  1.00  0.00     0.154 A 
ATOM      9  C   UNL A   1      32.554  24.777  25.860  1.00  0.00     0.076 A 
ATOM     10  C   UNL A   1      33.792  24.196  26.113  1.00  0.00     0.038 A 
ATOM     11  C   UNL A   1      34.530  24.750  23.902  1.00  0.00     0.026 A 
ATOM     12  C   UNL A   1      34.777  24.120  25.130  1.00  0.00    -0.015 A 
BRANCH   8  13
ATOM     13  O   UNL A   1      31.060  25.977  24.452  1.00  0.00    -0.494 OA
ATOM     14  C   UNL A   1      30.200  25.098  23.689  1.00  0.00     0.278 C 
ENDBRANCH   8  13
BRANCH   9  15
ATOM     15  N   UNL A   1      31.591  24.719  26.872  1.00  0.00    -0.396 N 
ATOM     16  H   UNL A   1      31.392  25.520  27.408  1.00  0.00     0.156 HD
ATOM     17  H   UNL A   1      31.113  23.877  27.049  1.00  0.00     0.156 HD
ENDBRANCH   9  15
BRANCH  12  18
ATOM     18  C   UNL A   1      35.987  23.327  25.392  1.00  0.00    -0.018 A 
ATOM     19  C   UNL A   1      37.095  23.939  26.011  1.00  0.00     0.009 A 
ATOM     20  C   UNL A   1      36.107  21.993  24.989  1.00  0.00     0.009 A 
ATOM     21  C   UNL A   1      38.299  23.258  26.175  1.00  0.00     0.001 A 
ATOM     22  C   UNL A   1      37.315  21.307  25.155  1.00  0.00     0.001 A 
ATOM     23  C   UNL A   1      38.412  21.944  25.736  1.00  0.00     0.000 A 
ENDBRANCH  12  18
ENDBRANCH   4   7
ENDBRANCH   2   3
ENDBRANCH   1   2
BRANCH   1  24
ATOM     24  C   UNL A   1      33.612  28.917  24.915  1.00  0.00     0.118 C 
BRANCH  24  25
ATOM     25  N   UNL A   1      32.973  30.114  25.448  1.00  0.00    -0.352 N 
ATOM     26  C   UNL A   1      33.199  30.860  26.581  1.00  0.00     0.251 C 
ATOM     27  H   UNL A   1      32.237  30.454  24.890  1.00  0.00     0.163 HD
ATOM     28  O   UNL A   1      32.387  31.727  26.893  1.00  0.00    -0.269 OA
BRANCH  26  29
ATOM     29  C   UNL A   1      34.384  30.635  27.444  1.00  0.00     0.039 A 
ATOM     30  C   UNL A   1      35.296  31.679  27.638  1.00  0.00     0.014 A 
ATOM     31  C   UNL A   1      34.648  29.395  28.017  1.00  0.00     0.014 A 
ATOM     32  C   UNL A   1      36.433  31.479  28.427  1.00  0.00     0.010 A 
ATOM     33  C   UNL A   1      35.677  29.245  28.934  1.00  0.00     0.010 A 
ATOM     34  C   UNL A   1      36.621  30.263  29.102  1.00  0.00    -0.014 A 
BRANCH  34  35
ATOM     35  C   UNL A   1      37.841  29.981  29.899  1.00  0.00     0.031 A 
ATOM     36  C   UNL A   1      38.907  29.075  29.330  1.00  0.00     0.074 A 
ATOM     37  C   UNL A   1      37.970  30.484  31.141  1.00  0.00     0.049 A 
ATOM     38  N   UNL A   1      40.009  28.636  29.885  1.00  0.00    -0.248 NA
ATOM     39  C   UNL A   1      38.682  28.553  27.971  1.00  0.00     0.031 C 
ATOM     40  C   UNL A   1      36.982  31.321  31.824  1.00  0.00     0.029 A 
ATOM     41  N   UNL A   1      38.988  30.362  32.052  1.00  0.00    -0.354 N 
ATOM     42  C   UNL A   1      40.580  27.773  28.957  1.00  0.00     0.074 A 
ATOM     43  C   UNL A   1      39.668  27.680  27.842  1.00  0.00     0.031 C 
ATOM     44  C   UNL A   1      37.460  31.672  33.029  1.00  0.00     0.029 A 
ATOM     45  C   UNL A   1      38.768  31.053  33.218  1.00  0.00     0.049 A 
ATOM     46  H   UNL A   1      39.798  29.829  31.886  1.00  0.00     0.167 HD
ATOM     47  C   UNL A   1      41.780  27.148  29.005  1.00  0.00     0.037 A 
ATOM     48  C   UNL A   1      39.543  31.176  34.313  1.00  0.00     0.037 A 
ATOM     49  C   UNL A   1      42.709  27.285  30.095  1.00  0.00     0.049 A 
ATOM     50  C   UNL A   1      40.884  30.492  34.333  1.00  0.00     0.074 A 
ATOM     51  C   UNL A   1      43.973  26.743  30.227  1.00  0.00     0.029 A 
ATOM     52  N   UNL A   1      42.466  28.032  31.240  1.00  0.00    -0.354 N 
ATOM     53  N   UNL A   1      41.443  29.731  33.422  1.00  0.00    -0.248 NA
ATOM     54  C   UNL A   1      41.710  30.700  35.529  1.00  0.00     0.031 C 
ATOM     55  C   UNL A   1      44.481  27.126  31.473  1.00  0.00     0.029 A 
ATOM     56  C   UNL A   1      43.557  27.957  32.088  1.00  0.00     0.049 A 
ATOM     57  H   UNL A   1      41.643  28.538  31.420  1.00  0.00     0.167 HD
ATOM     58  C   UNL A   1      42.701  29.407  33.913  1.00  0.00     0.074 A 
ATOM     59  C   UNL A   1      42.825  30.063  35.198  1.00  0.00     0.031 C 
ATOM     60  C   UNL A   1      43.667  28.639  33.353  1.00  0.00     0.037 A 
BRANCH  47  61
ATOM     61  C   UNL A   1      42.160  26.277  27.840  1.00  0.00     0.064 A 
ATOM     62  C   UNL A   1      43.016  26.733  26.824  1.00  0.00     0.173 A 
ATOM     63  C   UNL A   1      41.676  24.963  27.744  1.00  0.00     0.173 A 
ATOM     64  F   UNL A   1      43.496  27.985  26.856  1.00  0.00    -0.203 F 
ATOM     65  C   UNL A   1      43.340  25.922  25.738  1.00  0.00     0.198 A 
ATOM     66  C   UNL A   1      42.033  24.142  26.676  1.00  0.00     0.198 A 
ATOM     67  F   UNL A   1      40.857  24.473  28.686  1.00  0.00    -0.203 F 
ATOM     68  F   UNL A   1      44.107  26.404  24.750  1.00  0.00    -0.200 F 
ATOM     69  C   UNL A   1      42.857  24.625  25.670  1.00  0.00     0.200 A 
ATOM     70  F   UNL A   1      41.576  22.884  26.619  1.00  0.00    -0.200 F 
ATOM     71  F   UNL A   1      43.175  23.843  24.630  1.00  0.00    -0.200 F 
ENDBRANCH  47  61
BRANCH  48  72
ATOM     72  C   UNL A   1      39.096  32.018  35.453  1.00  0.00     0.064 A 
ATOM     73  C   UNL A   1      39.409  33.384  35.505  1.00  0.00     0.173 A 
ATOM     74  C   UNL A   1      38.359  31.479  36.517  1.00  0.00     0.173 A 
ATOM     75  F   UNL A   1      40.124  33.944  34.519  1.00  0.00    -0.203 F 
ATOM     76  C   UNL A   1      39.030  34.170  36.591  1.00  0.00     0.198 A 
ATOM     77  C   UNL A   1      37.953  32.274  37.588  1.00  0.00     0.198 A 
ATOM     78  F   UNL A   1      38.023  30.180  36.513  1.00  0.00    -0.203 F 
ATOM     79  F   UNL A   1      39.391  35.460  36.639  1.00  0.00    -0.200 F 
ATOM     80  C   UNL A   1      38.299  33.616  37.629  1.00  0.00     0.200 A 
ATOM     81  F   UNL A   1      37.230  31.739  38.581  1.00  0.00    -0.200 F 
ATOM     82  F   UNL A   1      37.934  34.372  38.673  1.00  0.00    -0.200 F 
ENDBRANCH  48  72
BRANCH  60  83
ATOM     83  C   UNL A   1      44.968  28.523  34.094  1.00  0.00     0.064 A 
ATOM     84  C   UNL A   1      45.204  27.503  35.028  1.00  0.00     0.173 A 
ATOM     85  C   UNL A   1      46.005  29.434  33.839  1.00  0.00     0.173 A 
ATOM     86  F   UNL A   1      44.242  26.614  35.314  1.00  0.00    -0.203 F 
ATOM     87  C   UNL A   1      46.416  27.426  35.708  1.00  0.00     0.198 A 
ATOM     88  C   UNL A   1      47.228  29.331  34.494  1.00  0.00     0.198 A 
ATOM     89  F   UNL A   1      45.835  30.421  32.945  1.00  0.00    -0.203 F 
ATOM     90  F   UNL A   1      46.596  26.482  36.643  1.00  0.00    -0.200 F 
ATOM     91  C   UNL A   1      47.427  28.334  35.437  1.00  0.00     0.200 A 
ATOM     92  F   UNL A   1      48.210  30.198  34.216  1.00  0.00    -0.200 F 
ATOM     93  F   UNL A   1      48.594  28.255  36.092  1.00  0.00    -0.200 F 
ENDBRANCH  60  83
ENDBRANCH  34  35
ENDBRANCH  26  29
ENDBRANCH  24  25
ENDBRANCH   1  24
TORSDOF 13
ENDMDL
