MODEL 1
REMARK VINA RESULT:     -12.5      0.000      0.000
REMARK SMILES O=C(NCCCNC(=O)c1ccc(S(=O)(=O)Cc2cccs2)c(F)c1)c1ccc(-c2c3nc(c(-c4c(F)c(F)c(F)c(F)c4F)c4ccc([nH]4)c(-c4c(F)c(F)c(F)c(F)c4F)c4nc(c(-c5c(F)c(F)c(F)c(F)c5F)c5ccc2[nH]5)C=C4)C=C3)cc1
REMARK SMILES IDX 5 1 4 2 3 3 1 4 2 5 26 7 27 8 88 9 28 10 87 11 29 12 30 13
REMARK SMILES IDX 31 14 81 15 32 16 86 17 80 18 82 19 33 20 85 21 79 22 78 23
REMARK SMILES IDX 34 25 66 26 46 27 65 28 47 29 50 30 64 31 83 32 48 33 49 34
REMARK SMILES IDX 63 36 84 37 51 38 35 39 36 40 44 41 37 42 38 43 42 44 45 45
REMARK SMILES IDX 39 46 40 47 43 48 41 49 67 50 68 51 76 52 69 53 70 54 74 55
REMARK SMILES IDX 77 56 71 57 72 58 75 59 73 60 52 61 53 62 61 63 54 64 55 65
REMARK SMILES IDX 59 66 62 67 56 68 57 69 60 70 58 71 6 72 7 73 8 74 9 76
REMARK SMILES IDX 10 77 11 78 25 79 12 80 23 81 13 82 24 83 14 84 15 85 16 86
REMARK SMILES IDX 17 87 18 88 19 89 22 90 20 91 21 92
REMARK H PARENT 3 6 82 24 50 35 7 75
REMARK Flexibility Score: inf
ROOT
ATOM      1  C   UNL A   1      33.736  29.300  23.777  1.00  0.00     0.042 C 
ENDROOT
BRANCH   1   2
ATOM      2  C   UNL A   1      33.210  29.115  25.197  1.00  0.00     0.118 C 
BRANCH   2   3
ATOM      3  N   UNL A   1      32.705  30.350  25.785  1.00  0.00    -0.352 N 
ATOM      4  O   UNL A   1      32.490  32.034  27.262  1.00  0.00    -0.269 OA
ATOM      5  C   UNL A   1      33.177  31.114  26.826  1.00  0.00     0.251 C 
ATOM      6  H   UNL A   1      31.885  30.697  25.365  1.00  0.00     0.163 HD
BRANCH   5   7
ATOM      7  C   UNL A   1      34.487  30.820  27.448  1.00  0.00     0.039 A 
ATOM      8  C   UNL A   1      34.856  29.516  27.768  1.00  0.00     0.014 A 
ATOM      9  C   UNL A   1      35.376  31.873  27.695  1.00  0.00     0.014 A 
ATOM     10  C   UNL A   1      36.011  29.286  28.508  1.00  0.00     0.010 A 
ATOM     11  C   UNL A   1      36.591  31.626  28.343  1.00  0.00     0.010 A 
ATOM     12  C   UNL A   1      36.896  30.336  28.802  1.00  0.00    -0.014 A 
BRANCH  12  13
ATOM     13  C   UNL A   1      38.134  30.043  29.569  1.00  0.00     0.031 A 
ATOM     14  C   UNL A   1      38.326  30.567  30.966  1.00  0.00     0.074 A 
ATOM     15  C   UNL A   1      39.066  29.240  29.019  1.00  0.00     0.049 A 
ATOM     16  N   UNL A   1      39.316  30.351  31.799  1.00  0.00    -0.248 NA
ATOM     17  C   UNL A   1      37.280  31.451  31.501  1.00  0.00     0.031 C 
ATOM     18  C   UNL A   1      38.998  28.679  27.669  1.00  0.00     0.029 A 
ATOM     19  N   UNL A   1      40.229  28.726  29.533  1.00  0.00    -0.354 N 
ATOM     20  C   UNL A   1      39.019  31.081  32.942  1.00  0.00     0.074 A 
ATOM     21  C   UNL A   1      37.775  31.775  32.688  1.00  0.00     0.031 C 
ATOM     22  C   UNL A   1      40.032  27.848  27.485  1.00  0.00     0.029 A 
ATOM     23  C   UNL A   1      40.872  27.864  28.677  1.00  0.00     0.049 A 
ATOM     24  H   UNL A   1      40.571  28.953  30.429  1.00  0.00     0.167 HD
ATOM     25  C   UNL A   1      39.715  31.154  34.102  1.00  0.00     0.037 A 
ATOM     26  C   UNL A   1      42.012  27.166  28.831  1.00  0.00     0.037 A 
ATOM     27  C   UNL A   1      40.944  30.446  34.359  1.00  0.00     0.049 A 
ATOM     28  C   UNL A   1      42.769  27.271  30.123  1.00  0.00     0.074 A 
ATOM     29  C   UNL A   1      41.712  30.445  35.510  1.00  0.00     0.029 A 
ATOM     30  N   UNL A   1      41.582  29.612  33.453  1.00  0.00    -0.354 N 
ATOM     31  N   UNL A   1      42.469  27.956  31.199  1.00  0.00    -0.248 NA
ATOM     32  C   UNL A   1      44.022  26.511  30.220  1.00  0.00     0.031 C 
ATOM     33  C   UNL A   1      42.837  29.645  35.286  1.00  0.00     0.029 A 
ATOM     34  C   UNL A   1      42.742  29.103  34.014  1.00  0.00     0.049 A 
ATOM     35  H   UNL A   1      41.258  29.412  32.544  1.00  0.00     0.167 HD
ATOM     36  C   UNL A   1      43.485  27.700  32.108  1.00  0.00     0.074 A 
ATOM     37  C   UNL A   1      44.401  26.781  31.463  1.00  0.00     0.031 C 
ATOM     38  C   UNL A   1      43.644  28.187  33.362  1.00  0.00     0.037 A 
BRANCH  25  39
ATOM     39  C   UNL A   1      39.172  32.032  35.193  1.00  0.00     0.064 A 
ATOM     40  C   UNL A   1      39.460  33.406  35.212  1.00  0.00     0.173 A 
ATOM     41  C   UNL A   1      38.421  31.507  36.256  1.00  0.00     0.173 A 
ATOM     42  F   UNL A   1      40.181  33.958  34.224  1.00  0.00    -0.203 F 
ATOM     43  C   UNL A   1      39.029  34.217  36.259  1.00  0.00     0.198 A 
ATOM     44  C   UNL A   1      37.966  32.327  37.286  1.00  0.00     0.198 A 
ATOM     45  F   UNL A   1      38.107  30.202  36.281  1.00  0.00    -0.203 F 
ATOM     46  F   UNL A   1      39.344  35.520  36.269  1.00  0.00    -0.200 F 
ATOM     47  C   UNL A   1      38.278  33.678  37.292  1.00  0.00     0.200 A 
ATOM     48  F   UNL A   1      37.221  31.808  38.273  1.00  0.00    -0.200 F 
ATOM     49  F   UNL A   1      37.853  34.461  38.293  1.00  0.00    -0.200 F 
ENDBRANCH  25  39
BRANCH  26  50
ATOM     50  C   UNL A   1      42.480  26.291  27.726  1.00  0.00     0.064 A 
ATOM     51  C   UNL A   1      43.434  26.738  26.799  1.00  0.00     0.173 A 
ATOM     52  C   UNL A   1      41.939  25.011  27.542  1.00  0.00     0.173 A 
ATOM     53  F   UNL A   1      43.975  27.958  26.928  1.00  0.00    -0.203 F 
ATOM     54  C   UNL A   1      43.806  25.950  25.713  1.00  0.00     0.198 A 
ATOM     55  C   UNL A   1      42.334  24.213  26.471  1.00  0.00     0.198 A 
ATOM     56  F   UNL A   1      41.037  24.535  28.411  1.00  0.00    -0.203 F 
ATOM     57  F   UNL A   1      44.684  26.420  24.816  1.00  0.00    -0.200 F 
ATOM     58  C   UNL A   1      43.258  24.686  25.552  1.00  0.00     0.200 A 
ATOM     59  F   UNL A   1      41.818  22.984  26.329  1.00  0.00    -0.200 F 
ATOM     60  F   UNL A   1      43.620  23.926  24.509  1.00  0.00    -0.200 F 
ENDBRANCH  26  50
BRANCH  38  61
ATOM     61  C   UNL A   1      44.841  27.721  34.138  1.00  0.00     0.064 A 
ATOM     62  C   UNL A   1      44.759  26.578  34.949  1.00  0.00     0.173 A 
ATOM     63  C   UNL A   1      46.045  28.437  34.132  1.00  0.00     0.173 A 
ATOM     64  F   UNL A   1      43.625  25.862  34.997  1.00  0.00    -0.203 F 
ATOM     65  C   UNL A   1      45.838  26.177  35.732  1.00  0.00     0.198 A 
ATOM     66  C   UNL A   1      47.132  28.017  34.894  1.00  0.00     0.198 A 
ATOM     67  F   UNL A   1      46.177  29.529  33.362  1.00  0.00    -0.203 F 
ATOM     68  F   UNL A   1      45.726  25.099  36.521  1.00  0.00    -0.200 F 
ATOM     69  C   UNL A   1      47.024  26.893  35.700  1.00  0.00     0.200 A 
ATOM     70  F   UNL A   1      48.287  28.695  34.843  1.00  0.00    -0.200 F 
ATOM     71  F   UNL A   1      48.067  26.498  36.444  1.00  0.00    -0.200 F 
ENDBRANCH  38  61
ENDBRANCH  12  13
ENDBRANCH   5   7
ENDBRANCH   2   3
ENDBRANCH   1   2
BRANCH   1  72
ATOM     72  C   UNL A   1      33.143  28.324  22.767  1.00  0.00     0.118 C 
BRANCH  72  73
ATOM     73  N   UNL A   1      31.748  28.624  22.486  1.00  0.00    -0.352 N 
ATOM     74  C   UNL A   1      30.634  27.872  22.744  1.00  0.00     0.251 C 
ATOM     75  H   UNL A   1      31.582  29.491  22.048  1.00  0.00     0.163 HD
ATOM     76  O   UNL A   1      29.559  28.139  22.220  1.00  0.00    -0.269 OA
BRANCH  74  77
ATOM     77  C   UNL A   1      30.726  26.724  23.660  1.00  0.00     0.042 A 
ATOM     78  C   UNL A   1      30.453  26.887  25.024  1.00  0.00     0.015 A 
ATOM     79  C   UNL A   1      31.016  25.464  23.135  1.00  0.00     0.054 A 
ATOM     80  C   UNL A   1      30.480  25.778  25.869  1.00  0.00     0.024 A 
ATOM     81  C   UNL A   1      31.066  24.370  23.991  1.00  0.00     0.142 A 
ATOM     82  C   UNL A   1      30.777  24.515  25.342  1.00  0.00     0.103 A 
ATOM     83  F   UNL A   1      31.396  23.179  23.475  1.00  0.00    -0.206 F 
BRANCH  82  84
ATOM     84  S   UNL A   1      30.802  23.118  26.423  1.00  0.00     0.186 S 
ATOM     85  O   UNL A   1      29.854  23.440  27.476  1.00  0.00    -0.223 OA
ATOM     86  O   UNL A   1      30.569  21.950  25.590  1.00  0.00    -0.223 OA
BRANCH  84  87
ATOM     87  C   UNL A   1      32.418  22.969  27.165  1.00  0.00     0.188 C 
BRANCH  87  88
ATOM     88  C   UNL A   1      33.532  23.145  26.180  1.00  0.00     0.020 A 
ATOM     89  C   UNL A   1      34.279  24.278  25.910  1.00  0.00     0.016 A 
ATOM     90  S   UNL A   1      34.123  21.795  25.300  1.00  0.00    -0.148 S 
ATOM     91  C   UNL A   1      35.310  24.041  24.957  1.00  0.00     0.012 A 
ATOM     92  C   UNL A   1      35.344  22.727  24.552  1.00  0.00     0.065 A 
ENDBRANCH  87  88
ENDBRANCH  84  87
ENDBRANCH  82  84
ENDBRANCH  74  77
ENDBRANCH  72  73
ENDBRANCH   1  72
TORSDOF 13
ENDMDL
MODEL 2
REMARK VINA RESULT:     -12.5      1.840      2.975
REMARK SMILES O=C(NCCCNC(=O)c1ccc(S(=O)(=O)Cc2cccs2)c(F)c1)c1ccc(-c2c3nc(c(-c4c(F)c(F)c(F)c(F)c4F)c4ccc([nH]4)c(-c4c(F)c(F)c(F)c(F)c4F)c4nc(c(-c5c(F)c(F)c(F)c(F)c5F)c5ccc2[nH]5)C=C4)C=C3)cc1
REMARK SMILES IDX 5 1 4 2 3 3 1 4 2 5 26 7 27 8 88 9 28 10 87 11 29 12 30 13
REMARK SMILES IDX 31 14 81 15 32 16 86 17 80 18 82 19 33 20 85 21 79 22 78 23
REMARK SMILES IDX 34 25 66 26 46 27 65 28 47 29 50 30 64 31 83 32 48 33 49 34
REMARK SMILES IDX 63 36 84 37 51 38 35 39 36 40 44 41 37 42 38 43 42 44 45 45
REMARK SMILES IDX 39 46 40 47 43 48 41 49 67 50 68 51 76 52 69 53 70 54 74 55
REMARK SMILES IDX 77 56 71 57 72 58 75 59 73 60 52 61 53 62 61 63 54 64 55 65
REMARK SMILES IDX 59 66 62 67 56 68 57 69 60 70 58 71 6 72 7 73 8 74 9 76
REMARK SMILES IDX 10 77 11 78 25 79 12 80 23 81 13 82 24 83 14 84 15 85 16 86
REMARK SMILES IDX 17 87 18 88 19 89 22 90 20 91 21 92
REMARK H PARENT 3 6 82 24 50 35 7 75
REMARK Flexibility Score: inf
ROOT
ATOM      1  C   UNL A   1      31.447  31.689  26.815  1.00  0.00     0.042 C 
ENDROOT
BRANCH   1   2
ATOM      2  C   UNL A   1      32.705  32.547  26.907  1.00  0.00     0.118 C 
BRANCH   2   3
ATOM      3  N   UNL A   1      32.446  33.891  27.410  1.00  0.00    -0.352 N 
ATOM      4  O   UNL A   1      32.525  35.662  28.795  1.00  0.00    -0.269 OA
ATOM      5  C   UNL A   1      33.020  34.596  28.441  1.00  0.00     0.251 C 
ATOM      6  H   UNL A   1      31.738  34.377  26.928  1.00  0.00     0.163 HD
BRANCH   5   7
ATOM      7  C   UNL A   1      34.208  34.069  29.149  1.00  0.00     0.039 A 
ATOM      8  C   UNL A   1      35.497  34.404  28.739  1.00  0.00     0.014 A 
ATOM      9  C   UNL A   1      34.027  33.241  30.262  1.00  0.00     0.014 A 
ATOM     10  C   UNL A   1      36.591  33.760  29.308  1.00  0.00     0.010 A 
ATOM     11  C   UNL A   1      35.135  32.679  30.905  1.00  0.00     0.010 A 
ATOM     12  C   UNL A   1      36.426  32.893  30.400  1.00  0.00    -0.014 A 
BRANCH  12  13
ATOM     13  C   UNL A   1      37.625  32.248  30.997  1.00  0.00     0.031 A 
ATOM     14  C   UNL A   1      38.054  32.557  32.405  1.00  0.00     0.074 A 
ATOM     15  C   UNL A   1      38.294  31.325  30.278  1.00  0.00     0.049 A 
ATOM     16  N   UNL A   1      39.035  32.036  33.101  1.00  0.00    -0.248 NA
ATOM     17  C   UNL A   1      37.292  33.586  33.128  1.00  0.00     0.031 C 
ATOM     18  C   UNL A   1      37.980  30.948  28.899  1.00  0.00     0.029 A 
ATOM     19  N   UNL A   1      39.346  30.512  30.613  1.00  0.00    -0.354 N 
ATOM     20  C   UNL A   1      39.016  32.681  34.331  1.00  0.00     0.074 A 
ATOM     21  C   UNL A   1      37.949  33.657  34.278  1.00  0.00     0.031 C 
ATOM     22  C   UNL A   1      38.773  29.934  28.529  1.00  0.00     0.029 A 
ATOM     23  C   UNL A   1      39.695  29.631  29.618  1.00  0.00     0.049 A 
ATOM     24  H   UNL A   1      39.808  30.556  31.482  1.00  0.00     0.167 HD
ATOM     25  C   UNL A   1      39.808  32.468  35.409  1.00  0.00     0.037 A 
ATOM     26  C   UNL A   1      40.651  28.685  29.583  1.00  0.00     0.037 A 
ATOM     27  C   UNL A   1      40.857  31.481  35.465  1.00  0.00     0.049 A 
ATOM     28  C   UNL A   1      41.521  28.475  30.787  1.00  0.00     0.074 A 
ATOM     29  C   UNL A   1      41.702  31.181  36.519  1.00  0.00     0.029 A 
ATOM     30  N   UNL A   1      41.203  30.633  34.423  1.00  0.00    -0.354 N 
ATOM     31  N   UNL A   1      41.483  29.083  31.947  1.00  0.00    -0.248 NA
ATOM     32  C   UNL A   1      42.568  27.450  30.678  1.00  0.00     0.031 C 
ATOM     33  C   UNL A   1      42.586  30.182  36.102  1.00  0.00     0.029 A 
ATOM     34  C   UNL A   1      42.258  29.820  34.805  1.00  0.00     0.049 A 
ATOM     35  H   UNL A   1      40.764  30.612  33.541  1.00  0.00     0.167 HD
ATOM     36  C   UNL A   1      42.487  28.509  32.712  1.00  0.00     0.074 A 
ATOM     37  C   UNL A   1      43.106  27.488  31.890  1.00  0.00     0.031 C 
ATOM     38  C   UNL A   1      42.863  28.805  33.979  1.00  0.00     0.037 A 
BRANCH  25  39
ATOM     39  C   UNL A   1      39.580  33.317  36.627  1.00  0.00     0.064 A 
ATOM     40  C   UNL A   1      40.309  34.502  36.815  1.00  0.00     0.173 A 
ATOM     41  C   UNL A   1      38.691  32.928  37.639  1.00  0.00     0.173 A 
ATOM     42  F   UNL A   1      41.179  34.916  35.881  1.00  0.00    -0.203 F 
ATOM     43  C   UNL A   1      40.164  35.258  37.976  1.00  0.00     0.198 A 
ATOM     44  C   UNL A   1      38.527  33.702  38.786  1.00  0.00     0.198 A 
ATOM     45  F   UNL A   1      37.961  31.810  37.504  1.00  0.00    -0.203 F 
ATOM     46  F   UNL A   1      40.895  36.369  38.146  1.00  0.00    -0.200 F 
ATOM     47  C   UNL A   1      39.270  34.860  38.958  1.00  0.00     0.200 A 
ATOM     48  F   UNL A   1      37.645  33.327  39.724  1.00  0.00    -0.200 F 
ATOM     49  F   UNL A   1      39.123  35.594  40.069  1.00  0.00    -0.200 F 
ENDBRANCH  25  39
BRANCH  26  50
ATOM     50  C   UNL A   1      40.806  27.857  28.359  1.00  0.00     0.064 A 
ATOM     51  C   UNL A   1      40.192  26.601  28.249  1.00  0.00     0.173 A 
ATOM     52  C   UNL A   1      41.620  28.282  27.300  1.00  0.00     0.173 A 
ATOM     53  F   UNL A   1      39.409  26.147  29.239  1.00  0.00    -0.203 F 
ATOM     54  C   UNL A   1      40.408  25.788  27.139  1.00  0.00     0.198 A 
ATOM     55  C   UNL A   1      41.813  27.480  26.178  1.00  0.00     0.198 A 
ATOM     56  F   UNL A   1      42.216  29.482  27.353  1.00  0.00    -0.203 F 
ATOM     57  F   UNL A   1      39.847  24.573  27.080  1.00  0.00    -0.200 F 
ATOM     58  C   UNL A   1      41.217  26.230  26.103  1.00  0.00     0.200 A 
ATOM     59  F   UNL A   1      42.579  27.918  25.168  1.00  0.00    -0.200 F 
ATOM     60  F   UNL A   1      41.423  25.450  25.032  1.00  0.00    -0.200 F 
ENDBRANCH  26  50
BRANCH  38  61
ATOM     61  C   UNL A   1      43.982  28.002  34.574  1.00  0.00     0.064 A 
ATOM     62  C   UNL A   1      45.312  28.429  34.437  1.00  0.00     0.173 A 
ATOM     63  C   UNL A   1      43.748  26.781  35.221  1.00  0.00     0.173 A 
ATOM     64  F   UNL A   1      45.591  29.587  33.819  1.00  0.00    -0.203 F 
ATOM     65  C   UNL A   1      46.365  27.657  34.918  1.00  0.00     0.198 A 
ATOM     66  C   UNL A   1      44.802  26.025  35.726  1.00  0.00     0.198 A 
ATOM     67  F   UNL A   1      42.492  26.336  35.388  1.00  0.00    -0.203 F 
ATOM     68  F   UNL A   1      47.629  28.072  34.750  1.00  0.00    -0.200 F 
ATOM     69  C   UNL A   1      46.110  26.459  35.567  1.00  0.00     0.200 A 
ATOM     70  F   UNL A   1      44.552  24.879  36.375  1.00  0.00    -0.200 F 
ATOM     71  F   UNL A   1      47.124  25.723  36.041  1.00  0.00    -0.200 F 
ENDBRANCH  38  61
ENDBRANCH  12  13
ENDBRANCH   5   7
ENDBRANCH   2   3
ENDBRANCH   1   2
BRANCH   1  72
ATOM     72  C   UNL A   1      31.717  30.234  26.447  1.00  0.00     0.118 C 
BRANCH  72  73
ATOM     73  N   UNL A   1      32.252  30.111  25.101  1.00  0.00    -0.352 N 
ATOM     74  C   UNL A   1      32.658  28.988  24.433  1.00  0.00     0.251 C 
ATOM     75  H   UNL A   1      32.333  30.955  24.599  1.00  0.00     0.163 HD
ATOM     76  O   UNL A   1      33.323  29.071  23.407  1.00  0.00    -0.269 OA
BRANCH  74  77
ATOM     77  C   UNL A   1      32.298  27.659  24.953  1.00  0.00     0.042 A 
ATOM     78  C   UNL A   1      33.218  26.926  25.712  1.00  0.00     0.015 A 
ATOM     79  C   UNL A   1      31.005  27.180  24.738  1.00  0.00     0.054 A 
ATOM     80  C   UNL A   1      32.840  25.697  26.253  1.00  0.00     0.024 A 
ATOM     81  C   UNL A   1      30.648  25.941  25.260  1.00  0.00     0.142 A 
ATOM     82  C   UNL A   1      31.544  25.214  26.033  1.00  0.00     0.103 A 
ATOM     83  F   UNL A   1      29.419  25.477  25.000  1.00  0.00    -0.206 F 
BRANCH  82  84
ATOM     84  S   UNL A   1      31.078  23.659  26.729  1.00  0.00     0.186 S 
ATOM     85  O   UNL A   1      32.154  23.319  27.645  1.00  0.00    -0.223 OA
ATOM     86  O   UNL A   1      29.730  23.829  27.247  1.00  0.00    -0.223 OA
BRANCH  84  87
ATOM     87  C   UNL A   1      31.038  22.421  25.445  1.00  0.00     0.188 C 
BRANCH  87  88
ATOM     88  C   UNL A   1      32.041  22.669  24.361  1.00  0.00     0.020 A 
ATOM     89  C   UNL A   1      31.842  23.213  23.104  1.00  0.00     0.016 A 
ATOM     90  S   UNL A   1      33.708  22.389  24.652  1.00  0.00    -0.148 S 
ATOM     91  C   UNL A   1      33.054  23.364  22.373  1.00  0.00     0.012 A 
ATOM     92  C   UNL A   1      34.148  22.964  23.105  1.00  0.00     0.065 A 
ENDBRANCH  87  88
ENDBRANCH  84  87
ENDBRANCH  82  84
ENDBRANCH  74  77
ENDBRANCH  72  73
ENDBRANCH   1  72
TORSDOF 13
ENDMDL
MODEL 3
REMARK VINA RESULT:     -12.4      4.832      9.990
REMARK SMILES O=C(NCCCNC(=O)c1ccc(S(=O)(=O)Cc2cccs2)c(F)c1)c1ccc(-c2c3nc(c(-c4c(F)c(F)c(F)c(F)c4F)c4ccc([nH]4)c(-c4c(F)c(F)c(F)c(F)c4F)c4nc(c(-c5c(F)c(F)c(F)c(F)c5F)c5ccc2[nH]5)C=C4)C=C3)cc1
REMARK SMILES IDX 5 1 4 2 3 3 1 4 2 5 26 7 27 8 88 9 28 10 87 11 29 12 30 13
REMARK SMILES IDX 31 14 81 15 32 16 86 17 80 18 82 19 33 20 85 21 79 22 78 23
REMARK SMILES IDX 34 25 66 26 46 27 65 28 47 29 50 30 64 31 83 32 48 33 49 34
REMARK SMILES IDX 63 36 84 37 51 38 35 39 36 40 44 41 37 42 38 43 42 44 45 45
REMARK SMILES IDX 39 46 40 47 43 48 41 49 67 50 68 51 76 52 69 53 70 54 74 55
REMARK SMILES IDX 77 56 71 57 72 58 75 59 73 60 52 61 53 62 61 63 54 64 55 65
REMARK SMILES IDX 59 66 62 67 56 68 57 69 60 70 58 71 6 72 7 73 8 74 9 76
REMARK SMILES IDX 10 77 11 78 25 79 12 80 23 81 13 82 24 83 14 84 15 85 16 86
REMARK SMILES IDX 17 87 18 88 19 89 22 90 20 91 21 92
REMARK H PARENT 3 6 82 24 50 35 7 75
REMARK Flexibility Score: inf
ROOT
ATOM      1  C   UNL A   1      37.877  19.754  24.861  1.00  0.00     0.042 C 
ENDROOT
BRANCH   1   2
ATOM      2  C   UNL A   1      39.017  20.186  25.777  1.00  0.00     0.118 C 
BRANCH   2   3
ATOM      3  N   UNL A   1      40.097  19.209  25.847  1.00  0.00    -0.352 N 
ATOM      4  O   UNL A   1      42.200  18.409  25.896  1.00  0.00    -0.269 OA
ATOM      5  C   UNL A   1      41.449  19.370  26.042  1.00  0.00     0.251 C 
ATOM      6  H   UNL A   1      39.810  18.275  25.734  1.00  0.00     0.163 HD
BRANCH   5   7
ATOM      7  C   UNL A   1      42.012  20.692  26.394  1.00  0.00     0.039 A 
ATOM      8  C   UNL A   1      42.271  21.034  27.719  1.00  0.00     0.014 A 
ATOM      9  C   UNL A   1      42.307  21.602  25.372  1.00  0.00     0.014 A 
ATOM     10  C   UNL A   1      42.633  22.339  28.038  1.00  0.00     0.010 A 
ATOM     11  C   UNL A   1      42.776  22.881  25.688  1.00  0.00     0.010 A 
ATOM     12  C   UNL A   1      42.893  23.278  27.028  1.00  0.00    -0.014 A 
BRANCH  12  13
ATOM     13  C   UNL A   1      43.306  24.654  27.411  1.00  0.00     0.031 A 
ATOM     14  C   UNL A   1      44.692  25.160  27.120  1.00  0.00     0.074 A 
ATOM     15  C   UNL A   1      42.395  25.475  27.970  1.00  0.00     0.049 A 
ATOM     16  N   UNL A   1      45.195  26.353  27.327  1.00  0.00    -0.248 NA
ATOM     17  C   UNL A   1      45.642  24.209  26.524  1.00  0.00     0.031 C 
ATOM     18  C   UNL A   1      41.022  25.096  28.310  1.00  0.00     0.029 A 
ATOM     19  N   UNL A   1      42.468  26.800  28.316  1.00  0.00    -0.354 N 
ATOM     20  C   UNL A   1      46.516  26.290  26.904  1.00  0.00     0.074 A 
ATOM     21  C   UNL A   1      46.751  24.933  26.459  1.00  0.00     0.031 C 
ATOM     22  C   UNL A   1      40.365  26.176  28.751  1.00  0.00     0.029 A 
ATOM     23  C   UNL A   1      41.282  27.309  28.786  1.00  0.00     0.049 A 
ATOM     24  H   UNL A   1      43.292  27.335  28.235  1.00  0.00     0.167 HD
ATOM     25  C   UNL A   1      47.443  27.278  26.877  1.00  0.00     0.037 A 
ATOM     26  C   UNL A   1      40.966  28.549  29.203  1.00  0.00     0.037 A 
ATOM     27  C   UNL A   1      47.199  28.633  27.303  1.00  0.00     0.049 A 
ATOM     28  C   UNL A   1      42.014  29.624  29.171  1.00  0.00     0.074 A 
ATOM     29  C   UNL A   1      48.072  29.707  27.298  1.00  0.00     0.029 A 
ATOM     30  N   UNL A   1      45.994  29.100  27.809  1.00  0.00    -0.354 N 
ATOM     31  N   UNL A   1      43.254  29.552  28.757  1.00  0.00    -0.248 NA
ATOM     32  C   UNL A   1      41.619  30.949  29.668  1.00  0.00     0.031 C 
ATOM     33  C   UNL A   1      47.409  30.813  27.839  1.00  0.00     0.029 A 
ATOM     34  C   UNL A   1      46.106  30.443  28.132  1.00  0.00     0.049 A 
ATOM     35  H   UNL A   1      45.180  28.557  27.921  1.00  0.00     0.167 HD
ATOM     36  C   UNL A   1      43.787  30.822  28.927  1.00  0.00     0.074 A 
ATOM     37  C   UNL A   1      42.727  31.650  29.466  1.00  0.00     0.031 C 
ATOM     38  C   UNL A   1      45.042  31.257  28.664  1.00  0.00     0.037 A 
BRANCH  25  39
ATOM     39  C   UNL A   1      48.816  26.939  26.373  1.00  0.00     0.064 A 
ATOM     40  C   UNL A   1      49.133  27.087  25.013  1.00  0.00     0.173 A 
ATOM     41  C   UNL A   1      49.800  26.406  27.219  1.00  0.00     0.173 A 
ATOM     42  F   UNL A   1      48.226  27.585  24.159  1.00  0.00    -0.203 F 
ATOM     43  C   UNL A   1      50.377  26.703  24.519  1.00  0.00     0.198 A 
ATOM     44  C   UNL A   1      51.054  26.050  26.727  1.00  0.00     0.198 A 
ATOM     45  F   UNL A   1      49.553  26.254  28.530  1.00  0.00    -0.203 F 
ATOM     46  F   UNL A   1      50.644  26.826  23.211  1.00  0.00    -0.200 F 
ATOM     47  C   UNL A   1      51.338  26.189  25.377  1.00  0.00     0.200 A 
ATOM     48  F   UNL A   1      51.989  25.575  27.561  1.00  0.00    -0.200 F 
ATOM     49  F   UNL A   1      52.539  25.832  24.902  1.00  0.00    -0.200 F 
ENDBRANCH  25  39
BRANCH  26  50
ATOM     50  C   UNL A   1      39.582  28.828  29.662  1.00  0.00     0.064 A 
ATOM     51  C   UNL A   1      38.618  29.352  28.788  1.00  0.00     0.173 A 
ATOM     52  C   UNL A   1      39.212  28.631  31.000  1.00  0.00     0.173 A 
ATOM     53  F   UNL A   1      38.925  29.565  27.500  1.00  0.00    -0.203 F 
ATOM     54  C   UNL A   1      37.346  29.695  29.240  1.00  0.00     0.198 A 
ATOM     55  C   UNL A   1      37.931  28.948  31.445  1.00  0.00     0.198 A 
ATOM     56  F   UNL A   1      40.095  28.118  31.869  1.00  0.00    -0.203 F 
ATOM     57  F   UNL A   1      36.460  30.237  28.394  1.00  0.00    -0.200 F 
ATOM     58  C   UNL A   1      37.003  29.490  30.568  1.00  0.00     0.200 A 
ATOM     59  F   UNL A   1      37.596  28.730  32.724  1.00  0.00    -0.200 F 
ATOM     60  F   UNL A   1      35.778  29.816  31.003  1.00  0.00    -0.200 F 
ENDBRANCH  26  50
BRANCH  38  61
ATOM     61  C   UNL A   1      45.342  32.703  28.929  1.00  0.00     0.064 A 
ATOM     62  C   UNL A   1      45.152  33.663  27.923  1.00  0.00     0.173 A 
ATOM     63  C   UNL A   1      45.876  33.131  30.153  1.00  0.00     0.173 A 
ATOM     64  F   UNL A   1      44.651  33.304  26.731  1.00  0.00    -0.203 F 
ATOM     65  C   UNL A   1      45.496  34.996  28.130  1.00  0.00     0.198 A 
ATOM     66  C   UNL A   1      46.192  34.470  30.366  1.00  0.00     0.198 A 
ATOM     67  F   UNL A   1      46.063  32.253  31.151  1.00  0.00    -0.203 F 
ATOM     68  F   UNL A   1      45.332  35.889  27.144  1.00  0.00    -0.200 F 
ATOM     69  C   UNL A   1      46.010  35.399  29.353  1.00  0.00     0.200 A 
ATOM     70  F   UNL A   1      46.665  34.863  31.557  1.00  0.00    -0.200 F 
ATOM     71  F   UNL A   1      46.328  36.685  29.556  1.00  0.00    -0.200 F 
ENDBRANCH  38  61
ENDBRANCH  12  13
ENDBRANCH   5   7
ENDBRANCH   2   3
ENDBRANCH   1   2
BRANCH   1  72
ATOM     72  C   UNL A   1      36.785  20.805  24.696  1.00  0.00     0.118 C 
BRANCH  72  73
ATOM     73  N   UNL A   1      35.782  20.706  25.744  1.00  0.00    -0.352 N 
ATOM     74  C   UNL A   1      34.725  21.535  26.009  1.00  0.00     0.251 C 
ATOM     75  H   UNL A   1      35.876  19.935  26.349  1.00  0.00     0.163 HD
ATOM     76  O   UNL A   1      34.124  21.468  27.074  1.00  0.00    -0.269 OA
BRANCH  74  77
ATOM     77  C   UNL A   1      34.305  22.525  25.004  1.00  0.00     0.042 A 
ATOM     78  C   UNL A   1      34.728  23.856  25.106  1.00  0.00     0.015 A 
ATOM     79  C   UNL A   1      33.543  22.099  23.916  1.00  0.00     0.054 A 
ATOM     80  C   UNL A   1      34.377  24.768  24.111  1.00  0.00     0.024 A 
ATOM     81  C   UNL A   1      33.176  23.023  22.944  1.00  0.00     0.142 A 
ATOM     82  C   UNL A   1      33.607  24.341  23.022  1.00  0.00     0.103 A 
ATOM     83  F   UNL A   1      32.402  22.604  21.935  1.00  0.00    -0.206 F 
BRANCH  82  84
ATOM     84  S   UNL A   1      33.174  25.507  21.768  1.00  0.00     0.186 S 
ATOM     85  O   UNL A   1      34.028  26.657  22.011  1.00  0.00    -0.223 OA
ATOM     86  O   UNL A   1      33.274  24.802  20.500  1.00  0.00    -0.223 OA
BRANCH  84  87
ATOM     87  C   UNL A   1      31.481  26.022  21.995  1.00  0.00     0.188 C 
BRANCH  87  88
ATOM     88  C   UNL A   1      31.074  26.079  23.435  1.00  0.00     0.020 A 
ATOM     89  C   UNL A   1      30.392  25.133  24.180  1.00  0.00     0.016 A 
ATOM     90  S   UNL A   1      31.571  27.394  24.418  1.00  0.00    -0.148 S 
ATOM     91  C   UNL A   1      30.251  25.508  25.546  1.00  0.00     0.012 A 
ATOM     92  C   UNL A   1      30.859  26.713  25.813  1.00  0.00     0.065 A 
ENDBRANCH  87  88
ENDBRANCH  84  87
ENDBRANCH  82  84
ENDBRANCH  74  77
ENDBRANCH  72  73
ENDBRANCH   1  72
TORSDOF 13
ENDMDL
