MODEL 1
REMARK VINA RESULT:     -14.3      0.000      0.000
REMARK SMILES Cc1nc2cc(S(=O)(=O)N3CCC(C(=O)NCCCNC(=O)c4ccc(-c5c6nc(c(-c7c(F)c(F)c(F)c(F)c7F)c7ccc([nH]7)c(-c7c(F)c(F)c(F)c(F)c7F)c7nc(c(-c8c(F)c(F)c(F)c(F)c8F)c8ccc5[nH]8)C=C7)C=C6)cc4)CC3)ccc2n1C1CCCC1
REMARK SMILES IDX 17 1 16 2 14 3 15 4 13 6 10 7 11 8 87 9 12 10 86 11 7 12
REMARK SMILES IDX 8 13 9 14 6 15 1 16 2 17 3 18 91 19 4 20 90 21 5 22 89 23
REMARK SMILES IDX 88 24 92 25 93 26 96 27 94 28 95 29 18 30 19 31 20 32 21 33
REMARK SMILES IDX 22 35 23 36 24 37 85 38 25 39 84 40 26 41 27 42 28 43 78 44
REMARK SMILES IDX 29 45 83 46 77 47 79 48 30 49 82 50 76 51 75 52 31 54 63 55
REMARK SMILES IDX 43 56 62 57 44 58 47 59 61 60 80 61 45 62 46 63 60 65 81 66
REMARK SMILES IDX 48 67 32 68 33 69 41 70 34 71 35 72 39 73 42 74 36 75 37 76
REMARK SMILES IDX 40 77 38 78 64 79 65 80 73 81 66 82 67 83 71 84 74 85 68 86
REMARK SMILES IDX 69 87 72 88 70 89 49 90 50 91 58 92 51 93 52 94 56 95 59 96
REMARK SMILES IDX 53 97 54 98 57 99 55 100
REMARK H PARENT 16 5 20 34 79 53 47 64
REMARK Flexibility Score: inf
ROOT
ATOM      1  C   UNL A   1      38.901  23.104  26.698  1.00  0.00     0.117 C 
ENDROOT
BRANCH   1   2
ATOM      2  N   UNL A   1      38.499  22.453  25.457  1.00  0.00    -0.356 N 
ATOM      3  C   UNL A   1      37.274  22.166  24.941  1.00  0.00     0.223 C 
ATOM      4  O   UNL A   1      37.221  21.563  23.869  1.00  0.00    -0.275 OA
ATOM      5  H   UNL A   1      39.251  22.171  24.888  1.00  0.00     0.163 HD
BRANCH   3   6
ATOM      6  C   UNL A   1      36.002  22.587  25.654  1.00  0.00     0.081 C 
ATOM      7  N   UNL A   1      33.185  23.266  25.605  1.00  0.00    -0.198 NA
ATOM      8  C   UNL A   1      34.180  24.363  25.671  1.00  0.00     0.103 C 
ATOM      9  C   UNL A   1      33.572  21.889  25.991  1.00  0.00     0.103 C 
ATOM     10  C   UNL A   1      35.553  23.963  25.185  1.00  0.00     0.030 C 
ATOM     11  C   UNL A   1      34.955  21.485  25.536  1.00  0.00     0.030 C 
BRANCH   7  12
ATOM     12  S   UNL A   1      31.605  23.725  26.131  1.00  0.00     0.243 S 
ATOM     13  O   UNL A   1      31.627  23.747  27.583  1.00  0.00    -0.207 OA
ATOM     14  O   UNL A   1      30.655  22.932  25.394  1.00  0.00    -0.207 OA
BRANCH  12  15
ATOM     15  C   UNL A   1      31.387  25.416  25.601  1.00  0.00     0.085 A 
ATOM     16  C   UNL A   1      31.619  31.347  26.309  1.00  0.00     0.088 C 
ATOM     17  C   UNL A   1      31.513  29.905  25.970  1.00  0.00     0.106 A 
ATOM     18  N   UNL A   1      31.867  28.919  26.772  1.00  0.00    -0.233 NA
ATOM     19  N   UNL A   1      31.033  29.420  24.771  1.00  0.00    -0.325 N 
ATOM     20  C   UNL A   1      31.592  27.761  26.098  1.00  0.00     0.090 A 
ATOM     21  C   UNL A   1      31.061  28.045  24.845  1.00  0.00     0.068 A 
ATOM     22  C   UNL A   1      31.764  26.426  26.498  1.00  0.00     0.052 A 
ATOM     23  C   UNL A   1      30.672  27.052  23.952  1.00  0.00     0.030 A 
ATOM     24  C   UNL A   1      30.856  25.738  24.350  1.00  0.00     0.024 A 
BRANCH  19  25
ATOM     25  C   UNL A   1      30.548  30.192  23.641  1.00  0.00     0.089 C 
ATOM     26  C   UNL A   1      30.234  29.369  22.387  1.00  0.00     0.025 C 
ATOM     27  C   UNL A   1      29.254  30.961  23.935  1.00  0.00     0.025 C 
ATOM     28  C   UNL A   1      29.281  30.244  21.587  1.00  0.00     0.002 C 
ATOM     29  C   UNL A   1      28.544  31.119  22.595  1.00  0.00     0.002 C 
ENDBRANCH  19  25
ENDBRANCH  12  15
ENDBRANCH   7  12
ENDBRANCH   3   6
ENDBRANCH   1   2
BRANCH   1  30
ATOM     30  C   UNL A   1      40.290  22.665  27.153  1.00  0.00     0.042 C 
BRANCH  30  31
ATOM     31  C   UNL A   1      41.006  21.786  26.131  1.00  0.00     0.118 C 
BRANCH  31  32
ATOM     32  N   UNL A   1      42.078  22.471  25.441  1.00  0.00    -0.352 N 
ATOM     33  C   UNL A   1      42.616  23.721  25.505  1.00  0.00     0.251 C 
ATOM     34  H   UNL A   1      42.521  21.902  24.772  1.00  0.00     0.163 HD
ATOM     35  O   UNL A   1      43.588  23.929  24.775  1.00  0.00    -0.269 OA
BRANCH  33  36
ATOM     36  C   UNL A   1      42.069  24.847  26.306  1.00  0.00     0.039 A 
ATOM     37  C   UNL A   1      41.197  25.837  25.844  1.00  0.00     0.014 A 
ATOM     38  C   UNL A   1      42.581  24.952  27.611  1.00  0.00     0.014 A 
ATOM     39  C   UNL A   1      40.984  26.988  26.590  1.00  0.00     0.010 A 
ATOM     40  C   UNL A   1      42.342  26.079  28.377  1.00  0.00     0.010 A 
ATOM     41  C   UNL A   1      41.618  27.128  27.821  1.00  0.00    -0.014 A 
BRANCH  41  42
ATOM     42  C   UNL A   1      41.523  28.405  28.512  1.00  0.00     0.031 A 
ATOM     43  C   UNL A   1      42.630  29.373  28.256  1.00  0.00     0.074 A 
ATOM     44  C   UNL A   1      40.421  28.701  29.231  1.00  0.00     0.049 A 
ATOM     45  N   UNL A   1      43.364  30.009  29.113  1.00  0.00    -0.248 NA
ATOM     46  C   UNL A   1      43.025  29.598  26.855  1.00  0.00     0.031 C 
ATOM     47  C   UNL A   1      39.178  27.931  29.362  1.00  0.00     0.029 A 
ATOM     48  N   UNL A   1      40.148  29.829  29.933  1.00  0.00    -0.354 N 
ATOM     49  C   UNL A   1      44.230  30.813  28.369  1.00  0.00     0.074 A 
ATOM     50  C   UNL A   1      44.042  30.449  26.988  1.00  0.00     0.031 C 
ATOM     51  C   UNL A   1      38.216  28.720  29.891  1.00  0.00     0.029 A 
ATOM     52  C   UNL A   1      38.809  29.992  30.258  1.00  0.00     0.049 A 
ATOM     53  H   UNL A   1      40.841  30.480  30.190  1.00  0.00     0.167 HD
ATOM     54  C   UNL A   1      44.952  31.826  28.926  1.00  0.00     0.037 A 
ATOM     55  C   UNL A   1      38.234  31.132  30.715  1.00  0.00     0.037 A 
ATOM     56  C   UNL A   1      45.066  31.673  30.348  1.00  0.00     0.049 A 
ATOM     57  C   UNL A   1      39.327  31.987  31.252  1.00  0.00     0.074 A 
ATOM     58  C   UNL A   1      45.704  30.759  31.163  1.00  0.00     0.029 A 
ATOM     59  N   UNL A   1      44.180  32.338  31.160  1.00  0.00    -0.354 N 
ATOM     60  N   UNL A   1      40.015  31.684  32.320  1.00  0.00    -0.248 NA
ATOM     61  C   UNL A   1      39.981  32.902  30.326  1.00  0.00     0.031 C 
ATOM     62  C   UNL A   1      44.818  30.569  32.263  1.00  0.00     0.029 A 
ATOM     63  C   UNL A   1      43.731  31.424  32.084  1.00  0.00     0.049 A 
ATOM     64  H   UNL A   1      43.916  33.283  31.092  1.00  0.00     0.167 HD
ATOM     65  C   UNL A   1      41.323  32.034  32.016  1.00  0.00     0.074 A 
ATOM     66  C   UNL A   1      41.230  32.833  30.795  1.00  0.00     0.031 C 
ATOM     67  C   UNL A   1      42.384  31.408  32.602  1.00  0.00     0.037 A 
BRANCH  54  68
ATOM     68  C   UNL A   1      45.364  33.085  28.211  1.00  0.00     0.064 A 
ATOM     69  C   UNL A   1      44.396  34.046  27.855  1.00  0.00     0.173 A 
ATOM     70  C   UNL A   1      46.635  33.252  27.621  1.00  0.00     0.173 A 
ATOM     71  F   UNL A   1      43.148  33.974  28.342  1.00  0.00    -0.203 F 
ATOM     72  C   UNL A   1      44.668  35.063  26.934  1.00  0.00     0.198 A 
ATOM     73  C   UNL A   1      46.917  34.296  26.740  1.00  0.00     0.198 A 
ATOM     74  F   UNL A   1      47.615  32.357  27.794  1.00  0.00    -0.203 F 
ATOM     75  F   UNL A   1      43.689  35.890  26.545  1.00  0.00    -0.200 F 
ATOM     76  C   UNL A   1      45.928  35.183  26.374  1.00  0.00     0.200 A 
ATOM     77  F   UNL A   1      48.139  34.387  26.197  1.00  0.00    -0.200 F 
ATOM     78  F   UNL A   1      46.175  36.122  25.451  1.00  0.00    -0.200 F 
ENDBRANCH  54  68
BRANCH  55  79
ATOM     79  C   UNL A   1      36.886  31.646  30.378  1.00  0.00     0.064 A 
ATOM     80  C   UNL A   1      36.052  32.221  31.347  1.00  0.00     0.173 A 
ATOM     81  C   UNL A   1      36.485  31.806  29.034  1.00  0.00     0.173 A 
ATOM     82  F   UNL A   1      36.389  32.164  32.644  1.00  0.00    -0.203 F 
ATOM     83  C   UNL A   1      34.887  32.914  30.994  1.00  0.00     0.198 A 
ATOM     84  C   UNL A   1      35.321  32.491  28.684  1.00  0.00     0.198 A 
ATOM     85  F   UNL A   1      37.263  31.379  28.028  1.00  0.00    -0.203 F 
ATOM     86  F   UNL A   1      34.137  33.491  31.944  1.00  0.00    -0.200 F 
ATOM     87  C   UNL A   1      34.526  33.052  29.663  1.00  0.00     0.200 A 
ATOM     88  F   UNL A   1      35.008  32.651  27.390  1.00  0.00    -0.200 F 
ATOM     89  F   UNL A   1      33.439  33.758  29.323  1.00  0.00    -0.200 F 
ENDBRANCH  55  79
BRANCH  67  90
ATOM     90  C   UNL A   1      42.100  30.423  33.706  1.00  0.00     0.064 A 
ATOM     91  C   UNL A   1      41.819  29.064  33.473  1.00  0.00     0.173 A 
ATOM     92  C   UNL A   1      42.300  30.812  35.035  1.00  0.00     0.173 A 
ATOM     93  F   UNL A   1      41.731  28.585  32.229  1.00  0.00    -0.203 F 
ATOM     94  C   UNL A   1      41.701  28.152  34.520  1.00  0.00     0.198 A 
ATOM     95  C   UNL A   1      42.220  29.893  36.079  1.00  0.00     0.198 A 
ATOM     96  F   UNL A   1      42.641  32.080  35.318  1.00  0.00    -0.203 F 
ATOM     97  F   UNL A   1      41.431  26.864  34.262  1.00  0.00    -0.200 F 
ATOM     98  C   UNL A   1      41.910  28.567  35.823  1.00  0.00     0.200 A 
ATOM     99  F   UNL A   1      42.481  30.286  37.333  1.00  0.00    -0.200 F 
ATOM    100  F   UNL A   1      41.848  27.683  36.828  1.00  0.00    -0.200 F 
ENDBRANCH  67  90
ENDBRANCH  41  42
ENDBRANCH  33  36
ENDBRANCH  31  32
ENDBRANCH  30  31
ENDBRANCH   1  30
TORSDOF 13
ENDMDL
MODEL 2
REMARK VINA RESULT:     -14.2      3.591      9.406
REMARK SMILES Cc1nc2cc(S(=O)(=O)N3CCC(C(=O)NCCCNC(=O)c4ccc(-c5c6nc(c(-c7c(F)c(F)c(F)c(F)c7F)c7ccc([nH]7)c(-c7c(F)c(F)c(F)c(F)c7F)c7nc(c(-c8c(F)c(F)c(F)c(F)c8F)c8ccc5[nH]8)C=C7)C=C6)cc4)CC3)ccc2n1C1CCCC1
REMARK SMILES IDX 17 1 16 2 14 3 15 4 13 6 10 7 11 8 87 9 12 10 86 11 7 12
REMARK SMILES IDX 8 13 9 14 6 15 1 16 2 17 3 18 91 19 4 20 90 21 5 22 89 23
REMARK SMILES IDX 88 24 92 25 93 26 96 27 94 28 95 29 18 30 19 31 20 32 21 33
REMARK SMILES IDX 22 35 23 36 24 37 85 38 25 39 84 40 26 41 27 42 28 43 78 44
REMARK SMILES IDX 29 45 83 46 77 47 79 48 30 49 82 50 76 51 75 52 31 54 63 55
REMARK SMILES IDX 43 56 62 57 44 58 47 59 61 60 80 61 45 62 46 63 60 65 81 66
REMARK SMILES IDX 48 67 32 68 33 69 41 70 34 71 35 72 39 73 42 74 36 75 37 76
REMARK SMILES IDX 40 77 38 78 64 79 65 80 73 81 66 82 67 83 71 84 74 85 68 86
REMARK SMILES IDX 69 87 72 88 70 89 49 90 50 91 58 92 51 93 52 94 56 95 59 96
REMARK SMILES IDX 53 97 54 98 57 99 55 100
REMARK H PARENT 16 5 20 34 79 53 47 64
REMARK Flexibility Score: inf
ROOT
ATOM      1  C   UNL A   1      35.094  30.095  27.503  1.00  0.00     0.117 C 
ENDROOT
BRANCH   1   2
ATOM      2  N   UNL A   1      33.665  29.944  27.748  1.00  0.00    -0.356 N 
ATOM      3  C   UNL A   1      32.732  29.127  27.191  1.00  0.00     0.223 C 
ATOM      4  O   UNL A   1      31.564  29.237  27.566  1.00  0.00    -0.275 OA
ATOM      5  H   UNL A   1      33.310  30.544  28.445  1.00  0.00     0.163 HD
BRANCH   3   6
ATOM      6  C   UNL A   1      33.114  28.094  26.148  1.00  0.00     0.081 C 
ATOM      7  N   UNL A   1      32.553  26.649  23.699  1.00  0.00    -0.198 NA
ATOM      8  C   UNL A   1      32.297  25.977  24.996  1.00  0.00     0.103 C 
ATOM      9  C   UNL A   1      33.459  27.820  23.636  1.00  0.00     0.103 C 
ATOM     10  C   UNL A   1      32.126  26.936  26.149  1.00  0.00     0.030 C 
ATOM     11  C   UNL A   1      33.318  28.774  24.799  1.00  0.00     0.030 C 
BRANCH   7  12
ATOM     12  S   UNL A   1      32.720  25.559  22.369  1.00  0.00     0.243 S 
ATOM     13  O   UNL A   1      33.817  26.048  21.551  1.00  0.00    -0.207 OA
ATOM     14  O   UNL A   1      31.406  25.331  21.826  1.00  0.00    -0.207 OA
BRANCH  12  15
ATOM     15  C   UNL A   1      33.263  24.011  23.073  1.00  0.00     0.085 A 
ATOM     16  C   UNL A   1      37.363  20.201  25.173  1.00  0.00     0.088 C 
ATOM     17  C   UNL A   1      36.226  21.030  24.699  1.00  0.00     0.106 A 
ATOM     18  N   UNL A   1      36.337  22.264  24.245  1.00  0.00    -0.233 NA
ATOM     19  N   UNL A   1      34.912  20.612  24.678  1.00  0.00    -0.325 N 
ATOM     20  C   UNL A   1      35.074  22.658  23.896  1.00  0.00     0.090 A 
ATOM     21  C   UNL A   1      34.163  21.639  24.148  1.00  0.00     0.068 A 
ATOM     22  C   UNL A   1      34.632  23.872  23.348  1.00  0.00     0.052 A 
ATOM     23  C   UNL A   1      32.806  21.760  23.868  1.00  0.00     0.030 A 
ATOM     24  C   UNL A   1      32.376  22.966  23.339  1.00  0.00     0.024 A 
BRANCH  19  25
ATOM     25  C   UNL A   1      34.393  19.321  25.095  1.00  0.00     0.089 C 
ATOM     26  C   UNL A   1      32.959  19.348  25.633  1.00  0.00     0.025 C 
ATOM     27  C   UNL A   1      34.366  18.279  23.970  1.00  0.00     0.025 C 
ATOM     28  C   UNL A   1      32.471  17.914  25.487  1.00  0.00     0.002 C 
ATOM     29  C   UNL A   1      33.244  17.309  24.320  1.00  0.00     0.002 C 
ENDBRANCH  19  25
ENDBRANCH  12  15
ENDBRANCH   7  12
ENDBRANCH   3   6
ENDBRANCH   1   2
BRANCH   1  30
ATOM     30  C   UNL A   1      35.620  31.444  27.985  1.00  0.00     0.042 C 
BRANCH  30  31
ATOM     31  C   UNL A   1      34.572  32.267  28.727  1.00  0.00     0.118 C 
BRANCH  31  32
ATOM     32  N   UNL A   1      34.758  32.268  30.163  1.00  0.00    -0.352 N 
ATOM     33  C   UNL A   1      35.691  31.750  31.010  1.00  0.00     0.251 C 
ATOM     34  H   UNL A   1      34.048  32.758  30.636  1.00  0.00     0.163 HD
ATOM     35  O   UNL A   1      35.541  32.013  32.205  1.00  0.00    -0.269 OA
BRANCH  33  36
ATOM     36  C   UNL A   1      36.795  30.840  30.611  1.00  0.00     0.039 A 
ATOM     37  C   UNL A   1      36.723  29.446  30.529  1.00  0.00     0.014 A 
ATOM     38  C   UNL A   1      38.038  31.465  30.407  1.00  0.00     0.014 A 
ATOM     39  C   UNL A   1      37.881  28.688  30.428  1.00  0.00     0.010 A 
ATOM     40  C   UNL A   1      39.192  30.717  30.266  1.00  0.00     0.010 A 
ATOM     41  C   UNL A   1      39.114  29.333  30.370  1.00  0.00    -0.014 A 
BRANCH  41  42
ATOM     42  C   UNL A   1      40.324  28.529  30.436  1.00  0.00     0.031 A 
ATOM     43  C   UNL A   1      40.894  28.313  31.799  1.00  0.00     0.074 A 
ATOM     44  C   UNL A   1      40.797  27.930  29.324  1.00  0.00     0.049 A 
ATOM     45  N   UNL A   1      42.106  28.512  32.211  1.00  0.00    -0.248 NA
ATOM     46  C   UNL A   1      39.967  27.898  32.865  1.00  0.00     0.031 C 
ATOM     47  C   UNL A   1      40.195  27.877  27.986  1.00  0.00     0.029 A 
ATOM     48  N   UNL A   1      41.895  27.144  29.188  1.00  0.00    -0.354 N 
ATOM     49  C   UNL A   1      42.134  28.128  33.553  1.00  0.00     0.074 A 
ATOM     50  C   UNL A   1      40.771  27.851  33.927  1.00  0.00     0.031 C 
ATOM     51  C   UNL A   1      40.805  26.915  27.258  1.00  0.00     0.029 A 
ATOM     52  C   UNL A   1      41.918  26.388  28.025  1.00  0.00     0.049 A 
ATOM     53  H   UNL A   1      42.615  27.112  29.859  1.00  0.00     0.167 HD
ATOM     54  C   UNL A   1      43.296  27.934  34.237  1.00  0.00     0.037 A 
ATOM     55  C   UNL A   1      42.749  25.348  27.770  1.00  0.00     0.037 A 
ATOM     56  C   UNL A   1      44.403  28.581  33.593  1.00  0.00     0.049 A 
ATOM     57  C   UNL A   1      43.903  25.471  28.701  1.00  0.00     0.074 A 
ATOM     58  C   UNL A   1      44.743  29.902  33.375  1.00  0.00     0.029 A 
ATOM     59  N   UNL A   1      45.197  27.849  32.745  1.00  0.00    -0.354 N 
ATOM     60  N   UNL A   1      44.782  26.434  28.629  1.00  0.00    -0.248 NA
ATOM     61  C   UNL A   1      43.788  24.826  30.002  1.00  0.00     0.031 C 
ATOM     62  C   UNL A   1      45.323  29.920  32.075  1.00  0.00     0.029 A 
ATOM     63  C   UNL A   1      45.361  28.606  31.609  1.00  0.00     0.049 A 
ATOM     64  H   UNL A   1      45.574  26.956  32.916  1.00  0.00     0.167 HD
ATOM     65  C   UNL A   1      45.037  26.787  29.946  1.00  0.00     0.074 A 
ATOM     66  C   UNL A   1      44.439  25.722  30.750  1.00  0.00     0.031 C 
ATOM     67  C   UNL A   1      45.446  28.046  30.282  1.00  0.00     0.037 A 
BRANCH  54  68
ATOM     68  C   UNL A   1      43.475  26.961  35.372  1.00  0.00     0.064 A 
ATOM     69  C   UNL A   1      43.814  27.427  36.658  1.00  0.00     0.173 A 
ATOM     70  C   UNL A   1      43.595  25.568  35.178  1.00  0.00     0.173 A 
ATOM     71  F   UNL A   1      43.756  28.736  36.949  1.00  0.00    -0.203 F 
ATOM     72  C   UNL A   1      44.292  26.569  37.653  1.00  0.00     0.198 A 
ATOM     73  C   UNL A   1      44.025  24.709  36.188  1.00  0.00     0.198 A 
ATOM     74  F   UNL A   1      43.400  25.005  33.978  1.00  0.00    -0.203 F 
ATOM     75  F   UNL A   1      44.702  27.070  38.826  1.00  0.00    -0.200 F 
ATOM     76  C   UNL A   1      44.400  25.210  37.415  1.00  0.00     0.200 A 
ATOM     77  F   UNL A   1      44.137  23.397  35.933  1.00  0.00    -0.200 F 
ATOM     78  F   UNL A   1      44.908  24.394  38.349  1.00  0.00    -0.200 F 
ENDBRANCH  54  68
BRANCH  55  79
ATOM     79  C   UNL A   1      42.415  24.099  27.046  1.00  0.00     0.064 A 
ATOM     80  C   UNL A   1      43.312  23.504  26.148  1.00  0.00     0.173 A 
ATOM     81  C   UNL A   1      41.292  23.326  27.411  1.00  0.00     0.173 A 
ATOM     82  F   UNL A   1      44.434  24.147  25.793  1.00  0.00    -0.203 F 
ATOM     83  C   UNL A   1      43.100  22.214  25.646  1.00  0.00     0.198 A 
ATOM     84  C   UNL A   1      41.077  22.043  26.906  1.00  0.00     0.198 A 
ATOM     85  F   UNL A   1      40.427  23.764  28.337  1.00  0.00    -0.203 F 
ATOM     86  F   UNL A   1      44.002  21.658  24.824  1.00  0.00    -0.200 F 
ATOM     87  C   UNL A   1      41.986  21.484  26.029  1.00  0.00     0.200 A 
ATOM     88  F   UNL A   1      40.018  21.334  27.318  1.00  0.00    -0.200 F 
ATOM     89  F   UNL A   1      41.809  20.230  25.588  1.00  0.00    -0.200 F 
ENDBRANCH  55  79
BRANCH  67  90
ATOM     90  C   UNL A   1      45.759  29.006  29.164  1.00  0.00     0.064 A 
ATOM     91  C   UNL A   1      46.998  29.038  28.500  1.00  0.00     0.173 A 
ATOM     92  C   UNL A   1      44.727  29.782  28.624  1.00  0.00     0.173 A 
ATOM     93  F   UNL A   1      48.001  28.239  28.877  1.00  0.00    -0.203 F 
ATOM     94  C   UNL A   1      47.206  29.839  27.378  1.00  0.00     0.198 A 
ATOM     95  C   UNL A   1      44.924  30.555  27.481  1.00  0.00     0.198 A 
ATOM     96  F   UNL A   1      43.501  29.741  29.170  1.00  0.00    -0.203 F 
ATOM     97  F   UNL A   1      48.402  29.846  26.770  1.00  0.00    -0.200 F 
ATOM     98  C   UNL A   1      46.165  30.591  26.865  1.00  0.00     0.200 A 
ATOM     99  F   UNL A   1      43.898  31.234  26.953  1.00  0.00    -0.200 F 
ATOM    100  F   UNL A   1      46.346  31.324  25.758  1.00  0.00    -0.200 F 
ENDBRANCH  67  90
ENDBRANCH  41  42
ENDBRANCH  33  36
ENDBRANCH  31  32
ENDBRANCH  30  31
ENDBRANCH   1  30
TORSDOF 13
ENDMDL
MODEL 3
REMARK VINA RESULT:     -14.1      3.222      9.132
REMARK SMILES Cc1nc2cc(S(=O)(=O)N3CCC(C(=O)NCCCNC(=O)c4ccc(-c5c6nc(c(-c7c(F)c(F)c(F)c(F)c7F)c7ccc([nH]7)c(-c7c(F)c(F)c(F)c(F)c7F)c7nc(c(-c8c(F)c(F)c(F)c(F)c8F)c8ccc5[nH]8)C=C7)C=C6)cc4)CC3)ccc2n1C1CCCC1
REMARK SMILES IDX 17 1 16 2 14 3 15 4 13 6 10 7 11 8 87 9 12 10 86 11 7 12
REMARK SMILES IDX 8 13 9 14 6 15 1 16 2 17 3 18 91 19 4 20 90 21 5 22 89 23
REMARK SMILES IDX 88 24 92 25 93 26 96 27 94 28 95 29 18 30 19 31 20 32 21 33
REMARK SMILES IDX 22 35 23 36 24 37 85 38 25 39 84 40 26 41 27 42 28 43 78 44
REMARK SMILES IDX 29 45 83 46 77 47 79 48 30 49 82 50 76 51 75 52 31 54 63 55
REMARK SMILES IDX 43 56 62 57 44 58 47 59 61 60 80 61 45 62 46 63 60 65 81 66
REMARK SMILES IDX 48 67 32 68 33 69 41 70 34 71 35 72 39 73 42 74 36 75 37 76
REMARK SMILES IDX 40 77 38 78 64 79 65 80 73 81 66 82 67 83 71 84 74 85 68 86
REMARK SMILES IDX 69 87 72 88 70 89 49 90 50 91 58 92 51 93 52 94 56 95 59 96
REMARK SMILES IDX 53 97 54 98 57 99 55 100
REMARK H PARENT 16 5 20 34 79 53 47 64
REMARK Flexibility Score: inf
ROOT
ATOM      1  C   UNL A   1      32.997  32.265  27.339  1.00  0.00     0.117 C 
ENDROOT
BRANCH   1   2
ATOM      2  N   UNL A   1      34.166  31.394  27.355  1.00  0.00    -0.356 N 
ATOM      3  C   UNL A   1      34.323  30.083  27.028  1.00  0.00     0.223 C 
ATOM      4  O   UNL A   1      35.436  29.577  27.173  1.00  0.00    -0.275 OA
ATOM      5  H   UNL A   1      34.994  31.835  27.656  1.00  0.00     0.163 HD
BRANCH   3   6
ATOM      6  C   UNL A   1      33.167  29.265  26.483  1.00  0.00     0.081 C 
ATOM      7  N   UNL A   1      31.919  26.708  25.935  1.00  0.00    -0.198 NA
ATOM      8  C   UNL A   1      32.589  27.425  24.824  1.00  0.00     0.103 C 
ATOM      9  C   UNL A   1      31.512  27.444  27.155  1.00  0.00     0.103 C 
ATOM     10  C   UNL A   1      33.611  28.436  25.287  1.00  0.00     0.030 C 
ATOM     11  C   UNL A   1      32.512  28.479  27.614  1.00  0.00     0.030 C 
BRANCH   7  12
ATOM     12  S   UNL A   1      30.771  25.528  25.412  1.00  0.00     0.243 S 
ATOM     13  O   UNL A   1      30.377  25.885  24.060  1.00  0.00    -0.207 OA
ATOM     14  O   UNL A   1      29.806  25.361  26.469  1.00  0.00    -0.207 OA
BRANCH  12  15
ATOM     15  C   UNL A   1      31.672  23.992  25.288  1.00  0.00     0.085 A 
ATOM     16  C   UNL A   1      36.638  20.678  24.987  1.00  0.00     0.088 C 
ATOM     17  C   UNL A   1      35.317  21.351  25.067  1.00  0.00     0.106 A 
ATOM     18  N   UNL A   1      35.147  22.654  25.196  1.00  0.00    -0.233 NA
ATOM     19  N   UNL A   1      34.104  20.697  25.016  1.00  0.00    -0.325 N 
ATOM     20  C   UNL A   1      33.795  22.863  25.208  1.00  0.00     0.090 A 
ATOM     21  C   UNL A   1      33.117  21.655  25.088  1.00  0.00     0.068 A 
ATOM     22  C   UNL A   1      33.073  24.062  25.311  1.00  0.00     0.052 A 
ATOM     23  C   UNL A   1      31.729  21.573  25.052  1.00  0.00     0.030 A 
ATOM     24  C   UNL A   1      31.025  22.760  25.166  1.00  0.00     0.024 A 
BRANCH  19  25
ATOM     25  C   UNL A   1      33.881  19.268  24.876  1.00  0.00     0.089 C 
ATOM     26  C   UNL A   1      32.981  18.650  25.951  1.00  0.00     0.025 C 
ATOM     27  C   UNL A   1      33.224  18.878  23.547  1.00  0.00     0.025 C 
ATOM     28  C   UNL A   1      32.471  17.361  25.324  1.00  0.00     0.002 C 
ATOM     29  C   UNL A   1      32.465  17.584  23.816  1.00  0.00     0.002 C 
ENDBRANCH  19  25
ENDBRANCH  12  15
ENDBRANCH   7  12
ENDBRANCH   3   6
ENDBRANCH   1   2
BRANCH   1  30
ATOM     30  C   UNL A   1      33.270  33.604  28.019  1.00  0.00     0.042 C 
BRANCH  30  31
ATOM     31  C   UNL A   1      34.587  33.629  28.789  1.00  0.00     0.118 C 
BRANCH  31  32
ATOM     32  N   UNL A   1      34.457  33.172  30.157  1.00  0.00    -0.352 N 
ATOM     33  C   UNL A   1      35.177  32.343  30.964  1.00  0.00     0.251 C 
ATOM     34  H   UNL A   1      33.668  33.548  30.608  1.00  0.00     0.163 HD
ATOM     35  O   UNL A   1      34.774  32.236  32.125  1.00  0.00    -0.269 OA
BRANCH  33  36
ATOM     36  C   UNL A   1      36.328  31.513  30.527  1.00  0.00     0.039 A 
ATOM     37  C   UNL A   1      36.342  30.119  30.416  1.00  0.00     0.014 A 
ATOM     38  C   UNL A   1      37.525  32.219  30.315  1.00  0.00     0.014 A 
ATOM     39  C   UNL A   1      37.544  29.438  30.279  1.00  0.00     0.010 A 
ATOM     40  C   UNL A   1      38.722  31.548  30.139  1.00  0.00     0.010 A 
ATOM     41  C   UNL A   1      38.732  30.160  30.214  1.00  0.00    -0.014 A 
BRANCH  41  42
ATOM     42  C   UNL A   1      39.991  29.433  30.242  1.00  0.00     0.031 A 
ATOM     43  C   UNL A   1      40.642  29.299  31.579  1.00  0.00     0.074 A 
ATOM     44  C   UNL A   1      40.443  28.826  29.126  1.00  0.00     0.049 A 
ATOM     45  N   UNL A   1      41.858  29.585  31.920  1.00  0.00    -0.248 NA
ATOM     46  C   UNL A   1      39.796  28.867  32.705  1.00  0.00     0.031 C 
ATOM     47  C   UNL A   1      39.780  28.691  27.824  1.00  0.00     0.029 A 
ATOM     48  N   UNL A   1      41.579  28.104  28.958  1.00  0.00    -0.354 N 
ATOM     49  C   UNL A   1      41.976  29.250  33.271  1.00  0.00     0.074 A 
ATOM     50  C   UNL A   1      40.654  28.905  33.724  1.00  0.00     0.031 C 
ATOM     51  C   UNL A   1      40.411  27.743  27.095  1.00  0.00     0.029 A 
ATOM     52  C   UNL A   1      41.591  27.310  27.819  1.00  0.00     0.049 A 
ATOM     53  H   UNL A   1      42.333  28.138  29.591  1.00  0.00     0.167 HD
ATOM     54  C   UNL A   1      43.181  29.150  33.899  1.00  0.00     0.037 A 
ATOM     55  C   UNL A   1      42.471  26.313  27.554  1.00  0.00     0.037 A 
ATOM     56  C   UNL A   1      44.213  29.840  33.178  1.00  0.00     0.049 A 
ATOM     57  C   UNL A   1      43.660  26.538  28.419  1.00  0.00     0.074 A 
ATOM     58  C   UNL A   1      44.459  31.170  32.902  1.00  0.00     0.029 A 
ATOM     59  N   UNL A   1      45.007  29.128  32.313  1.00  0.00    -0.354 N 
ATOM     60  N   UNL A   1      44.473  27.549  28.271  1.00  0.00    -0.248 NA
ATOM     61  C   UNL A   1      43.651  25.933  29.744  1.00  0.00     0.031 C 
ATOM     62  C   UNL A   1      44.971  31.178  31.572  1.00  0.00     0.029 A 
ATOM     63  C   UNL A   1      45.066  29.853  31.147  1.00  0.00     0.049 A 
ATOM     64  H   UNL A   1      45.446  28.266  32.492  1.00  0.00     0.167 HD
ATOM     65  C   UNL A   1      44.772  27.962  29.561  1.00  0.00     0.074 A 
ATOM     66  C   UNL A   1      44.282  26.892  30.428  1.00  0.00     0.031 C 
ATOM     67  C   UNL A   1      45.119  29.254  29.835  1.00  0.00     0.037 A 
BRANCH  54  68
ATOM     68  C   UNL A   1      43.477  28.229  35.053  1.00  0.00     0.064 A 
ATOM     69  C   UNL A   1      43.902  28.757  36.289  1.00  0.00     0.173 A 
ATOM     70  C   UNL A   1      43.622  26.833  34.904  1.00  0.00     0.173 A 
ATOM     71  F   UNL A   1      43.829  30.074  36.533  1.00  0.00    -0.203 F 
ATOM     72  C   UNL A   1      44.481  27.953  37.276  1.00  0.00     0.198 A 
ATOM     73  C   UNL A   1      44.154  26.027  35.909  1.00  0.00     0.198 A 
ATOM     74  F   UNL A   1      43.351  26.216  33.747  1.00  0.00    -0.203 F 
ATOM     75  F   UNL A   1      44.967  28.512  38.392  1.00  0.00    -0.200 F 
ATOM     76  C   UNL A   1      44.610  26.589  37.083  1.00  0.00     0.200 A 
ATOM     77  F   UNL A   1      44.285  24.710  35.697  1.00  0.00    -0.200 F 
ATOM     78  F   UNL A   1      45.213  25.825  38.004  1.00  0.00    -0.200 F 
ENDBRANCH  54  68
BRANCH  55  79
ATOM     79  C   UNL A   1      42.178  25.022  26.888  1.00  0.00     0.064 A 
ATOM     80  C   UNL A   1      42.953  24.552  25.818  1.00  0.00     0.173 A 
ATOM     81  C   UNL A   1      41.272  24.101  27.456  1.00  0.00     0.173 A 
ATOM     82  F   UNL A   1      43.878  25.345  25.258  1.00  0.00    -0.203 F 
ATOM     83  C   UNL A   1      42.829  23.240  25.344  1.00  0.00     0.198 A 
ATOM     84  C   UNL A   1      41.144  22.796  26.979  1.00  0.00     0.198 A 
ATOM     85  F   UNL A   1      40.556  24.421  28.544  1.00  0.00    -0.203 F 
ATOM     86  F   UNL A   1      43.618  22.810  24.349  1.00  0.00    -0.200 F 
ATOM     87  C   UNL A   1      41.929  22.363  25.928  1.00  0.00     0.200 A 
ATOM     88  F   UNL A   1      40.299  21.948  27.581  1.00  0.00    -0.200 F 
ATOM     89  F   UNL A   1      41.846  21.093  25.508  1.00  0.00    -0.200 F 
ENDBRANCH  55  79
BRANCH  67  90
ATOM     90  C   UNL A   1      45.315  30.192  28.673  1.00  0.00     0.064 A 
ATOM     91  C   UNL A   1      44.287  30.997  28.151  1.00  0.00     0.173 A 
ATOM     92  C   UNL A   1      46.611  30.427  28.199  1.00  0.00     0.173 A 
ATOM     93  F   UNL A   1      43.043  30.921  28.632  1.00  0.00    -0.203 F 
ATOM     94  C   UNL A   1      44.536  31.956  27.170  1.00  0.00     0.198 A 
ATOM     95  C   UNL A   1      46.866  31.412  27.246  1.00  0.00     0.198 A 
ATOM     96  F   UNL A   1      47.646  29.741  28.709  1.00  0.00    -0.203 F 
ATOM     97  F   UNL A   1      43.531  32.705  26.693  1.00  0.00    -0.200 F 
ATOM     98  C   UNL A   1      45.828  32.168  26.725  1.00  0.00     0.200 A 
ATOM     99  F   UNL A   1      48.126  31.655  26.862  1.00  0.00    -0.200 F 
ATOM    100  F   UNL A   1      46.079  33.124  25.821  1.00  0.00    -0.200 F 
ENDBRANCH  67  90
ENDBRANCH  41  42
ENDBRANCH  33  36
ENDBRANCH  31  32
ENDBRANCH  30  31
ENDBRANCH   1  30
TORSDOF 13
ENDMDL
