MODEL 1
REMARK VINA RESULT:     -14.1      0.000      0.000
REMARK SMILES Cc1cccc(CC(=O)N2CCCC[C@@H]2C(=O)NCCCNC(=O)c2ccc(-c3c4nc(c(-c5c(F)c(F)c(F)c(F)c5F)c5ccc([nH]5)c(-c5c(F)c(F)c(F)c(F)c5F)c5nc(c(-c6c(F)c(F)c(F)c(F)c6F)c6ccc3[nH]6)C=C5)C=C4)cc2)c1
REMARK SMILES IDX 19 1 18 2 16 3 17 4 15 6 10 7 11 8 12 9 14 10 13 11 8 12
REMARK SMILES IDX 9 13 7 14 6 15 1 16 2 17 3 18 88 19 4 20 5 21 20 22 21 23
REMARK SMILES IDX 22 24 23 25 24 27 25 28 26 29 87 30 27 31 86 32 28 33 29 34
REMARK SMILES IDX 30 35 80 36 31 37 85 38 79 39 81 40 32 41 84 42 78 43 77 44
REMARK SMILES IDX 33 46 65 47 45 48 64 49 46 50 49 51 63 52 82 53 47 54 48 55
REMARK SMILES IDX 62 57 83 58 50 59 34 60 35 61 43 62 36 63 37 64 41 65 44 66
REMARK SMILES IDX 38 67 39 68 42 69 40 70 66 71 67 72 75 73 68 74 69 75 73 76
REMARK SMILES IDX 76 77 70 78 71 79 74 80 72 81 51 82 52 83 60 84 53 85 54 86
REMARK SMILES IDX 58 87 61 88 55 89 56 90 59 91 57 92
REMARK H PARENT 18 5 22 26 81 45 49 56
REMARK Flexibility Score: inf
ROOT
ATOM      1  C   UNL A   1      31.800  29.900  25.719  1.00  0.00     0.117 C 
ENDROOT
BRANCH   1   2
ATOM      2  N   UNL A   1      32.795  29.763  24.664  1.00  0.00    -0.354 N 
ATOM      3  C   UNL A   1      33.107  28.690  23.877  1.00  0.00     0.242 C 
ATOM      4  O   UNL A   1      34.120  28.781  23.173  1.00  0.00    -0.273 OA
ATOM      5  H   UNL A   1      33.328  30.572  24.492  1.00  0.00     0.163 HD
BRANCH   3   6
ATOM      6  C   UNL A   1      32.413  27.316  24.055  1.00  0.00     0.174 C 
ATOM      7  N   UNL A   1      30.935  27.292  23.915  1.00  0.00    -0.330 N 
ATOM      8  C   UNL A   1      30.200  26.307  24.706  1.00  0.00     0.120 C 
ATOM      9  C   UNL A   1      30.618  26.271  26.161  1.00  0.00     0.022 C 
ATOM     10  C   UNL A   1      32.915  26.930  25.481  1.00  0.00     0.035 C 
ATOM     11  C   UNL A   1      32.088  25.917  26.248  1.00  0.00     0.004 C 
BRANCH   7  12
ATOM     12  C   UNL A   1      30.201  27.861  22.873  1.00  0.00     0.227 C 
ATOM     13  O   UNL A   1      30.718  27.980  21.754  1.00  0.00    -0.275 OA
BRANCH  12  14
ATOM     14  C   UNL A   1      28.845  28.503  23.123  1.00  0.00     0.135 C 
BRANCH  14  15
ATOM     15  C   UNL A   1      28.698  29.970  22.844  1.00  0.00    -0.038 A 
ATOM     16  C   UNL A   1      27.814  32.166  19.858  1.00  0.00     0.044 C 
ATOM     17  C   UNL A   1      28.186  31.744  21.246  1.00  0.00    -0.051 A 
ATOM     18  C   UNL A   1      28.559  32.692  22.200  1.00  0.00     0.003 A 
ATOM     19  C   UNL A   1      28.264  30.386  21.576  1.00  0.00     0.007 A 
ATOM     20  C   UNL A   1      28.940  32.286  23.478  1.00  0.00     0.001 A 
ATOM     21  C   UNL A   1      28.973  30.935  23.816  1.00  0.00     0.004 A 
ENDBRANCH  14  15
ENDBRANCH  12  14
ENDBRANCH   7  12
ENDBRANCH   3   6
ENDBRANCH   1   2
BRANCH   1  22
ATOM     22  C   UNL A   1      32.271  30.825  26.827  1.00  0.00     0.042 C 
BRANCH  22  23
ATOM     23  C   UNL A   1      33.608  30.400  27.408  1.00  0.00     0.118 C 
BRANCH  23  24
ATOM     24  N   UNL A   1      34.214  31.381  28.303  1.00  0.00    -0.352 N 
ATOM     25  C   UNL A   1      35.362  31.283  29.065  1.00  0.00     0.251 C 
ATOM     26  H   UNL A   1      33.735  32.239  28.373  1.00  0.00     0.163 HD
ATOM     27  O   UNL A   1      35.680  32.200  29.818  1.00  0.00    -0.269 OA
BRANCH  25  28
ATOM     28  C   UNL A   1      36.290  30.144  28.862  1.00  0.00     0.039 A 
ATOM     29  C   UNL A   1      36.658  29.391  29.986  1.00  0.00     0.014 A 
ATOM     30  C   UNL A   1      36.948  29.954  27.651  1.00  0.00     0.014 A 
ATOM     31  C   UNL A   1      37.838  28.652  29.957  1.00  0.00     0.010 A 
ATOM     32  C   UNL A   1      38.176  29.329  27.653  1.00  0.00     0.010 A 
ATOM     33  C   UNL A   1      38.649  28.737  28.826  1.00  0.00    -0.014 A 
BRANCH  33  34
ATOM     34  C   UNL A   1      40.060  28.377  28.821  1.00  0.00     0.031 A 
ATOM     35  C   UNL A   1      40.493  27.041  28.387  1.00  0.00     0.074 A 
ATOM     36  C   UNL A   1      40.971  29.323  29.137  1.00  0.00     0.049 A 
ATOM     37  N   UNL A   1      41.589  26.476  28.764  1.00  0.00    -0.248 NA
ATOM     38  C   UNL A   1      39.675  26.207  27.521  1.00  0.00     0.031 C 
ATOM     39  C   UNL A   1      42.415  29.288  28.937  1.00  0.00     0.029 A 
ATOM     40  N   UNL A   1      40.763  30.457  29.917  1.00  0.00    -0.354 N 
ATOM     41  C   UNL A   1      41.760  25.348  27.994  1.00  0.00     0.074 A 
ATOM     42  C   UNL A   1      40.507  25.188  27.290  1.00  0.00     0.031 C 
ATOM     43  C   UNL A   1      42.984  30.161  29.787  1.00  0.00     0.029 A 
ATOM     44  C   UNL A   1      41.931  30.667  30.657  1.00  0.00     0.049 A 
ATOM     45  H   UNL A   1      39.946  31.008  29.942  1.00  0.00     0.167 HD
ATOM     46  C   UNL A   1      42.993  24.762  27.933  1.00  0.00     0.037 A 
ATOM     47  C   UNL A   1      41.969  30.696  32.018  1.00  0.00     0.037 A 
ATOM     48  C   UNL A   1      43.939  25.446  28.817  1.00  0.00     0.049 A 
ATOM     49  C   UNL A   1      42.887  29.630  32.573  1.00  0.00     0.074 A 
ATOM     50  C   UNL A   1      44.890  26.425  28.578  1.00  0.00     0.029 A 
ATOM     51  N   UNL A   1      43.762  25.402  30.198  1.00  0.00    -0.354 N 
ATOM     52  N   UNL A   1      43.277  28.589  31.891  1.00  0.00    -0.248 NA
ATOM     53  C   UNL A   1      43.368  29.613  33.951  1.00  0.00     0.031 C 
ATOM     54  C   UNL A   1      45.236  27.016  29.818  1.00  0.00     0.029 A 
ATOM     55  C   UNL A   1      44.516  26.383  30.816  1.00  0.00     0.049 A 
ATOM     56  H   UNL A   1      43.181  24.761  30.669  1.00  0.00     0.167 HD
ATOM     57  C   UNL A   1      44.007  27.764  32.700  1.00  0.00     0.074 A 
ATOM     58  C   UNL A   1      44.051  28.454  33.976  1.00  0.00     0.031 C 
ATOM     59  C   UNL A   1      44.488  26.566  32.260  1.00  0.00     0.037 A 
BRANCH  46  60
ATOM     60  C   UNL A   1      43.411  23.810  26.828  1.00  0.00     0.064 A 
ATOM     61  C   UNL A   1      43.013  22.454  26.850  1.00  0.00     0.173 A 
ATOM     62  C   UNL A   1      44.263  24.147  25.760  1.00  0.00     0.173 A 
ATOM     63  F   UNL A   1      42.094  22.008  27.714  1.00  0.00    -0.203 F 
ATOM     64  C   UNL A   1      43.546  21.498  25.979  1.00  0.00     0.198 A 
ATOM     65  C   UNL A   1      44.844  23.184  24.927  1.00  0.00     0.198 A 
ATOM     66  F   UNL A   1      44.510  25.423  25.444  1.00  0.00    -0.203 F 
ATOM     67  F   UNL A   1      43.139  20.224  26.060  1.00  0.00    -0.200 F 
ATOM     68  C   UNL A   1      44.498  21.855  25.047  1.00  0.00     0.200 A 
ATOM     69  F   UNL A   1      45.741  23.559  24.002  1.00  0.00    -0.200 F 
ATOM     70  F   UNL A   1      45.050  20.932  24.248  1.00  0.00    -0.200 F 
ENDBRANCH  46  60
BRANCH  47  71
ATOM     71  C   UNL A   1      40.689  31.108  32.658  1.00  0.00     0.064 A 
ATOM     72  C   UNL A   1      40.318  32.467  32.616  1.00  0.00     0.173 A 
ATOM     73  C   UNL A   1      39.687  30.172  32.940  1.00  0.00     0.173 A 
ATOM     74  F   UNL A   1      41.237  33.405  32.342  1.00  0.00    -0.203 F 
ATOM     75  C   UNL A   1      38.983  32.855  32.726  1.00  0.00     0.198 A 
ATOM     76  C   UNL A   1      38.353  30.566  33.061  1.00  0.00     0.198 A 
ATOM     77  F   UNL A   1      39.969  28.861  32.954  1.00  0.00    -0.203 F 
ATOM     78  F   UNL A   1      38.643  34.140  32.551  1.00  0.00    -0.200 F 
ATOM     79  C   UNL A   1      37.999  31.900  32.921  1.00  0.00     0.200 A 
ATOM     80  F   UNL A   1      37.397  29.637  33.199  1.00  0.00    -0.200 F 
ATOM     81  F   UNL A   1      36.707  32.254  32.914  1.00  0.00    -0.200 F 
ENDBRANCH  47  71
BRANCH  59  82
ATOM     82  C   UNL A   1      45.059  25.501  33.154  1.00  0.00     0.064 A 
ATOM     83  C   UNL A   1      46.431  25.203  33.215  1.00  0.00     0.173 A 
ATOM     84  C   UNL A   1      44.240  24.845  34.099  1.00  0.00     0.173 A 
ATOM     85  F   UNL A   1      47.318  25.851  32.447  1.00  0.00    -0.203 F 
ATOM     86  C   UNL A   1      46.939  24.263  34.113  1.00  0.00     0.198 A 
ATOM     87  C   UNL A   1      44.759  23.947  35.031  1.00  0.00     0.198 A 
ATOM     88  F   UNL A   1      42.920  25.075  34.159  1.00  0.00    -0.203 F 
ATOM     89  F   UNL A   1      48.249  23.979  34.104  1.00  0.00    -0.200 F 
ATOM     90  C   UNL A   1      46.106  23.643  35.026  1.00  0.00     0.200 A 
ATOM     91  F   UNL A   1      43.950  23.393  35.945  1.00  0.00    -0.200 F 
ATOM     92  F   UNL A   1      46.605  22.772  35.913  1.00  0.00    -0.200 F 
ENDBRANCH  59  82
ENDBRANCH  33  34
ENDBRANCH  25  28
ENDBRANCH  23  24
ENDBRANCH  22  23
ENDBRANCH   1  22
TORSDOF 13
ENDMDL
MODEL 2
REMARK VINA RESULT:     -13.9      4.651     10.701
REMARK SMILES Cc1cccc(CC(=O)N2CCCC[C@@H]2C(=O)NCCCNC(=O)c2ccc(-c3c4nc(c(-c5c(F)c(F)c(F)c(F)c5F)c5ccc([nH]5)c(-c5c(F)c(F)c(F)c(F)c5F)c5nc(c(-c6c(F)c(F)c(F)c(F)c6F)c6ccc3[nH]6)C=C5)C=C4)cc2)c1
REMARK SMILES IDX 19 1 18 2 16 3 17 4 15 6 10 7 11 8 12 9 14 10 13 11 8 12
REMARK SMILES IDX 9 13 7 14 6 15 1 16 2 17 3 18 88 19 4 20 5 21 20 22 21 23
REMARK SMILES IDX 22 24 23 25 24 27 25 28 26 29 87 30 27 31 86 32 28 33 29 34
REMARK SMILES IDX 30 35 80 36 31 37 85 38 79 39 81 40 32 41 84 42 78 43 77 44
REMARK SMILES IDX 33 46 65 47 45 48 64 49 46 50 49 51 63 52 82 53 47 54 48 55
REMARK SMILES IDX 62 57 83 58 50 59 34 60 35 61 43 62 36 63 37 64 41 65 44 66
REMARK SMILES IDX 38 67 39 68 42 69 40 70 66 71 67 72 75 73 68 74 69 75 73 76
REMARK SMILES IDX 76 77 70 78 71 79 74 80 72 81 51 82 52 83 60 84 53 85 54 86
REMARK SMILES IDX 58 87 61 88 55 89 56 90 59 91 57 92
REMARK H PARENT 18 5 22 26 81 45 49 56
REMARK Flexibility Score: inf
ROOT
ATOM      1  C   UNL A   1      36.980  21.380  25.359  1.00  0.00     0.117 C 
ENDROOT
BRANCH   1   2
ATOM      2  N   UNL A   1      36.531  22.063  24.153  1.00  0.00    -0.354 N 
ATOM      3  C   UNL A   1      35.495  22.935  23.964  1.00  0.00     0.242 C 
ATOM      4  O   UNL A   1      35.217  23.237  22.797  1.00  0.00    -0.273 OA
ATOM      5  H   UNL A   1      37.058  21.864  23.345  1.00  0.00     0.163 HD
BRANCH   3   6
ATOM      6  C   UNL A   1      34.522  23.309  25.110  1.00  0.00     0.174 C 
ATOM      7  N   UNL A   1      33.147  22.755  25.025  1.00  0.00    -0.330 N 
ATOM      8  C   UNL A   1      32.063  23.554  25.592  1.00  0.00     0.120 C 
ATOM      9  C   UNL A   1      32.101  25.008  25.167  1.00  0.00     0.022 C 
ATOM     10  C   UNL A   1      34.578  24.866  25.030  1.00  0.00     0.035 C 
ATOM     11  C   UNL A   1      33.407  25.625  25.622  1.00  0.00     0.004 C 
BRANCH   7  12
ATOM     12  C   UNL A   1      32.813  21.423  24.776  1.00  0.00     0.227 C 
ATOM     13  O   UNL A   1      32.159  21.136  23.764  1.00  0.00    -0.275 OA
BRANCH  12  14
ATOM     14  C   UNL A   1      33.079  20.337  25.806  1.00  0.00     0.135 C 
BRANCH  14  15
ATOM     15  C   UNL A   1      33.432  18.966  25.309  1.00  0.00    -0.038 A 
ATOM     16  C   UNL A   1      32.159  15.407  25.801  1.00  0.00     0.044 C 
ATOM     17  C   UNL A   1      32.968  16.568  25.309  1.00  0.00    -0.051 A 
ATOM     18  C   UNL A   1      34.123  16.358  24.555  1.00  0.00     0.003 A 
ATOM     19  C   UNL A   1      32.633  17.874  25.685  1.00  0.00     0.007 A 
ATOM     20  C   UNL A   1      34.890  17.443  24.133  1.00  0.00     0.001 A 
ATOM     21  C   UNL A   1      34.529  18.745  24.473  1.00  0.00     0.004 A 
ENDBRANCH  14  15
ENDBRANCH  12  14
ENDBRANCH   7  12
ENDBRANCH   3   6
ENDBRANCH   1   2
BRANCH   1  22
ATOM     22  C   UNL A   1      38.478  21.516  25.564  1.00  0.00     0.042 C 
BRANCH  22  23
ATOM     23  C   UNL A   1      38.871  22.888  26.078  1.00  0.00     0.118 C 
BRANCH  23  24
ATOM     24  N   UNL A   1      40.288  23.028  26.398  1.00  0.00    -0.352 N 
ATOM     25  C   UNL A   1      41.010  24.164  26.708  1.00  0.00     0.251 C 
ATOM     26  H   UNL A   1      40.805  22.190  26.394  1.00  0.00     0.163 HD
ATOM     27  O   UNL A   1      42.224  24.092  26.884  1.00  0.00    -0.269 OA
BRANCH  25  28
ATOM     28  C   UNL A   1      40.304  25.439  26.980  1.00  0.00     0.039 A 
ATOM     29  C   UNL A   1      40.752  26.591  26.317  1.00  0.00     0.014 A 
ATOM     30  C   UNL A   1      39.377  25.547  28.011  1.00  0.00     0.014 A 
ATOM     31  C   UNL A   1      40.472  27.844  26.857  1.00  0.00     0.010 A 
ATOM     32  C   UNL A   1      39.199  26.770  28.621  1.00  0.00     0.010 A 
ATOM     33  C   UNL A   1      39.803  27.907  28.079  1.00  0.00    -0.014 A 
BRANCH  33  34
ATOM     34  C   UNL A   1      39.817  29.080  28.942  1.00  0.00     0.031 A 
ATOM     35  C   UNL A   1      38.781  30.115  28.819  1.00  0.00     0.074 A 
ATOM     36  C   UNL A   1      40.749  29.156  29.918  1.00  0.00     0.049 A 
ATOM     37  N   UNL A   1      38.941  31.346  29.170  1.00  0.00    -0.248 NA
ATOM     38  C   UNL A   1      37.481  29.842  28.229  1.00  0.00     0.031 C 
ATOM     39  C   UNL A   1      40.792  30.066  31.055  1.00  0.00     0.029 A 
ATOM     40  N   UNL A   1      41.987  28.520  29.942  1.00  0.00    -0.354 N 
ATOM     41  C   UNL A   1      37.707  31.955  29.116  1.00  0.00     0.074 A 
ATOM     42  C   UNL A   1      36.850  30.996  28.455  1.00  0.00     0.031 C 
ATOM     43  C   UNL A   1      42.063  30.144  31.490  1.00  0.00     0.029 A 
ATOM     44  C   UNL A   1      42.889  29.402  30.548  1.00  0.00     0.049 A 
ATOM     45  H   UNL A   1      42.190  27.619  29.598  1.00  0.00     0.167 HD
ATOM     46  C   UNL A   1      37.522  33.142  29.765  1.00  0.00     0.037 A 
ATOM     47  C   UNL A   1      44.016  29.865  29.940  1.00  0.00     0.037 A 
ATOM     48  C   UNL A   1      38.772  33.609  30.369  1.00  0.00     0.049 A 
ATOM     49  C   UNL A   1      44.010  31.374  29.833  1.00  0.00     0.074 A 
ATOM     50  C   UNL A   1      39.278  33.501  31.655  1.00  0.00     0.029 A 
ATOM     51  N   UNL A   1      39.840  33.986  29.560  1.00  0.00    -0.354 N 
ATOM     52  N   UNL A   1      42.933  32.100  29.940  1.00  0.00    -0.248 NA
ATOM     53  C   UNL A   1      45.194  32.168  29.520  1.00  0.00     0.031 C 
ATOM     54  C   UNL A   1      40.671  33.751  31.604  1.00  0.00     0.029 A 
ATOM     55  C   UNL A   1      41.012  34.036  30.292  1.00  0.00     0.049 A 
ATOM     56  H   UNL A   1      39.771  34.190  28.598  1.00  0.00     0.167 HD
ATOM     57  C   UNL A   1      43.239  33.408  29.690  1.00  0.00     0.074 A 
ATOM     58  C   UNL A   1      44.670  33.405  29.447  1.00  0.00     0.031 C 
ATOM     59  C   UNL A   1      42.283  34.380  29.672  1.00  0.00     0.037 A 
BRANCH  46  60
ATOM     60  C   UNL A   1      36.154  33.685  30.138  1.00  0.00     0.064 A 
ATOM     61  C   UNL A   1      35.283  34.197  29.150  1.00  0.00     0.173 A 
ATOM     62  C   UNL A   1      35.669  33.800  31.454  1.00  0.00     0.173 A 
ATOM     63  F   UNL A   1      35.532  34.034  27.845  1.00  0.00    -0.203 F 
ATOM     64  C   UNL A   1      34.114  34.898  29.466  1.00  0.00     0.198 A 
ATOM     65  C   UNL A   1      34.534  34.553  31.776  1.00  0.00     0.198 A 
ATOM     66  F   UNL A   1      36.238  33.134  32.465  1.00  0.00    -0.203 F 
ATOM     67  F   UNL A   1      33.337  35.372  28.482  1.00  0.00    -0.200 F 
ATOM     68  C   UNL A   1      33.764  35.117  30.781  1.00  0.00     0.200 A 
ATOM     69  F   UNL A   1      34.191  34.722  33.062  1.00  0.00    -0.200 F 
ATOM     70  F   UNL A   1      32.675  35.834  31.087  1.00  0.00    -0.200 F 
ENDBRANCH  46  60
BRANCH  47  71
ATOM     71  C   UNL A   1      44.567  28.959  28.896  1.00  0.00     0.064 A 
ATOM     72  C   UNL A   1      45.272  27.808  29.303  1.00  0.00     0.173 A 
ATOM     73  C   UNL A   1      44.086  28.993  27.581  1.00  0.00     0.173 A 
ATOM     74  F   UNL A   1      45.747  27.720  30.554  1.00  0.00    -0.203 F 
ATOM     75  C   UNL A   1      45.379  26.694  28.470  1.00  0.00     0.198 A 
ATOM     76  C   UNL A   1      44.206  27.880  26.746  1.00  0.00     0.198 A 
ATOM     77  F   UNL A   1      43.374  30.043  27.147  1.00  0.00    -0.203 F 
ATOM     78  F   UNL A   1      45.940  25.567  28.929  1.00  0.00    -0.200 F 
ATOM     79  C   UNL A   1      44.822  26.723  27.202  1.00  0.00     0.200 A 
ATOM     80  F   UNL A   1      43.623  27.890  25.540  1.00  0.00    -0.200 F 
ATOM     81  F   UNL A   1      44.822  25.620  26.442  1.00  0.00    -0.200 F 
ENDBRANCH  47  71
BRANCH  59  82
ATOM     82  C   UNL A   1      42.499  35.773  29.149  1.00  0.00     0.064 A 
ATOM     83  C   UNL A   1      41.888  36.260  27.981  1.00  0.00     0.173 A 
ATOM     84  C   UNL A   1      43.223  36.719  29.909  1.00  0.00     0.173 A 
ATOM     85  F   UNL A   1      41.081  35.484  27.244  1.00  0.00    -0.203 F 
ATOM     86  C   UNL A   1      42.046  37.582  27.565  1.00  0.00     0.198 A 
ATOM     87  C   UNL A   1      43.333  38.053  29.519  1.00  0.00     0.198 A 
ATOM     88  F   UNL A   1      43.820  36.379  31.060  1.00  0.00    -0.203 F 
ATOM     89  F   UNL A   1      41.481  37.989  26.420  1.00  0.00    -0.200 F 
ATOM     90  C   UNL A   1      42.760  38.480  28.338  1.00  0.00     0.200 A 
ATOM     91  F   UNL A   1      43.982  38.924  30.303  1.00  0.00    -0.200 F 
ATOM     92  F   UNL A   1      42.875  39.759  27.956  1.00  0.00    -0.200 F 
ENDBRANCH  59  82
ENDBRANCH  33  34
ENDBRANCH  25  28
ENDBRANCH  23  24
ENDBRANCH  22  23
ENDBRANCH   1  22
TORSDOF 13
ENDMDL
MODEL 3
REMARK VINA RESULT:     -13.8      1.186      1.833
REMARK SMILES Cc1cccc(CC(=O)N2CCCC[C@@H]2C(=O)NCCCNC(=O)c2ccc(-c3c4nc(c(-c5c(F)c(F)c(F)c(F)c5F)c5ccc([nH]5)c(-c5c(F)c(F)c(F)c(F)c5F)c5nc(c(-c6c(F)c(F)c(F)c(F)c6F)c6ccc3[nH]6)C=C5)C=C4)cc2)c1
REMARK SMILES IDX 19 1 18 2 16 3 17 4 15 6 10 7 11 8 12 9 14 10 13 11 8 12
REMARK SMILES IDX 9 13 7 14 6 15 1 16 2 17 3 18 88 19 4 20 5 21 20 22 21 23
REMARK SMILES IDX 22 24 23 25 24 27 25 28 26 29 87 30 27 31 86 32 28 33 29 34
REMARK SMILES IDX 30 35 80 36 31 37 85 38 79 39 81 40 32 41 84 42 78 43 77 44
REMARK SMILES IDX 33 46 65 47 45 48 64 49 46 50 49 51 63 52 82 53 47 54 48 55
REMARK SMILES IDX 62 57 83 58 50 59 34 60 35 61 43 62 36 63 37 64 41 65 44 66
REMARK SMILES IDX 38 67 39 68 42 69 40 70 66 71 67 72 75 73 68 74 69 75 73 76
REMARK SMILES IDX 76 77 70 78 71 79 74 80 72 81 51 82 52 83 60 84 53 85 54 86
REMARK SMILES IDX 58 87 61 88 55 89 56 90 59 91 57 92
REMARK H PARENT 18 5 22 26 81 45 49 56
REMARK Flexibility Score: inf
ROOT
ATOM      1  C   UNL A   1      32.181  29.604  25.965  1.00  0.00     0.117 C 
ENDROOT
BRANCH   1   2
ATOM      2  N   UNL A   1      31.397  28.382  26.091  1.00  0.00    -0.354 N 
ATOM      3  C   UNL A   1      31.659  27.114  25.652  1.00  0.00     0.242 C 
ATOM      4  O   UNL A   1      30.742  26.288  25.733  1.00  0.00    -0.273 OA
ATOM      5  H   UNL A   1      30.542  28.487  26.568  1.00  0.00     0.163 HD
BRANCH   3   6
ATOM      6  C   UNL A   1      32.927  26.781  24.826  1.00  0.00     0.174 C 
ATOM      7  N   UNL A   1      32.711  26.324  23.430  1.00  0.00    -0.330 N 
ATOM      8  C   UNL A   1      33.682  25.384  22.872  1.00  0.00     0.120 C 
ATOM      9  C   UNL A   1      33.992  24.222  23.793  1.00  0.00     0.022 C 
ATOM     10  C   UNL A   1      33.586  25.706  25.744  1.00  0.00     0.035 C 
ATOM     11  C   UNL A   1      34.567  24.754  25.089  1.00  0.00     0.004 C 
BRANCH   7  12
ATOM     12  C   UNL A   1      31.893  26.940  22.481  1.00  0.00     0.227 C 
ATOM     13  O   UNL A   1      31.491  26.290  21.507  1.00  0.00    -0.275 OA
BRANCH  12  14
ATOM     14  C   UNL A   1      31.630  28.437  22.520  1.00  0.00     0.135 C 
BRANCH  14  15
ATOM     15  C   UNL A   1      30.204  28.902  22.479  1.00  0.00    -0.038 A 
ATOM     16  C   UNL A   1      28.285  31.901  21.120  1.00  0.00     0.044 C 
ATOM     17  C   UNL A   1      28.584  30.592  21.785  1.00  0.00    -0.051 A 
ATOM     18  C   UNL A   1      27.593  29.917  22.498  1.00  0.00     0.003 A 
ATOM     19  C   UNL A   1      29.887  30.080  21.785  1.00  0.00     0.007 A 
ATOM     20  C   UNL A   1      27.891  28.718  23.145  1.00  0.00     0.001 A 
ATOM     21  C   UNL A   1      29.178  28.189  23.106  1.00  0.00     0.004 A 
ENDBRANCH  14  15
ENDBRANCH  12  14
ENDBRANCH   7  12
ENDBRANCH   3   6
ENDBRANCH   1   2
BRANCH   1  22
ATOM     22  C   UNL A   1      32.750  30.053  27.300  1.00  0.00     0.042 C 
BRANCH  22  23
ATOM     23  C   UNL A   1      34.232  30.369  27.221  1.00  0.00     0.118 C 
BRANCH  23  24
ATOM     24  N   UNL A   1      34.731  31.188  28.321  1.00  0.00    -0.352 N 
ATOM     25  C   UNL A   1      35.763  30.936  29.205  1.00  0.00     0.251 C 
ATOM     26  H   UNL A   1      34.265  32.046  28.453  1.00  0.00     0.163 HD
ATOM     27  O   UNL A   1      35.995  31.723  30.120  1.00  0.00    -0.269 OA
BRANCH  25  28
ATOM     28  C   UNL A   1      36.686  29.801  28.962  1.00  0.00     0.039 A 
ATOM     29  C   UNL A   1      36.987  28.958  30.041  1.00  0.00     0.014 A 
ATOM     30  C   UNL A   1      37.403  29.694  27.774  1.00  0.00     0.014 A 
ATOM     31  C   UNL A   1      38.158  28.204  30.015  1.00  0.00     0.010 A 
ATOM     32  C   UNL A   1      38.621  29.051  27.789  1.00  0.00     0.010 A 
ATOM     33  C   UNL A   1      39.026  28.362  28.935  1.00  0.00    -0.014 A 
BRANCH  33  34
ATOM     34  C   UNL A   1      40.431  27.980  28.973  1.00  0.00     0.031 A 
ATOM     35  C   UNL A   1      40.871  26.680  28.448  1.00  0.00     0.074 A 
ATOM     36  C   UNL A   1      41.335  28.880  29.418  1.00  0.00     0.049 A 
ATOM     37  N   UNL A   1      41.938  26.066  28.831  1.00  0.00    -0.248 NA
ATOM     38  C   UNL A   1      40.091  25.938  27.470  1.00  0.00     0.031 C 
ATOM     39  C   UNL A   1      42.787  28.839  29.292  1.00  0.00     0.029 A 
ATOM     40  N   UNL A   1      41.099  29.946  30.283  1.00  0.00    -0.354 N 
ATOM     41  C   UNL A   1      42.136  25.007  27.974  1.00  0.00     0.074 A 
ATOM     42  C   UNL A   1      40.921  24.929  27.194  1.00  0.00     0.031 C 
ATOM     43  C   UNL A   1      43.319  29.625  30.244  1.00  0.00     0.029 A 
ATOM     44  C   UNL A   1      42.227  30.071  31.098  1.00  0.00     0.049 A 
ATOM     45  H   UNL A   1      40.289  30.506  30.313  1.00  0.00     0.167 HD
ATOM     46  C   UNL A   1      43.364  24.408  27.928  1.00  0.00     0.037 A 
ATOM     47  C   UNL A   1      42.192  29.981  32.457  1.00  0.00     0.037 A 
ATOM     48  C   UNL A   1      44.269  24.996  28.917  1.00  0.00     0.049 A 
ATOM     49  C   UNL A   1      43.066  28.856  32.964  1.00  0.00     0.074 A 
ATOM     50  C   UNL A   1      45.244  25.977  28.815  1.00  0.00     0.029 A 
ATOM     51  N   UNL A   1      44.018  24.836  30.277  1.00  0.00    -0.354 N 
ATOM     52  N   UNL A   1      43.480  27.872  32.215  1.00  0.00    -0.248 NA
ATOM     53  C   UNL A   1      43.472  28.711  34.358  1.00  0.00     0.031 C 
ATOM     54  C   UNL A   1      45.529  26.452  30.118  1.00  0.00     0.029 A 
ATOM     55  C   UNL A   1      44.748  25.747  31.018  1.00  0.00     0.049 A 
ATOM     56  H   UNL A   1      43.404  24.166  30.659  1.00  0.00     0.167 HD
ATOM     57  C   UNL A   1      44.155  26.968  32.986  1.00  0.00     0.074 A 
ATOM     58  C   UNL A   1      44.138  27.543  34.318  1.00  0.00     0.031 C 
ATOM     59  C   UNL A   1      44.644  25.805  32.469  1.00  0.00     0.037 A 
BRANCH  46  60
ATOM     60  C   UNL A   1      43.830  23.549  26.767  1.00  0.00     0.064 A 
ATOM     61  C   UNL A   1      43.377  22.218  26.623  1.00  0.00     0.173 A 
ATOM     62  C   UNL A   1      44.776  23.946  25.805  1.00  0.00     0.173 A 
ATOM     63  F   UNL A   1      42.374  21.734  27.367  1.00  0.00    -0.203 F 
ATOM     64  C   UNL A   1      43.938  21.326  25.702  1.00  0.00     0.198 A 
ATOM     65  C   UNL A   1      45.383  23.042  24.926  1.00  0.00     0.198 A 
ATOM     66  F   UNL A   1      45.099  25.233  25.638  1.00  0.00    -0.203 F 
ATOM     67  F   UNL A   1      43.475  20.071  25.625  1.00  0.00    -0.200 F 
ATOM     68  C   UNL A   1      44.975  21.726  24.886  1.00  0.00     0.200 A 
ATOM     69  F   UNL A   1      46.364  23.462  24.113  1.00  0.00    -0.200 F 
ATOM     70  F   UNL A   1      45.550  20.860  24.042  1.00  0.00    -0.200 F 
ENDBRANCH  46  60
BRANCH  47  71
ATOM     71  C   UNL A   1      40.885  30.357  33.062  1.00  0.00     0.064 A 
ATOM     72  C   UNL A   1      40.545  31.722  33.145  1.00  0.00     0.173 A 
ATOM     73  C   UNL A   1      39.848  29.424  33.183  1.00  0.00     0.173 A 
ATOM     74  F   UNL A   1      41.498  32.659  33.027  1.00  0.00    -0.203 F 
ATOM     75  C   UNL A   1      39.214  32.133  33.218  1.00  0.00     0.198 A 
ATOM     76  C   UNL A   1      38.518  29.838  33.269  1.00  0.00     0.198 A 
ATOM     77  F   UNL A   1      40.102  28.111  33.073  1.00  0.00    -0.203 F 
ATOM     78  F   UNL A   1      38.912  33.437  33.163  1.00  0.00    -0.200 F 
ATOM     79  C   UNL A   1      38.201  31.189  33.253  1.00  0.00     0.200 A 
ATOM     80  F   UNL A   1      37.536  28.926  33.250  1.00  0.00    -0.200 F 
ATOM     81  F   UNL A   1      36.919  31.576  33.209  1.00  0.00    -0.200 F 
ENDBRANCH  47  71
BRANCH  59  82
ATOM     82  C   UNL A   1      45.154  24.657  33.295  1.00  0.00     0.064 A 
ATOM     83  C   UNL A   1      44.392  23.509  33.570  1.00  0.00     0.173 A 
ATOM     84  C   UNL A   1      46.503  24.619  33.712  1.00  0.00     0.173 A 
ATOM     85  F   UNL A   1      43.136  23.384  33.119  1.00  0.00    -0.203 F 
ATOM     86  C   UNL A   1      44.922  22.426  34.273  1.00  0.00     0.198 A 
ATOM     87  C   UNL A   1      47.044  23.513  34.366  1.00  0.00     0.198 A 
ATOM     88  F   UNL A   1      47.336  25.643  33.475  1.00  0.00    -0.203 F 
ATOM     89  F   UNL A   1      44.144  21.371  34.550  1.00  0.00    -0.200 F 
ATOM     90  C   UNL A   1      46.249  22.424  34.662  1.00  0.00     0.200 A 
ATOM     91  F   UNL A   1      48.345  23.502  34.691  1.00  0.00    -0.200 F 
ATOM     92  F   UNL A   1      46.764  21.366  35.301  1.00  0.00    -0.200 F 
ENDBRANCH  59  82
ENDBRANCH  33  34
ENDBRANCH  25  28
ENDBRANCH  23  24
ENDBRANCH  22  23
ENDBRANCH   1  22
TORSDOF 13
ENDMDL
