MODEL 1
REMARK VINA RESULT:     -13.8      0.000      0.000
REMARK SMILES O=C(NCCCNC(=O)[C@H](c1c[nH]c2ccc(Cl)cc12)[NH+]1CCN(c2cccc(Cl)c2)CC1)c1ccc(-c2c3nc(c(-c4c(F)c(F)c(F)c(F)c4F)c4ccc([nH]4)c(-c4c(F)c(F)c(F)c(F)c4F)c4nc(c(-c5c(F)c(F)c(F)c(F)c5F)c5ccc2[nH]5)C=C4)C=C3)cc1
REMARK SMILES IDX 5 1 4 2 3 3 1 4 2 5 34 7 35 8 96 9 36 10 95 11 37 12 38 13
REMARK SMILES IDX 39 14 89 15 40 16 94 17 88 18 90 19 41 20 93 21 87 22 86 23
REMARK SMILES IDX 42 25 74 26 54 27 73 28 55 29 58 30 72 31 91 32 56 33 57 34
REMARK SMILES IDX 71 36 92 37 59 38 43 39 44 40 52 41 45 42 46 43 50 44 53 45
REMARK SMILES IDX 47 46 48 47 51 48 49 49 75 50 76 51 84 52 77 53 78 54 82 55
REMARK SMILES IDX 85 56 79 57 80 58 83 59 81 60 60 61 61 62 69 63 62 64 63 65
REMARK SMILES IDX 67 66 70 67 64 68 65 69 68 70 66 71 6 72 7 73 8 74 9 76
REMARK SMILES IDX 10 77 21 78 22 79 33 80 23 82 32 83 24 84 25 85 26 86 31 87
REMARK SMILES IDX 27 88 29 89 28 90 30 91 11 92 12 93 20 94 13 95 14 96 19 97
REMARK SMILES IDX 15 99 17 100 16 101 18 102
REMARK H PARENT 3 6 90 24 58 35 7 75 21 81 13 98
REMARK Flexibility Score: inf
ROOT
ATOM      1  C   UNL A   1      31.824  29.239  26.960  1.00  0.00     0.042 C 
ENDROOT
BRANCH   1   2
ATOM      2  C   UNL A   1      33.044  29.929  26.391  1.00  0.00     0.118 C 
BRANCH   2   3
ATOM      3  N   UNL A   1      33.000  31.376  26.596  1.00  0.00    -0.352 N 
ATOM      4  O   UNL A   1      33.323  33.344  27.643  1.00  0.00    -0.269 OA
ATOM      5  C   UNL A   1      33.697  32.188  27.460  1.00  0.00     0.251 C 
ATOM      6  H   UNL A   1      32.363  31.851  26.014  1.00  0.00     0.163 HD
BRANCH   5   7
ATOM      7  C   UNL A   1      34.878  31.671  28.183  1.00  0.00     0.039 A 
ATOM      8  C   UNL A   1      35.910  32.534  28.535  1.00  0.00     0.014 A 
ATOM      9  C   UNL A   1      34.948  30.322  28.547  1.00  0.00     0.014 A 
ATOM     10  C   UNL A   1      37.098  32.027  29.029  1.00  0.00     0.010 A 
ATOM     11  C   UNL A   1      36.084  29.841  29.211  1.00  0.00     0.010 A 
ATOM     12  C   UNL A   1      37.180  30.687  29.430  1.00  0.00    -0.014 A 
BRANCH  12  13
ATOM     13  C   UNL A   1      38.386  30.262  30.182  1.00  0.00     0.031 A 
ATOM     14  C   UNL A   1      38.605  30.667  31.610  1.00  0.00     0.074 A 
ATOM     15  C   UNL A   1      39.258  29.444  29.558  1.00  0.00     0.049 A 
ATOM     16  N   UNL A   1      39.601  30.363  32.403  1.00  0.00    -0.248 NA
ATOM     17  C   UNL A   1      37.589  31.530  32.230  1.00  0.00     0.031 C 
ATOM     18  C   UNL A   1      39.142  28.997  28.164  1.00  0.00     0.029 A 
ATOM     19  N   UNL A   1      40.387  28.811  30.008  1.00  0.00    -0.354 N 
ATOM     20  C   UNL A   1      39.351  31.021  33.600  1.00  0.00     0.074 A 
ATOM     21  C   UNL A   1      38.113  31.751  33.429  1.00  0.00     0.031 C 
ATOM     22  C   UNL A   1      40.105  28.107  27.901  1.00  0.00     0.029 A 
ATOM     23  C   UNL A   1      40.970  27.998  29.066  1.00  0.00     0.049 A 
ATOM     24  H   UNL A   1      40.744  28.926  30.918  1.00  0.00     0.167 HD
ATOM     25  C   UNL A   1      40.093  31.010  34.732  1.00  0.00     0.037 A 
ATOM     26  C   UNL A   1      42.099  27.269  29.119  1.00  0.00     0.037 A 
ATOM     27  C   UNL A   1      41.309  30.252  34.892  1.00  0.00     0.049 A 
ATOM     28  C   UNL A   1      42.901  27.292  30.384  1.00  0.00     0.074 A 
ATOM     29  C   UNL A   1      42.118  30.145  36.010  1.00  0.00     0.029 A 
ATOM     30  N   UNL A   1      41.891  29.471  33.903  1.00  0.00    -0.354 N 
ATOM     31  N   UNL A   1      42.645  27.908  31.512  1.00  0.00    -0.248 NA
ATOM     32  C   UNL A   1      44.157  26.534  30.380  1.00  0.00     0.031 C 
ATOM     33  C   UNL A   1      43.212  29.339  35.684  1.00  0.00     0.029 A 
ATOM     34  C   UNL A   1      43.061  28.898  34.379  1.00  0.00     0.049 A 
ATOM     35  H   UNL A   1      41.527  29.342  32.997  1.00  0.00     0.167 HD
ATOM     36  C   UNL A   1      43.700  27.605  32.357  1.00  0.00     0.074 A 
ATOM     37  C   UNL A   1      44.585  26.724  31.619  1.00  0.00     0.031 C 
ATOM     38  C   UNL A   1      43.923  28.025  33.626  1.00  0.00     0.037 A 
BRANCH  25  39
ATOM     39  C   UNL A   1      39.638  31.854  35.885  1.00  0.00     0.064 A 
ATOM     40  C   UNL A   1      40.169  33.130  36.126  1.00  0.00     0.173 A 
ATOM     41  C   UNL A   1      38.598  31.411  36.718  1.00  0.00     0.173 A 
ATOM     42  F   UNL A   1      41.172  33.596  35.368  1.00  0.00    -0.203 F 
ATOM     43  C   UNL A   1      39.683  33.925  37.161  1.00  0.00     0.198 A 
ATOM     44  C   UNL A   1      38.097  32.219  37.736  1.00  0.00     0.198 A 
ATOM     45  F   UNL A   1      38.051  30.201  36.529  1.00  0.00    -0.203 F 
ATOM     46  F   UNL A   1      40.225  35.130  37.390  1.00  0.00    -0.200 F 
ATOM     47  C   UNL A   1      38.642  33.474  37.959  1.00  0.00     0.200 A 
ATOM     48  F   UNL A   1      37.083  31.784  38.496  1.00  0.00    -0.200 F 
ATOM     49  F   UNL A   1      38.165  34.247  38.944  1.00  0.00    -0.200 F 
ENDBRANCH  25  39
BRANCH  26  50
ATOM     50  C   UNL A   1      42.543  26.501  27.927  1.00  0.00     0.064 A 
ATOM     51  C   UNL A   1      42.163  25.166  27.741  1.00  0.00     0.173 A 
ATOM     52  C   UNL A   1      43.354  27.091  26.945  1.00  0.00     0.173 A 
ATOM     53  F   UNL A   1      41.401  24.552  28.659  1.00  0.00    -0.203 F 
ATOM     54  C   UNL A   1      42.592  24.445  26.628  1.00  0.00     0.198 A 
ATOM     55  C   UNL A   1      43.751  26.380  25.816  1.00  0.00     0.198 A 
ATOM     56  F   UNL A   1      43.740  28.369  27.070  1.00  0.00    -0.203 F 
ATOM     57  F   UNL A   1      42.253  23.155  26.499  1.00  0.00    -0.200 F 
ATOM     58  C   UNL A   1      43.380  25.054  25.663  1.00  0.00     0.200 A 
ATOM     59  F   UNL A   1      44.493  26.982  24.876  1.00  0.00    -0.200 F 
ATOM     60  F   UNL A   1      43.785  24.362  24.590  1.00  0.00    -0.200 F 
ENDBRANCH  26  50
BRANCH  38  61
ATOM     61  C   UNL A   1      45.161  27.510  34.297  1.00  0.00     0.064 A 
ATOM     62  C   UNL A   1      46.374  28.211  34.236  1.00  0.00     0.173 A 
ATOM     63  C   UNL A   1      45.128  26.309  35.019  1.00  0.00     0.173 A 
ATOM     64  F   UNL A   1      46.458  29.355  33.538  1.00  0.00    -0.203 F 
ATOM     65  C   UNL A   1      47.518  27.712  34.850  1.00  0.00     0.198 A 
ATOM     66  C   UNL A   1      46.266  25.829  35.659  1.00  0.00     0.198 A 
ATOM     67  F   UNL A   1      43.990  25.604  35.108  1.00  0.00    -0.203 F 
ATOM     68  F   UNL A   1      48.680  28.370  34.733  1.00  0.00    -0.200 F 
ATOM     69  C   UNL A   1      47.462  26.525  35.567  1.00  0.00     0.200 A 
ATOM     70  F   UNL A   1      46.208  24.688  36.359  1.00  0.00    -0.200 F 
ATOM     71  F   UNL A   1      48.564  26.048  36.160  1.00  0.00    -0.200 F 
ENDBRANCH  38  61
ENDBRANCH  12  13
ENDBRANCH   5   7
ENDBRANCH   2   3
ENDBRANCH   1   2
BRANCH   1  72
ATOM     72  C   UNL A   1      32.085  27.774  27.229  1.00  0.00     0.118 C 
BRANCH  72  73
ATOM     73  N   UNL A   1      30.983  26.922  26.875  1.00  0.00    -0.351 N 
ATOM     74  C   UNL A   1      30.816  26.135  25.777  1.00  0.00     0.283 C 
ATOM     75  H   UNL A   1      30.241  26.904  27.522  1.00  0.00     0.163 HD
ATOM     76  O   UNL A   1      29.818  25.397  25.811  1.00  0.00    -0.268 OA
BRANCH  74  77
ATOM     77  C   UNL A   1      31.734  26.157  24.524  1.00  0.00     0.307 C 
BRANCH  77  78
ATOM     78  N   UNL A   1      31.900  24.808  23.920  1.00  0.00    -0.318 N 
ATOM     79  C   UNL A   1      32.905  24.551  22.888  1.00  0.00     0.284 C 
ATOM     80  C   UNL A   1      31.929  23.695  24.890  1.00  0.00     0.284 C 
ATOM     81  H   UNL A   1      31.027  24.841  23.395  1.00  0.00     0.349 HD
ATOM     82  C   UNL A   1      34.336  24.316  23.405  1.00  0.00     0.178 C 
ATOM     83  C   UNL A   1      33.318  23.336  25.470  1.00  0.00     0.178 C 
ATOM     84  N   UNL A   1      34.339  23.248  24.413  1.00  0.00    -0.360 N 
BRANCH  84  85
ATOM     85  C   UNL A   1      35.590  22.800  24.823  1.00  0.00     0.038 A 
ATOM     86  C   UNL A   1      35.925  21.458  24.615  1.00  0.00     0.026 A 
ATOM     87  C   UNL A   1      36.534  23.643  25.420  1.00  0.00     0.046 A 
ATOM     88  C   UNL A   1      37.185  20.969  24.959  1.00  0.00     0.004 A 
ATOM     89  C   UNL A   1      37.794  23.155  25.766  1.00  0.00     0.043 A 
ATOM     90  C   UNL A   1      38.126  21.822  25.532  1.00  0.00     0.020 A 
ATOM     91  Cl  UNL A   1      38.952  24.212  26.477  1.00  0.00    -0.084 Cl
ENDBRANCH  84  85
ENDBRANCH  77  78
BRANCH  77  92
ATOM     92  C   UNL A   1      31.655  27.368  23.593  1.00  0.00     0.044 A 
ATOM     93  C   UNL A   1      32.633  28.079  22.915  1.00  0.00     0.094 A 
ATOM     94  C   UNL A   1      30.411  28.014  23.206  1.00  0.00     0.011 A 
ATOM     95  N   UNL A   1      32.072  29.138  22.253  1.00  0.00    -0.361 N 
ATOM     96  C   UNL A   1      30.719  29.133  22.430  1.00  0.00     0.046 A 
ATOM     97  C   UNL A   1      29.048  27.763  23.477  1.00  0.00     0.031 A 
ATOM     98  H   UNL A   1      32.571  29.804  21.727  1.00  0.00     0.166 HD
ATOM     99  C   UNL A   1      29.764  30.034  21.953  1.00  0.00     0.028 A 
ATOM    100  C   UNL A   1      28.078  28.647  22.994  1.00  0.00     0.041 A 
ATOM    101  C   UNL A   1      28.429  29.772  22.254  1.00  0.00     0.022 A 
ATOM    102  Cl  UNL A   1      26.417  28.341  23.329  1.00  0.00    -0.084 Cl
ENDBRANCH  77  92
ENDBRANCH  74  77
ENDBRANCH  72  73
ENDBRANCH   1  72
TORSDOF 13
ENDMDL
MODEL 2
REMARK VINA RESULT:     -13.8      1.961      2.792
REMARK SMILES O=C(NCCCNC(=O)[C@H](c1c[nH]c2ccc(Cl)cc12)[NH+]1CCN(c2cccc(Cl)c2)CC1)c1ccc(-c2c3nc(c(-c4c(F)c(F)c(F)c(F)c4F)c4ccc([nH]4)c(-c4c(F)c(F)c(F)c(F)c4F)c4nc(c(-c5c(F)c(F)c(F)c(F)c5F)c5ccc2[nH]5)C=C4)C=C3)cc1
REMARK SMILES IDX 5 1 4 2 3 3 1 4 2 5 34 7 35 8 96 9 36 10 95 11 37 12 38 13
REMARK SMILES IDX 39 14 89 15 40 16 94 17 88 18 90 19 41 20 93 21 87 22 86 23
REMARK SMILES IDX 42 25 74 26 54 27 73 28 55 29 58 30 72 31 91 32 56 33 57 34
REMARK SMILES IDX 71 36 92 37 59 38 43 39 44 40 52 41 45 42 46 43 50 44 53 45
REMARK SMILES IDX 47 46 48 47 51 48 49 49 75 50 76 51 84 52 77 53 78 54 82 55
REMARK SMILES IDX 85 56 79 57 80 58 83 59 81 60 60 61 61 62 69 63 62 64 63 65
REMARK SMILES IDX 67 66 70 67 64 68 65 69 68 70 66 71 6 72 7 73 8 74 9 76
REMARK SMILES IDX 10 77 21 78 22 79 33 80 23 82 32 83 24 84 25 85 26 86 31 87
REMARK SMILES IDX 27 88 29 89 28 90 30 91 11 92 12 93 20 94 13 95 14 96 19 97
REMARK SMILES IDX 15 99 17 100 16 101 18 102
REMARK H PARENT 3 6 90 24 58 35 7 75 21 81 13 98
REMARK Flexibility Score: inf
ROOT
ATOM      1  C   UNL A   1      31.501  31.699  26.726  1.00  0.00     0.042 C 
ENDROOT
BRANCH   1   2
ATOM      2  C   UNL A   1      32.780  32.497  26.850  1.00  0.00     0.118 C 
BRANCH   2   3
ATOM      3  N   UNL A   1      32.549  33.815  27.438  1.00  0.00    -0.352 N 
ATOM      4  O   UNL A   1      32.594  35.438  28.999  1.00  0.00    -0.269 OA
ATOM      5  C   UNL A   1      33.115  34.429  28.531  1.00  0.00     0.251 C 
ATOM      6  H   UNL A   1      31.872  34.356  26.971  1.00  0.00     0.163 HD
BRANCH   5   7
ATOM      7  C   UNL A   1      34.333  33.870  29.155  1.00  0.00     0.039 A 
ATOM      8  C   UNL A   1      34.238  32.775  30.007  1.00  0.00     0.014 A 
ATOM      9  C   UNL A   1      35.588  34.415  28.866  1.00  0.00     0.014 A 
ATOM     10  C   UNL A   1      35.336  32.376  30.746  1.00  0.00     0.010 A 
ATOM     11  C   UNL A   1      36.731  33.892  29.483  1.00  0.00     0.010 A 
ATOM     12  C   UNL A   1      36.607  32.885  30.451  1.00  0.00    -0.014 A 
BRANCH  12  13
ATOM     13  C   UNL A   1      37.778  32.242  31.096  1.00  0.00     0.031 A 
ATOM     14  C   UNL A   1      38.182  32.574  32.502  1.00  0.00     0.074 A 
ATOM     15  C   UNL A   1      38.439  31.296  30.396  1.00  0.00     0.049 A 
ATOM     16  N   UNL A   1      39.171  32.086  33.207  1.00  0.00    -0.248 NA
ATOM     17  C   UNL A   1      37.388  33.589  33.210  1.00  0.00     0.031 C 
ATOM     18  C   UNL A   1      38.131  30.904  29.016  1.00  0.00     0.029 A 
ATOM     19  N   UNL A   1      39.471  30.467  30.747  1.00  0.00    -0.354 N 
ATOM     20  C   UNL A   1      39.140  32.754  34.423  1.00  0.00     0.074 A 
ATOM     21  C   UNL A   1      38.040  33.692  34.361  1.00  0.00     0.031 C 
ATOM     22  C   UNL A   1      38.898  29.864  28.667  1.00  0.00     0.029 A 
ATOM     23  C   UNL A   1      39.823  29.583  29.755  1.00  0.00     0.049 A 
ATOM     24  H   UNL A   1      39.917  30.501  31.624  1.00  0.00     0.167 HD
ATOM     25  C   UNL A   1      39.959  32.591  35.489  1.00  0.00     0.037 A 
ATOM     26  C   UNL A   1      40.807  28.667  29.708  1.00  0.00     0.037 A 
ATOM     27  C   UNL A   1      41.032  31.630  35.542  1.00  0.00     0.049 A 
ATOM     28  C   UNL A   1      41.703  28.526  30.902  1.00  0.00     0.074 A 
ATOM     29  C   UNL A   1      41.898  31.362  36.587  1.00  0.00     0.029 A 
ATOM     30  N   UNL A   1      41.385  30.778  34.504  1.00  0.00    -0.354 N 
ATOM     31  N   UNL A   1      41.652  29.154  32.050  1.00  0.00    -0.248 NA
ATOM     32  C   UNL A   1      42.801  27.560  30.788  1.00  0.00     0.031 C 
ATOM     33  C   UNL A   1      42.804  30.383  36.166  1.00  0.00     0.029 A 
ATOM     34  C   UNL A   1      42.471  30.001  34.876  1.00  0.00     0.049 A 
ATOM     35  H   UNL A   1      40.930  30.733  33.631  1.00  0.00     0.167 HD
ATOM     36  C   UNL A   1      42.703  28.656  32.801  1.00  0.00     0.074 A 
ATOM     37  C   UNL A   1      43.356  27.648  31.988  1.00  0.00     0.031 C 
ATOM     38  C   UNL A   1      43.101  29.005  34.048  1.00  0.00     0.037 A 
BRANCH  25  39
ATOM     39  C   UNL A   1      39.756  33.480  36.680  1.00  0.00     0.064 A 
ATOM     40  C   UNL A   1      40.386  34.728  36.791  1.00  0.00     0.173 A 
ATOM     41  C   UNL A   1      38.855  33.110  37.691  1.00  0.00     0.173 A 
ATOM     42  F   UNL A   1      41.265  35.124  35.858  1.00  0.00    -0.203 F 
ATOM     43  C   UNL A   1      40.130  35.567  37.873  1.00  0.00     0.198 A 
ATOM     44  C   UNL A   1      38.581  33.961  38.759  1.00  0.00     0.198 A 
ATOM     45  F   UNL A   1      38.222  31.928  37.633  1.00  0.00    -0.203 F 
ATOM     46  F   UNL A   1      40.765  36.744  37.972  1.00  0.00    -0.200 F 
ATOM     47  C   UNL A   1      39.221  35.188  38.851  1.00  0.00     0.200 A 
ATOM     48  F   UNL A   1      37.694  33.598  39.695  1.00  0.00    -0.200 F 
ATOM     49  F   UNL A   1      38.964  36.004  39.882  1.00  0.00    -0.200 F 
ENDBRANCH  25  39
BRANCH  26  50
ATOM     50  C   UNL A   1      41.009  27.857  28.480  1.00  0.00     0.064 A 
ATOM     51  C   UNL A   1      41.845  28.300  27.447  1.00  0.00     0.173 A 
ATOM     52  C   UNL A   1      40.374  26.615  28.317  1.00  0.00     0.173 A 
ATOM     53  F   UNL A   1      42.462  29.487  27.547  1.00  0.00    -0.203 F 
ATOM     54  C   UNL A   1      42.022  27.543  26.291  1.00  0.00     0.198 A 
ATOM     55  C   UNL A   1      40.581  25.843  27.178  1.00  0.00     0.198 A 
ATOM     56  F   UNL A   1      39.570  26.140  29.279  1.00  0.00    -0.203 F 
ATOM     57  F   UNL A   1      42.789  28.013  25.297  1.00  0.00    -0.200 F 
ATOM     58  C   UNL A   1      41.396  26.312  26.160  1.00  0.00     0.200 A 
ATOM     59  F   UNL A   1      39.992  24.645  27.068  1.00  0.00    -0.200 F 
ATOM     60  F   UNL A   1      41.574  25.582  25.051  1.00  0.00    -0.200 F 
ENDBRANCH  26  50
BRANCH  38  61
ATOM     61  C   UNL A   1      44.280  28.270  34.610  1.00  0.00     0.064 A 
ATOM     62  C   UNL A   1      45.588  28.752  34.454  1.00  0.00     0.173 A 
ATOM     63  C   UNL A   1      44.096  27.076  35.323  1.00  0.00     0.173 A 
ATOM     64  F   UNL A   1      45.814  29.878  33.761  1.00  0.00    -0.203 F 
ATOM     65  C   UNL A   1      46.673  28.049  34.967  1.00  0.00     0.198 A 
ATOM     66  C   UNL A   1      45.181  26.393  35.862  1.00  0.00     0.198 A 
ATOM     67  F   UNL A   1      42.864  26.577  35.501  1.00  0.00    -0.203 F 
ATOM     68  F   UNL A   1      47.918  28.498  34.759  1.00  0.00    -0.200 F 
ATOM     69  C   UNL A   1      46.469  26.874  35.676  1.00  0.00     0.200 A 
ATOM     70  F   UNL A   1      44.981  25.263  36.556  1.00  0.00    -0.200 F 
ATOM     71  F   UNL A   1      47.515  26.199  36.172  1.00  0.00    -0.200 F 
ENDBRANCH  38  61
ENDBRANCH  12  13
ENDBRANCH   5   7
ENDBRANCH   2   3
ENDBRANCH   1   2
BRANCH   1  72
ATOM     72  C   UNL A   1      31.776  30.246  26.410  1.00  0.00     0.118 C 
BRANCH  72  73
ATOM     73  N   UNL A   1      32.527  30.055  25.200  1.00  0.00    -0.351 N 
ATOM     74  C   UNL A   1      32.510  29.011  24.327  1.00  0.00     0.283 C 
ATOM     75  H   UNL A   1      33.145  30.787  24.969  1.00  0.00     0.163 HD
ATOM     76  O   UNL A   1      33.168  29.189  23.289  1.00  0.00    -0.268 OA
BRANCH  74  77
ATOM     77  C   UNL A   1      31.792  27.657  24.579  1.00  0.00     0.307 C 
BRANCH  77  78
ATOM     78  N   UNL A   1      32.217  27.021  25.856  1.00  0.00    -0.318 N 
ATOM     79  C   UNL A   1      31.527  25.846  26.391  1.00  0.00     0.284 C 
ATOM     80  C   UNL A   1      33.672  26.812  25.989  1.00  0.00     0.284 C 
ATOM     81  H   UNL A   1      31.879  27.781  26.446  1.00  0.00     0.349 HD
ATOM     82  C   UNL A   1      31.943  24.499  25.772  1.00  0.00     0.178 C 
ATOM     83  C   UNL A   1      34.219  25.477  25.428  1.00  0.00     0.178 C 
ATOM     84  N   UNL A   1      33.398  24.333  25.857  1.00  0.00    -0.360 N 
BRANCH  84  85
ATOM     85  C   UNL A   1      33.890  23.079  25.512  1.00  0.00     0.038 A 
ATOM     86  C   UNL A   1      35.210  22.759  25.846  1.00  0.00     0.026 A 
ATOM     87  C   UNL A   1      33.111  22.117  24.859  1.00  0.00     0.046 A 
ATOM     88  C   UNL A   1      35.737  21.497  25.570  1.00  0.00     0.004 A 
ATOM     89  C   UNL A   1      33.637  20.856  24.582  1.00  0.00     0.043 A 
ATOM     90  C   UNL A   1      34.946  20.539  24.941  1.00  0.00     0.020 A 
ATOM     91  Cl  UNL A   1      32.656  19.676  23.800  1.00  0.00    -0.084 Cl
ENDBRANCH  84  85
ENDBRANCH  77  78
BRANCH  77  92
ATOM     92  C   UNL A   1      30.331  27.524  24.148  1.00  0.00     0.044 A 
ATOM     93  C   UNL A   1      29.481  26.430  24.086  1.00  0.00     0.094 A 
ATOM     94  C   UNL A   1      29.505  28.642  23.722  1.00  0.00     0.011 A 
ATOM     95  N   UNL A   1      28.271  26.803  23.566  1.00  0.00    -0.361 N 
ATOM     96  C   UNL A   1      28.266  28.145  23.316  1.00  0.00     0.046 A 
ATOM     97  C   UNL A   1      29.717  30.034  23.613  1.00  0.00     0.031 A 
ATOM     98  H   UNL A   1      27.517  26.194  23.396  1.00  0.00     0.166 HD
ATOM     99  C   UNL A   1      27.252  28.936  22.770  1.00  0.00     0.028 A 
ATOM    100  C   UNL A   1      28.707  30.843  23.083  1.00  0.00     0.041 A 
ATOM    101  C   UNL A   1      27.498  30.303  22.655  1.00  0.00     0.022 A 
ATOM    102  Cl  UNL A   1      28.970  32.539  22.947  1.00  0.00    -0.084 Cl
ENDBRANCH  77  92
ENDBRANCH  74  77
ENDBRANCH  72  73
ENDBRANCH   1  72
TORSDOF 13
ENDMDL
MODEL 3
REMARK VINA RESULT:     -13.8      0.878      1.902
REMARK SMILES O=C(NCCCNC(=O)[C@H](c1c[nH]c2ccc(Cl)cc12)[NH+]1CCN(c2cccc(Cl)c2)CC1)c1ccc(-c2c3nc(c(-c4c(F)c(F)c(F)c(F)c4F)c4ccc([nH]4)c(-c4c(F)c(F)c(F)c(F)c4F)c4nc(c(-c5c(F)c(F)c(F)c(F)c5F)c5ccc2[nH]5)C=C4)C=C3)cc1
REMARK SMILES IDX 5 1 4 2 3 3 1 4 2 5 34 7 35 8 96 9 36 10 95 11 37 12 38 13
REMARK SMILES IDX 39 14 89 15 40 16 94 17 88 18 90 19 41 20 93 21 87 22 86 23
REMARK SMILES IDX 42 25 74 26 54 27 73 28 55 29 58 30 72 31 91 32 56 33 57 34
REMARK SMILES IDX 71 36 92 37 59 38 43 39 44 40 52 41 45 42 46 43 50 44 53 45
REMARK SMILES IDX 47 46 48 47 51 48 49 49 75 50 76 51 84 52 77 53 78 54 82 55
REMARK SMILES IDX 85 56 79 57 80 58 83 59 81 60 60 61 61 62 69 63 62 64 63 65
REMARK SMILES IDX 67 66 70 67 64 68 65 69 68 70 66 71 6 72 7 73 8 74 9 76
REMARK SMILES IDX 10 77 21 78 22 79 33 80 23 82 32 83 24 84 25 85 26 86 31 87
REMARK SMILES IDX 27 88 29 89 28 90 30 91 11 92 12 93 20 94 13 95 14 96 19 97
REMARK SMILES IDX 15 99 17 100 16 101 18 102
REMARK H PARENT 3 6 90 24 58 35 7 75 21 81 13 98
REMARK Flexibility Score: inf
ROOT
ATOM      1  C   UNL A   1      31.826  29.529  27.248  1.00  0.00     0.042 C 
ENDROOT
BRANCH   1   2
ATOM      2  C   UNL A   1      32.721  30.356  26.352  1.00  0.00     0.118 C 
BRANCH   2   3
ATOM      3  N   UNL A   1      32.536  31.790  26.567  1.00  0.00    -0.352 N 
ATOM      4  O   UNL A   1      32.669  33.774  27.626  1.00  0.00    -0.269 OA
ATOM      5  C   UNL A   1      33.154  32.661  27.433  1.00  0.00     0.251 C 
ATOM      6  H   UNL A   1      31.852  32.204  25.992  1.00  0.00     0.163 HD
BRANCH   5   7
ATOM      7  C   UNL A   1      34.384  32.259  28.147  1.00  0.00     0.039 A 
ATOM      8  C   UNL A   1      34.403  31.087  28.895  1.00  0.00     0.014 A 
ATOM      9  C   UNL A   1      35.544  33.035  28.047  1.00  0.00     0.014 A 
ATOM     10  C   UNL A   1      35.476  30.810  29.722  1.00  0.00     0.010 A 
ATOM     11  C   UNL A   1      36.696  32.656  28.748  1.00  0.00     0.010 A 
ATOM     12  C   UNL A   1      36.659  31.554  29.614  1.00  0.00    -0.014 A 
BRANCH  12  13
ATOM     13  C   UNL A   1      37.856  31.059  30.336  1.00  0.00     0.031 A 
ATOM     14  C   UNL A   1      38.135  31.451  31.757  1.00  0.00     0.074 A 
ATOM     15  C   UNL A   1      38.662  30.189  29.693  1.00  0.00     0.049 A 
ATOM     16  N   UNL A   1      39.130  31.089  32.526  1.00  0.00    -0.248 NA
ATOM     17  C   UNL A   1      37.188  32.374  32.400  1.00  0.00     0.031 C 
ATOM     18  C   UNL A   1      38.485  29.748  28.304  1.00  0.00     0.029 A 
ATOM     19  N   UNL A   1      39.762  29.490  30.116  1.00  0.00    -0.354 N 
ATOM     20  C   UNL A   1      38.950  31.762  33.727  1.00  0.00     0.074 A 
ATOM     21  C   UNL A   1      37.754  32.565  33.585  1.00  0.00     0.031 C 
ATOM     22  C   UNL A   1      39.386  28.802  28.019  1.00  0.00     0.029 A 
ATOM     23  C   UNL A   1      40.272  28.643  29.163  1.00  0.00     0.049 A 
ATOM     24  H   UNL A   1      40.148  29.585  31.017  1.00  0.00     0.167 HD
ATOM     25  C   UNL A   1      39.718  31.708  34.840  1.00  0.00     0.037 A 
ATOM     26  C   UNL A   1      41.356  27.848  29.189  1.00  0.00     0.037 A 
ATOM     27  C   UNL A   1      40.890  30.880  34.972  1.00  0.00     0.049 A 
ATOM     28  C   UNL A   1      42.190  27.825  30.434  1.00  0.00     0.074 A 
ATOM     29  C   UNL A   1      41.719  30.726  36.070  1.00  0.00     0.029 A 
ATOM     30  N   UNL A   1      41.400  30.064  33.971  1.00  0.00    -0.354 N 
ATOM     31  N   UNL A   1      41.999  28.456  31.566  1.00  0.00    -0.248 NA
ATOM     32  C   UNL A   1      43.398  26.993  30.401  1.00  0.00     0.031 C 
ATOM     33  C   UNL A   1      42.755  29.855  35.719  1.00  0.00     0.029 A 
ATOM     34  C   UNL A   1      42.545  29.423  34.419  1.00  0.00     0.049 A 
ATOM     35  H   UNL A   1      41.006  29.956  33.075  1.00  0.00     0.167 HD
ATOM     36  C   UNL A   1      43.055  28.092  32.385  1.00  0.00     0.074 A 
ATOM     37  C   UNL A   1      43.867  27.159  31.628  1.00  0.00     0.031 C 
ATOM     38  C   UNL A   1      43.335  28.499  33.647  1.00  0.00     0.037 A 
BRANCH  25  39
ATOM     39  C   UNL A   1      39.343  32.580  36.002  1.00  0.00     0.064 A 
ATOM     40  C   UNL A   1      38.453  32.149  36.997  1.00  0.00     0.173 A 
ATOM     41  C   UNL A   1      39.942  33.840  36.162  1.00  0.00     0.173 A 
ATOM     42  F   UNL A   1      37.844  30.959  36.886  1.00  0.00    -0.203 F 
ATOM     43  C   UNL A   1      38.171  32.948  38.102  1.00  0.00     0.198 A 
ATOM     44  C   UNL A   1      39.678  34.626  37.281  1.00  0.00     0.198 A 
ATOM     45  F   UNL A   1      40.803  34.300  35.242  1.00  0.00    -0.203 F 
ATOM     46  F   UNL A   1      37.297  32.527  39.027  1.00  0.00    -0.200 F 
ATOM     47  C   UNL A   1      38.791  34.181  38.249  1.00  0.00     0.200 A 
ATOM     48  F   UNL A   1      40.287  35.811  37.425  1.00  0.00    -0.200 F 
ATOM     49  F   UNL A   1      38.530  34.941  39.321  1.00  0.00    -0.200 F 
ENDBRANCH  25  39
BRANCH  26  50
ATOM     50  C   UNL A   1      41.724  27.053  27.989  1.00  0.00     0.064 A 
ATOM     51  C   UNL A   1      41.193  25.775  27.774  1.00  0.00     0.173 A 
ATOM     52  C   UNL A   1      42.611  27.561  27.026  1.00  0.00     0.173 A 
ATOM     53  F   UNL A   1      40.353  25.239  28.672  1.00  0.00    -0.203 F 
ATOM     54  C   UNL A   1      41.551  25.028  26.653  1.00  0.00     0.198 A 
ATOM     55  C   UNL A   1      42.938  26.828  25.889  1.00  0.00     0.198 A 
ATOM     56  F   UNL A   1      43.142  28.783  27.179  1.00  0.00    -0.203 F 
ATOM     57  F   UNL A   1      41.066  23.788  26.497  1.00  0.00    -0.200 F 
ATOM     58  C   UNL A   1      42.417  25.557  25.708  1.00  0.00     0.200 A 
ATOM     59  F   UNL A   1      43.757  27.355  24.968  1.00  0.00    -0.200 F 
ATOM     60  F   UNL A   1      42.753  24.840  24.628  1.00  0.00    -0.200 F 
ENDBRANCH  26  50
BRANCH  38  61
ATOM     61  C   UNL A   1      44.556  27.912  34.288  1.00  0.00     0.064 A 
ATOM     62  C   UNL A   1      44.503  26.703  34.997  1.00  0.00     0.173 A 
ATOM     63  C   UNL A   1      45.794  28.561  34.181  1.00  0.00     0.173 A 
ATOM     64  F   UNL A   1      43.335  26.057  35.144  1.00  0.00    -0.203 F 
ATOM     65  C   UNL A   1      45.641  26.179  35.600  1.00  0.00     0.198 A 
ATOM     66  C   UNL A   1      46.937  28.018  34.758  1.00  0.00     0.198 A 
ATOM     67  F   UNL A   1      45.895  29.719  33.511  1.00  0.00    -0.203 F 
ATOM     68  F   UNL A   1      45.557  25.051  36.319  1.00  0.00    -0.200 F 
ATOM     69  C   UNL A   1      46.859  26.833  35.475  1.00  0.00     0.200 A 
ATOM     70  F   UNL A   1      48.114  28.646  34.628  1.00  0.00    -0.200 F 
ATOM     71  F   UNL A   1      47.955  26.326  36.055  1.00  0.00    -0.200 F 
ENDBRANCH  38  61
ENDBRANCH  12  13
ENDBRANCH   5   7
ENDBRANCH   2   3
ENDBRANCH   1   2
BRANCH   1  72
ATOM     72  C   UNL A   1      32.228  28.071  27.247  1.00  0.00     0.118 C 
BRANCH  72  73
ATOM     73  N   UNL A   1      31.133  27.175  26.994  1.00  0.00    -0.351 N 
ATOM     74  C   UNL A   1      30.915  26.353  25.932  1.00  0.00     0.283 C 
ATOM     75  H   UNL A   1      30.438  27.153  27.693  1.00  0.00     0.163 HD
ATOM     76  O   UNL A   1      29.946  25.586  26.056  1.00  0.00    -0.268 OA
BRANCH  74  77
ATOM     77  C   UNL A   1      31.741  26.367  24.617  1.00  0.00     0.307 C 
BRANCH  77  78
ATOM     78  N   UNL A   1      31.895  25.009  24.030  1.00  0.00    -0.318 N 
ATOM     79  C   UNL A   1      32.871  24.738  22.974  1.00  0.00     0.284 C 
ATOM     80  C   UNL A   1      31.954  23.912  25.016  1.00  0.00     0.284 C 
ATOM     81  H   UNL A   1      31.007  25.031  23.529  1.00  0.00     0.349 HD
ATOM     82  C   UNL A   1      34.317  24.515  23.455  1.00  0.00     0.178 C 
ATOM     83  C   UNL A   1      33.361  23.566  25.563  1.00  0.00     0.178 C 
ATOM     84  N   UNL A   1      34.352  23.464  24.478  1.00  0.00    -0.360 N 
BRANCH  84  85
ATOM     85  C   UNL A   1      35.615  23.026  24.860  1.00  0.00     0.038 A 
ATOM     86  C   UNL A   1      36.486  23.934  25.470  1.00  0.00     0.026 A 
ATOM     87  C   UNL A   1      36.042  21.706  24.675  1.00  0.00     0.046 A 
ATOM     88  C   UNL A   1      37.744  23.534  25.920  1.00  0.00     0.004 A 
ATOM     89  C   UNL A   1      37.301  21.305  25.124  1.00  0.00     0.043 A 
ATOM     90  C   UNL A   1      38.151  22.212  25.752  1.00  0.00     0.020 A 
ATOM     91  Cl  UNL A   1      37.801  19.671  24.910  1.00  0.00    -0.084 Cl
ENDBRANCH  84  85
ENDBRANCH  77  78
BRANCH  77  92
ATOM     92  C   UNL A   1      31.570  27.556  23.670  1.00  0.00     0.044 A 
ATOM     93  C   UNL A   1      32.489  28.314  22.961  1.00  0.00     0.094 A 
ATOM     94  C   UNL A   1      30.281  28.119  23.299  1.00  0.00     0.011 A 
ATOM     95  N   UNL A   1      31.851  29.325  22.295  1.00  0.00    -0.361 N 
ATOM     96  C   UNL A   1      30.505  29.241  22.500  1.00  0.00     0.046 A 
ATOM     97  C   UNL A   1      28.942  27.789  23.602  1.00  0.00     0.031 A 
ATOM     98  H   UNL A   1      32.298  30.012  21.749  1.00  0.00     0.166 HD
ATOM     99  C   UNL A   1      29.487  30.075  22.029  1.00  0.00     0.028 A 
ATOM    100  C   UNL A   1      27.910  28.604  23.126  1.00  0.00     0.041 A 
ATOM    101  C   UNL A   1      28.177  29.737  22.363  1.00  0.00     0.022 A 
ATOM    102  Cl  UNL A   1      26.278  28.203  23.500  1.00  0.00    -0.084 Cl
ENDBRANCH  77  92
ENDBRANCH  74  77
ENDBRANCH  72  73
ENDBRANCH   1  72
TORSDOF 13
ENDMDL
