MODEL 1
REMARK VINA RESULT:     -10.1      0.000      0.000
REMARK SMILES CC(=O)N1CCC[C@H]1COCC(=O)NCCCNC(=O)c1ccc(-c2c3nc(c(-c4c(F)c(F)c(F)c(F)c4F)c4ccc([nH]4)c(-c4c(F)c(F)c(F)c(F)c4F)c4nc(c(-c5c(F)c(F)c(F)c(F)c5F)c5ccc2[nH]5)C=C4)C=C3)cc1
REMARK SMILES IDX 15 1 14 2 12 3 13 4 11 6 10 7 9 8 8 9 4 10 5 11 6 12 7 13
REMARK SMILES IDX 2 14 1 15 3 16 16 17 17 18 18 19 19 20 20 22 21 23 22 24
REMARK SMILES IDX 83 25 23 26 82 27 24 28 25 29 26 30 76 31 27 32 81 33 75 34
REMARK SMILES IDX 77 35 28 36 80 37 74 38 73 39 29 41 61 42 41 43 60 44 42 45
REMARK SMILES IDX 45 46 59 47 78 48 43 49 44 50 58 52 79 53 46 54 30 55 31 56
REMARK SMILES IDX 39 57 32 58 33 59 37 60 40 61 34 62 35 63 38 64 36 65 62 66
REMARK SMILES IDX 63 67 71 68 64 69 65 70 69 71 72 72 66 73 67 74 70 75 68 76
REMARK SMILES IDX 47 77 48 78 56 79 49 80 50 81 54 82 57 83 51 84 52 85 55 86
REMARK SMILES IDX 53 87
REMARK H PARENT 14 5 18 21 77 40 45 51
REMARK Flexibility Score: inf
ROOT
ATOM      1  C   UNL A   1      34.240  34.728  29.931  1.00  0.00     0.117 C 
ENDROOT
BRANCH   1   2
ATOM      2  N   UNL A   1      33.697  36.045  30.197  1.00  0.00    -0.354 N 
ATOM      3  C   UNL A   1      33.353  36.585  31.400  1.00  0.00     0.246 C 
ATOM      4  O   UNL A   1      32.854  37.711  31.424  1.00  0.00    -0.272 OA
ATOM      5  H   UNL A   1      33.559  36.622  29.411  1.00  0.00     0.163 HD
BRANCH   3   6
ATOM      6  C   UNL A   1      33.621  35.789  32.681  1.00  0.00     0.260 C 
BRANCH   6   7
ATOM      7  O   UNL A   1      34.890  35.902  33.292  1.00  0.00    -0.370 OA
BRANCH   7   8
ATOM      8  C   UNL A   1      35.424  34.717  33.890  1.00  0.00     0.185 C 
BRANCH   8   9
ATOM      9  C   UNL A   1      36.388  33.873  33.020  1.00  0.00     0.111 C 
ATOM     10  N   UNL A   1      37.541  33.349  33.742  1.00  0.00    -0.338 N 
ATOM     11  C   UNL A   1      37.388  31.936  34.018  1.00  0.00     0.120 C 
ATOM     12  C   UNL A   1      36.501  31.425  32.898  1.00  0.00     0.024 C 
ATOM     13  C   UNL A   1      35.747  32.645  32.367  1.00  0.00     0.029 C 
BRANCH  10  14
ATOM     14  C   UNL A   1      38.606  34.151  34.082  1.00  0.00     0.219 C 
ATOM     15  C   UNL A   1      39.462  34.650  32.945  1.00  0.00     0.114 C 
ATOM     16  O   UNL A   1      38.827  34.501  35.240  1.00  0.00    -0.275 OA
ENDBRANCH  10  14
ENDBRANCH   8   9
ENDBRANCH   7   8
ENDBRANCH   6   7
ENDBRANCH   3   6
ENDBRANCH   1   2
BRANCH   1  17
ATOM     17  C   UNL A   1      34.161  34.372  28.452  1.00  0.00     0.042 C 
BRANCH  17  18
ATOM     18  C   UNL A   1      34.913  33.099  28.074  1.00  0.00     0.118 C 
BRANCH  18  19
ATOM     19  N   UNL A   1      34.029  31.967  27.828  1.00  0.00    -0.352 N 
ATOM     20  C   UNL A   1      34.300  30.624  27.786  1.00  0.00     0.251 C 
ATOM     21  H   UNL A   1      33.087  32.203  27.668  1.00  0.00     0.163 HD
ATOM     22  O   UNL A   1      33.444  29.839  27.383  1.00  0.00    -0.269 OA
BRANCH  20  23
ATOM     23  C   UNL A   1      35.622  30.116  28.203  1.00  0.00     0.039 A 
ATOM     24  C   UNL A   1      36.674  30.138  27.283  1.00  0.00     0.014 A 
ATOM     25  C   UNL A   1      35.824  29.607  29.488  1.00  0.00     0.014 A 
ATOM     26  C   UNL A   1      37.945  29.714  27.675  1.00  0.00     0.010 A 
ATOM     27  C   UNL A   1      37.107  29.264  29.902  1.00  0.00     0.010 A 
ATOM     28  C   UNL A   1      38.180  29.312  29.001  1.00  0.00    -0.014 A 
BRANCH  28  29
ATOM     29  C   UNL A   1      39.541  28.942  29.462  1.00  0.00     0.031 A 
ATOM     30  C   UNL A   1      40.297  29.849  30.393  1.00  0.00     0.074 A 
ATOM     31  C   UNL A   1      40.122  27.823  28.988  1.00  0.00     0.049 A 
ATOM     32  N   UNL A   1      41.520  29.736  30.849  1.00  0.00    -0.248 NA
ATOM     33  C   UNL A   1      39.596  31.058  30.852  1.00  0.00     0.031 C 
ATOM     34  C   UNL A   1      39.509  26.889  28.042  1.00  0.00     0.029 A 
ATOM     35  N   UNL A   1      41.364  27.287  29.225  1.00  0.00    -0.354 N 
ATOM     36  C   UNL A   1      41.736  30.862  31.631  1.00  0.00     0.074 A 
ATOM     37  C   UNL A   1      40.543  31.674  31.544  1.00  0.00     0.031 C 
ATOM     38  C   UNL A   1      40.365  25.884  27.798  1.00  0.00     0.029 A 
ATOM     39  C   UNL A   1      41.603  26.125  28.534  1.00  0.00     0.049 A 
ATOM     40  H   UNL A   1      42.019  27.698  29.834  1.00  0.00     0.167 HD
ATOM     41  C   UNL A   1      42.825  31.178  32.373  1.00  0.00     0.037 A 
ATOM     42  C   UNL A   1      42.701  25.346  28.490  1.00  0.00     0.037 A 
ATOM     43  C   UNL A   1      44.003  30.356  32.470  1.00  0.00     0.049 A 
ATOM     44  C   UNL A   1      43.902  25.729  29.314  1.00  0.00     0.074 A 
ATOM     45  C   UNL A   1      45.132  30.556  33.243  1.00  0.00     0.029 A 
ATOM     46  N   UNL A   1      44.202  29.177  31.767  1.00  0.00    -0.354 N 
ATOM     47  N   UNL A   1      44.068  26.758  30.109  1.00  0.00    -0.248 NA
ATOM     48  C   UNL A   1      45.066  24.836  29.238  1.00  0.00     0.031 C 
ATOM     49  C   UNL A   1      46.040  29.530  32.964  1.00  0.00     0.029 A 
ATOM     50  C   UNL A   1      45.451  28.654  32.066  1.00  0.00     0.049 A 
ATOM     51  H   UNL A   1      43.554  28.772  31.146  1.00  0.00     0.167 HD
ATOM     52  C   UNL A   1      45.340  26.620  30.650  1.00  0.00     0.074 A 
ATOM     53  C   UNL A   1      45.894  25.399  30.105  1.00  0.00     0.031 C 
ATOM     54  C   UNL A   1      45.987  27.432  31.522  1.00  0.00     0.037 A 
BRANCH  41  55
ATOM     55  C   UNL A   1      42.794  32.471  33.138  1.00  0.00     0.064 A 
ATOM     56  C   UNL A   1      42.330  32.533  34.462  1.00  0.00     0.173 A 
ATOM     57  C   UNL A   1      43.271  33.655  32.556  1.00  0.00     0.173 A 
ATOM     58  F   UNL A   1      41.852  31.433  35.063  1.00  0.00    -0.203 F 
ATOM     59  C   UNL A   1      42.314  33.739  35.160  1.00  0.00     0.198 A 
ATOM     60  C   UNL A   1      43.287  34.850  33.269  1.00  0.00     0.198 A 
ATOM     61  F   UNL A   1      43.734  33.651  31.297  1.00  0.00    -0.203 F 
ATOM     62  F   UNL A   1      41.817  33.783  36.404  1.00  0.00    -0.200 F 
ATOM     63  C   UNL A   1      42.800  34.894  34.567  1.00  0.00     0.200 A 
ATOM     64  F   UNL A   1      43.771  35.963  32.699  1.00  0.00    -0.200 F 
ATOM     65  F   UNL A   1      42.794  36.050  35.244  1.00  0.00    -0.200 F 
ENDBRANCH  41  55
BRANCH  42  66
ATOM     66  C   UNL A   1      42.710  24.120  27.651  1.00  0.00     0.064 A 
ATOM     67  C   UNL A   1      42.399  22.868  28.200  1.00  0.00     0.173 A 
ATOM     68  C   UNL A   1      43.036  24.169  26.287  1.00  0.00     0.173 A 
ATOM     69  F   UNL A   1      42.101  22.765  29.504  1.00  0.00    -0.203 F 
ATOM     70  C   UNL A   1      42.436  21.711  27.425  1.00  0.00     0.198 A 
ATOM     71  C   UNL A   1      43.041  23.016  25.505  1.00  0.00     0.198 A 
ATOM     72  F   UNL A   1      43.335  25.343  25.709  1.00  0.00    -0.203 F 
ATOM     73  F   UNL A   1      42.184  20.522  27.989  1.00  0.00    -0.200 F 
ATOM     74  C   UNL A   1      42.751  21.787  26.078  1.00  0.00     0.200 A 
ATOM     75  F   UNL A   1      43.330  23.096  24.199  1.00  0.00    -0.200 F 
ATOM     76  F   UNL A   1      42.783  20.674  25.332  1.00  0.00    -0.200 F 
ENDBRANCH  42  66
BRANCH  54  77
ATOM     77  C   UNL A   1      47.356  27.008  31.972  1.00  0.00     0.064 A 
ATOM     78  C   UNL A   1      48.519  27.457  31.331  1.00  0.00     0.173 A 
ATOM     79  C   UNL A   1      47.505  26.171  33.089  1.00  0.00     0.173 A 
ATOM     80  F   UNL A   1      48.431  28.247  30.249  1.00  0.00    -0.203 F 
ATOM     81  C   UNL A   1      49.778  27.063  31.773  1.00  0.00     0.198 A 
ATOM     82  C   UNL A   1      48.766  25.807  33.550  1.00  0.00     0.198 A 
ATOM     83  F   UNL A   1      46.425  25.718  33.745  1.00  0.00    -0.203 F 
ATOM     84  F   UNL A   1      50.874  27.463  31.112  1.00  0.00    -0.200 F 
ATOM     85  C   UNL A   1      49.902  26.245  32.886  1.00  0.00     0.200 A 
ATOM     86  F   UNL A   1      48.883  25.031  34.636  1.00  0.00    -0.200 F 
ATOM     87  F   UNL A   1      51.115  25.874  33.316  1.00  0.00    -0.200 F 
ENDBRANCH  54  77
ENDBRANCH  28  29
ENDBRANCH  20  23
ENDBRANCH  18  19
ENDBRANCH  17  18
ENDBRANCH   1  17
TORSDOF 14
ENDMDL
MODEL 2
REMARK VINA RESULT:     -10.0      5.563     10.093
REMARK SMILES CC(=O)N1CCC[C@H]1COCC(=O)NCCCNC(=O)c1ccc(-c2c3nc(c(-c4c(F)c(F)c(F)c(F)c4F)c4ccc([nH]4)c(-c4c(F)c(F)c(F)c(F)c4F)c4nc(c(-c5c(F)c(F)c(F)c(F)c5F)c5ccc2[nH]5)C=C4)C=C3)cc1
REMARK SMILES IDX 15 1 14 2 12 3 13 4 11 6 10 7 9 8 8 9 4 10 5 11 6 12 7 13
REMARK SMILES IDX 2 14 1 15 3 16 16 17 17 18 18 19 19 20 20 22 21 23 22 24
REMARK SMILES IDX 83 25 23 26 82 27 24 28 25 29 26 30 76 31 27 32 81 33 75 34
REMARK SMILES IDX 77 35 28 36 80 37 74 38 73 39 29 41 61 42 41 43 60 44 42 45
REMARK SMILES IDX 45 46 59 47 78 48 43 49 44 50 58 52 79 53 46 54 30 55 31 56
REMARK SMILES IDX 39 57 32 58 33 59 37 60 40 61 34 62 35 63 38 64 36 65 62 66
REMARK SMILES IDX 63 67 71 68 64 69 65 70 69 71 72 72 66 73 67 74 70 75 68 76
REMARK SMILES IDX 47 77 48 78 56 79 49 80 50 81 54 82 57 83 51 84 52 85 55 86
REMARK SMILES IDX 53 87
REMARK H PARENT 14 5 18 21 77 40 45 51
REMARK Flexibility Score: inf
ROOT
ATOM      1  C   UNL A   1      37.323  20.752  24.689  1.00  0.00     0.117 C 
ENDROOT
BRANCH   1   2
ATOM      2  N   UNL A   1      37.510  21.848  25.619  1.00  0.00    -0.354 N 
ATOM      3  C   UNL A   1      37.278  23.175  25.413  1.00  0.00     0.246 C 
ATOM      4  O   UNL A   1      37.547  23.971  26.313  1.00  0.00    -0.272 OA
ATOM      5  H   UNL A   1      37.848  21.604  26.510  1.00  0.00     0.163 HD
BRANCH   3   6
ATOM      6  C   UNL A   1      36.664  23.629  24.084  1.00  0.00     0.260 C 
BRANCH   6   7
ATOM      7  O   UNL A   1      35.302  23.999  24.062  1.00  0.00    -0.370 OA
BRANCH   7   8
ATOM      8  C   UNL A   1      34.348  22.940  23.934  1.00  0.00     0.185 C 
BRANCH   8   9
ATOM      9  C   UNL A   1      33.441  22.670  25.160  1.00  0.00     0.111 C 
ATOM     10  N   UNL A   1      33.590  21.338  25.733  1.00  0.00    -0.338 N 
ATOM     11  C   UNL A   1      34.352  21.380  26.963  1.00  0.00     0.120 C 
ATOM     12  C   UNL A   1      34.092  22.765  27.524  1.00  0.00     0.024 C 
ATOM     13  C   UNL A   1      33.659  23.626  26.336  1.00  0.00     0.029 C 
BRANCH  10  14
ATOM     14  C   UNL A   1      33.045  20.228  25.130  1.00  0.00     0.219 C 
ATOM     15  C   UNL A   1      34.013  19.165  24.678  1.00  0.00     0.114 C 
ATOM     16  O   UNL A   1      31.830  20.069  25.014  1.00  0.00    -0.275 OA
ENDBRANCH  10  14
ENDBRANCH   8   9
ENDBRANCH   7   8
ENDBRANCH   6   7
ENDBRANCH   3   6
ENDBRANCH   1   2
BRANCH   1  17
ATOM     17  C   UNL A   1      38.280  19.602  24.970  1.00  0.00     0.042 C 
BRANCH  17  18
ATOM     18  C   UNL A   1      39.389  19.938  25.962  1.00  0.00     0.118 C 
BRANCH  18  19
ATOM     19  N   UNL A   1      40.463  18.953  25.973  1.00  0.00    -0.352 N 
ATOM     20  C   UNL A   1      41.820  19.122  26.071  1.00  0.00     0.251 C 
ATOM     21  H   UNL A   1      40.168  18.017  25.898  1.00  0.00     0.163 HD
ATOM     22  O   UNL A   1      42.570  18.168  25.879  1.00  0.00    -0.269 OA
BRANCH  20  23
ATOM     23  C   UNL A   1      42.385  20.449  26.387  1.00  0.00     0.039 A 
ATOM     24  C   UNL A   1      42.883  21.235  25.346  1.00  0.00     0.014 A 
ATOM     25  C   UNL A   1      42.439  20.912  27.704  1.00  0.00     0.014 A 
ATOM     26  C   UNL A   1      43.371  22.515  25.617  1.00  0.00     0.010 A 
ATOM     27  C   UNL A   1      42.847  22.216  27.962  1.00  0.00     0.010 A 
ATOM     28  C   UNL A   1      43.319  23.031  26.923  1.00  0.00    -0.014 A 
BRANCH  28  29
ATOM     29  C   UNL A   1      43.750  24.420  27.218  1.00  0.00     0.031 A 
ATOM     30  C   UNL A   1      42.755  25.430  27.717  1.00  0.00     0.074 A 
ATOM     31  C   UNL A   1      45.022  24.788  26.972  1.00  0.00     0.049 A 
ATOM     32  N   UNL A   1      42.921  26.707  27.962  1.00  0.00    -0.248 NA
ATOM     33  C   UNL A   1      41.383  24.951  27.945  1.00  0.00     0.031 C 
ATOM     34  C   UNL A   1      46.067  23.910  26.442  1.00  0.00     0.029 A 
ATOM     35  N   UNL A   1      45.651  25.998  27.123  1.00  0.00    -0.354 N 
ATOM     36  C   UNL A   1      41.677  27.180  28.355  1.00  0.00     0.074 A 
ATOM     37  C   UNL A   1      40.753  26.072  28.263  1.00  0.00     0.031 C 
ATOM     38  C   UNL A   1      47.212  24.604  26.334  1.00  0.00     0.029 A 
ATOM     39  C   UNL A   1      46.972  25.984  26.745  1.00  0.00     0.049 A 
ATOM     40  H   UNL A   1      45.198  26.800  27.471  1.00  0.00     0.167 HD
ATOM     41  C   UNL A   1      41.342  28.424  28.777  1.00  0.00     0.037 A 
ATOM     42  C   UNL A   1      47.883  26.975  26.721  1.00  0.00     0.037 A 
ATOM     43  C   UNL A   1      42.272  29.518  28.885  1.00  0.00     0.049 A 
ATOM     44  C   UNL A   1      47.480  28.350  27.182  1.00  0.00     0.074 A 
ATOM     45  C   UNL A   1      42.046  30.797  29.360  1.00  0.00     0.029 A 
ATOM     46  N   UNL A   1      43.605  29.461  28.506  1.00  0.00    -0.354 N 
ATOM     47  N   UNL A   1      46.319  28.770  27.623  1.00  0.00    -0.248 NA
ATOM     48  C   UNL A   1      48.518  29.389  27.148  1.00  0.00     0.031 C 
ATOM     49  C   UNL A   1      43.227  31.532  29.216  1.00  0.00     0.029 A 
ATOM     50  C   UNL A   1      44.207  30.693  28.711  1.00  0.00     0.049 A 
ATOM     51  H   UNL A   1      44.057  28.664  28.145  1.00  0.00     0.167 HD
ATOM     52  C   UNL A   1      46.494  30.109  27.947  1.00  0.00     0.074 A 
ATOM     53  C   UNL A   1      47.878  30.427  27.667  1.00  0.00     0.031 C 
ATOM     54  C   UNL A   1      45.589  30.993  28.434  1.00  0.00     0.037 A 
BRANCH  41  55
ATOM     55  C   UNL A   1      39.909  28.668  29.153  1.00  0.00     0.064 A 
ATOM     56  C   UNL A   1      39.439  28.441  30.457  1.00  0.00     0.173 A 
ATOM     57  C   UNL A   1      39.001  29.173  28.210  1.00  0.00     0.173 A 
ATOM     58  F   UNL A   1      40.261  27.949  31.396  1.00  0.00    -0.203 F 
ATOM     59  C   UNL A   1      38.107  28.680  30.791  1.00  0.00     0.198 A 
ATOM     60  C   UNL A   1      37.680  29.443  28.557  1.00  0.00     0.198 A 
ATOM     61  F   UNL A   1      39.398  29.415  26.951  1.00  0.00    -0.203 F 
ATOM     62  F   UNL A   1      37.670  28.405  32.028  1.00  0.00    -0.200 F 
ATOM     63  C   UNL A   1      37.232  29.188  29.844  1.00  0.00     0.200 A 
ATOM     64  F   UNL A   1      36.838  29.949  27.644  1.00  0.00    -0.200 F 
ATOM     65  F   UNL A   1      35.954  29.426  30.171  1.00  0.00    -0.200 F 
ENDBRANCH  41  55
BRANCH  42  66
ATOM     66  C   UNL A   1      49.269  26.700  26.261  1.00  0.00     0.064 A 
ATOM     67  C   UNL A   1      50.238  26.209  27.146  1.00  0.00     0.173 A 
ATOM     68  C   UNL A   1      49.657  26.928  24.932  1.00  0.00     0.173 A 
ATOM     69  F   UNL A   1      49.922  25.993  28.432  1.00  0.00    -0.203 F 
ATOM     70  C   UNL A   1      51.546  25.978  26.728  1.00  0.00     0.198 A 
ATOM     71  C   UNL A   1      50.958  26.667  24.506  1.00  0.00     0.198 A 
ATOM     72  F   UNL A   1      48.767  27.392  24.042  1.00  0.00    -0.203 F 
ATOM     73  F   UNL A   1      52.464  25.557  27.609  1.00  0.00    -0.200 F 
ATOM     74  C   UNL A   1      51.904  26.201  25.407  1.00  0.00     0.200 A 
ATOM     75  F   UNL A   1      51.295  26.869  23.226  1.00  0.00    -0.200 F 
ATOM     76  F   UNL A   1      53.162  25.977  25.004  1.00  0.00    -0.200 F 
ENDBRANCH  42  66
BRANCH  54  77
ATOM     77  C   UNL A   1      46.076  32.383  28.733  1.00  0.00     0.064 A 
ATOM     78  C   UNL A   1      46.624  32.723  29.978  1.00  0.00     0.173 A 
ATOM     79  C   UNL A   1      46.029  33.376  27.743  1.00  0.00     0.173 A 
ATOM     80  F   UNL A   1      46.677  31.814  30.964  1.00  0.00    -0.203 F 
ATOM     81  C   UNL A   1      47.081  34.014  30.230  1.00  0.00     0.198 A 
ATOM     82  C   UNL A   1      46.520  34.655  27.986  1.00  0.00     0.198 A 
ATOM     83  F   UNL A   1      45.522  33.102  26.531  1.00  0.00    -0.203 F 
ATOM     84  F   UNL A   1      47.553  34.330  31.444  1.00  0.00    -0.200 F 
ATOM     85  C   UNL A   1      47.037  34.976  29.233  1.00  0.00     0.200 A 
ATOM     86  F   UNL A   1      46.491  35.579  27.016  1.00  0.00    -0.200 F 
ATOM     87  F   UNL A   1      47.486  36.215  29.473  1.00  0.00    -0.200 F 
ENDBRANCH  54  77
ENDBRANCH  28  29
ENDBRANCH  20  23
ENDBRANCH  18  19
ENDBRANCH  17  18
ENDBRANCH   1  17
TORSDOF 14
ENDMDL
MODEL 3
REMARK VINA RESULT:     -10.0      3.610     10.024
REMARK SMILES CC(=O)N1CCC[C@H]1COCC(=O)NCCCNC(=O)c1ccc(-c2c3nc(c(-c4c(F)c(F)c(F)c(F)c4F)c4ccc([nH]4)c(-c4c(F)c(F)c(F)c(F)c4F)c4nc(c(-c5c(F)c(F)c(F)c(F)c5F)c5ccc2[nH]5)C=C4)C=C3)cc1
REMARK SMILES IDX 15 1 14 2 12 3 13 4 11 6 10 7 9 8 8 9 4 10 5 11 6 12 7 13
REMARK SMILES IDX 2 14 1 15 3 16 16 17 17 18 18 19 19 20 20 22 21 23 22 24
REMARK SMILES IDX 83 25 23 26 82 27 24 28 25 29 26 30 76 31 27 32 81 33 75 34
REMARK SMILES IDX 77 35 28 36 80 37 74 38 73 39 29 41 61 42 41 43 60 44 42 45
REMARK SMILES IDX 45 46 59 47 78 48 43 49 44 50 58 52 79 53 46 54 30 55 31 56
REMARK SMILES IDX 39 57 32 58 33 59 37 60 40 61 34 62 35 63 38 64 36 65 62 66
REMARK SMILES IDX 63 67 71 68 64 69 65 70 69 71 72 72 66 73 67 74 70 75 68 76
REMARK SMILES IDX 47 77 48 78 56 79 49 80 50 81 54 82 57 83 51 84 52 85 55 86
REMARK SMILES IDX 53 87
REMARK H PARENT 14 5 18 21 77 40 45 51
REMARK Flexibility Score: inf
ROOT
ATOM      1  C   UNL A   1      31.497  30.748  26.562  1.00  0.00     0.117 C 
ENDROOT
BRANCH   1   2
ATOM      2  N   UNL A   1      31.775  30.226  25.239  1.00  0.00    -0.354 N 
ATOM      3  C   UNL A   1      32.809  29.428  24.850  1.00  0.00     0.246 C 
ATOM      4  O   UNL A   1      32.910  29.125  23.660  1.00  0.00    -0.272 OA
ATOM      5  H   UNL A   1      31.139  30.480  24.532  1.00  0.00     0.163 HD
BRANCH   3   6
ATOM      6  C   UNL A   1      33.793  28.911  25.904  1.00  0.00     0.260 C 
BRANCH   6   7
ATOM      7  O   UNL A   1      33.359  27.907  26.797  1.00  0.00    -0.370 OA
BRANCH   7   8
ATOM      8  C   UNL A   1      32.617  26.821  26.233  1.00  0.00     0.185 C 
BRANCH   8   9
ATOM      9  C   UNL A   1      33.405  25.522  25.933  1.00  0.00     0.111 C 
ATOM     10  N   UNL A   1      32.569  24.341  25.760  1.00  0.00    -0.338 N 
ATOM     11  C   UNL A   1      32.458  23.977  24.364  1.00  0.00     0.120 C 
ATOM     12  C   UNL A   1      33.746  24.480  23.737  1.00  0.00     0.024 C 
ATOM     13  C   UNL A   1      34.265  25.578  24.667  1.00  0.00     0.029 C 
BRANCH  10  14
ATOM     14  C   UNL A   1      31.993  23.701  26.834  1.00  0.00     0.219 C 
ATOM     15  C   UNL A   1      32.855  22.702  27.563  1.00  0.00     0.114 C 
ATOM     16  O   UNL A   1      30.857  23.962  27.227  1.00  0.00    -0.275 OA
ENDBRANCH  10  14
ENDBRANCH   8   9
ENDBRANCH   7   8
ENDBRANCH   6   7
ENDBRANCH   3   6
ENDBRANCH   1   2
BRANCH   1  17
ATOM     17  C   UNL A   1      31.484  32.270  26.578  1.00  0.00     0.042 C 
BRANCH  17  18
ATOM     18  C   UNL A   1      32.683  32.899  27.281  1.00  0.00     0.118 C 
BRANCH  18  19
ATOM     19  N   UNL A   1      32.443  34.275  27.696  1.00  0.00    -0.352 N 
ATOM     20  C   UNL A   1      33.017  35.010  28.701  1.00  0.00     0.251 C 
ATOM     21  H   UNL A   1      31.760  34.753  27.173  1.00  0.00     0.163 HD
ATOM     22  O   UNL A   1      32.544  36.103  29.006  1.00  0.00    -0.269 OA
BRANCH  20  23
ATOM     23  C   UNL A   1      34.188  34.488  29.432  1.00  0.00     0.039 A 
ATOM     24  C   UNL A   1      33.989  33.865  30.667  1.00  0.00     0.014 A 
ATOM     25  C   UNL A   1      35.479  34.622  28.913  1.00  0.00     0.014 A 
ATOM     26  C   UNL A   1      35.077  33.315  31.348  1.00  0.00     0.010 A 
ATOM     27  C   UNL A   1      36.548  34.001  29.550  1.00  0.00     0.010 A 
ATOM     28  C   UNL A   1      36.360  33.344  30.775  1.00  0.00    -0.014 A 
BRANCH  28  29
ATOM     29  C   UNL A   1      37.514  32.688  31.439  1.00  0.00     0.031 A 
ATOM     30  C   UNL A   1      38.193  31.515  30.789  1.00  0.00     0.074 A 
ATOM     31  C   UNL A   1      37.904  33.107  32.658  1.00  0.00     0.049 A 
ATOM     32  N   UNL A   1      39.167  30.766  31.243  1.00  0.00    -0.248 NA
ATOM     33  C   UNL A   1      37.696  31.112  29.465  1.00  0.00     0.031 C 
ATOM     34  C   UNL A   1      37.291  34.202  33.411  1.00  0.00     0.029 A 
ATOM     35  N   UNL A   1      38.901  32.653  33.485  1.00  0.00    -0.354 N 
ATOM     36  C   UNL A   1      39.385  29.799  30.271  1.00  0.00     0.074 A 
ATOM     37  C   UNL A   1      38.407  30.020  29.228  1.00  0.00     0.031 C 
ATOM     38  C   UNL A   1      37.940  34.352  34.577  1.00  0.00     0.029 A 
ATOM     39  C   UNL A   1      38.984  33.335  34.674  1.00  0.00     0.049 A 
ATOM     40  H   UNL A   1      39.501  31.909  33.247  1.00  0.00     0.167 HD
ATOM     41  C   UNL A   1      40.331  28.830  30.241  1.00  0.00     0.037 A 
ATOM     42  C   UNL A   1      39.801  33.155  35.729  1.00  0.00     0.037 A 
ATOM     43  C   UNL A   1      41.314  28.628  31.273  1.00  0.00     0.049 A 
ATOM     44  C   UNL A   1      40.834  32.061  35.675  1.00  0.00     0.074 A 
ATOM     45  C   UNL A   1      42.353  27.716  31.308  1.00  0.00     0.029 A 
ATOM     46  N   UNL A   1      41.375  29.350  32.457  1.00  0.00    -0.354 N 
ATOM     47  N   UNL A   1      41.080  31.200  34.717  1.00  0.00    -0.248 NA
ATOM     48  C   UNL A   1      41.708  31.919  36.847  1.00  0.00     0.031 C 
ATOM     49  C   UNL A   1      43.007  27.845  32.537  1.00  0.00     0.029 A 
ATOM     50  C   UNL A   1      42.417  28.882  33.242  1.00  0.00     0.049 A 
ATOM     51  H   UNL A   1      40.768  30.084  32.703  1.00  0.00     0.167 HD
ATOM     52  C   UNL A   1      42.153  30.436  35.157  1.00  0.00     0.074 A 
ATOM     53  C   UNL A   1      42.522  30.947  36.461  1.00  0.00     0.031 C 
ATOM     54  C   UNL A   1      42.777  29.406  34.535  1.00  0.00     0.037 A 
BRANCH  41  55
ATOM     55  C   UNL A   1      40.348  27.911  29.053  1.00  0.00     0.064 A 
ATOM     56  C   UNL A   1      41.136  28.180  27.922  1.00  0.00     0.173 A 
ATOM     57  C   UNL A   1      39.597  26.725  29.059  1.00  0.00     0.173 A 
ATOM     58  F   UNL A   1      41.865  29.305  27.859  1.00  0.00    -0.203 F 
ATOM     59  C   UNL A   1      41.146  27.313  26.831  1.00  0.00     0.198 A 
ATOM     60  C   UNL A   1      39.637  25.844  27.981  1.00  0.00     0.198 A 
ATOM     61  F   UNL A   1      38.832  26.414  30.116  1.00  0.00    -0.203 F 
ATOM     62  F   UNL A   1      41.866  27.619  25.743  1.00  0.00    -0.200 F 
ATOM     63  C   UNL A   1      40.404  26.143  26.865  1.00  0.00     0.200 A 
ATOM     64  F   UNL A   1      38.930  24.706  28.022  1.00  0.00    -0.200 F 
ATOM     65  F   UNL A   1      40.422  25.306  25.819  1.00  0.00    -0.200 F 
ENDBRANCH  41  55
BRANCH  42  66
ATOM     66  C   UNL A   1      39.689  34.040  36.917  1.00  0.00     0.064 A 
ATOM     67  C   UNL A   1      40.383  35.256  36.978  1.00  0.00     0.173 A 
ATOM     68  C   UNL A   1      38.893  33.689  38.019  1.00  0.00     0.173 A 
ATOM     69  F   UNL A   1      41.173  35.628  35.959  1.00  0.00    -0.203 F 
ATOM     70  C   UNL A   1      40.306  36.076  38.102  1.00  0.00     0.198 A 
ATOM     71  C   UNL A   1      38.791  34.524  39.129  1.00  0.00     0.198 A 
ATOM     72  F   UNL A   1      38.203  32.539  38.009  1.00  0.00    -0.203 F 
ATOM     73  F   UNL A   1      41.021  37.208  38.153  1.00  0.00    -0.200 F 
ATOM     74  C   UNL A   1      39.506  35.712  39.174  1.00  0.00     0.200 A 
ATOM     75  F   UNL A   1      38.004  34.177  40.155  1.00  0.00    -0.200 F 
ATOM     76  F   UNL A   1      39.429  36.502  40.254  1.00  0.00    -0.200 F 
ENDBRANCH  42  66
BRANCH  54  77
ATOM     77  C   UNL A   1      43.950  28.784  35.239  1.00  0.00     0.064 A 
ATOM     78  C   UNL A   1      45.259  29.247  35.046  1.00  0.00     0.173 A 
ATOM     79  C   UNL A   1      43.753  27.736  36.151  1.00  0.00     0.173 A 
ATOM     80  F   UNL A   1      45.504  30.237  34.173  1.00  0.00    -0.203 F 
ATOM     81  C   UNL A   1      46.331  28.666  35.719  1.00  0.00     0.198 A 
ATOM     82  C   UNL A   1      44.821  27.181  36.848  1.00  0.00     0.198 A 
ATOM     83  F   UNL A   1      42.519  27.260  36.379  1.00  0.00    -0.203 F 
ATOM     84  F   UNL A   1      47.579  29.090  35.479  1.00  0.00    -0.200 F 
ATOM     85  C   UNL A   1      46.111  27.640  36.625  1.00  0.00     0.200 A 
ATOM     86  F   UNL A   1      44.604  26.201  37.736  1.00  0.00    -0.200 F 
ATOM     87  F   UNL A   1      47.142  27.087  37.279  1.00  0.00    -0.200 F 
ENDBRANCH  54  77
ENDBRANCH  28  29
ENDBRANCH  20  23
ENDBRANCH  18  19
ENDBRANCH  17  18
ENDBRANCH   1  17
TORSDOF 14
ENDMDL
