MODEL 1
REMARK VINA RESULT:     -12.8      0.000      0.000
REMARK SMILES CC[C@@](O)(C(=O)NCCCNC(=O)c1ccc(-c2c3nc(c(-c4c(F)c(F)c(F)c(F)c4F)c4ccc([nH]4)c(-c4c(F)c(F)c(F)c(F)c4F)c4nc(c(-c5c(F)c(F)c(F)c(F)c5F)c5ccc2[nH]5)C=C4)C=C3)cc1)[C@H]1CCc2ccc(OC)cc21
REMARK SMILES IDX 9 1 8 2 7 3 5 4 6 5 3 7 2 8 1 9 4 10 77 12 78 13 87 14 79 15
REMARK SMILES IDX 80 16 86 17 81 18 83 19 82 20 84 21 85 22 10 23 11 24 12 25
REMARK SMILES IDX 13 27 14 28 15 29 76 30 16 31 75 32 17 33 18 34 19 35 69 36
REMARK SMILES IDX 20 37 74 38 68 39 70 40 21 41 73 42 67 43 66 44 22 46 54 47
REMARK SMILES IDX 34 48 53 49 35 50 38 51 52 52 71 53 36 54 37 55 51 57 72 58
REMARK SMILES IDX 39 59 23 60 24 61 32 62 25 63 26 64 30 65 33 66 27 67 28 68
REMARK SMILES IDX 31 69 29 70 55 71 56 72 64 73 57 74 58 75 62 76 65 77 59 78
REMARK SMILES IDX 60 79 63 80 61 81 40 82 41 83 49 84 42 85 43 86 47 87 50 88
REMARK SMILES IDX 44 89 45 90 48 91 46 92
REMARK H PARENT 7 6 4 11 11 26 70 45 38 56
REMARK Flexibility Score: inf
ROOT
ATOM      1  C   UNL A   1      32.457  29.728  25.439  1.00  0.00     0.042 C 
ENDROOT
BRANCH   1   2
ATOM      2  C   UNL A   1      33.649  28.820  25.165  1.00  0.00     0.117 C 
BRANCH   2   3
ATOM      3  N   UNL A   1      34.006  28.819  23.747  1.00  0.00    -0.354 N 
ATOM      4  C   UNL A   1      33.714  27.975  22.709  1.00  0.00     0.252 C 
ATOM      5  O   UNL A   1      34.277  28.204  21.634  1.00  0.00    -0.272 OA
ATOM      6  H   UNL A   1      34.574  29.579  23.486  1.00  0.00     0.163 HD
BRANCH   4   7
ATOM      7  C   UNL A   1      32.698  26.798  22.840  1.00  0.00     0.149 C 
BRANCH   7   8
ATOM      8  C   UNL A   1      33.160  25.688  21.883  1.00  0.00     0.043 C 
ATOM      9  C   UNL A   1      32.385  25.578  20.572  1.00  0.00     0.007 C 
ENDBRANCH   7   8
BRANCH   7  10
ATOM     10  O   UNL A   1      32.878  26.129  24.127  1.00  0.00    -0.379 OA
ATOM     11  H   UNL A   1      32.887  25.169  23.993  1.00  0.00     0.212 HD
ENDBRANCH   7  10
BRANCH   7  12
ATOM     12  C   UNL A   1      31.220  27.327  22.877  1.00  0.00     0.061 C 
ATOM     13  C   UNL A   1      30.589  26.821  24.214  1.00  0.00     0.017 C 
ATOM     14  C   UNL A   1      30.243  28.485  22.672  1.00  0.00    -0.035 A 
ATOM     15  C   UNL A   1      29.123  26.696  23.879  1.00  0.00     0.036 C 
ATOM     16  C   UNL A   1      28.979  27.980  23.126  1.00  0.00    -0.044 A 
ATOM     17  C   UNL A   1      30.252  29.736  22.059  1.00  0.00     0.050 A 
ATOM     18  C   UNL A   1      27.762  28.579  22.876  1.00  0.00     0.008 A 
ATOM     19  C   UNL A   1      29.007  30.397  21.865  1.00  0.00     0.119 A 
ATOM     20  C   UNL A   1      27.786  29.797  22.234  1.00  0.00     0.047 A 
BRANCH  19  21
ATOM     21  O   UNL A   1      28.779  31.619  21.289  1.00  0.00    -0.497 OA
ATOM     22  C   UNL A   1      28.403  32.697  22.121  1.00  0.00     0.278 C 
ENDBRANCH  19  21
ENDBRANCH   7  12
ENDBRANCH   4   7
ENDBRANCH   2   3
ENDBRANCH   1   2
BRANCH   1  23
ATOM     23  C   UNL A   1      32.468  30.254  26.867  1.00  0.00     0.118 C 
BRANCH  23  24
ATOM     24  N   UNL A   1      32.497  31.714  26.907  1.00  0.00    -0.352 N 
ATOM     25  C   UNL A   1      33.388  32.560  27.525  1.00  0.00     0.251 C 
ATOM     26  H   UNL A   1      31.769  32.160  26.417  1.00  0.00     0.163 HD
ATOM     27  O   UNL A   1      33.117  33.735  27.695  1.00  0.00    -0.269 OA
BRANCH  25  28
ATOM     28  C   UNL A   1      34.674  32.012  27.995  1.00  0.00     0.039 A 
ATOM     29  C   UNL A   1      35.781  32.855  28.089  1.00  0.00     0.014 A 
ATOM     30  C   UNL A   1      34.763  30.672  28.381  1.00  0.00     0.014 A 
ATOM     31  C   UNL A   1      36.957  32.374  28.666  1.00  0.00     0.010 A 
ATOM     32  C   UNL A   1      35.899  30.222  29.038  1.00  0.00     0.010 A 
ATOM     33  C   UNL A   1      37.002  31.073  29.197  1.00  0.00    -0.014 A 
BRANCH  33  34
ATOM     34  C   UNL A   1      38.177  30.595  29.965  1.00  0.00     0.031 A 
ATOM     35  C   UNL A   1      39.096  29.566  29.373  1.00  0.00     0.074 A 
ATOM     36  C   UNL A   1      38.353  31.025  31.230  1.00  0.00     0.049 A 
ATOM     37  N   UNL A   1      40.117  28.958  29.922  1.00  0.00    -0.248 NA
ATOM     38  C   UNL A   1      38.820  29.142  27.990  1.00  0.00     0.031 C 
ATOM     39  C   UNL A   1      37.486  31.979  31.929  1.00  0.00     0.029 A 
ATOM     40  N   UNL A   1      39.307  30.704  32.163  1.00  0.00    -0.354 N 
ATOM     41  C   UNL A   1      40.591  28.074  28.963  1.00  0.00     0.074 A 
ATOM     42  C   UNL A   1      39.725  28.189  27.811  1.00  0.00     0.031 C 
ATOM     43  C   UNL A   1      37.958  32.177  33.169  1.00  0.00     0.029 A 
ATOM     44  C   UNL A   1      39.127  31.329  33.374  1.00  0.00     0.049 A 
ATOM     45  H   UNL A   1      40.050  30.084  31.983  1.00  0.00     0.167 HD
ATOM     46  C   UNL A   1      41.666  27.256  29.036  1.00  0.00     0.037 A 
ATOM     47  C   UNL A   1      39.813  31.212  34.526  1.00  0.00     0.037 A 
ATOM     48  C   UNL A   1      42.540  27.173  30.176  1.00  0.00     0.049 A 
ATOM     49  C   UNL A   1      40.993  30.278  34.576  1.00  0.00     0.074 A 
ATOM     50  C   UNL A   1      43.710  26.448  30.309  1.00  0.00     0.029 A 
ATOM     51  N   UNL A   1      42.334  27.830  31.379  1.00  0.00    -0.354 N 
ATOM     52  N   UNL A   1      41.496  29.527  33.626  1.00  0.00    -0.248 NA
ATOM     53  C   UNL A   1      41.701  30.171  35.860  1.00  0.00     0.031 C 
ATOM     54  C   UNL A   1      44.177  26.612  31.617  1.00  0.00     0.029 A 
ATOM     55  C   UNL A   1      43.333  27.488  32.277  1.00  0.00     0.049 A 
ATOM     56  H   UNL A   1      41.591  28.448  31.568  1.00  0.00     0.167 HD
ATOM     57  C   UNL A   1      42.586  28.878  34.189  1.00  0.00     0.074 A 
ATOM     58  C   UNL A   1      42.691  29.346  35.556  1.00  0.00     0.031 C 
ATOM     59  C   UNL A   1      43.420  27.968  33.632  1.00  0.00     0.037 A 
BRANCH  46  60
ATOM     60  C   UNL A   1      41.973  26.381  27.858  1.00  0.00     0.064 A 
ATOM     61  C   UNL A   1      42.965  26.721  26.927  1.00  0.00     0.173 A 
ATOM     62  C   UNL A   1      41.334  25.139  27.714  1.00  0.00     0.173 A 
ATOM     63  F   UNL A   1      43.598  27.901  27.014  1.00  0.00    -0.203 F 
ATOM     64  C   UNL A   1      43.303  25.852  25.892  1.00  0.00     0.198 A 
ATOM     65  C   UNL A   1      41.694  24.263  26.695  1.00  0.00     0.198 A 
ATOM     66  F   UNL A   1      40.380  24.766  28.580  1.00  0.00    -0.203 F 
ATOM     67  F   UNL A   1      44.239  26.208  25.000  1.00  0.00    -0.200 F 
ATOM     68  C   UNL A   1      42.677  24.620  25.786  1.00  0.00     0.200 A 
ATOM     69  F   UNL A   1      41.099  23.065  26.603  1.00  0.00    -0.200 F 
ATOM     70  F   UNL A   1      43.023  23.774  24.804  1.00  0.00    -0.200 F 
ENDBRANCH  46  60
BRANCH  47  71
ATOM     71  C   UNL A   1      39.401  31.976  35.735  1.00  0.00     0.064 A 
ATOM     72  C   UNL A   1      38.448  31.462  36.626  1.00  0.00     0.173 A 
ATOM     73  C   UNL A   1      39.914  33.255  35.998  1.00  0.00     0.173 A 
ATOM     74  F   UNL A   1      37.913  30.252  36.409  1.00  0.00    -0.203 F 
ATOM     75  C   UNL A   1      37.994  32.215  37.708  1.00  0.00     0.198 A 
ATOM     76  C   UNL A   1      39.487  33.991  37.103  1.00  0.00     0.198 A 
ATOM     77  F   UNL A   1      40.833  33.793  35.183  1.00  0.00    -0.203 F 
ATOM     78  F   UNL A   1      37.029  31.727  38.501  1.00  0.00    -0.200 F 
ATOM     79  C   UNL A   1      38.515  33.477  37.946  1.00  0.00     0.200 A 
ATOM     80  F   UNL A   1      40.006  35.203  37.338  1.00  0.00    -0.200 F 
ATOM     81  F   UNL A   1      38.072  34.202  38.983  1.00  0.00    -0.200 F 
ENDBRANCH  47  71
BRANCH  59  82
ATOM     82  C   UNL A   1      44.527  27.430  34.492  1.00  0.00     0.064 A 
ATOM     83  C   UNL A   1      45.752  28.102  34.612  1.00  0.00     0.173 A 
ATOM     84  C   UNL A   1      44.344  26.257  35.240  1.00  0.00     0.173 A 
ATOM     85  F   UNL A   1      45.981  29.220  33.904  1.00  0.00    -0.203 F 
ATOM     86  C   UNL A   1      46.764  27.606  35.430  1.00  0.00     0.198 A 
ATOM     87  C   UNL A   1      45.344  25.783  36.083  1.00  0.00     0.198 A 
ATOM     88  F   UNL A   1      43.188  25.580  35.166  1.00  0.00    -0.203 F 
ATOM     89  F   UNL A   1      47.944  28.237  35.490  1.00  0.00    -0.200 F 
ATOM     90  C   UNL A   1      46.555  26.453  36.171  1.00  0.00     0.200 A 
ATOM     91  F   UNL A   1      45.136  24.678  36.813  1.00  0.00    -0.200 F 
ATOM     92  F   UNL A   1      47.525  25.984  36.968  1.00  0.00    -0.200 F 
ENDBRANCH  59  82
ENDBRANCH  33  34
ENDBRANCH  25  28
ENDBRANCH  23  24
ENDBRANCH   1  23
TORSDOF 14
ENDMDL
MODEL 2
REMARK VINA RESULT:     -12.7      0.455      7.403
REMARK SMILES CC[C@@](O)(C(=O)NCCCNC(=O)c1ccc(-c2c3nc(c(-c4c(F)c(F)c(F)c(F)c4F)c4ccc([nH]4)c(-c4c(F)c(F)c(F)c(F)c4F)c4nc(c(-c5c(F)c(F)c(F)c(F)c5F)c5ccc2[nH]5)C=C4)C=C3)cc1)[C@H]1CCc2ccc(OC)cc21
REMARK SMILES IDX 9 1 8 2 7 3 5 4 6 5 3 7 2 8 1 9 4 10 77 12 78 13 87 14 79 15
REMARK SMILES IDX 80 16 86 17 81 18 83 19 82 20 84 21 85 22 10 23 11 24 12 25
REMARK SMILES IDX 13 27 14 28 15 29 76 30 16 31 75 32 17 33 18 34 19 35 69 36
REMARK SMILES IDX 20 37 74 38 68 39 70 40 21 41 73 42 67 43 66 44 22 46 54 47
REMARK SMILES IDX 34 48 53 49 35 50 38 51 52 52 71 53 36 54 37 55 51 57 72 58
REMARK SMILES IDX 39 59 23 60 24 61 32 62 25 63 26 64 30 65 33 66 27 67 28 68
REMARK SMILES IDX 31 69 29 70 55 71 56 72 64 73 57 74 58 75 62 76 65 77 59 78
REMARK SMILES IDX 60 79 63 80 61 81 40 82 41 83 49 84 42 85 43 86 47 87 50 88
REMARK SMILES IDX 44 89 45 90 48 91 46 92
REMARK H PARENT 7 6 4 11 11 26 70 45 38 56
REMARK Flexibility Score: inf
ROOT
ATOM      1  C   UNL A   1      32.309  29.936  25.376  1.00  0.00     0.042 C 
ENDROOT
BRANCH   1   2
ATOM      2  C   UNL A   1      33.473  28.971  25.200  1.00  0.00     0.117 C 
BRANCH   2   3
ATOM      3  N   UNL A   1      33.929  28.931  23.812  1.00  0.00    -0.354 N 
ATOM      4  C   UNL A   1      33.731  28.043  22.787  1.00  0.00     0.252 C 
ATOM      5  O   UNL A   1      34.363  28.250  21.746  1.00  0.00    -0.272 OA
ATOM      6  H   UNL A   1      34.495  29.696  23.562  1.00  0.00     0.163 HD
BRANCH   4   7
ATOM      7  C   UNL A   1      32.737  26.844  22.891  1.00  0.00     0.149 C 
BRANCH   7   8
ATOM      8  C   UNL A   1      33.227  25.761  21.916  1.00  0.00     0.043 C 
ATOM      9  C   UNL A   1      32.409  25.603  20.637  1.00  0.00     0.007 C 
ENDBRANCH   7   8
BRANCH   7  10
ATOM     10  O   UNL A   1      32.923  26.156  24.166  1.00  0.00    -0.379 OA
ATOM     11  H   UNL A   1      32.070  26.079  24.619  1.00  0.00     0.212 HD
ENDBRANCH   7  10
BRANCH   7  12
ATOM     12  C   UNL A   1      31.250  27.344  22.928  1.00  0.00     0.061 C 
ATOM     13  C   UNL A   1      30.636  26.844  24.275  1.00  0.00     0.017 C 
ATOM     14  C   UNL A   1      30.248  28.480  22.714  1.00  0.00    -0.035 A 
ATOM     15  C   UNL A   1      29.170  26.685  23.950  1.00  0.00     0.036 C 
ATOM     16  C   UNL A   1      28.997  27.955  23.181  1.00  0.00    -0.044 A 
ATOM     17  C   UNL A   1      30.229  29.722  22.084  1.00  0.00     0.050 A 
ATOM     18  C   UNL A   1      27.767  28.526  22.930  1.00  0.00     0.008 A 
ATOM     19  C   UNL A   1      28.970  30.355  21.888  1.00  0.00     0.119 A 
ATOM     20  C   UNL A   1      27.763  29.735  22.271  1.00  0.00     0.047 A 
BRANCH  19  21
ATOM     21  O   UNL A   1      28.714  31.565  21.297  1.00  0.00    -0.497 OA
ATOM     22  C   UNL A   1      28.401  32.666  22.124  1.00  0.00     0.278 C 
ENDBRANCH  19  21
ENDBRANCH   7  12
ENDBRANCH   4   7
ENDBRANCH   2   3
ENDBRANCH   1   2
BRANCH   1  23
ATOM     23  C   UNL A   1      32.206  30.439  26.809  1.00  0.00     0.118 C 
BRANCH  23  24
ATOM     24  N   UNL A   1      32.323  31.893  26.885  1.00  0.00    -0.352 N 
ATOM     25  C   UNL A   1      33.255  32.668  27.532  1.00  0.00     0.251 C 
ATOM     26  H   UNL A   1      31.628  32.394  26.399  1.00  0.00     0.163 HD
ATOM     27  O   UNL A   1      33.054  33.854  27.727  1.00  0.00    -0.269 OA
BRANCH  25  28
ATOM     28  C   UNL A   1      34.502  32.033  28.001  1.00  0.00     0.039 A 
ATOM     29  C   UNL A   1      35.665  32.796  28.089  1.00  0.00     0.014 A 
ATOM     30  C   UNL A   1      34.496  30.692  28.392  1.00  0.00     0.014 A 
ATOM     31  C   UNL A   1      36.806  32.236  28.664  1.00  0.00     0.010 A 
ATOM     32  C   UNL A   1      35.600  30.166  29.049  1.00  0.00     0.010 A 
ATOM     33  C   UNL A   1      36.761  30.937  29.201  1.00  0.00    -0.014 A 
BRANCH  33  34
ATOM     34  C   UNL A   1      37.901  30.381  29.968  1.00  0.00     0.031 A 
ATOM     35  C   UNL A   1      38.137  30.813  31.386  1.00  0.00     0.074 A 
ATOM     36  C   UNL A   1      38.770  29.559  29.347  1.00  0.00     0.049 A 
ATOM     37  N   UNL A   1      39.129  30.512  32.186  1.00  0.00    -0.248 NA
ATOM     38  C   UNL A   1      37.145  31.725  31.979  1.00  0.00     0.031 C 
ATOM     39  C   UNL A   1      38.673  29.119  27.952  1.00  0.00     0.029 A 
ATOM     40  N   UNL A   1      39.919  28.959  29.800  1.00  0.00    -0.354 N 
ATOM     41  C   UNL A   1      38.888  31.206  33.363  1.00  0.00     0.074 A 
ATOM     42  C   UNL A   1      37.683  31.979  33.164  1.00  0.00     0.031 C 
ATOM     43  C   UNL A   1      39.705  28.310  27.671  1.00  0.00     0.029 A 
ATOM     44  C   UNL A   1      40.565  28.212  28.845  1.00  0.00     0.049 A 
ATOM     45  H   UNL A   1      40.249  29.055  30.722  1.00  0.00     0.167 HD
ATOM     46  C   UNL A   1      39.604  31.181  34.511  1.00  0.00     0.037 A 
ATOM     47  C   UNL A   1      41.733  27.544  28.902  1.00  0.00     0.037 A 
ATOM     48  C   UNL A   1      40.784  30.383  34.708  1.00  0.00     0.049 A 
ATOM     49  C   UNL A   1      42.511  27.554  30.192  1.00  0.00     0.074 A 
ATOM     50  C   UNL A   1      41.523  30.215  35.866  1.00  0.00     0.029 A 
ATOM     51  N   UNL A   1      41.402  29.629  33.723  1.00  0.00    -0.354 N 
ATOM     52  N   UNL A   1      42.217  28.128  31.333  1.00  0.00    -0.248 NA
ATOM     53  C   UNL A   1      43.787  26.824  30.201  1.00  0.00     0.031 C 
ATOM     54  C   UNL A   1      42.627  29.412  35.564  1.00  0.00     0.029 A 
ATOM     55  C   UNL A   1      42.543  29.031  34.236  1.00  0.00     0.049 A 
ATOM     56  H   UNL A   1      41.080  29.532  32.798  1.00  0.00     0.167 HD
ATOM     57  C   UNL A   1      43.256  27.814  32.198  1.00  0.00     0.074 A 
ATOM     58  C   UNL A   1      44.174  26.972  31.459  1.00  0.00     0.031 C 
ATOM     59  C   UNL A   1      43.442  28.194  33.484  1.00  0.00     0.037 A 
BRANCH  46  60
ATOM     60  C   UNL A   1      39.140  32.033  35.655  1.00  0.00     0.064 A 
ATOM     61  C   UNL A   1      38.315  31.523  36.667  1.00  0.00     0.173 A 
ATOM     62  C   UNL A   1      39.607  33.350  35.789  1.00  0.00     0.173 A 
ATOM     63  F   UNL A   1      37.833  30.273  36.580  1.00  0.00    -0.203 F 
ATOM     64  C   UNL A   1      37.971  32.300  37.770  1.00  0.00     0.198 A 
ATOM     65  C   UNL A   1      39.284  34.114  36.907  1.00  0.00     0.198 A 
ATOM     66  F   UNL A   1      40.401  33.885  34.850  1.00  0.00    -0.203 F 
ATOM     67  F   UNL A   1      37.163  31.798  38.716  1.00  0.00    -0.200 F 
ATOM     68  C   UNL A   1      38.467  33.588  37.895  1.00  0.00     0.200 A 
ATOM     69  F   UNL A   1      39.776  35.354  37.033  1.00  0.00    -0.200 F 
ATOM     70  F   UNL A   1      38.157  34.326  38.972  1.00  0.00    -0.200 F 
ENDBRANCH  46  60
BRANCH  47  71
ATOM     71  C   UNL A   1      42.255  26.826  27.708  1.00  0.00     0.064 A 
ATOM     72  C   UNL A   1      41.897  25.495  27.450  1.00  0.00     0.173 A 
ATOM     73  C   UNL A   1      43.161  27.438  26.828  1.00  0.00     0.173 A 
ATOM     74  F   UNL A   1      41.049  24.859  28.272  1.00  0.00    -0.203 F 
ATOM     75  C   UNL A   1      42.455  24.792  26.385  1.00  0.00     0.198 A 
ATOM     76  C   UNL A   1      43.689  26.744  25.740  1.00  0.00     0.198 A 
ATOM     77  F   UNL A   1      43.533  28.710  27.023  1.00  0.00    -0.203 F 
ATOM     78  F   UNL A   1      42.150  23.499  26.205  1.00  0.00    -0.200 F 
ATOM     79  C   UNL A   1      43.349  25.417  25.529  1.00  0.00     0.200 A 
ATOM     80  F   UNL A   1      44.539  27.359  24.907  1.00  0.00    -0.200 F 
ATOM     81  F   UNL A   1      43.891  24.738  24.509  1.00  0.00    -0.200 F 
ENDBRANCH  47  71
BRANCH  59  82
ATOM     82  C   UNL A   1      44.674  27.693  34.180  1.00  0.00     0.064 A 
ATOM     83  C   UNL A   1      45.857  28.445  34.202  1.00  0.00     0.173 A 
ATOM     84  C   UNL A   1      44.657  26.472  34.870  1.00  0.00     0.173 A 
ATOM     85  F   UNL A   1      45.929  29.612  33.543  1.00  0.00    -0.203 F 
ATOM     86  C   UNL A   1      46.987  27.981  34.870  1.00  0.00     0.198 A 
ATOM     87  C   UNL A   1      45.777  26.028  35.566  1.00  0.00     0.198 A 
ATOM     88  F   UNL A   1      43.547  25.718  34.886  1.00  0.00    -0.203 F 
ATOM     89  F   UNL A   1      48.123  28.692  34.836  1.00  0.00    -0.200 F 
ATOM     90  C   UNL A   1      46.943  26.778  35.558  1.00  0.00     0.200 A 
ATOM     91  F   UNL A   1      45.728  24.874  36.245  1.00  0.00    -0.200 F 
ATOM     92  F   UNL A   1      48.027  26.339  36.211  1.00  0.00    -0.200 F 
ENDBRANCH  59  82
ENDBRANCH  33  34
ENDBRANCH  25  28
ENDBRANCH  23  24
ENDBRANCH   1  23
TORSDOF 14
ENDMDL
MODEL 3
REMARK VINA RESULT:     -12.7      2.985      7.882
REMARK SMILES CC[C@@](O)(C(=O)NCCCNC(=O)c1ccc(-c2c3nc(c(-c4c(F)c(F)c(F)c(F)c4F)c4ccc([nH]4)c(-c4c(F)c(F)c(F)c(F)c4F)c4nc(c(-c5c(F)c(F)c(F)c(F)c5F)c5ccc2[nH]5)C=C4)C=C3)cc1)[C@H]1CCc2ccc(OC)cc21
REMARK SMILES IDX 9 1 8 2 7 3 5 4 6 5 3 7 2 8 1 9 4 10 77 12 78 13 87 14 79 15
REMARK SMILES IDX 80 16 86 17 81 18 83 19 82 20 84 21 85 22 10 23 11 24 12 25
REMARK SMILES IDX 13 27 14 28 15 29 76 30 16 31 75 32 17 33 18 34 19 35 69 36
REMARK SMILES IDX 20 37 74 38 68 39 70 40 21 41 73 42 67 43 66 44 22 46 54 47
REMARK SMILES IDX 34 48 53 49 35 50 38 51 52 52 71 53 36 54 37 55 51 57 72 58
REMARK SMILES IDX 39 59 23 60 24 61 32 62 25 63 26 64 30 65 33 66 27 67 28 68
REMARK SMILES IDX 31 69 29 70 55 71 56 72 64 73 57 74 58 75 62 76 65 77 59 78
REMARK SMILES IDX 60 79 63 80 61 81 40 82 41 83 49 84 42 85 43 86 47 87 50 88
REMARK SMILES IDX 44 89 45 90 48 91 46 92
REMARK H PARENT 7 6 4 11 11 26 70 45 38 56
REMARK Flexibility Score: inf
ROOT
ATOM      1  C   UNL A   1      34.036  28.486  25.943  1.00  0.00     0.042 C 
ENDROOT
BRANCH   1   2
ATOM      2  C   UNL A   1      33.128  29.114  24.895  1.00  0.00     0.117 C 
BRANCH   2   3
ATOM      3  N   UNL A   1      33.669  28.946  23.548  1.00  0.00    -0.354 N 
ATOM      4  C   UNL A   1      33.478  28.002  22.574  1.00  0.00     0.252 C 
ATOM      5  O   UNL A   1      34.188  28.094  21.567  1.00  0.00    -0.272 OA
ATOM      6  H   UNL A   1      34.300  29.655  23.288  1.00  0.00     0.163 HD
BRANCH   4   7
ATOM      7  C   UNL A   1      32.400  26.880  22.688  1.00  0.00     0.149 C 
BRANCH   7   8
ATOM      8  C   UNL A   1      32.766  25.791  21.666  1.00  0.00     0.043 C 
ATOM      9  C   UNL A   1      33.252  24.468  22.254  1.00  0.00     0.007 C 
ENDBRANCH   7   8
BRANCH   7  10
ATOM     10  O   UNL A   1      32.583  26.143  23.936  1.00  0.00    -0.379 OA
ATOM     11  H   UNL A   1      33.139  25.366  23.774  1.00  0.00     0.212 HD
ENDBRANCH   7  10
BRANCH   7  12
ATOM     12  C   UNL A   1      30.958  27.489  22.800  1.00  0.00     0.061 C 
ATOM     13  C   UNL A   1      30.292  26.853  24.063  1.00  0.00     0.017 C 
ATOM     14  C   UNL A   1      30.054  28.721  22.752  1.00  0.00    -0.035 A 
ATOM     15  C   UNL A   1      28.822  26.863  23.722  1.00  0.00     0.036 C 
ATOM     16  C   UNL A   1      28.759  28.240  23.142  1.00  0.00    -0.044 A 
ATOM     17  C   UNL A   1      30.141  30.038  22.306  1.00  0.00     0.050 A 
ATOM     18  C   UNL A   1      27.583  28.939  22.978  1.00  0.00     0.008 A 
ATOM     19  C   UNL A   1      28.940  30.793  22.205  1.00  0.00     0.119 A 
ATOM     20  C   UNL A   1      27.683  30.226  22.499  1.00  0.00     0.047 A 
BRANCH  19  21
ATOM     21  O   UNL A   1      28.789  32.092  21.794  1.00  0.00    -0.497 OA
ATOM     22  C   UNL A   1      28.792  33.113  22.770  1.00  0.00     0.278 C 
ENDBRANCH  19  21
ENDBRANCH   7  12
ENDBRANCH   4   7
ENDBRANCH   2   3
ENDBRANCH   1   2
BRANCH   1  23
ATOM     23  C   UNL A   1      33.568  28.802  27.357  1.00  0.00     0.118 C 
BRANCH  23  24
ATOM     24  N   UNL A   1      33.682  30.226  27.661  1.00  0.00    -0.352 N 
ATOM     25  C   UNL A   1      34.681  30.908  28.315  1.00  0.00     0.251 C 
ATOM     26  H   UNL A   1      32.931  30.782  27.350  1.00  0.00     0.163 HD
ATOM     27  O   UNL A   1      34.496  32.039  28.729  1.00  0.00    -0.269 OA
BRANCH  25  28
ATOM     28  C   UNL A   1      35.978  30.237  28.522  1.00  0.00     0.039 A 
ATOM     29  C   UNL A   1      36.945  30.297  27.519  1.00  0.00     0.014 A 
ATOM     30  C   UNL A   1      36.243  29.588  29.730  1.00  0.00     0.014 A 
ATOM     31  C   UNL A   1      38.219  29.787  27.768  1.00  0.00     0.010 A 
ATOM     32  C   UNL A   1      37.534  29.166  30.012  1.00  0.00     0.010 A 
ATOM     33  C   UNL A   1      38.537  29.272  29.037  1.00  0.00    -0.014 A 
BRANCH  33  34
ATOM     34  C   UNL A   1      39.925  28.881  29.385  1.00  0.00     0.031 A 
ATOM     35  C   UNL A   1      40.803  29.826  30.151  1.00  0.00     0.074 A 
ATOM     36  C   UNL A   1      40.411  27.712  28.923  1.00  0.00     0.049 A 
ATOM     37  N   UNL A   1      42.068  29.704  30.466  1.00  0.00    -0.248 NA
ATOM     38  C   UNL A   1      40.193  31.088  30.602  1.00  0.00     0.031 C 
ATOM     39  C   UNL A   1      39.665  26.742  28.117  1.00  0.00     0.029 A 
ATOM     40  N   UNL A   1      41.655  27.145  29.049  1.00  0.00    -0.354 N 
ATOM     41  C   UNL A   1      42.405  30.873  31.134  1.00  0.00     0.074 A 
ATOM     42  C   UNL A   1      41.229  31.713  31.144  1.00  0.00     0.031 C 
ATOM     43  C   UNL A   1      40.458  25.697  27.836  1.00  0.00     0.029 A 
ATOM     44  C   UNL A   1      41.782  25.943  28.396  1.00  0.00     0.049 A 
ATOM     45  H   UNL A   1      42.388  27.561  29.558  1.00  0.00     0.167 HD
ATOM     46  C   UNL A   1      43.588  31.202  31.703  1.00  0.00     0.037 A 
ATOM     47  C   UNL A   1      42.854  25.141  28.245  1.00  0.00     0.037 A 
ATOM     48  C   UNL A   1      44.743  30.344  31.715  1.00  0.00     0.049 A 
ATOM     49  C   UNL A   1      44.159  25.548  28.877  1.00  0.00     0.074 A 
ATOM     50  C   UNL A   1      45.955  30.545  32.350  1.00  0.00     0.029 A 
ATOM     51  N   UNL A   1      44.831  29.128  31.055  1.00  0.00    -0.354 N 
ATOM     52  N   UNL A   1      44.435  26.607  29.599  1.00  0.00    -0.248 NA
ATOM     53  C   UNL A   1      45.304  24.649  28.672  1.00  0.00     0.031 C 
ATOM     54  C   UNL A   1      46.801  29.483  32.019  1.00  0.00     0.029 A 
ATOM     55  C   UNL A   1      46.096  28.590  31.229  1.00  0.00     0.049 A 
ATOM     56  H   UNL A   1      44.103  28.708  30.541  1.00  0.00     0.167 HD
ATOM     57  C   UNL A   1      45.773  26.492  29.949  1.00  0.00     0.074 A 
ATOM     58  C   UNL A   1      46.246  25.245  29.387  1.00  0.00     0.031 C 
ATOM     59  C   UNL A   1      46.546  27.345  30.663  1.00  0.00     0.037 A 
BRANCH  46  60
ATOM     60  C   UNL A   1      43.707  32.540  32.369  1.00  0.00     0.064 A 
ATOM     61  C   UNL A   1      44.092  33.686  31.657  1.00  0.00     0.173 A 
ATOM     62  C   UNL A   1      43.337  32.695  33.714  1.00  0.00     0.173 A 
ATOM     63  F   UNL A   1      44.465  33.589  30.372  1.00  0.00    -0.203 F 
ATOM     64  C   UNL A   1      44.106  34.936  32.269  1.00  0.00     0.198 A 
ATOM     65  C   UNL A   1      43.326  33.951  34.313  1.00  0.00     0.198 A 
ATOM     66  F   UNL A   1      42.959  31.631  34.438  1.00  0.00    -0.203 F 
ATOM     67  F   UNL A   1      44.498  36.015  31.575  1.00  0.00    -0.200 F 
ATOM     68  C   UNL A   1      43.710  35.069  33.591  1.00  0.00     0.200 A 
ATOM     69  F   UNL A   1      42.929  34.079  35.587  1.00  0.00    -0.200 F 
ATOM     70  F   UNL A   1      43.699  36.279  34.170  1.00  0.00    -0.200 F 
ENDBRANCH  46  60
BRANCH  47  71
ATOM     71  C   UNL A   1      42.756  23.886  27.452  1.00  0.00     0.064 A 
ATOM     72  C   UNL A   1      42.390  22.675  28.056  1.00  0.00     0.173 A 
ATOM     73  C   UNL A   1      43.073  23.861  26.085  1.00  0.00     0.173 A 
ATOM     74  F   UNL A   1      42.095  22.642  29.364  1.00  0.00    -0.203 F 
ATOM     75  C   UNL A   1      42.386  21.482  27.335  1.00  0.00     0.198 A 
ATOM     76  C   UNL A   1      43.032  22.673  25.356  1.00  0.00     0.198 A 
ATOM     77  F   UNL A   1      43.424  24.991  25.455  1.00  0.00    -0.203 F 
ATOM     78  F   UNL A   1      42.102  20.328  27.956  1.00  0.00    -0.200 F 
ATOM     79  C   UNL A   1      42.705  21.483  25.986  1.00  0.00     0.200 A 
ATOM     80  F   UNL A   1      43.324  22.682  24.049  1.00  0.00    -0.200 F 
ATOM     81  F   UNL A   1      42.708  20.334  25.296  1.00  0.00    -0.200 F 
ENDBRANCH  47  71
BRANCH  59  82
ATOM     82  C   UNL A   1      47.978  26.953  30.888  1.00  0.00     0.064 A 
ATOM     83  C   UNL A   1      48.345  26.100  31.939  1.00  0.00     0.173 A 
ATOM     84  C   UNL A   1      48.985  27.397  30.019  1.00  0.00     0.173 A 
ATOM     85  F   UNL A   1      47.420  25.662  32.808  1.00  0.00    -0.203 F 
ATOM     86  C   UNL A   1      49.672  25.725  32.126  1.00  0.00     0.198 A 
ATOM     87  C   UNL A   1      50.305  26.993  30.187  1.00  0.00     0.198 A 
ATOM     88  F   UNL A   1      48.685  28.210  28.994  1.00  0.00    -0.203 F 
ATOM     89  F   UNL A   1      50.008  24.950  33.166  1.00  0.00    -0.200 F 
ATOM     90  C   UNL A   1      50.649  26.164  31.245  1.00  0.00     0.200 A 
ATOM     91  F   UNL A   1      51.246  27.403  29.325  1.00  0.00    -0.200 F 
ATOM     92  F   UNL A   1      51.925  25.792  31.419  1.00  0.00    -0.200 F 
ENDBRANCH  59  82
ENDBRANCH  33  34
ENDBRANCH  25  28
ENDBRANCH  23  24
ENDBRANCH   1  23
TORSDOF 14
ENDMDL
