MODEL 1
REMARK VINA RESULT:     -12.0      0.000      0.000
REMARK SMILES CCC(CC)(NC(=O)Nc1cc(Cl)cc(Cl)c1)C(=O)NCCCNC(=O)c1ccc(-c2c3nc(c(-c4c(F)c(F)c(F)c(F)c4F)c4ccc([nH]4)c(-c4c(F)c(F)c(F)c(F)c4F)c4nc(c(-c5c(F)c(F)c(F)c(F)c5F)c5ccc2[nH]5)C=C4)C=C3)cc1
REMARK SMILES IDX 22 1 21 2 20 3 18 4 19 5 3 7 2 8 1 9 4 10 5 11 6 12 7 13
REMARK SMILES IDX 8 15 9 16 10 18 11 19 17 20 12 21 15 22 13 23 14 24 16 25
REMARK SMILES IDX 23 26 24 27 25 28 26 30 27 31 28 32 89 33 29 34 88 35 30 36
REMARK SMILES IDX 31 37 32 38 82 39 33 40 87 41 81 42 83 43 34 44 86 45 80 46
REMARK SMILES IDX 79 47 35 49 67 50 47 51 66 52 48 53 51 54 65 55 84 56 49 57
REMARK SMILES IDX 50 58 64 60 85 61 52 62 36 63 37 64 45 65 38 66 39 67 43 68
REMARK SMILES IDX 46 69 40 70 41 71 44 72 42 73 68 74 69 75 77 76 70 77 71 78
REMARK SMILES IDX 75 79 78 80 72 81 73 82 76 83 74 84 53 85 54 86 62 87 55 88
REMARK SMILES IDX 56 89 60 90 63 91 57 92 58 93 61 94 59 95
REMARK H PARENT 20 6 6 14 9 17 24 29 83 48 51 59
REMARK Flexibility Score: inf
ROOT
ATOM      1  C   UNL A   1      31.427  31.317  26.201  1.00  0.00     0.042 C 
ENDROOT
BRANCH   1   2
ATOM      2  C   UNL A   1      31.561  29.847  25.764  1.00  0.00     0.117 C 
BRANCH   2   3
ATOM      3  N   UNL A   1      32.327  29.716  24.533  1.00  0.00    -0.354 N 
ATOM      4  C   UNL A   1      32.123  28.875  23.442  1.00  0.00     0.245 C 
ATOM      5  O   UNL A   1      31.721  29.298  22.363  1.00  0.00    -0.272 OA
ATOM      6  H   UNL A   1      33.107  30.312  24.461  1.00  0.00     0.163 HD
BRANCH   4   7
ATOM      7  C   UNL A   1      32.339  27.367  23.744  1.00  0.00     0.120 C 
BRANCH   7   8
ATOM      8  C   UNL A   1      31.336  26.518  24.553  1.00  0.00     0.035 C 
ATOM      9  C   UNL A   1      29.935  26.342  24.013  1.00  0.00     0.007 C 
ENDBRANCH   7   8
BRANCH   7  10
ATOM     10  C   UNL A   1      33.696  27.527  24.544  1.00  0.00     0.035 C 
ATOM     11  C   UNL A   1      33.861  27.087  25.983  1.00  0.00     0.007 C 
ENDBRANCH   7  10
BRANCH   7  12
ATOM     12  N   UNL A   1      32.428  26.712  22.407  1.00  0.00    -0.323 N 
ATOM     13  C   UNL A   1      33.045  25.607  21.938  1.00  0.00     0.320 C 
ATOM     14  H   UNL A   1      31.924  27.194  21.712  1.00  0.00     0.166 HD
ATOM     15  O   UNL A   1      33.075  25.492  20.706  1.00  0.00    -0.248 OA
ATOM     16  N   UNL A   1      33.610  24.589  22.635  1.00  0.00    -0.308 N 
ATOM     17  H   UNL A   1      33.906  23.888  22.010  1.00  0.00     0.171 HD
BRANCH  16  18
ATOM     18  C   UNL A   1      33.916  24.200  23.965  1.00  0.00     0.045 A 
ATOM     19  C   UNL A   1      33.033  23.621  24.884  1.00  0.00     0.046 A 
ATOM     20  C   UNL A   1      35.269  24.144  24.306  1.00  0.00     0.046 A 
ATOM     21  C   UNL A   1      33.422  23.316  26.194  1.00  0.00     0.044 A 
ATOM     22  C   UNL A   1      35.676  23.766  25.595  1.00  0.00     0.044 A 
ATOM     23  Cl  UNL A   1      32.249  22.775  27.335  1.00  0.00    -0.084 Cl
ATOM     24  C   UNL A   1      34.747  23.417  26.568  1.00  0.00     0.041 A 
ATOM     25  Cl  UNL A   1      37.351  23.713  25.976  1.00  0.00    -0.084 Cl
ENDBRANCH  16  18
ENDBRANCH   7  12
ENDBRANCH   4   7
ENDBRANCH   2   3
ENDBRANCH   1   2
BRANCH   1  26
ATOM     26  C   UNL A   1      32.608  31.918  26.962  1.00  0.00     0.118 C 
BRANCH  26  27
ATOM     27  N   UNL A   1      32.404  33.304  27.323  1.00  0.00    -0.352 N 
ATOM     28  C   UNL A   1      33.085  34.088  28.220  1.00  0.00     0.251 C 
ATOM     29  H   UNL A   1      31.663  33.752  26.854  1.00  0.00     0.163 HD
ATOM     30  O   UNL A   1      32.654  35.196  28.510  1.00  0.00    -0.269 OA
BRANCH  28  31
ATOM     31  C   UNL A   1      34.321  33.592  28.869  1.00  0.00     0.039 A 
ATOM     32  C   UNL A   1      34.195  32.607  29.852  1.00  0.00     0.014 A 
ATOM     33  C   UNL A   1      35.585  34.107  28.559  1.00  0.00     0.014 A 
ATOM     34  C   UNL A   1      35.333  32.106  30.486  1.00  0.00     0.010 A 
ATOM     35  C   UNL A   1      36.728  33.552  29.143  1.00  0.00     0.010 A 
ATOM     36  C   UNL A   1      36.615  32.549  30.117  1.00  0.00    -0.014 A 
BRANCH  36  37
ATOM     37  C   UNL A   1      37.823  31.943  30.745  1.00  0.00     0.031 A 
ATOM     38  C   UNL A   1      38.263  32.338  32.129  1.00  0.00     0.074 A 
ATOM     39  C   UNL A   1      38.533  31.025  30.059  1.00  0.00     0.049 A 
ATOM     40  N   UNL A   1      39.255  31.870  32.848  1.00  0.00    -0.248 NA
ATOM     41  C   UNL A   1      37.507  33.413  32.786  1.00  0.00     0.031 C 
ATOM     42  C   UNL A   1      38.251  30.592  28.690  1.00  0.00     0.029 A 
ATOM     43  N   UNL A   1      39.632  30.284  30.420  1.00  0.00    -0.354 N 
ATOM     44  C   UNL A   1      39.239  32.589  34.036  1.00  0.00     0.074 A 
ATOM     45  C   UNL A   1      38.181  33.569  33.918  1.00  0.00     0.031 C 
ATOM     46  C   UNL A   1      39.123  29.634  28.342  1.00  0.00     0.029 A 
ATOM     47  C   UNL A   1      40.050  29.408  29.447  1.00  0.00     0.049 A 
ATOM     48  H   UNL A   1      40.078  30.372  31.293  1.00  0.00     0.167 HD
ATOM     49  C   UNL A   1      40.018  32.433  35.134  1.00  0.00     0.037 A 
ATOM     50  C   UNL A   1      41.061  28.518  29.445  1.00  0.00     0.037 A 
ATOM     51  C   UNL A   1      41.068  31.452  35.256  1.00  0.00     0.049 A 
ATOM     52  C   UNL A   1      41.914  28.369  30.675  1.00  0.00     0.074 A 
ATOM     53  C   UNL A   1      41.876  31.183  36.348  1.00  0.00     0.029 A 
ATOM     54  N   UNL A   1      41.463  30.585  34.248  1.00  0.00    -0.354 N 
ATOM     55  N   UNL A   1      41.834  28.999  31.822  1.00  0.00    -0.248 NA
ATOM     56  C   UNL A   1      42.992  27.372  30.614  1.00  0.00     0.031 C 
ATOM     57  C   UNL A   1      42.797  30.196  35.982  1.00  0.00     0.029 A 
ATOM     58  C   UNL A   1      42.521  29.800  34.684  1.00  0.00     0.049 A 
ATOM     59  H   UNL A   1      41.053  30.534  33.354  1.00  0.00     0.167 HD
ATOM     60  C   UNL A   1      42.827  28.454  32.626  1.00  0.00     0.074 A 
ATOM     61  C   UNL A   1      43.479  27.426  31.844  1.00  0.00     0.031 C 
ATOM     62  C   UNL A   1      43.166  28.778  33.899  1.00  0.00     0.037 A 
BRANCH  49  63
ATOM     63  C   UNL A   1      39.766  33.345  36.303  1.00  0.00     0.064 A 
ATOM     64  C   UNL A   1      40.401  34.593  36.416  1.00  0.00     0.173 A 
ATOM     65  C   UNL A   1      38.845  32.990  37.301  1.00  0.00     0.173 A 
ATOM     66  F   UNL A   1      41.296  34.980  35.494  1.00  0.00    -0.203 F 
ATOM     67  C   UNL A   1      40.148  35.433  37.497  1.00  0.00     0.198 A 
ATOM     68  C   UNL A   1      38.569  33.848  38.363  1.00  0.00     0.198 A 
ATOM     69  F   UNL A   1      38.202  31.815  37.241  1.00  0.00    -0.203 F 
ATOM     70  F   UNL A   1      40.806  36.595  37.608  1.00  0.00    -0.200 F 
ATOM     71  C   UNL A   1      39.227  35.064  38.465  1.00  0.00     0.200 A 
ATOM     72  F   UNL A   1      37.664  33.497  39.288  1.00  0.00    -0.200 F 
ATOM     73  F   UNL A   1      38.977  35.879  39.500  1.00  0.00    -0.200 F 
ENDBRANCH  49  63
BRANCH  50  74
ATOM     74  C   UNL A   1      41.308  27.675  28.244  1.00  0.00     0.064 A 
ATOM     75  C   UNL A   1      40.674  26.433  28.089  1.00  0.00     0.173 A 
ATOM     76  C   UNL A   1      42.193  28.085  27.235  1.00  0.00     0.173 A 
ATOM     77  F   UNL A   1      39.835  25.988  29.035  1.00  0.00    -0.203 F 
ATOM     78  C   UNL A   1      40.939  25.622  26.988  1.00  0.00     0.198 A 
ATOM     79  C   UNL A   1      42.429  27.287  26.117  1.00  0.00     0.198 A 
ATOM     80  F   UNL A   1      42.821  29.266  27.330  1.00  0.00    -0.203 F 
ATOM     81  F   UNL A   1      40.363  24.416  26.894  1.00  0.00    -0.200 F 
ATOM     82  C   UNL A   1      41.811  26.053  25.999  1.00  0.00     0.200 A 
ATOM     83  F   UNL A   1      43.260  27.715  25.156  1.00  0.00    -0.200 F 
ATOM     84  F   UNL A   1      42.062  25.274  24.939  1.00  0.00    -0.200 F 
ENDBRANCH  50  74
BRANCH  62  85
ATOM     85  C   UNL A   1      44.272  27.983  34.538  1.00  0.00     0.064 A 
ATOM     86  C   UNL A   1      45.613  28.395  34.479  1.00  0.00     0.173 A 
ATOM     87  C   UNL A   1      43.985  26.792  35.224  1.00  0.00     0.173 A 
ATOM     88  F   UNL A   1      45.945  29.519  33.825  1.00  0.00    -0.203 F 
ATOM     89  C   UNL A   1      46.626  27.623  35.042  1.00  0.00     0.198 A 
ATOM     90  C   UNL A   1      44.997  26.043  35.819  1.00  0.00     0.198 A 
ATOM     91  F   UNL A   1      42.721  26.355  35.320  1.00  0.00    -0.203 F 
ATOM     92  F   UNL A   1      47.905  28.003  34.911  1.00  0.00    -0.200 F 
ATOM     93  C   UNL A   1      46.317  26.452  35.716  1.00  0.00     0.200 A 
ATOM     94  F   UNL A   1      44.694  24.920  36.485  1.00  0.00    -0.200 F 
ATOM     95  F   UNL A   1      47.294  25.709  36.256  1.00  0.00    -0.200 F 
ENDBRANCH  62  85
ENDBRANCH  36  37
ENDBRANCH  28  31
ENDBRANCH  26  27
ENDBRANCH   1  26
TORSDOF 14
ENDMDL
MODEL 2
REMARK VINA RESULT:     -12.0      4.359      9.063
REMARK SMILES CCC(CC)(NC(=O)Nc1cc(Cl)cc(Cl)c1)C(=O)NCCCNC(=O)c1ccc(-c2c3nc(c(-c4c(F)c(F)c(F)c(F)c4F)c4ccc([nH]4)c(-c4c(F)c(F)c(F)c(F)c4F)c4nc(c(-c5c(F)c(F)c(F)c(F)c5F)c5ccc2[nH]5)C=C4)C=C3)cc1
REMARK SMILES IDX 22 1 21 2 20 3 18 4 19 5 3 7 2 8 1 9 4 10 5 11 6 12 7 13
REMARK SMILES IDX 8 15 9 16 10 18 11 19 17 20 12 21 15 22 13 23 14 24 16 25
REMARK SMILES IDX 23 26 24 27 25 28 26 30 27 31 28 32 89 33 29 34 88 35 30 36
REMARK SMILES IDX 31 37 32 38 82 39 33 40 87 41 81 42 83 43 34 44 86 45 80 46
REMARK SMILES IDX 79 47 35 49 67 50 47 51 66 52 48 53 51 54 65 55 84 56 49 57
REMARK SMILES IDX 50 58 64 60 85 61 52 62 36 63 37 64 45 65 38 66 39 67 43 68
REMARK SMILES IDX 46 69 40 70 41 71 44 72 42 73 68 74 69 75 77 76 70 77 71 78
REMARK SMILES IDX 75 79 78 80 72 81 73 82 76 83 74 84 53 85 54 86 62 87 55 88
REMARK SMILES IDX 56 89 60 90 63 91 57 92 58 93 61 94 59 95
REMARK H PARENT 20 6 6 14 9 17 24 29 83 48 51 59
REMARK Flexibility Score: inf
ROOT
ATOM      1  C   UNL A   1      36.289  23.079  23.932  1.00  0.00     0.042 C 
ENDROOT
BRANCH   1   2
ATOM      2  C   UNL A   1      35.419  21.888  24.372  1.00  0.00     0.117 C 
BRANCH   2   3
ATOM      3  N   UNL A   1      34.939  22.044  25.738  1.00  0.00    -0.354 N 
ATOM      4  C   UNL A   1      33.652  21.905  26.252  1.00  0.00     0.245 C 
ATOM      5  O   UNL A   1      33.334  20.952  26.956  1.00  0.00    -0.272 OA
ATOM      6  H   UNL A   1      35.628  22.286  26.398  1.00  0.00     0.163 HD
BRANCH   4   7
ATOM      7  C   UNL A   1      32.646  22.985  25.767  1.00  0.00     0.120 C 
BRANCH   7   8
ATOM      8  C   UNL A   1      32.278  23.188  24.283  1.00  0.00     0.035 C 
ATOM      9  C   UNL A   1      32.031  21.968  23.425  1.00  0.00     0.007 C 
ENDBRANCH   7   8
BRANCH   7  10
ATOM     10  C   UNL A   1      33.440  24.240  26.315  1.00  0.00     0.035 C 
ATOM     11  C   UNL A   1      33.969  25.337  25.415  1.00  0.00     0.007 C 
ENDBRANCH   7  10
BRANCH   7  12
ATOM     12  N   UNL A   1      31.364  22.657  26.455  1.00  0.00    -0.323 N 
ATOM     13  C   UNL A   1      30.306  23.384  26.872  1.00  0.00     0.320 C 
ATOM     14  H   UNL A   1      31.269  21.696  26.648  1.00  0.00     0.166 HD
ATOM     15  O   UNL A   1      29.507  22.793  27.610  1.00  0.00    -0.248 OA
ATOM     16  N   UNL A   1      29.982  24.666  26.567  1.00  0.00    -0.308 N 
ATOM     17  H   UNL A   1      29.106  24.886  26.960  1.00  0.00     0.171 HD
BRANCH  16  18
ATOM     18  C   UNL A   1      30.487  25.794  25.870  1.00  0.00     0.045 A 
ATOM     19  C   UNL A   1      30.322  26.068  24.507  1.00  0.00     0.046 A 
ATOM     20  C   UNL A   1      30.961  26.852  26.648  1.00  0.00     0.046 A 
ATOM     21  C   UNL A   1      30.903  27.190  23.903  1.00  0.00     0.044 A 
ATOM     22  C   UNL A   1      31.476  28.014  26.054  1.00  0.00     0.044 A 
ATOM     23  Cl  UNL A   1      30.822  27.383  22.192  1.00  0.00    -0.084 Cl
ATOM     24  C   UNL A   1      31.514  28.159  24.673  1.00  0.00     0.041 A 
ATOM     25  Cl  UNL A   1      32.053  29.292  27.050  1.00  0.00    -0.084 Cl
ENDBRANCH  16  18
ENDBRANCH   7  12
ENDBRANCH   4   7
ENDBRANCH   2   3
ENDBRANCH   1   2
BRANCH   1  26
ATOM     26  C   UNL A   1      37.263  23.638  24.968  1.00  0.00     0.118 C 
BRANCH  26  27
ATOM     27  N   UNL A   1      38.171  22.639  25.489  1.00  0.00    -0.352 N 
ATOM     28  C   UNL A   1      39.300  22.792  26.253  1.00  0.00     0.251 C 
ATOM     29  H   UNL A   1      37.944  21.709  25.259  1.00  0.00     0.163 HD
ATOM     30  O   UNL A   1      40.033  21.833  26.455  1.00  0.00    -0.269 OA
BRANCH  28  31
ATOM     31  C   UNL A   1      39.663  24.117  26.808  1.00  0.00     0.039 A 
ATOM     32  C   UNL A   1      39.325  24.385  28.137  1.00  0.00     0.014 A 
ATOM     33  C   UNL A   1      40.285  25.105  26.037  1.00  0.00     0.014 A 
ATOM     34  C   UNL A   1      39.653  25.617  28.705  1.00  0.00     0.010 A 
ATOM     35  C   UNL A   1      40.677  26.310  26.628  1.00  0.00     0.010 A 
ATOM     36  C   UNL A   1      40.360  26.583  27.967  1.00  0.00    -0.014 A 
BRANCH  36  37
ATOM     37  C   UNL A   1      40.775  27.859  28.614  1.00  0.00     0.031 A 
ATOM     38  C   UNL A   1      42.210  28.109  28.995  1.00  0.00     0.074 A 
ATOM     39  C   UNL A   1      39.847  28.805  28.863  1.00  0.00     0.049 A 
ATOM     40  N   UNL A   1      42.753  29.184  29.513  1.00  0.00    -0.248 NA
ATOM     41  C   UNL A   1      43.155  27.003  28.789  1.00  0.00     0.031 C 
ATOM     42  C   UNL A   1      38.415  28.671  28.596  1.00  0.00     0.029 A 
ATOM     43  N   UNL A   1      39.969  30.069  29.388  1.00  0.00    -0.354 N 
ATOM     44  C   UNL A   1      44.098  28.884  29.692  1.00  0.00     0.074 A 
ATOM     45  C   UNL A   1      44.277  27.506  29.287  1.00  0.00     0.031 C 
ATOM     46  C   UNL A   1      37.798  29.819  28.917  1.00  0.00     0.029 A 
ATOM     47  C   UNL A   1      38.782  30.758  29.446  1.00  0.00     0.049 A 
ATOM     48  H   UNL A   1      40.826  30.446  29.692  1.00  0.00     0.167 HD
ATOM     49  C   UNL A   1      45.097  29.689  30.129  1.00  0.00     0.037 A 
ATOM     50  C   UNL A   1      38.514  32.007  29.872  1.00  0.00     0.037 A 
ATOM     51  C   UNL A   1      44.922  31.064  30.526  1.00  0.00     0.049 A 
ATOM     52  C   UNL A   1      39.641  32.877  30.358  1.00  0.00     0.074 A 
ATOM     53  C   UNL A   1      45.883  31.974  30.933  1.00  0.00     0.029 A 
ATOM     54  N   UNL A   1      43.704  31.725  30.575  1.00  0.00    -0.354 N 
ATOM     55  N   UNL A   1      40.921  32.608  30.443  1.00  0.00    -0.248 NA
ATOM     56  C   UNL A   1      39.285  34.235  30.796  1.00  0.00     0.031 C 
ATOM     57  C   UNL A   1      45.239  33.166  31.285  1.00  0.00     0.029 A 
ATOM     58  C   UNL A   1      43.886  33.023  31.031  1.00  0.00     0.049 A 
ATOM     59  H   UNL A   1      42.837  31.331  30.322  1.00  0.00     0.167 HD
ATOM     60  C   UNL A   1      41.525  33.768  30.912  1.00  0.00     0.074 A 
ATOM     61  C   UNL A   1      40.474  34.750  31.070  1.00  0.00     0.031 C 
ATOM     62  C   UNL A   1      42.833  33.996  31.187  1.00  0.00     0.037 A 
BRANCH  49  63
ATOM     63  C   UNL A   1      46.481  29.104  30.204  1.00  0.00     0.064 A 
ATOM     64  C   UNL A   1      46.956  28.476  31.367  1.00  0.00     0.173 A 
ATOM     65  C   UNL A   1      47.329  29.130  29.085  1.00  0.00     0.173 A 
ATOM     66  F   UNL A   1      46.191  28.429  32.468  1.00  0.00    -0.203 F 
ATOM     67  C   UNL A   1      48.235  27.928  31.417  1.00  0.00     0.198 A 
ATOM     68  C   UNL A   1      48.594  28.550  29.128  1.00  0.00     0.198 A 
ATOM     69  F   UNL A   1      46.926  29.707  27.944  1.00  0.00    -0.203 F 
ATOM     70  F   UNL A   1      48.683  27.381  32.556  1.00  0.00    -0.200 F 
ATOM     71  C   UNL A   1      49.050  27.958  30.296  1.00  0.00     0.200 A 
ATOM     72  F   UNL A   1      49.373  28.564  28.037  1.00  0.00    -0.200 F 
ATOM     73  F   UNL A   1      50.276  27.420  30.343  1.00  0.00    -0.200 F 
ENDBRANCH  49  63
BRANCH  50  74
ATOM     74  C   UNL A   1      37.119  32.525  29.832  1.00  0.00     0.064 A 
ATOM     75  C   UNL A   1      36.652  33.260  28.733  1.00  0.00     0.173 A 
ATOM     76  C   UNL A   1      36.231  32.309  30.897  1.00  0.00     0.173 A 
ATOM     77  F   UNL A   1      37.467  33.510  27.699  1.00  0.00    -0.203 F 
ATOM     78  C   UNL A   1      35.361  33.784  28.714  1.00  0.00     0.198 A 
ATOM     79  C   UNL A   1      34.930  32.804  30.860  1.00  0.00     0.198 A 
ATOM     80  F   UNL A   1      36.626  31.608  31.970  1.00  0.00    -0.203 F 
ATOM     81  F   UNL A   1      34.959  34.530  27.676  1.00  0.00    -0.200 F 
ATOM     82  C   UNL A   1      34.498  33.550  29.774  1.00  0.00     0.200 A 
ATOM     83  F   UNL A   1      34.094  32.562  31.880  1.00  0.00    -0.200 F 
ATOM     84  F   UNL A   1      33.256  34.051  29.754  1.00  0.00    -0.200 F 
ENDBRANCH  50  74
BRANCH  62  85
ATOM     85  C   UNL A   1      43.206  35.377  31.652  1.00  0.00     0.064 A 
ATOM     86  C   UNL A   1      43.095  35.763  32.997  1.00  0.00     0.173 A 
ATOM     87  C   UNL A   1      43.687  36.329  30.738  1.00  0.00     0.173 A 
ATOM     88  F   UNL A   1      42.629  34.898  33.911  1.00  0.00    -0.203 F 
ATOM     89  C   UNL A   1      43.406  37.060  33.400  1.00  0.00     0.198 A 
ATOM     90  C   UNL A   1      44.034  37.611  31.151  1.00  0.00     0.198 A 
ATOM     91  F   UNL A   1      43.823  36.012  29.441  1.00  0.00    -0.203 F 
ATOM     92  F   UNL A   1      43.224  37.424  34.677  1.00  0.00    -0.200 F 
ATOM     93  C   UNL A   1      43.881  37.981  32.478  1.00  0.00     0.200 A 
ATOM     94  F   UNL A   1      44.508  38.495  30.262  1.00  0.00    -0.200 F 
ATOM     95  F   UNL A   1      44.178  39.228  32.867  1.00  0.00    -0.200 F 
ENDBRANCH  62  85
ENDBRANCH  36  37
ENDBRANCH  28  31
ENDBRANCH  26  27
ENDBRANCH   1  26
TORSDOF 14
ENDMDL
MODEL 3
REMARK VINA RESULT:     -11.9      0.147      1.599
REMARK SMILES CCC(CC)(NC(=O)Nc1cc(Cl)cc(Cl)c1)C(=O)NCCCNC(=O)c1ccc(-c2c3nc(c(-c4c(F)c(F)c(F)c(F)c4F)c4ccc([nH]4)c(-c4c(F)c(F)c(F)c(F)c4F)c4nc(c(-c5c(F)c(F)c(F)c(F)c5F)c5ccc2[nH]5)C=C4)C=C3)cc1
REMARK SMILES IDX 22 1 21 2 20 3 18 4 19 5 3 7 2 8 1 9 4 10 5 11 6 12 7 13
REMARK SMILES IDX 8 15 9 16 10 18 11 19 17 20 12 21 15 22 13 23 14 24 16 25
REMARK SMILES IDX 23 26 24 27 25 28 26 30 27 31 28 32 89 33 29 34 88 35 30 36
REMARK SMILES IDX 31 37 32 38 82 39 33 40 87 41 81 42 83 43 34 44 86 45 80 46
REMARK SMILES IDX 79 47 35 49 67 50 47 51 66 52 48 53 51 54 65 55 84 56 49 57
REMARK SMILES IDX 50 58 64 60 85 61 52 62 36 63 37 64 45 65 38 66 39 67 43 68
REMARK SMILES IDX 46 69 40 70 41 71 44 72 42 73 68 74 69 75 77 76 70 77 71 78
REMARK SMILES IDX 75 79 78 80 72 81 73 82 76 83 74 84 53 85 54 86 62 87 55 88
REMARK SMILES IDX 56 89 60 90 63 91 57 92 58 93 61 94 59 95
REMARK H PARENT 20 6 6 14 9 17 24 29 83 48 51 59
REMARK Flexibility Score: inf
ROOT
ATOM      1  C   UNL A   1      31.349  31.354  26.138  1.00  0.00     0.042 C 
ENDROOT
BRANCH   1   2
ATOM      2  C   UNL A   1      31.488  29.880  25.714  1.00  0.00     0.117 C 
BRANCH   2   3
ATOM      3  N   UNL A   1      32.393  29.726  24.584  1.00  0.00    -0.354 N 
ATOM      4  C   UNL A   1      32.285  28.911  23.460  1.00  0.00     0.245 C 
ATOM      5  O   UNL A   1      32.042  29.368  22.348  1.00  0.00    -0.272 OA
ATOM      6  H   UNL A   1      33.205  30.282  24.620  1.00  0.00     0.163 HD
BRANCH   4   7
ATOM      7  C   UNL A   1      32.387  27.389  23.757  1.00  0.00     0.120 C 
BRANCH   7   8
ATOM      8  C   UNL A   1      31.301  26.607  24.524  1.00  0.00     0.035 C 
ATOM      9  C   UNL A   1      29.937  26.451  23.892  1.00  0.00     0.007 C 
ENDBRANCH   7   8
BRANCH   7  10
ATOM     10  C   UNL A   1      33.723  27.453  24.604  1.00  0.00     0.035 C 
ATOM     11  C   UNL A   1      33.788  27.079  26.070  1.00  0.00     0.007 C 
ENDBRANCH   7  10
BRANCH   7  12
ATOM     12  N   UNL A   1      32.477  26.738  22.419  1.00  0.00    -0.323 N 
ATOM     13  C   UNL A   1      33.080  25.624  21.952  1.00  0.00     0.320 C 
ATOM     14  H   UNL A   1      31.988  27.231  21.721  1.00  0.00     0.166 HD
ATOM     15  O   UNL A   1      33.120  25.513  20.720  1.00  0.00    -0.248 OA
ATOM     16  N   UNL A   1      33.622  24.595  22.650  1.00  0.00    -0.308 N 
ATOM     17  H   UNL A   1      33.913  23.891  22.026  1.00  0.00     0.171 HD
BRANCH  16  18
ATOM     18  C   UNL A   1      33.910  24.197  23.982  1.00  0.00     0.045 A 
ATOM     19  C   UNL A   1      33.016  23.604  24.881  1.00  0.00     0.046 A 
ATOM     20  C   UNL A   1      35.257  24.147  24.344  1.00  0.00     0.046 A 
ATOM     21  C   UNL A   1      33.387  23.290  26.195  1.00  0.00     0.044 A 
ATOM     22  C   UNL A   1      35.646  23.761  25.636  1.00  0.00     0.044 A 
ATOM     23  Cl  UNL A   1      32.199  22.731  27.312  1.00  0.00    -0.084 Cl
ATOM     24  C   UNL A   1      34.705  23.397  26.591  1.00  0.00     0.041 A 
ATOM     25  Cl  UNL A   1      37.316  23.716  26.043  1.00  0.00    -0.084 Cl
ENDBRANCH  16  18
ENDBRANCH   7  12
ENDBRANCH   4   7
ENDBRANCH   2   3
ENDBRANCH   1   2
BRANCH   1  26
ATOM     26  C   UNL A   1      32.536  31.971  26.876  1.00  0.00     0.118 C 
BRANCH  26  27
ATOM     27  N   UNL A   1      32.313  33.349  27.254  1.00  0.00    -0.352 N 
ATOM     28  C   UNL A   1      32.981  34.129  28.165  1.00  0.00     0.251 C 
ATOM     29  H   UNL A   1      31.569  33.794  26.788  1.00  0.00     0.163 HD
ATOM     30  O   UNL A   1      32.534  35.228  28.469  1.00  0.00    -0.269 OA
BRANCH  28  31
ATOM     31  C   UNL A   1      34.220  33.640  28.813  1.00  0.00     0.039 A 
ATOM     32  C   UNL A   1      34.095  32.712  29.850  1.00  0.00     0.014 A 
ATOM     33  C   UNL A   1      35.487  34.107  28.448  1.00  0.00     0.014 A 
ATOM     34  C   UNL A   1      35.236  32.219  30.485  1.00  0.00     0.010 A 
ATOM     35  C   UNL A   1      36.631  33.558  29.036  1.00  0.00     0.010 A 
ATOM     36  C   UNL A   1      36.519  32.612  30.065  1.00  0.00    -0.014 A 
BRANCH  36  37
ATOM     37  C   UNL A   1      37.727  32.011  30.698  1.00  0.00     0.031 A 
ATOM     38  C   UNL A   1      38.169  32.423  32.076  1.00  0.00     0.074 A 
ATOM     39  C   UNL A   1      38.435  31.085  30.021  1.00  0.00     0.049 A 
ATOM     40  N   UNL A   1      39.162  31.962  32.798  1.00  0.00    -0.248 NA
ATOM     41  C   UNL A   1      37.416  33.506  32.721  1.00  0.00     0.031 C 
ATOM     42  C   UNL A   1      38.150  30.636  28.658  1.00  0.00     0.029 A 
ATOM     43  N   UNL A   1      39.534  30.347  30.389  1.00  0.00    -0.354 N 
ATOM     44  C   UNL A   1      39.150  32.696  33.978  1.00  0.00     0.074 A 
ATOM     45  C   UNL A   1      38.092  33.675  33.850  1.00  0.00     0.031 C 
ATOM     46  C   UNL A   1      39.020  29.672  28.320  1.00  0.00     0.029 A 
ATOM     47  C   UNL A   1      39.949  29.459  29.426  1.00  0.00     0.049 A 
ATOM     48  H   UNL A   1      39.981  30.445  31.261  1.00  0.00     0.167 HD
ATOM     49  C   UNL A   1      39.930  32.551  35.077  1.00  0.00     0.037 A 
ATOM     50  C   UNL A   1      40.959  28.568  29.432  1.00  0.00     0.037 A 
ATOM     51  C   UNL A   1      40.979  31.571  35.209  1.00  0.00     0.049 A 
ATOM     52  C   UNL A   1      41.814  28.433  30.663  1.00  0.00     0.074 A 
ATOM     53  C   UNL A   1      41.788  31.314  36.303  1.00  0.00     0.029 A 
ATOM     54  N   UNL A   1      41.372  30.691  34.210  1.00  0.00    -0.354 N 
ATOM     55  N   UNL A   1      41.736  29.076  31.803  1.00  0.00    -0.248 NA
ATOM     56  C   UNL A   1      42.891  27.434  30.612  1.00  0.00     0.031 C 
ATOM     57  C   UNL A   1      42.708  30.321  35.946  1.00  0.00     0.029 A 
ATOM     58  C   UNL A   1      42.429  29.910  34.654  1.00  0.00     0.049 A 
ATOM     59  H   UNL A   1      40.960  30.630  33.317  1.00  0.00     0.167 HD
ATOM     60  C   UNL A   1      42.730  28.540  32.612  1.00  0.00     0.074 A 
ATOM     61  C   UNL A   1      43.380  27.502  31.840  1.00  0.00     0.031 C 
ATOM     62  C   UNL A   1      43.072  28.878  33.880  1.00  0.00     0.037 A 
BRANCH  49  63
ATOM     63  C   UNL A   1      39.681  33.478  36.235  1.00  0.00     0.064 A 
ATOM     64  C   UNL A   1      38.854  33.110  37.310  1.00  0.00     0.173 A 
ATOM     65  C   UNL A   1      40.311  34.731  36.297  1.00  0.00     0.173 A 
ATOM     66  F   UNL A   1      38.222  31.927  37.300  1.00  0.00    -0.203 F 
ATOM     67  C   UNL A   1      38.643  33.973  38.382  1.00  0.00     0.198 A 
ATOM     68  C   UNL A   1      40.125  35.576  37.387  1.00  0.00     0.198 A 
ATOM     69  F   UNL A   1      41.118  35.131  35.304  1.00  0.00    -0.203 F 
ATOM     70  F   UNL A   1      37.809  33.619  39.370  1.00  0.00    -0.200 F 
ATOM     71  C   UNL A   1      39.284  35.201  38.424  1.00  0.00     0.200 A 
ATOM     72  F   UNL A   1      40.760  36.756  37.434  1.00  0.00    -0.200 F 
ATOM     73  F   UNL A   1      39.088  36.026  39.462  1.00  0.00    -0.200 F 
ENDBRANCH  49  63
BRANCH  50  74
ATOM     74  C   UNL A   1      41.203  27.710  28.241  1.00  0.00     0.064 A 
ATOM     75  C   UNL A   1      40.607  26.445  28.127  1.00  0.00     0.173 A 
ATOM     76  C   UNL A   1      42.047  28.129  27.202  1.00  0.00     0.173 A 
ATOM     77  F   UNL A   1      39.809  25.991  29.103  1.00  0.00    -0.203 F 
ATOM     78  C   UNL A   1      40.871  25.622  27.034  1.00  0.00     0.198 A 
ATOM     79  C   UNL A   1      42.281  27.319  26.094  1.00  0.00     0.198 A 
ATOM     80  F   UNL A   1      42.637  29.332  27.259  1.00  0.00    -0.203 F 
ATOM     81  F   UNL A   1      40.334  24.396  26.978  1.00  0.00    -0.200 F 
ATOM     82  C   UNL A   1      41.702  26.062  26.015  1.00  0.00     0.200 A 
ATOM     83  F   UNL A   1      43.072  27.755  25.103  1.00  0.00    -0.200 F 
ATOM     84  F   UNL A   1      41.952  25.271  24.962  1.00  0.00    -0.200 F 
ENDBRANCH  50  74
BRANCH  62  85
ATOM     85  C   UNL A   1      44.178  28.090  34.526  1.00  0.00     0.064 A 
ATOM     86  C   UNL A   1      43.930  26.898  35.226  1.00  0.00     0.173 A 
ATOM     87  C   UNL A   1      45.509  28.529  34.439  1.00  0.00     0.173 A 
ATOM     88  F   UNL A   1      42.675  26.438  35.351  1.00  0.00    -0.203 F 
ATOM     89  C   UNL A   1      44.962  26.205  35.852  1.00  0.00     0.198 A 
ATOM     90  C   UNL A   1      46.543  27.813  35.034  1.00  0.00     0.198 A 
ATOM     91  F   UNL A   1      45.806  29.656  33.774  1.00  0.00    -0.203 F 
ATOM     92  F   UNL A   1      44.689  25.109  36.574  1.00  0.00    -0.200 F 
ATOM     93  C   UNL A   1      46.269  26.659  35.751  1.00  0.00     0.200 A 
ATOM     94  F   UNL A   1      47.807  28.244  34.920  1.00  0.00    -0.200 F 
ATOM     95  F   UNL A   1      47.261  25.991  36.356  1.00  0.00    -0.200 F 
ENDBRANCH  62  85
ENDBRANCH  36  37
ENDBRANCH  28  31
ENDBRANCH  26  27
ENDBRANCH   1  26
TORSDOF 14
ENDMDL
