MODEL 1
REMARK VINA RESULT:     -13.8      0.000      0.000
REMARK SMILES Cc1ccc(C)c(S(=O)(=O)N[C@H](CC2=c3ccccc3=NC2)C(=O)NCCCNC(=O)c2ccc(-c3c4nc(c(-c5c(F)c(F)c(F)c(F)c5F)c5ccc([nH]5)c(-c5c(F)c(F)c(F)c(F)c5F)c5nc(c(-c6c(F)c(F)c(F)c(F)c6F)c6ccc3[nH]6)C=C5)C=C4)cc2)c1
REMARK SMILES IDX 26 1 25 2 23 3 24 4 12 6 11 7 8 9 9 10 10 11 7 12 1 13 2 14
REMARK SMILES IDX 3 15 95 16 4 17 5 18 6 19 13 20 14 21 15 22 22 23 16 24
REMARK SMILES IDX 20 25 21 26 17 27 19 28 18 29 27 30 28 31 29 32 30 33 31 35
REMARK SMILES IDX 32 36 33 37 94 38 34 39 93 40 35 41 36 42 37 43 87 44 38 45
REMARK SMILES IDX 92 46 86 47 88 48 39 49 91 50 85 51 84 52 40 54 72 55 52 56
REMARK SMILES IDX 71 57 53 58 56 59 70 60 89 61 54 62 55 63 69 65 90 66 57 67
REMARK SMILES IDX 41 68 42 69 50 70 43 71 44 72 48 73 51 74 45 75 46 76 49 77
REMARK SMILES IDX 47 78 73 79 74 80 82 81 75 82 76 83 80 84 83 85 77 86 78 87
REMARK SMILES IDX 81 88 79 89 58 90 59 91 67 92 60 93 61 94 65 95 68 96 62 97
REMARK SMILES IDX 63 98 66 99 64 100
REMARK H PARENT 25 5 11 8 29 34 88 53 56 64
REMARK Flexibility Score: inf
ROOT
ATOM      1  C   UNL A   1      33.965  29.442  26.717  1.00  0.00     0.117 C 
ENDROOT
BRANCH   1   2
ATOM      2  N   UNL A   1      32.745  28.929  27.329  1.00  0.00    -0.355 N 
ATOM      3  C   UNL A   1      32.014  27.778  27.270  1.00  0.00     0.238 C 
ATOM      4  O   UNL A   1      31.021  27.737  28.009  1.00  0.00    -0.273 OA
ATOM      5  H   UNL A   1      32.344  29.584  27.945  1.00  0.00     0.163 HD
BRANCH   3   6
ATOM      6  C   UNL A   1      32.289  26.617  26.310  1.00  0.00     0.163 C 
BRANCH   6   7
ATOM      7  N   UNL A   1      31.894  25.315  26.902  1.00  0.00    -0.198 NA
ATOM      8  H   UNL A   1      32.750  24.768  26.993  1.00  0.00     0.142 HD
BRANCH   7   9
ATOM      9  S   UNL A   1      30.773  24.315  26.156  1.00  0.00     0.241 S 
ATOM     10  O   UNL A   1      30.175  25.043  25.056  1.00  0.00    -0.207 OA
ATOM     11  O   UNL A   1      30.002  23.782  27.249  1.00  0.00    -0.207 OA
BRANCH   9  12
ATOM     12  C   UNL A   1      31.752  22.985  25.500  1.00  0.00     0.085 A 
ATOM     13  C   UNL A   1      32.036  21.162  22.168  1.00  0.00     0.044 C 
ATOM     14  C   UNL A   1      32.258  21.542  23.602  1.00  0.00    -0.050 A 
ATOM     15  C   UNL A   1      33.099  20.793  24.422  1.00  0.00     0.004 A 
ATOM     16  C   UNL A   1      31.610  22.652  24.144  1.00  0.00     0.025 A 
ATOM     17  C   UNL A   1      33.297  21.158  25.758  1.00  0.00     0.005 A 
ATOM     18  C   UNL A   1      32.634  22.263  26.320  1.00  0.00    -0.031 A 
ATOM     19  C   UNL A   1      32.928  22.597  27.756  1.00  0.00     0.046 C 
ENDBRANCH   9  12
ENDBRANCH   7   9
ENDBRANCH   6   7
BRANCH   6  20
ATOM     20  C   UNL A   1      33.746  26.514  25.758  1.00  0.00     0.063 C 
BRANCH  20  21
ATOM     21  C   UNL A   1      34.157  25.445  24.774  1.00  0.00    -0.037 C 
ATOM     22  C   UNL A   1      35.061  24.466  24.876  1.00  0.00     0.001 A 
ATOM     23  C   UNL A   1      33.661  25.512  23.364  1.00  0.00     0.174 C 
ATOM     24  C   UNL A   1      35.949  23.971  25.883  1.00  0.00     0.010 A 
ATOM     25  C   UNL A   1      35.102  23.910  23.506  1.00  0.00     0.065 A 
ATOM     26  N   UNL A   1      34.358  24.463  22.600  1.00  0.00    -0.280 NA
ATOM     27  C   UNL A   1      36.782  22.960  25.575  1.00  0.00     0.001 A 
ATOM     28  C   UNL A   1      36.011  22.777  23.255  1.00  0.00     0.028 A 
ATOM     29  C   UNL A   1      36.793  22.347  24.255  1.00  0.00     0.002 A 
ENDBRANCH  20  21
ENDBRANCH   6  20
ENDBRANCH   3   6
ENDBRANCH   1   2
BRANCH   1  30
ATOM     30  C   UNL A   1      35.129  29.807  27.645  1.00  0.00     0.042 C 
BRANCH  30  31
ATOM     31  C   UNL A   1      35.486  31.275  27.768  1.00  0.00     0.118 C 
BRANCH  31  32
ATOM     32  N   UNL A   1      34.906  31.965  28.907  1.00  0.00    -0.352 N 
ATOM     33  C   UNL A   1      35.344  31.911  30.218  1.00  0.00     0.251 C 
ATOM     34  H   UNL A   1      34.119  32.529  28.728  1.00  0.00     0.163 HD
ATOM     35  O   UNL A   1      34.779  32.550  31.098  1.00  0.00    -0.269 OA
BRANCH  33  36
ATOM     36  C   UNL A   1      36.591  31.170  30.509  1.00  0.00     0.039 A 
ATOM     37  C   UNL A   1      37.800  31.780  30.171  1.00  0.00     0.014 A 
ATOM     38  C   UNL A   1      36.556  29.834  30.918  1.00  0.00     0.014 A 
ATOM     39  C   UNL A   1      38.944  30.999  30.077  1.00  0.00     0.010 A 
ATOM     40  C   UNL A   1      37.666  29.036  30.723  1.00  0.00     0.010 A 
ATOM     41  C   UNL A   1      38.851  29.615  30.279  1.00  0.00    -0.014 A 
BRANCH  41  42
ATOM     42  C   UNL A   1      40.063  28.815  30.221  1.00  0.00     0.031 A 
ATOM     43  C   UNL A   1      40.722  28.632  31.533  1.00  0.00     0.074 A 
ATOM     44  C   UNL A   1      40.512  28.151  29.140  1.00  0.00     0.049 A 
ATOM     45  N   UNL A   1      41.798  29.202  31.961  1.00  0.00    -0.248 NA
ATOM     46  C   UNL A   1      40.035  27.803  32.536  1.00  0.00     0.031 C 
ATOM     47  C   UNL A   1      39.795  27.876  27.896  1.00  0.00     0.029 A 
ATOM     48  N   UNL A   1      41.700  27.493  28.979  1.00  0.00    -0.354 N 
ATOM     49  C   UNL A   1      42.016  28.672  33.227  1.00  0.00     0.074 A 
ATOM     50  C   UNL A   1      40.808  27.987  33.606  1.00  0.00     0.031 C 
ATOM     51  C   UNL A   1      40.486  26.954  27.185  1.00  0.00     0.029 A 
ATOM     52  C   UNL A   1      41.751  26.685  27.855  1.00  0.00     0.049 A 
ATOM     53  H   UNL A   1      42.454  27.587  29.605  1.00  0.00     0.167 HD
ATOM     54  C   UNL A   1      43.267  28.585  33.750  1.00  0.00     0.037 A 
ATOM     55  C   UNL A   1      42.744  25.821  27.534  1.00  0.00     0.037 A 
ATOM     56  C   UNL A   1      44.226  29.306  32.961  1.00  0.00     0.049 A 
ATOM     57  C   UNL A   1      43.980  26.240  28.242  1.00  0.00     0.074 A 
ATOM     58  C   UNL A   1      44.638  30.612  32.813  1.00  0.00     0.029 A 
ATOM     59  N   UNL A   1      44.687  28.608  31.880  1.00  0.00    -0.354 N 
ATOM     60  N   UNL A   1      44.634  27.338  27.985  1.00  0.00    -0.248 NA
ATOM     61  C   UNL A   1      44.383  25.549  29.465  1.00  0.00     0.031 C 
ATOM     62  C   UNL A   1      45.251  30.698  31.526  1.00  0.00     0.029 A 
ATOM     63  C   UNL A   1      45.199  29.444  30.924  1.00  0.00     0.049 A 
ATOM     64  H   UNL A   1      44.654  27.627  31.799  1.00  0.00     0.167 HD
ATOM     65  C   UNL A   1      45.206  27.684  29.191  1.00  0.00     0.074 A 
ATOM     66  C   UNL A   1      45.188  26.473  29.994  1.00  0.00     0.031 C 
ATOM     67  C   UNL A   1      45.322  28.991  29.556  1.00  0.00     0.037 A 
BRANCH  54  68
ATOM     68  C   UNL A   1      43.715  27.502  34.697  1.00  0.00     0.064 A 
ATOM     69  C   UNL A   1      43.807  26.175  34.237  1.00  0.00     0.173 A 
ATOM     70  C   UNL A   1      43.781  27.671  36.097  1.00  0.00     0.173 A 
ATOM     71  F   UNL A   1      43.700  25.899  32.929  1.00  0.00    -0.203 F 
ATOM     72  C   UNL A   1      43.939  25.099  35.119  1.00  0.00     0.198 A 
ATOM     73  C   UNL A   1      43.977  26.603  36.969  1.00  0.00     0.198 A 
ATOM     74  F   UNL A   1      43.542  28.854  36.680  1.00  0.00    -0.203 F 
ATOM     75  F   UNL A   1      43.921  23.845  34.648  1.00  0.00    -0.200 F 
ATOM     76  C   UNL A   1      44.034  25.315  36.483  1.00  0.00     0.200 A 
ATOM     77  F   UNL A   1      44.035  26.831  38.290  1.00  0.00    -0.200 F 
ATOM     78  F   UNL A   1      44.127  24.282  37.332  1.00  0.00    -0.200 F 
ENDBRANCH  54  68
BRANCH  55  79
ATOM     79  C   UNL A   1      42.666  24.521  26.829  1.00  0.00     0.064 A 
ATOM     80  C   UNL A   1      43.224  24.366  25.548  1.00  0.00     0.173 A 
ATOM     81  C   UNL A   1      42.325  23.340  27.512  1.00  0.00     0.173 A 
ATOM     82  F   UNL A   1      43.610  25.441  24.842  1.00  0.00    -0.203 F 
ATOM     83  C   UNL A   1      43.480  23.104  25.007  1.00  0.00     0.198 A 
ATOM     84  C   UNL A   1      42.567  22.079  26.965  1.00  0.00     0.198 A 
ATOM     85  F   UNL A   1      41.851  23.382  28.766  1.00  0.00    -0.203 F 
ATOM     86  F   UNL A   1      44.097  22.996  23.822  1.00  0.00    -0.200 F 
ATOM     87  C   UNL A   1      43.164  21.962  25.724  1.00  0.00     0.200 A 
ATOM     88  F   UNL A   1      42.291  20.980  27.681  1.00  0.00    -0.200 F 
ATOM     89  F   UNL A   1      43.480  20.751  25.241  1.00  0.00    -0.200 F 
ENDBRANCH  55  79
BRANCH  67  90
ATOM     90  C   UNL A   1      45.382  30.005  28.461  1.00  0.00     0.064 A 
ATOM     91  C   UNL A   1      44.256  30.582  27.854  1.00  0.00     0.173 A 
ATOM     92  C   UNL A   1      46.644  30.440  28.034  1.00  0.00     0.173 A 
ATOM     93  F   UNL A   1      43.019  30.275  28.266  1.00  0.00    -0.203 F 
ATOM     94  C   UNL A   1      44.393  31.517  26.829  1.00  0.00     0.198 A 
ATOM     95  C   UNL A   1      46.778  31.401  27.038  1.00  0.00     0.198 A 
ATOM     96  F   UNL A   1      47.754  29.947  28.607  1.00  0.00    -0.203 F 
ATOM     97  F   UNL A   1      43.304  32.035  26.241  1.00  0.00    -0.200 F 
ATOM     98  C   UNL A   1      45.653  31.928  26.426  1.00  0.00     0.200 A 
ATOM     99  F   UNL A   1      47.999  31.824  26.681  1.00  0.00    -0.200 F 
ATOM    100  F   UNL A   1      45.785  32.848  25.460  1.00  0.00    -0.200 F 
ENDBRANCH  67  90
ENDBRANCH  41  42
ENDBRANCH  33  36
ENDBRANCH  31  32
ENDBRANCH  30  31
ENDBRANCH   1  30
TORSDOF 15
ENDMDL
MODEL 2
REMARK VINA RESULT:     -13.7      3.461      8.776
REMARK SMILES Cc1ccc(C)c(S(=O)(=O)N[C@H](CC2=c3ccccc3=NC2)C(=O)NCCCNC(=O)c2ccc(-c3c4nc(c(-c5c(F)c(F)c(F)c(F)c5F)c5ccc([nH]5)c(-c5c(F)c(F)c(F)c(F)c5F)c5nc(c(-c6c(F)c(F)c(F)c(F)c6F)c6ccc3[nH]6)C=C5)C=C4)cc2)c1
REMARK SMILES IDX 26 1 25 2 23 3 24 4 12 6 11 7 8 9 9 10 10 11 7 12 1 13 2 14
REMARK SMILES IDX 3 15 95 16 4 17 5 18 6 19 13 20 14 21 15 22 22 23 16 24
REMARK SMILES IDX 20 25 21 26 17 27 19 28 18 29 27 30 28 31 29 32 30 33 31 35
REMARK SMILES IDX 32 36 33 37 94 38 34 39 93 40 35 41 36 42 37 43 87 44 38 45
REMARK SMILES IDX 92 46 86 47 88 48 39 49 91 50 85 51 84 52 40 54 72 55 52 56
REMARK SMILES IDX 71 57 53 58 56 59 70 60 89 61 54 62 55 63 69 65 90 66 57 67
REMARK SMILES IDX 41 68 42 69 50 70 43 71 44 72 48 73 51 74 45 75 46 76 49 77
REMARK SMILES IDX 47 78 73 79 74 80 82 81 75 82 76 83 80 84 83 85 77 86 78 87
REMARK SMILES IDX 81 88 79 89 58 90 59 91 67 92 60 93 61 94 65 95 68 96 62 97
REMARK SMILES IDX 63 98 66 99 64 100
REMARK H PARENT 25 5 11 8 29 34 88 53 56 64
REMARK Flexibility Score: inf
ROOT
ATOM      1  C   UNL A   1      37.261  23.156  25.879  1.00  0.00     0.117 C 
ENDROOT
BRANCH   1   2
ATOM      2  N   UNL A   1      37.021  22.959  24.454  1.00  0.00    -0.355 N 
ATOM      3  C   UNL A   1      36.071  23.332  23.546  1.00  0.00     0.238 C 
ATOM      4  O   UNL A   1      36.275  22.968  22.381  1.00  0.00    -0.273 OA
ATOM      5  H   UNL A   1      37.729  22.416  24.037  1.00  0.00     0.163 HD
BRANCH   3   6
ATOM      6  C   UNL A   1      34.774  24.067  23.893  1.00  0.00     0.163 C 
BRANCH   6   7
ATOM      7  N   UNL A   1      34.386  25.021  22.825  1.00  0.00    -0.198 NA
ATOM      8  H   UNL A   1      34.407  25.949  23.247  1.00  0.00     0.142 HD
BRANCH   7   9
ATOM      9  S   UNL A   1      32.915  24.898  22.029  1.00  0.00     0.241 S 
ATOM     10  O   UNL A   1      32.301  23.639  22.399  1.00  0.00    -0.207 OA
ATOM     11  O   UNL A   1      33.227  25.244  20.667  1.00  0.00    -0.207 OA
BRANCH   9  12
ATOM     12  C   UNL A   1      31.948  26.228  22.705  1.00  0.00     0.085 A 
ATOM     13  C   UNL A   1      28.389  26.667  23.988  1.00  0.00     0.044 C 
ATOM     14  C   UNL A   1      29.798  26.974  23.579  1.00  0.00    -0.050 A 
ATOM     15  C   UNL A   1      30.284  28.280  23.602  1.00  0.00     0.004 A 
ATOM     16  C   UNL A   1      30.648  25.952  23.154  1.00  0.00     0.025 A 
ATOM     17  C   UNL A   1      31.602  28.553  23.218  1.00  0.00     0.005 A 
ATOM     18  C   UNL A   1      32.459  27.534  22.769  1.00  0.00    -0.031 A 
ATOM     19  C   UNL A   1      33.866  27.917  22.402  1.00  0.00     0.046 C 
ENDBRANCH   9  12
ENDBRANCH   7   9
ENDBRANCH   6   7
BRANCH   6  20
ATOM     20  C   UNL A   1      34.745  24.795  25.273  1.00  0.00     0.063 C 
BRANCH  20  21
ATOM     21  C   UNL A   1      33.507  25.489  25.788  1.00  0.00    -0.037 C 
ATOM     22  C   UNL A   1      33.303  26.763  26.137  1.00  0.00     0.001 A 
ATOM     23  C   UNL A   1      32.313  24.675  26.176  1.00  0.00     0.174 C 
ATOM     24  C   UNL A   1      34.062  27.976  26.139  1.00  0.00     0.010 A 
ATOM     25  C   UNL A   1      31.947  26.730  26.728  1.00  0.00     0.065 A 
ATOM     26  N   UNL A   1      31.341  25.587  26.804  1.00  0.00    -0.280 NA
ATOM     27  C   UNL A   1      33.502  29.092  26.641  1.00  0.00     0.001 A 
ATOM     28  C   UNL A   1      31.385  28.001  27.221  1.00  0.00     0.028 A 
ATOM     29  C   UNL A   1      32.145  29.104  27.164  1.00  0.00     0.002 A 
ENDBRANCH  20  21
ENDBRANCH   6  20
ENDBRANCH   3   6
ENDBRANCH   1   2
BRANCH   1  30
ATOM     30  C   UNL A   1      38.569  23.839  26.293  1.00  0.00     0.042 C 
BRANCH  30  31
ATOM     31  C   UNL A   1      39.542  23.029  27.128  1.00  0.00     0.118 C 
BRANCH  31  32
ATOM     32  N   UNL A   1      40.699  22.517  26.414  1.00  0.00    -0.352 N 
ATOM     33  C   UNL A   1      41.836  23.224  26.068  1.00  0.00     0.251 C 
ATOM     34  H   UNL A   1      40.672  21.569  26.150  1.00  0.00     0.163 HD
ATOM     35  O   UNL A   1      42.760  22.680  25.475  1.00  0.00    -0.269 OA
BRANCH  33  36
ATOM     36  C   UNL A   1      41.968  24.617  26.549  1.00  0.00     0.039 A 
ATOM     37  C   UNL A   1      42.354  24.810  27.877  1.00  0.00     0.014 A 
ATOM     38  C   UNL A   1      41.530  25.692  25.771  1.00  0.00     0.014 A 
ATOM     39  C   UNL A   1      42.133  26.045  28.469  1.00  0.00     0.010 A 
ATOM     40  C   UNL A   1      41.212  26.888  26.385  1.00  0.00     0.010 A 
ATOM     41  C   UNL A   1      41.491  27.054  27.738  1.00  0.00    -0.014 A 
BRANCH  41  42
ATOM     42  C   UNL A   1      41.305  28.358  28.354  1.00  0.00     0.031 A 
ATOM     43  C   UNL A   1      42.372  29.330  28.027  1.00  0.00     0.074 A 
ATOM     44  C   UNL A   1      40.217  28.751  29.040  1.00  0.00     0.049 A 
ATOM     45  N   UNL A   1      43.329  29.737  28.792  1.00  0.00    -0.248 NA
ATOM     46  C   UNL A   1      42.451  29.821  26.643  1.00  0.00     0.031 C 
ATOM     47  C   UNL A   1      38.916  28.090  29.110  1.00  0.00     0.029 A 
ATOM     48  N   UNL A   1      40.031  29.905  29.751  1.00  0.00    -0.354 N 
ATOM     49  C   UNL A   1      44.034  30.665  28.036  1.00  0.00     0.074 A 
ATOM     50  C   UNL A   1      43.583  30.525  26.677  1.00  0.00     0.031 C 
ATOM     51  C   UNL A   1      38.020  28.941  29.667  1.00  0.00     0.029 A 
ATOM     52  C   UNL A   1      38.715  30.139  30.114  1.00  0.00     0.049 A 
ATOM     53  H   UNL A   1      40.768  30.514  29.986  1.00  0.00     0.167 HD
ATOM     54  C   UNL A   1      44.722  31.678  28.625  1.00  0.00     0.037 A 
ATOM     55  C   UNL A   1      38.233  31.265  30.693  1.00  0.00     0.037 A 
ATOM     56  C   UNL A   1      44.815  31.504  30.047  1.00  0.00     0.049 A 
ATOM     57  C   UNL A   1      39.357  31.971  31.359  1.00  0.00     0.074 A 
ATOM     58  C   UNL A   1      45.590  30.785  30.930  1.00  0.00     0.029 A 
ATOM     59  N   UNL A   1      43.709  31.930  30.728  1.00  0.00    -0.354 N 
ATOM     60  N   UNL A   1      39.992  31.514  32.401  1.00  0.00    -0.248 NA
ATOM     61  C   UNL A   1      39.984  33.116  30.702  1.00  0.00     0.031 C 
ATOM     62  C   UNL A   1      44.834  30.681  32.137  1.00  0.00     0.029 A 
ATOM     63  C   UNL A   1      43.621  31.340  31.961  1.00  0.00     0.049 A 
ATOM     64  H   UNL A   1      43.057  32.578  30.376  1.00  0.00     0.167 HD
ATOM     65  C   UNL A   1      41.268  32.022  32.273  1.00  0.00     0.074 A 
ATOM     66  C   UNL A   1      41.153  33.136  31.345  1.00  0.00     0.031 C 
ATOM     67  C   UNL A   1      42.351  31.287  32.650  1.00  0.00     0.037 A 
BRANCH  54  68
ATOM     68  C   UNL A   1      44.920  33.038  28.007  1.00  0.00     0.064 A 
ATOM     69  C   UNL A   1      46.216  33.458  27.657  1.00  0.00     0.173 A 
ATOM     70  C   UNL A   1      43.929  34.045  28.008  1.00  0.00     0.173 A 
ATOM     71  F   UNL A   1      47.241  32.593  27.679  1.00  0.00    -0.203 F 
ATOM     72  C   UNL A   1      46.499  34.792  27.349  1.00  0.00     0.198 A 
ATOM     73  C   UNL A   1      44.201  35.359  27.637  1.00  0.00     0.198 A 
ATOM     74  F   UNL A   1      42.694  33.822  28.477  1.00  0.00    -0.203 F 
ATOM     75  F   UNL A   1      47.764  35.169  27.121  1.00  0.00    -0.200 F 
ATOM     76  C   UNL A   1      45.489  35.739  27.330  1.00  0.00     0.200 A 
ATOM     77  F   UNL A   1      43.214  36.267  27.655  1.00  0.00    -0.200 F 
ATOM     78  F   UNL A   1      45.765  37.023  27.066  1.00  0.00    -0.200 F 
ENDBRANCH  54  68
BRANCH  55  79
ATOM     79  C   UNL A   1      36.907  31.907  30.538  1.00  0.00     0.064 A 
ATOM     80  C   UNL A   1      35.983  31.907  31.597  1.00  0.00     0.173 A 
ATOM     81  C   UNL A   1      36.643  32.790  29.475  1.00  0.00     0.173 A 
ATOM     82  F   UNL A   1      36.178  31.119  32.667  1.00  0.00    -0.203 F 
ATOM     83  C   UNL A   1      34.892  32.779  31.619  1.00  0.00     0.198 A 
ATOM     84  C   UNL A   1      35.545  33.651  29.492  1.00  0.00     0.198 A 
ATOM     85  F   UNL A   1      37.502  32.913  28.453  1.00  0.00    -0.203 F 
ATOM     86  F   UNL A   1      34.085  32.813  32.688  1.00  0.00    -0.200 F 
ATOM     87  C   UNL A   1      34.684  33.661  30.572  1.00  0.00     0.200 A 
ATOM     88  F   UNL A   1      35.373  34.525  28.490  1.00  0.00    -0.200 F 
ATOM     89  F   UNL A   1      33.684  34.553  30.627  1.00  0.00    -0.200 F 
ENDBRANCH  55  79
BRANCH  67  90
ATOM     90  C   UNL A   1      42.139  30.244  33.698  1.00  0.00     0.064 A 
ATOM     91  C   UNL A   1      41.723  28.929  33.433  1.00  0.00     0.173 A 
ATOM     92  C   UNL A   1      42.408  30.584  35.030  1.00  0.00     0.173 A 
ATOM     93  F   UNL A   1      41.525  28.509  32.177  1.00  0.00    -0.203 F 
ATOM     94  C   UNL A   1      41.538  28.014  34.467  1.00  0.00     0.198 A 
ATOM     95  C   UNL A   1      42.259  29.658  36.056  1.00  0.00     0.198 A 
ATOM     96  F   UNL A   1      42.843  31.817  35.334  1.00  0.00    -0.203 F 
ATOM     97  F   UNL A   1      41.111  26.771  34.197  1.00  0.00    -0.200 F 
ATOM     98  C   UNL A   1      41.810  28.377  35.776  1.00  0.00     0.200 A 
ATOM     99  F   UNL A   1      42.563  30.003  37.315  1.00  0.00    -0.200 F 
ATOM    100  F   UNL A   1      41.659  27.488  36.769  1.00  0.00    -0.200 F 
ENDBRANCH  67  90
ENDBRANCH  41  42
ENDBRANCH  33  36
ENDBRANCH  31  32
ENDBRANCH  30  31
ENDBRANCH   1  30
TORSDOF 15
ENDMDL
MODEL 3
REMARK VINA RESULT:     -13.6      3.417      8.860
REMARK SMILES Cc1ccc(C)c(S(=O)(=O)N[C@H](CC2=c3ccccc3=NC2)C(=O)NCCCNC(=O)c2ccc(-c3c4nc(c(-c5c(F)c(F)c(F)c(F)c5F)c5ccc([nH]5)c(-c5c(F)c(F)c(F)c(F)c5F)c5nc(c(-c6c(F)c(F)c(F)c(F)c6F)c6ccc3[nH]6)C=C5)C=C4)cc2)c1
REMARK SMILES IDX 26 1 25 2 23 3 24 4 12 6 11 7 8 9 9 10 10 11 7 12 1 13 2 14
REMARK SMILES IDX 3 15 95 16 4 17 5 18 6 19 13 20 14 21 15 22 22 23 16 24
REMARK SMILES IDX 20 25 21 26 17 27 19 28 18 29 27 30 28 31 29 32 30 33 31 35
REMARK SMILES IDX 32 36 33 37 94 38 34 39 93 40 35 41 36 42 37 43 87 44 38 45
REMARK SMILES IDX 92 46 86 47 88 48 39 49 91 50 85 51 84 52 40 54 72 55 52 56
REMARK SMILES IDX 71 57 53 58 56 59 70 60 89 61 54 62 55 63 69 65 90 66 57 67
REMARK SMILES IDX 41 68 42 69 50 70 43 71 44 72 48 73 51 74 45 75 46 76 49 77
REMARK SMILES IDX 47 78 73 79 74 80 82 81 75 82 76 83 80 84 83 85 77 86 78 87
REMARK SMILES IDX 81 88 79 89 58 90 59 91 67 92 60 93 61 94 65 95 68 96 62 97
REMARK SMILES IDX 63 98 66 99 64 100
REMARK H PARENT 25 5 11 8 29 34 88 53 56 64
REMARK Flexibility Score: inf
ROOT
ATOM      1  C   UNL A   1      36.242  21.471  25.680  1.00  0.00     0.117 C 
ENDROOT
BRANCH   1   2
ATOM      2  N   UNL A   1      35.446  20.317  25.277  1.00  0.00    -0.355 N 
ATOM      3  C   UNL A   1      34.252  20.106  24.649  1.00  0.00     0.238 C 
ATOM      4  O   UNL A   1      33.950  18.920  24.463  1.00  0.00    -0.273 OA
ATOM      5  H   UNL A   1      35.883  19.469  25.522  1.00  0.00     0.163 HD
BRANCH   3   6
ATOM      6  C   UNL A   1      33.264  21.208  24.259  1.00  0.00     0.163 C 
BRANCH   6   7
ATOM      7  N   UNL A   1      33.929  22.532  24.177  1.00  0.00    -0.198 NA
ATOM      8  H   UNL A   1      33.394  23.160  24.775  1.00  0.00     0.142 HD
BRANCH   7   9
ATOM      9  S   UNL A   1      34.124  23.327  22.713  1.00  0.00     0.241 S 
ATOM     10  O   UNL A   1      33.130  22.826  21.786  1.00  0.00    -0.207 OA
ATOM     11  O   UNL A   1      35.539  23.246  22.459  1.00  0.00    -0.207 OA
BRANCH   9  12
ATOM     12  C   UNL A   1      33.751  25.023  23.093  1.00  0.00     0.085 A 
ATOM     13  C   UNL A   1      33.905  27.250  26.179  1.00  0.00     0.044 C 
ATOM     14  C   UNL A   1      33.654  26.784  24.776  1.00  0.00    -0.050 A 
ATOM     15  C   UNL A   1      33.027  27.610  23.846  1.00  0.00     0.004 A 
ATOM     16  C   UNL A   1      34.036  25.502  24.381  1.00  0.00     0.025 A 
ATOM     17  C   UNL A   1      32.800  27.163  22.540  1.00  0.00     0.005 A 
ATOM     18  C   UNL A   1      33.162  25.866  22.137  1.00  0.00    -0.031 A 
ATOM     19  C   UNL A   1      32.903  25.481  20.707  1.00  0.00     0.046 C 
ENDBRANCH   9  12
ENDBRANCH   7   9
ENDBRANCH   6   7
BRANCH   6  20
ATOM     20  C   UNL A   1      31.983  21.326  25.143  1.00  0.00     0.063 C 
BRANCH  20  21
ATOM     21  C   UNL A   1      31.495  22.651  25.676  1.00  0.00    -0.037 C 
ATOM     22  C   UNL A   1      30.895  23.673  25.058  1.00  0.00     0.001 A 
ATOM     23  C   UNL A   1      31.852  23.061  27.071  1.00  0.00     0.174 C 
ATOM     24  C   UNL A   1      30.422  23.957  23.739  1.00  0.00     0.010 A 
ATOM     25  C   UNL A   1      30.864  24.719  26.103  1.00  0.00     0.065 A 
ATOM     26  N   UNL A   1      31.404  24.452  27.251  1.00  0.00    -0.280 NA
ATOM     27  C   UNL A   1      29.903  25.172  23.481  1.00  0.00     0.001 A 
ATOM     28  C   UNL A   1      30.245  26.012  25.759  1.00  0.00     0.028 A 
ATOM     29  C   UNL A   1      29.796  26.196  24.508  1.00  0.00     0.002 A 
ENDBRANCH  20  21
ENDBRANCH   6  20
ENDBRANCH   3   6
ENDBRANCH   1   2
BRANCH   1  30
ATOM     30  C   UNL A   1      37.719  21.495  25.270  1.00  0.00     0.042 C 
BRANCH  30  31
ATOM     31  C   UNL A   1      38.665  22.313  26.126  1.00  0.00     0.118 C 
BRANCH  31  32
ATOM     32  N   UNL A   1      40.078  22.045  25.925  1.00  0.00    -0.352 N 
ATOM     33  C   UNL A   1      41.134  22.866  26.278  1.00  0.00     0.251 C 
ATOM     34  H   UNL A   1      40.309  21.192  25.491  1.00  0.00     0.163 HD
ATOM     35  O   UNL A   1      42.293  22.526  26.070  1.00  0.00    -0.269 OA
BRANCH  33  36
ATOM     36  C   UNL A   1      40.837  24.101  27.037  1.00  0.00     0.039 A 
ATOM     37  C   UNL A   1      39.999  25.043  26.439  1.00  0.00     0.014 A 
ATOM     38  C   UNL A   1      41.528  24.406  28.214  1.00  0.00     0.014 A 
ATOM     39  C   UNL A   1      39.991  26.342  26.927  1.00  0.00     0.010 A 
ATOM     40  C   UNL A   1      41.603  25.719  28.634  1.00  0.00     0.010 A 
ATOM     41  C   UNL A   1      40.854  26.689  27.975  1.00  0.00    -0.014 A 
BRANCH  41  42
ATOM     42  C   UNL A   1      40.805  28.042  28.505  1.00  0.00     0.031 A 
ATOM     43  C   UNL A   1      41.903  28.911  28.026  1.00  0.00     0.074 A 
ATOM     44  C   UNL A   1      39.805  28.559  29.241  1.00  0.00     0.049 A 
ATOM     45  N   UNL A   1      42.944  29.300  28.683  1.00  0.00    -0.248 NA
ATOM     46  C   UNL A   1      41.902  29.299  26.607  1.00  0.00     0.031 C 
ATOM     47  C   UNL A   1      38.473  27.999  29.460  1.00  0.00     0.029 A 
ATOM     48  N   UNL A   1      39.754  29.769  29.877  1.00  0.00    -0.354 N 
ATOM     49  C   UNL A   1      43.645  30.121  27.808  1.00  0.00     0.074 A 
ATOM     50  C   UNL A   1      43.076  29.920  26.502  1.00  0.00     0.031 C 
ATOM     51  C   UNL A   1      37.684  28.948  30.019  1.00  0.00     0.029 A 
ATOM     52  C   UNL A   1      38.490  30.122  30.321  1.00  0.00     0.049 A 
ATOM     53  H   UNL A   1      40.547  30.339  30.008  1.00  0.00     0.167 HD
ATOM     54  C   UNL A   1      44.444  31.120  28.266  1.00  0.00     0.037 A 
ATOM     55  C   UNL A   1      38.133  31.317  30.851  1.00  0.00     0.037 A 
ATOM     56  C   UNL A   1      44.642  31.038  29.685  1.00  0.00     0.049 A 
ATOM     57  C   UNL A   1      39.352  31.984  31.374  1.00  0.00     0.074 A 
ATOM     58  C   UNL A   1      45.436  30.327  30.557  1.00  0.00     0.029 A 
ATOM     59  N   UNL A   1      43.625  31.588  30.416  1.00  0.00    -0.354 N 
ATOM     60  N   UNL A   1      40.038  31.555  32.396  1.00  0.00    -0.248 NA
ATOM     61  C   UNL A   1      39.997  33.033  30.588  1.00  0.00     0.031 C 
ATOM     62  C   UNL A   1      44.777  30.361  31.823  1.00  0.00     0.029 A 
ATOM     63  C   UNL A   1      43.599  31.092  31.692  1.00  0.00     0.049 A 
ATOM     64  H   UNL A   1      42.991  32.255  30.068  1.00  0.00     0.167 HD
ATOM     65  C   UNL A   1      41.330  31.961  32.132  1.00  0.00     0.074 A 
ATOM     66  C   UNL A   1      41.214  33.013  31.136  1.00  0.00     0.031 C 
ATOM     67  C   UNL A   1      42.389  31.177  32.478  1.00  0.00     0.037 A 
BRANCH  54  68
ATOM     68  C   UNL A   1      44.680  32.417  27.535  1.00  0.00     0.064 A 
ATOM     69  C   UNL A   1      45.884  32.607  26.832  1.00  0.00     0.173 A 
ATOM     70  C   UNL A   1      43.898  33.576  27.734  1.00  0.00     0.173 A 
ATOM     71  F   UNL A   1      46.728  31.582  26.637  1.00  0.00    -0.203 F 
ATOM     72  C   UNL A   1      46.280  33.868  26.379  1.00  0.00     0.198 A 
ATOM     73  C   UNL A   1      44.264  34.819  27.225  1.00  0.00     0.198 A 
ATOM     74  F   UNL A   1      42.816  33.572  28.524  1.00  0.00    -0.203 F 
ATOM     75  F   UNL A   1      47.480  34.023  25.805  1.00  0.00    -0.200 F 
ATOM     76  C   UNL A   1      45.465  34.971  26.567  1.00  0.00     0.200 A 
ATOM     77  F   UNL A   1      43.474  35.881  27.446  1.00  0.00    -0.200 F 
ATOM     78  F   UNL A   1      45.858  36.186  26.163  1.00  0.00    -0.200 F 
ENDBRANCH  54  68
BRANCH  55  79
ATOM     79  C   UNL A   1      36.844  32.040  30.751  1.00  0.00     0.064 A 
ATOM     80  C   UNL A   1      35.991  32.141  31.864  1.00  0.00     0.173 A 
ATOM     81  C   UNL A   1      36.570  32.898  29.670  1.00  0.00     0.173 A 
ATOM     82  F   UNL A   1      36.203  31.383  32.951  1.00  0.00    -0.203 F 
ATOM     83  C   UNL A   1      34.963  33.085  31.916  1.00  0.00     0.198 A 
ATOM     84  C   UNL A   1      35.534  33.830  29.718  1.00  0.00     0.198 A 
ATOM     85  F   UNL A   1      37.368  32.924  28.593  1.00  0.00    -0.203 F 
ATOM     86  F   UNL A   1      34.229  33.213  33.031  1.00  0.00    -0.200 F 
ATOM     87  C   UNL A   1      34.745  33.939  30.848  1.00  0.00     0.200 A 
ATOM     88  F   UNL A   1      35.354  34.676  28.694  1.00  0.00    -0.200 F 
ATOM     89  F   UNL A   1      33.811  34.897  30.927  1.00  0.00    -0.200 F 
ENDBRANCH  55  79
BRANCH  67  90
ATOM     90  C   UNL A   1      42.195  30.226  33.614  1.00  0.00     0.064 A 
ATOM     91  C   UNL A   1      41.763  28.899  33.469  1.00  0.00     0.173 A 
ATOM     92  C   UNL A   1      42.499  30.673  34.907  1.00  0.00     0.173 A 
ATOM     93  F   UNL A   1      41.531  28.378  32.257  1.00  0.00    -0.203 F 
ATOM     94  C   UNL A   1      41.596  28.074  34.580  1.00  0.00     0.198 A 
ATOM     95  C   UNL A   1      42.368  29.837  36.010  1.00  0.00     0.198 A 
ATOM     96  F   UNL A   1      42.951  31.923  35.097  1.00  0.00    -0.203 F 
ATOM     97  F   UNL A   1      41.154  26.817  34.424  1.00  0.00    -0.200 F 
ATOM     98  C   UNL A   1      41.904  28.542  35.848  1.00  0.00     0.200 A 
ATOM     99  F   UNL A   1      42.706  30.282  37.228  1.00  0.00    -0.200 F 
ATOM    100  F   UNL A   1      41.770  27.739  36.914  1.00  0.00    -0.200 F 
ENDBRANCH  67  90
ENDBRANCH  41  42
ENDBRANCH  33  36
ENDBRANCH  31  32
ENDBRANCH  30  31
ENDBRANCH   1  30
TORSDOF 15
ENDMDL
