MODEL 1
REMARK VINA RESULT:     -12.9      0.000      0.000
REMARK SMILES COCCN1C(=O)C[C@H](C(=O)NCCCNC(=O)c2ccc(-c3c4nc(c(-c5c(F)c(F)c(F)c(F)c5F)c5ccc([nH]5)c(-c5c(F)c(F)c(F)c(F)c5F)c5nc(c(-c6c(F)c(F)c(F)c(F)c6F)c6ccc3[nH]6)C=C5)C=C4)cc2)[C@@H]1c1ccccc1N1CCOCC1
REMARK SMILES IDX 13 1 12 2 10 3 11 4 9 6 5 7 6 8 82 9 7 10 8 11 4 12 3 13
REMARK SMILES IDX 2 14 1 15 83 16 84 17 88 18 85 19 87 20 86 21 89 22 90 23
REMARK SMILES IDX 94 24 91 25 93 26 92 27 14 28 15 29 16 30 17 31 18 33 19 34
REMARK SMILES IDX 20 35 81 36 21 37 80 38 22 39 23 40 24 41 74 42 25 43 79 44
REMARK SMILES IDX 73 45 75 46 26 47 78 48 72 49 71 50 27 52 59 53 39 54 58 55
REMARK SMILES IDX 40 56 43 57 57 58 76 59 41 60 42 61 56 63 77 64 44 65 28 66
REMARK SMILES IDX 29 67 37 68 30 69 31 70 35 71 38 72 32 73 33 74 36 75 34 76
REMARK SMILES IDX 60 77 61 78 69 79 62 80 63 81 67 82 70 83 64 84 65 85 68 86
REMARK SMILES IDX 66 87 45 88 46 89 54 90 47 91 48 92 52 93 55 94 49 95 50 96
REMARK SMILES IDX 53 97 51 98
REMARK H PARENT 12 5 16 32 75 51 43 62
REMARK Flexibility Score: inf
ROOT
ATOM      1  C   UNL A   1      31.845  30.771  26.121  1.00  0.00     0.117 C 
ENDROOT
BRANCH   1   2
ATOM      2  N   UNL A   1      31.582  29.566  26.884  1.00  0.00    -0.356 N 
ATOM      3  C   UNL A   1      32.100  28.323  26.743  1.00  0.00     0.226 C 
ATOM      4  O   UNL A   1      31.714  27.457  27.534  1.00  0.00    -0.275 OA
ATOM      5  H   UNL A   1      30.930  29.668  27.615  1.00  0.00     0.163 HD
BRANCH   3   6
ATOM      6  C   UNL A   1      32.982  27.940  25.586  1.00  0.00     0.115 C 
ATOM      7  N   UNL A   1      33.201  26.705  23.620  1.00  0.00    -0.332 N 
ATOM      8  C   UNL A   1      33.676  25.863  24.610  1.00  0.00     0.224 C 
ATOM      9  C   UNL A   1      32.474  27.880  24.130  1.00  0.00     0.130 C 
ATOM     10  O   UNL A   1      34.111  24.734  24.471  1.00  0.00    -0.275 OA
ATOM     11  C   UNL A   1      33.652  26.600  25.907  1.00  0.00     0.116 C 
BRANCH   7  12
ATOM     12  C   UNL A   1      33.539  26.488  22.214  1.00  0.00     0.148 C 
BRANCH  12  13
ATOM     13  C   UNL A   1      32.662  25.421  21.539  1.00  0.00     0.181 C 
BRANCH  13  14
ATOM     14  O   UNL A   1      33.168  25.064  20.253  1.00  0.00    -0.383 OA
ATOM     15  C   UNL A   1      32.346  25.498  19.180  1.00  0.00     0.194 C 
ENDBRANCH  13  14
ENDBRANCH  12  13
ENDBRANCH   7  12
BRANCH   9  16
ATOM     16  C   UNL A   1      30.969  27.862  23.801  1.00  0.00    -0.001 A 
ATOM     17  C   UNL A   1      30.385  28.998  23.171  1.00  0.00     0.008 A 
ATOM     18  C   UNL A   1      30.115  26.755  24.074  1.00  0.00     0.042 A 
ATOM     19  C   UNL A   1      29.034  29.063  22.827  1.00  0.00     0.001 A 
ATOM     20  C   UNL A   1      28.744  26.866  23.729  1.00  0.00     0.026 A 
ATOM     21  C   UNL A   1      28.209  27.995  23.111  1.00  0.00     0.002 A 
BRANCH  18  22
ATOM     22  N   UNL A   1      30.593  25.541  24.583  1.00  0.00    -0.367 N 
ATOM     23  C   UNL A   1      30.286  25.223  25.988  1.00  0.00     0.145 C 
ATOM     24  C   UNL A   1      30.511  24.341  23.704  1.00  0.00     0.145 C 
ATOM     25  C   UNL A   1      31.166  24.047  26.449  1.00  0.00     0.181 C 
ATOM     26  C   UNL A   1      31.321  23.167  24.274  1.00  0.00     0.181 C 
ATOM     27  O   UNL A   1      30.953  22.884  25.632  1.00  0.00    -0.378 OA
ENDBRANCH  18  22
ENDBRANCH   9  16
ENDBRANCH   3   6
ENDBRANCH   1   2
BRANCH   1  28
ATOM     28  C   UNL A   1      31.494  32.017  26.898  1.00  0.00     0.042 C 
BRANCH  28  29
ATOM     29  C   UNL A   1      32.745  32.770  27.316  1.00  0.00     0.118 C 
BRANCH  29  30
ATOM     30  N   UNL A   1      32.483  34.175  27.619  1.00  0.00    -0.352 N 
ATOM     31  C   UNL A   1      33.033  34.967  28.599  1.00  0.00     0.251 C 
ATOM     32  H   UNL A   1      31.819  34.617  27.041  1.00  0.00     0.163 HD
ATOM     33  O   UNL A   1      32.587  36.083  28.836  1.00  0.00    -0.269 OA
BRANCH  31  34
ATOM     34  C   UNL A   1      34.154  34.424  29.388  1.00  0.00     0.039 A 
ATOM     35  C   UNL A   1      33.890  33.581  30.466  1.00  0.00     0.014 A 
ATOM     36  C   UNL A   1      35.466  34.676  28.984  1.00  0.00     0.014 A 
ATOM     37  C   UNL A   1      34.948  32.912  31.083  1.00  0.00     0.010 A 
ATOM     38  C   UNL A   1      36.496  33.913  29.510  1.00  0.00     0.010 A 
ATOM     39  C   UNL A   1      36.252  33.033  30.574  1.00  0.00    -0.014 A 
BRANCH  39  40
ATOM     40  C   UNL A   1      37.393  32.281  31.151  1.00  0.00     0.031 A 
ATOM     41  C   UNL A   1      37.886  32.632  32.528  1.00  0.00     0.074 A 
ATOM     42  C   UNL A   1      38.039  31.358  30.412  1.00  0.00     0.049 A 
ATOM     43  N   UNL A   1      38.939  32.196  33.170  1.00  0.00    -0.248 NA
ATOM     44  C   UNL A   1      37.118  33.651  33.265  1.00  0.00     0.031 C 
ATOM     45  C   UNL A   1      37.701  30.979  29.039  1.00  0.00     0.029 A 
ATOM     46  N   UNL A   1      39.127  30.578  30.713  1.00  0.00    -0.354 N 
ATOM     47  C   UNL A   1      38.977  32.912  34.359  1.00  0.00     0.074 A 
ATOM     48  C   UNL A   1      37.885  33.858  34.322  1.00  0.00     0.031 C 
ATOM     49  C   UNL A   1      38.542  30.017  28.628  1.00  0.00     0.029 A 
ATOM     50  C   UNL A   1      39.500  29.736  29.694  1.00  0.00     0.049 A 
ATOM     51  H   UNL A   1      39.595  30.618  31.577  1.00  0.00     0.167 HD
ATOM     52  C   UNL A   1      39.826  32.772  35.403  1.00  0.00     0.037 A 
ATOM     53  C   UNL A   1      40.504  28.841  29.630  1.00  0.00     0.037 A 
ATOM     54  C   UNL A   1      40.870  31.786  35.460  1.00  0.00     0.049 A 
ATOM     55  C   UNL A   1      41.405  28.670  30.822  1.00  0.00     0.074 A 
ATOM     56  C   UNL A   1      41.734  31.502  36.502  1.00  0.00     0.029 A 
ATOM     57  N   UNL A   1      41.183  30.913  34.428  1.00  0.00    -0.354 N 
ATOM     58  N   UNL A   1      41.389  29.304  31.969  1.00  0.00    -0.248 NA
ATOM     59  C   UNL A   1      42.458  27.650  30.715  1.00  0.00     0.031 C 
ATOM     60  C   UNL A   1      42.590  30.477  36.089  1.00  0.00     0.029 A 
ATOM     61  C   UNL A   1      42.234  30.095  34.805  1.00  0.00     0.049 A 
ATOM     62  H   UNL A   1      40.725  30.881  33.557  1.00  0.00     0.167 HD
ATOM     63  C   UNL A   1      42.409  28.746  32.728  1.00  0.00     0.074 A 
ATOM     64  C   UNL A   1      43.015  27.711  31.916  1.00  0.00     0.031 C 
ATOM     65  C   UNL A   1      42.809  29.062  33.984  1.00  0.00     0.037 A 
BRANCH  52  66
ATOM     66  C   UNL A   1      39.640  33.694  36.572  1.00  0.00     0.064 A 
ATOM     67  C   UNL A   1      40.264  34.950  36.625  1.00  0.00     0.173 A 
ATOM     68  C   UNL A   1      38.821  33.323  37.649  1.00  0.00     0.173 A 
ATOM     69  F   UNL A   1      41.071  35.346  35.628  1.00  0.00    -0.203 F 
ATOM     70  C   UNL A   1      40.104  35.785  37.728  1.00  0.00     0.198 A 
ATOM     71  C   UNL A   1      38.638  34.174  38.736  1.00  0.00     0.198 A 
ATOM     72  F   UNL A   1      38.200  32.135  37.648  1.00  0.00    -0.203 F 
ATOM     73  F   UNL A   1      40.761  36.953  37.782  1.00  0.00    -0.200 F 
ATOM     74  C   UNL A   1      39.288  35.398  38.779  1.00  0.00     0.200 A 
ATOM     75  F   UNL A   1      37.840  33.805  39.747  1.00  0.00    -0.200 F 
ATOM     76  F   UNL A   1      39.134  36.204  39.839  1.00  0.00    -0.200 F 
ENDBRANCH  52  66
BRANCH  53  77
ATOM     77  C   UNL A   1      40.681  28.008  28.413  1.00  0.00     0.064 A 
ATOM     78  C   UNL A   1      40.070  26.750  28.312  1.00  0.00     0.173 A 
ATOM     79  C   UNL A   1      41.457  28.444  27.330  1.00  0.00     0.173 A 
ATOM     80  F   UNL A   1      39.333  26.282  29.331  1.00  0.00    -0.203 F 
ATOM     81  C   UNL A   1      40.243  25.952  27.184  1.00  0.00     0.198 A 
ATOM     82  C   UNL A   1      41.610  27.656  26.191  1.00  0.00     0.198 A 
ATOM     83  F   UNL A   1      42.058  29.643  27.374  1.00  0.00    -0.203 F 
ATOM     84  F   UNL A   1      39.682  24.737  27.132  1.00  0.00    -0.200 F 
ATOM     85  C   UNL A   1      41.009  26.408  26.121  1.00  0.00     0.200 A 
ATOM     86  F   UNL A   1      42.341  28.105  25.161  1.00  0.00    -0.200 F 
ATOM     87  F   UNL A   1      41.174  25.641  25.035  1.00  0.00    -0.200 F 
ENDBRANCH  53  77
BRANCH  65  88
ATOM     88  C   UNL A   1      43.928  28.255  34.571  1.00  0.00     0.064 A 
ATOM     89  C   UNL A   1      45.262  28.675  34.480  1.00  0.00     0.173 A 
ATOM     90  C   UNL A   1      43.653  27.075  35.278  1.00  0.00     0.173 A 
ATOM     91  F   UNL A   1      45.574  29.790  33.803  1.00  0.00    -0.203 F 
ATOM     92  C   UNL A   1      46.285  27.929  35.058  1.00  0.00     0.198 A 
ATOM     93  C   UNL A   1      44.676  26.346  35.877  1.00  0.00     0.198 A 
ATOM     94  F   UNL A   1      42.391  26.636  35.398  1.00  0.00    -0.203 F 
ATOM     95  F   UNL A   1      47.558  28.327  34.924  1.00  0.00    -0.200 F 
ATOM     96  C   UNL A   1      45.992  26.771  35.761  1.00  0.00     0.200 A 
ATOM     97  F   UNL A   1      44.389  25.234  36.568  1.00  0.00    -0.200 F 
ATOM     98  F   UNL A   1      46.977  26.058  36.324  1.00  0.00    -0.200 F 
ENDBRANCH  65  88
ENDBRANCH  39  40
ENDBRANCH  31  34
ENDBRANCH  29  30
ENDBRANCH  28  29
ENDBRANCH   1  28
TORSDOF 15
ENDMDL
MODEL 2
REMARK VINA RESULT:     -12.8      0.697      7.151
REMARK SMILES COCCN1C(=O)C[C@H](C(=O)NCCCNC(=O)c2ccc(-c3c4nc(c(-c5c(F)c(F)c(F)c(F)c5F)c5ccc([nH]5)c(-c5c(F)c(F)c(F)c(F)c5F)c5nc(c(-c6c(F)c(F)c(F)c(F)c6F)c6ccc3[nH]6)C=C5)C=C4)cc2)[C@@H]1c1ccccc1N1CCOCC1
REMARK SMILES IDX 13 1 12 2 10 3 11 4 9 6 5 7 6 8 82 9 7 10 8 11 4 12 3 13
REMARK SMILES IDX 2 14 1 15 83 16 84 17 88 18 85 19 87 20 86 21 89 22 90 23
REMARK SMILES IDX 94 24 91 25 93 26 92 27 14 28 15 29 16 30 17 31 18 33 19 34
REMARK SMILES IDX 20 35 81 36 21 37 80 38 22 39 23 40 24 41 74 42 25 43 79 44
REMARK SMILES IDX 73 45 75 46 26 47 78 48 72 49 71 50 27 52 59 53 39 54 58 55
REMARK SMILES IDX 40 56 43 57 57 58 76 59 41 60 42 61 56 63 77 64 44 65 28 66
REMARK SMILES IDX 29 67 37 68 30 69 31 70 35 71 38 72 32 73 33 74 36 75 34 76
REMARK SMILES IDX 60 77 61 78 69 79 62 80 63 81 67 82 70 83 64 84 65 85 68 86
REMARK SMILES IDX 66 87 45 88 46 89 54 90 47 91 48 92 52 93 55 94 49 95 50 96
REMARK SMILES IDX 53 97 51 98
REMARK H PARENT 12 5 16 32 75 51 43 62
REMARK Flexibility Score: inf
ROOT
ATOM      1  C   UNL A   1      32.267  30.630  26.275  1.00  0.00     0.117 C 
ENDROOT
BRANCH   1   2
ATOM      2  N   UNL A   1      31.861  29.427  26.976  1.00  0.00    -0.356 N 
ATOM      3  C   UNL A   1      32.268  28.147  26.803  1.00  0.00     0.226 C 
ATOM      4  O   UNL A   1      31.769  27.291  27.541  1.00  0.00    -0.275 OA
ATOM      5  H   UNL A   1      31.190  29.562  27.684  1.00  0.00     0.163 HD
BRANCH   3   6
ATOM      6  C   UNL A   1      33.160  27.727  25.667  1.00  0.00     0.115 C 
ATOM      7  N   UNL A   1      33.347  26.557  23.659  1.00  0.00    -0.332 N 
ATOM      8  C   UNL A   1      33.695  25.633  24.629  1.00  0.00     0.224 C 
ATOM      9  C   UNL A   1      32.714  27.775  24.191  1.00  0.00     0.130 C 
ATOM     10  O   UNL A   1      34.026  24.474  24.458  1.00  0.00    -0.275 OA
ATOM     11  C   UNL A   1      33.684  26.316  25.956  1.00  0.00     0.116 C 
BRANCH   7  12
ATOM     12  C   UNL A   1      33.726  26.365  22.260  1.00  0.00     0.148 C 
BRANCH  12  13
ATOM     13  C   UNL A   1      32.587  25.796  21.398  1.00  0.00     0.181 C 
BRANCH  13  14
ATOM     14  O   UNL A   1      33.087  25.164  20.220  1.00  0.00    -0.383 OA
ATOM     15  C   UNL A   1      32.328  25.453  19.055  1.00  0.00     0.194 C 
ENDBRANCH  13  14
ENDBRANCH  12  13
ENDBRANCH   7  12
BRANCH   9  16
ATOM     16  C   UNL A   1      31.230  27.918  23.800  1.00  0.00    -0.001 A 
ATOM     17  C   UNL A   1      30.791  29.121  23.179  1.00  0.00     0.008 A 
ATOM     18  C   UNL A   1      30.259  26.897  24.008  1.00  0.00     0.042 A 
ATOM     19  C   UNL A   1      29.470  29.332  22.782  1.00  0.00     0.001 A 
ATOM     20  C   UNL A   1      28.922  27.155  23.610  1.00  0.00     0.026 A 
ATOM     21  C   UNL A   1      28.531  28.345  23.003  1.00  0.00     0.002 A 
BRANCH  18  22
ATOM     22  N   UNL A   1      30.591  25.629  24.501  1.00  0.00    -0.367 N 
ATOM     23  C   UNL A   1      30.160  25.296  25.870  1.00  0.00     0.145 C 
ATOM     24  C   UNL A   1      30.464  24.469  23.574  1.00  0.00     0.145 C 
ATOM     25  C   UNL A   1      30.897  24.032  26.344  1.00  0.00     0.181 C 
ATOM     26  C   UNL A   1      31.125  23.209  24.153  1.00  0.00     0.181 C 
ATOM     27  O   UNL A   1      30.639  22.919  25.472  1.00  0.00    -0.378 OA
ENDBRANCH  18  22
ENDBRANCH   9  16
ENDBRANCH   3   6
ENDBRANCH   1   2
BRANCH   1  28
ATOM     28  C   UNL A   1      31.731  31.876  26.938  1.00  0.00     0.042 C 
BRANCH  28  29
ATOM     29  C   UNL A   1      32.853  32.690  27.558  1.00  0.00     0.118 C 
BRANCH  29  30
ATOM     30  N   UNL A   1      32.508  34.101  27.712  1.00  0.00    -0.352 N 
ATOM     31  C   UNL A   1      33.008  35.024  28.600  1.00  0.00     0.251 C 
ATOM     32  H   UNL A   1      31.819  34.439  27.094  1.00  0.00     0.163 HD
ATOM     33  O   UNL A   1      32.497  36.130  28.720  1.00  0.00    -0.269 OA
BRANCH  31  34
ATOM     34  C   UNL A   1      34.159  34.635  29.436  1.00  0.00     0.039 A 
ATOM     35  C   UNL A   1      33.939  34.151  30.725  1.00  0.00     0.014 A 
ATOM     36  C   UNL A   1      35.445  34.657  28.892  1.00  0.00     0.014 A 
ATOM     37  C   UNL A   1      35.005  33.599  31.437  1.00  0.00     0.010 A 
ATOM     38  C   UNL A   1      36.469  33.991  29.545  1.00  0.00     0.010 A 
ATOM     39  C   UNL A   1      36.265  33.467  30.830  1.00  0.00    -0.014 A 
BRANCH  39  40
ATOM     40  C   UNL A   1      37.405  32.817  31.522  1.00  0.00     0.031 A 
ATOM     41  C   UNL A   1      38.116  31.671  30.855  1.00  0.00     0.074 A 
ATOM     42  C   UNL A   1      37.738  33.187  32.774  1.00  0.00     0.049 A 
ATOM     43  N   UNL A   1      39.045  30.881  31.328  1.00  0.00    -0.248 NA
ATOM     44  C   UNL A   1      37.687  31.336  29.486  1.00  0.00     0.031 C 
ATOM     45  C   UNL A   1      37.079  34.236  33.555  1.00  0.00     0.029 A 
ATOM     46  N   UNL A   1      38.712  32.711  33.615  1.00  0.00    -0.354 N 
ATOM     47  C   UNL A   1      39.279  29.941  30.334  1.00  0.00     0.074 A 
ATOM     48  C   UNL A   1      38.350  30.214  29.260  1.00  0.00     0.031 C 
ATOM     49  C   UNL A   1      37.688  34.346  34.746  1.00  0.00     0.029 A 
ATOM     50  C   UNL A   1      38.755  33.353  34.828  1.00  0.00     0.049 A 
ATOM     51  H   UNL A   1      39.322  31.978  33.372  1.00  0.00     0.167 HD
ATOM     52  C   UNL A   1      40.208  28.958  30.302  1.00  0.00     0.037 A 
ATOM     53  C   UNL A   1      39.566  33.159  35.886  1.00  0.00     0.037 A 
ATOM     54  C   UNL A   1      41.171  28.732  31.345  1.00  0.00     0.049 A 
ATOM     55  C   UNL A   1      40.623  32.091  35.808  1.00  0.00     0.074 A 
ATOM     56  C   UNL A   1      42.208  27.818  31.379  1.00  0.00     0.029 A 
ATOM     57  N   UNL A   1      41.218  29.440  32.536  1.00  0.00    -0.354 N 
ATOM     58  N   UNL A   1      40.882  31.252  34.834  1.00  0.00    -0.248 NA
ATOM     59  C   UNL A   1      41.507  31.949  36.973  1.00  0.00     0.031 C 
ATOM     60  C   UNL A   1      42.866  27.953  32.605  1.00  0.00     0.029 A 
ATOM     61  C   UNL A   1      42.262  28.977  33.318  1.00  0.00     0.049 A 
ATOM     62  H   UNL A   1      40.600  30.164  32.788  1.00  0.00     0.167 HD
ATOM     63  C   UNL A   1      41.971  30.502  35.256  1.00  0.00     0.074 A 
ATOM     64  C   UNL A   1      42.334  30.995  36.569  1.00  0.00     0.031 C 
ATOM     65  C   UNL A   1      42.613  29.495  34.615  1.00  0.00     0.037 A 
BRANCH  52  66
ATOM     66  C   UNL A   1      40.235  28.072  29.091  1.00  0.00     0.064 A 
ATOM     67  C   UNL A   1      40.960  28.419  27.941  1.00  0.00     0.173 A 
ATOM     68  C   UNL A   1      39.534  26.857  29.083  1.00  0.00     0.173 A 
ATOM     69  F   UNL A   1      41.633  29.579  27.891  1.00  0.00    -0.203 F 
ATOM     70  C   UNL A   1      40.954  27.601  26.814  1.00  0.00     0.198 A 
ATOM     71  C   UNL A   1      39.557  26.025  27.965  1.00  0.00     0.198 A 
ATOM     72  F   UNL A   1      38.826  26.476  30.156  1.00  0.00    -0.203 F 
ATOM     73  F   UNL A   1      41.604  27.985  25.706  1.00  0.00    -0.200 F 
ATOM     74  C   UNL A   1      40.257  26.403  26.830  1.00  0.00     0.200 A 
ATOM     75  F   UNL A   1      38.891  24.862  27.985  1.00  0.00    -0.200 F 
ATOM     76  F   UNL A   1      40.253  25.615  25.745  1.00  0.00    -0.200 F 
ENDBRANCH  52  66
BRANCH  53  77
ATOM     77  C   UNL A   1      39.441  34.023  37.088  1.00  0.00     0.064 A 
ATOM     78  C   UNL A   1      40.057  35.282  37.131  1.00  0.00     0.173 A 
ATOM     79  C   UNL A   1      38.708  33.616  38.211  1.00  0.00     0.173 A 
ATOM     80  F   UNL A   1      40.785  35.705  36.088  1.00  0.00    -0.203 F 
ATOM     81  C   UNL A   1      39.962  36.092  38.259  1.00  0.00     0.198 A 
ATOM     82  C   UNL A   1      38.591  34.439  39.330  1.00  0.00     0.198 A 
ATOM     83  F   UNL A   1      38.093  32.424  38.217  1.00  0.00    -0.203 F 
ATOM     84  F   UNL A   1      40.595  37.272  38.289  1.00  0.00    -0.200 F 
ATOM     85  C   UNL A   1      39.223  35.673  39.356  1.00  0.00     0.200 A 
ATOM     86  F   UNL A   1      37.868  34.036  40.383  1.00  0.00    -0.200 F 
ATOM     87  F   UNL A   1      39.130  36.454  40.441  1.00  0.00    -0.200 F 
ENDBRANCH  53  77
BRANCH  65  88
ATOM     88  C   UNL A   1      43.796  28.886  35.306  1.00  0.00     0.064 A 
ATOM     89  C   UNL A   1      45.098  29.361  35.087  1.00  0.00     0.173 A 
ATOM     90  C   UNL A   1      43.617  27.851  36.235  1.00  0.00     0.173 A 
ATOM     91  F   UNL A   1      45.319  30.340  34.199  1.00  0.00    -0.203 F 
ATOM     92  C   UNL A   1      46.181  28.804  35.761  1.00  0.00     0.198 A 
ATOM     93  C   UNL A   1      44.699  27.315  36.926  1.00  0.00     0.198 A 
ATOM     94  F   UNL A   1      42.390  27.369  36.483  1.00  0.00    -0.203 F 
ATOM     95  F   UNL A   1      47.421  29.244  35.508  1.00  0.00    -0.200 F 
ATOM     96  C   UNL A   1      45.981  27.788  36.683  1.00  0.00     0.200 A 
ATOM     97  F   UNL A   1      44.502  26.343  37.827  1.00  0.00    -0.200 F 
ATOM     98  F   UNL A   1      47.024  27.259  37.337  1.00  0.00    -0.200 F 
ENDBRANCH  65  88
ENDBRANCH  39  40
ENDBRANCH  31  34
ENDBRANCH  29  30
ENDBRANCH  28  29
ENDBRANCH   1  28
TORSDOF 15
ENDMDL
MODEL 3
REMARK VINA RESULT:     -12.7      5.339     10.863
REMARK SMILES COCCN1C(=O)C[C@H](C(=O)NCCCNC(=O)c2ccc(-c3c4nc(c(-c5c(F)c(F)c(F)c(F)c5F)c5ccc([nH]5)c(-c5c(F)c(F)c(F)c(F)c5F)c5nc(c(-c6c(F)c(F)c(F)c(F)c6F)c6ccc3[nH]6)C=C5)C=C4)cc2)[C@@H]1c1ccccc1N1CCOCC1
REMARK SMILES IDX 13 1 12 2 10 3 11 4 9 6 5 7 6 8 82 9 7 10 8 11 4 12 3 13
REMARK SMILES IDX 2 14 1 15 83 16 84 17 88 18 85 19 87 20 86 21 89 22 90 23
REMARK SMILES IDX 94 24 91 25 93 26 92 27 14 28 15 29 16 30 17 31 18 33 19 34
REMARK SMILES IDX 20 35 81 36 21 37 80 38 22 39 23 40 24 41 74 42 25 43 79 44
REMARK SMILES IDX 73 45 75 46 26 47 78 48 72 49 71 50 27 52 59 53 39 54 58 55
REMARK SMILES IDX 40 56 43 57 57 58 76 59 41 60 42 61 56 63 77 64 44 65 28 66
REMARK SMILES IDX 29 67 37 68 30 69 31 70 35 71 38 72 32 73 33 74 36 75 34 76
REMARK SMILES IDX 60 77 61 78 69 79 62 80 63 81 67 82 70 83 64 84 65 85 68 86
REMARK SMILES IDX 66 87 45 88 46 89 54 90 47 91 48 92 52 93 55 94 49 95 50 96
REMARK SMILES IDX 53 97 51 98
REMARK H PARENT 12 5 16 32 75 51 43 62
REMARK Flexibility Score: inf
ROOT
ATOM      1  C   UNL A   1      37.166  20.711  25.233  1.00  0.00     0.117 C 
ENDROOT
BRANCH   1   2
ATOM      2  N   UNL A   1      36.925  21.656  24.160  1.00  0.00    -0.356 N 
ATOM      3  C   UNL A   1      36.203  22.803  24.162  1.00  0.00     0.226 C 
ATOM      4  O   UNL A   1      36.157  23.443  23.108  1.00  0.00    -0.275 OA
ATOM      5  H   UNL A   1      37.352  21.432  23.301  1.00  0.00     0.163 HD
BRANCH   3   6
ATOM      6  C   UNL A   1      35.352  23.220  25.330  1.00  0.00     0.115 C 
ATOM      7  N   UNL A   1      33.196  23.529  26.164  1.00  0.00    -0.332 N 
ATOM      8  C   UNL A   1      33.536  24.758  25.627  1.00  0.00     0.224 C 
ATOM      9  C   UNL A   1      34.101  22.433  25.777  1.00  0.00     0.130 C 
ATOM     10  O   UNL A   1      32.856  25.767  25.606  1.00  0.00    -0.275 OA
ATOM     11  C   UNL A   1      34.944  24.684  25.135  1.00  0.00     0.116 C 
BRANCH   7  12
ATOM     12  C   UNL A   1      32.116  23.402  27.141  1.00  0.00     0.148 C 
BRANCH  12  13
ATOM     13  C   UNL A   1      30.731  23.240  26.492  1.00  0.00     0.181 C 
BRANCH  13  14
ATOM     14  O   UNL A   1      29.684  23.374  27.453  1.00  0.00    -0.383 OA
ATOM     15  C   UNL A   1      28.746  22.309  27.423  1.00  0.00     0.194 C 
ENDBRANCH  13  14
ENDBRANCH  12  13
ENDBRANCH   7  12
BRANCH   9  16
ATOM     16  C   UNL A   1      33.439  21.383  24.864  1.00  0.00    -0.001 A 
ATOM     17  C   UNL A   1      33.523  20.007  25.219  1.00  0.00     0.008 A 
ATOM     18  C   UNL A   1      32.721  21.710  23.678  1.00  0.00     0.042 A 
ATOM     19  C   UNL A   1      32.944  18.991  24.459  1.00  0.00     0.001 A 
ATOM     20  C   UNL A   1      32.165  20.648  22.919  1.00  0.00     0.026 A 
ATOM     21  C   UNL A   1      32.265  19.312  23.301  1.00  0.00     0.002 A 
BRANCH  18  22
ATOM     22  N   UNL A   1      32.472  23.030  23.287  1.00  0.00    -0.367 N 
ATOM     23  C   UNL A   1      33.221  23.552  22.130  1.00  0.00     0.145 C 
ATOM     24  C   UNL A   1      31.059  23.502  23.300  1.00  0.00     0.145 C 
ATOM     25  C   UNL A   1      33.071  25.083  22.073  1.00  0.00     0.181 C 
ATOM     26  C   UNL A   1      30.970  25.026  23.129  1.00  0.00     0.181 C 
ATOM     27  O   UNL A   1      31.690  25.468  21.968  1.00  0.00    -0.378 OA
ENDBRANCH  18  22
ENDBRANCH   9  16
ENDBRANCH   3   6
ENDBRANCH   1   2
BRANCH   1  28
ATOM     28  C   UNL A   1      38.364  19.836  24.954  1.00  0.00     0.042 C 
BRANCH  28  29
ATOM     29  C   UNL A   1      39.493  20.132  25.925  1.00  0.00     0.118 C 
BRANCH  29  30
ATOM     30  N   UNL A   1      40.494  19.068  25.967  1.00  0.00    -0.352 N 
ATOM     31  C   UNL A   1      41.861  19.169  26.068  1.00  0.00     0.251 C 
ATOM     32  H   UNL A   1      40.140  18.151  25.916  1.00  0.00     0.163 HD
ATOM     33  O   UNL A   1      42.582  18.190  25.921  1.00  0.00    -0.269 OA
BRANCH  31  34
ATOM     34  C   UNL A   1      42.447  20.499  26.322  1.00  0.00     0.039 A 
ATOM     35  C   UNL A   1      42.783  21.317  25.244  1.00  0.00     0.014 A 
ATOM     36  C   UNL A   1      42.560  20.962  27.634  1.00  0.00     0.014 A 
ATOM     37  C   UNL A   1      43.147  22.643  25.484  1.00  0.00     0.010 A 
ATOM     38  C   UNL A   1      42.792  22.309  27.858  1.00  0.00     0.010 A 
ATOM     39  C   UNL A   1      43.102  23.162  26.789  1.00  0.00    -0.014 A 
BRANCH  39  40
ATOM     40  C   UNL A   1      43.406  24.585  27.078  1.00  0.00     0.031 A 
ATOM     41  C   UNL A   1      44.794  25.108  26.828  1.00  0.00     0.074 A 
ATOM     42  C   UNL A   1      42.474  25.374  27.647  1.00  0.00     0.049 A 
ATOM     43  N   UNL A   1      45.310  26.272  27.127  1.00  0.00    -0.248 NA
ATOM     44  C   UNL A   1      45.748  24.175  26.202  1.00  0.00     0.031 C 
ATOM     45  C   UNL A   1      41.114  24.965  28.003  1.00  0.00     0.029 A 
ATOM     46  N   UNL A   1      42.537  26.689  28.036  1.00  0.00    -0.354 N 
ATOM     47  C   UNL A   1      46.647  26.194  26.762  1.00  0.00     0.074 A 
ATOM     48  C   UNL A   1      46.882  24.850  26.283  1.00  0.00     0.031 C 
ATOM     49  C   UNL A   1      40.462  26.015  28.527  1.00  0.00     0.029 A 
ATOM     50  C   UNL A   1      41.366  27.160  28.578  1.00  0.00     0.049 A 
ATOM     51  H   UNL A   1      43.345  27.241  27.937  1.00  0.00     0.167 HD
ATOM     52  C   UNL A   1      47.589  27.165  26.790  1.00  0.00     0.037 A 
ATOM     53  C   UNL A   1      41.061  28.379  29.061  1.00  0.00     0.037 A 
ATOM     54  C   UNL A   1      47.333  28.517  27.207  1.00  0.00     0.049 A 
ATOM     55  C   UNL A   1      42.111  29.456  29.038  1.00  0.00     0.074 A 
ATOM     56  C   UNL A   1      48.192  29.600  27.197  1.00  0.00     0.029 A 
ATOM     57  N   UNL A   1      46.118  28.970  27.698  1.00  0.00    -0.354 N 
ATOM     58  N   UNL A   1      43.354  29.392  28.626  1.00  0.00    -0.248 NA
ATOM     59  C   UNL A   1      41.713  30.779  29.539  1.00  0.00     0.031 C 
ATOM     60  C   UNL A   1      47.506  30.704  27.712  1.00  0.00     0.029 A 
ATOM     61  C   UNL A   1      46.207  30.317  28.005  1.00  0.00     0.049 A 
ATOM     62  H   UNL A   1      45.312  28.416  27.813  1.00  0.00     0.167 HD
ATOM     63  C   UNL A   1      43.878  30.666  28.792  1.00  0.00     0.074 A 
ATOM     64  C   UNL A   1      42.813  31.488  29.330  1.00  0.00     0.031 C 
ATOM     65  C   UNL A   1      45.128  31.116  28.525  1.00  0.00     0.037 A 
BRANCH  52  66
ATOM     66  C   UNL A   1      48.972  26.799  26.338  1.00  0.00     0.064 A 
ATOM     67  C   UNL A   1      49.382  26.973  25.007  1.00  0.00     0.173 A 
ATOM     68  C   UNL A   1      49.903  26.276  27.248  1.00  0.00     0.173 A 
ATOM     69  F   UNL A   1      48.524  27.453  24.094  1.00  0.00    -0.203 F 
ATOM     70  C   UNL A   1      50.660  26.603  24.596  1.00  0.00     0.198 A 
ATOM     71  C   UNL A   1      51.191  25.938  26.839  1.00  0.00     0.198 A 
ATOM     72  F   UNL A   1      49.564  26.091  28.532  1.00  0.00    -0.203 F 
ATOM     73  F   UNL A   1      51.006  26.722  23.306  1.00  0.00    -0.200 F 
ATOM     74  C   UNL A   1      51.564  26.091  25.513  1.00  0.00     0.200 A 
ATOM     75  F   UNL A   1      52.069  25.453  27.729  1.00  0.00    -0.200 F 
ATOM     76  F   UNL A   1      52.794  25.738  25.116  1.00  0.00    -0.200 F 
ENDBRANCH  52  66
BRANCH  53  77
ATOM     77  C   UNL A   1      39.692  28.658  29.565  1.00  0.00     0.064 A 
ATOM     78  C   UNL A   1      38.702  29.154  28.705  1.00  0.00     0.173 A 
ATOM     79  C   UNL A   1      39.342  28.438  30.904  1.00  0.00     0.173 A 
ATOM     80  F   UNL A   1      38.995  29.399  27.419  1.00  0.00    -0.203 F 
ATOM     81  C   UNL A   1      37.419  29.437  29.169  1.00  0.00     0.198 A 
ATOM     82  C   UNL A   1      38.051  28.696  31.362  1.00  0.00     0.198 A 
ATOM     83  F   UNL A   1      40.251  27.958  31.766  1.00  0.00    -0.203 F 
ATOM     84  F   UNL A   1      36.505  29.949  28.335  1.00  0.00    -0.200 F 
ATOM     85  C   UNL A   1      37.093  29.203  30.497  1.00  0.00     0.200 A 
ATOM     86  F   UNL A   1      37.737  28.459  32.642  1.00  0.00    -0.200 F 
ATOM     87  F   UNL A   1      35.859  29.473  30.943  1.00  0.00    -0.200 F 
ENDBRANCH  53  77
BRANCH  65  88
ATOM     88  C   UNL A   1      45.402  32.569  28.773  1.00  0.00     0.064 A 
ATOM     89  C   UNL A   1      45.942  33.018  29.987  1.00  0.00     0.173 A 
ATOM     90  C   UNL A   1      45.168  33.515  27.764  1.00  0.00     0.173 A 
ATOM     91  F   UNL A   1      46.170  32.152  30.985  1.00  0.00    -0.203 F 
ATOM     92  C   UNL A   1      46.219  34.367  30.188  1.00  0.00     0.198 A 
ATOM     93  C   UNL A   1      45.471  34.859  27.960  1.00  0.00     0.198 A 
ATOM     94  F   UNL A   1      44.659  33.133  26.583  1.00  0.00    -0.203 F 
ATOM     95  F   UNL A   1      46.696  34.781  31.370  1.00  0.00    -0.200 F 
ATOM     96  C   UNL A   1      45.990  35.284  29.174  1.00  0.00     0.200 A 
ATOM     97  F   UNL A   1      45.263  35.742  26.973  1.00  0.00    -0.200 F 
ATOM     98  F   UNL A   1      46.265  36.582  29.366  1.00  0.00    -0.200 F 
ENDBRANCH  65  88
ENDBRANCH  39  40
ENDBRANCH  31  34
ENDBRANCH  29  30
ENDBRANCH  28  29
ENDBRANCH   1  28
TORSDOF 15
ENDMDL
