MODEL 1
REMARK VINA RESULT:     -12.0      0.000      0.000
REMARK SMILES O=C(NCCCNC(=O)[C@@H]1C[N@@H+](CC(=O)c2ccc[nH]2)CC[NH2+]1)c1ccc(-c2c3nc(c(-c4c(F)c(F)c(F)c(F)c4F)c4ccc([nH]4)c(-c4c(F)c(F)c(F)c(F)c4F)c4nc(c(-c5c(F)c(F)c(F)c(F)c5F)c5ccc2[nH]5)C=C4)C=C3)cc1
REMARK SMILES IDX 5 1 4 2 3 3 1 4 2 5 24 7 25 8 86 9 26 10 85 11 27 12 28 13
REMARK SMILES IDX 29 14 79 15 30 16 84 17 78 18 80 19 31 20 83 21 77 22 76 23
REMARK SMILES IDX 32 25 64 26 44 27 63 28 45 29 48 30 62 31 81 32 46 33 47 34
REMARK SMILES IDX 61 36 82 37 49 38 33 39 34 40 42 41 35 42 36 43 40 44 43 45
REMARK SMILES IDX 37 46 38 47 41 48 39 49 65 50 66 51 74 52 67 53 68 54 72 55
REMARK SMILES IDX 75 56 69 57 70 58 73 59 71 60 50 61 51 62 59 63 52 64 53 65
REMARK SMILES IDX 57 66 60 67 54 68 55 69 58 70 56 71 6 72 7 73 8 74 9 76
REMARK SMILES IDX 10 77 11 78 23 79 12 80 22 81 21 84 13 86 14 87 15 88 16 89
REMARK SMILES IDX 17 90 20 91 18 92 19 93
REMARK H PARENT 3 6 80 24 48 35 7 75 23 82 23 83 12 85 20 94
REMARK Flexibility Score: inf
ROOT
ATOM      1  C   UNL A   1      36.691  23.045  24.771  1.00  0.00     0.042 C 
ENDROOT
BRANCH   1   2
ATOM      2  C   UNL A   1      37.189  23.763  26.025  1.00  0.00     0.118 C 
BRANCH   2   3
ATOM      3  N   UNL A   1      38.503  23.362  26.501  1.00  0.00    -0.352 N 
ATOM      4  O   UNL A   1      40.402  23.213  27.646  1.00  0.00    -0.269 OA
ATOM      5  C   UNL A   1      39.420  23.912  27.355  1.00  0.00     0.251 C 
ATOM      6  H   UNL A   1      38.799  22.502  26.124  1.00  0.00     0.163 HD
BRANCH   5   7
ATOM      7  C   UNL A   1      39.352  25.286  27.920  1.00  0.00     0.039 A 
ATOM      8  C   UNL A   1      38.927  25.593  29.214  1.00  0.00     0.014 A 
ATOM      9  C   UNL A   1      39.831  26.328  27.104  1.00  0.00     0.014 A 
ATOM     10  C   UNL A   1      38.960  26.915  29.675  1.00  0.00     0.010 A 
ATOM     11  C   UNL A   1      39.870  27.649  27.560  1.00  0.00     0.010 A 
ATOM     12  C   UNL A   1      39.443  27.947  28.856  1.00  0.00    -0.014 A 
BRANCH  12  13
ATOM     13  C   UNL A   1      39.691  29.288  29.456  1.00  0.00     0.031 A 
ATOM     14  C   UNL A   1      38.525  30.262  29.257  1.00  0.00     0.074 A 
ATOM     15  C   UNL A   1      40.878  29.513  30.089  1.00  0.00     0.049 A 
ATOM     16  N   UNL A   1      38.509  31.560  29.300  1.00  0.00    -0.248 NA
ATOM     17  C   UNL A   1      37.189  29.710  28.910  1.00  0.00     0.031 C 
ATOM     18  C   UNL A   1      41.922  28.491  30.253  1.00  0.00     0.029 A 
ATOM     19  N   UNL A   1      41.453  30.609  30.717  1.00  0.00    -0.354 N 
ATOM     20  C   UNL A   1      37.162  31.962  29.184  1.00  0.00     0.074 A 
ATOM     21  C   UNL A   1      36.415  30.794  28.832  1.00  0.00     0.031 C 
ATOM     22  C   UNL A   1      43.004  29.011  30.866  1.00  0.00     0.029 A 
ATOM     23  C   UNL A   1      42.779  30.410  31.182  1.00  0.00     0.049 A 
ATOM     24  H   UNL A   1      40.976  31.464  30.831  1.00  0.00     0.167 HD
ATOM     25  C   UNL A   1      36.715  33.203  29.529  1.00  0.00     0.037 A 
ATOM     26  C   UNL A   1      43.652  31.295  31.760  1.00  0.00     0.037 A 
ATOM     27  C   UNL A   1      37.795  34.051  29.903  1.00  0.00     0.049 A 
ATOM     28  C   UNL A   1      42.896  32.535  32.002  1.00  0.00     0.074 A 
ATOM     29  C   UNL A   1      38.780  34.701  29.211  1.00  0.00     0.029 A 
ATOM     30  N   UNL A   1      38.059  34.155  31.244  1.00  0.00    -0.354 N 
ATOM     31  N   UNL A   1      42.041  32.701  32.968  1.00  0.00    -0.248 NA
ATOM     32  C   UNL A   1      43.107  33.687  31.114  1.00  0.00     0.031 C 
ATOM     33  C   UNL A   1      39.812  34.902  30.155  1.00  0.00     0.029 A 
ATOM     34  C   UNL A   1      39.403  34.383  31.387  1.00  0.00     0.049 A 
ATOM     35  H   UNL A   1      37.402  34.081  31.973  1.00  0.00     0.167 HD
ATOM     36  C   UNL A   1      41.394  33.857  32.594  1.00  0.00     0.074 A 
ATOM     37  C   UNL A   1      42.275  34.553  31.687  1.00  0.00     0.031 C 
ATOM     38  C   UNL A   1      40.039  33.872  32.581  1.00  0.00     0.037 A 
BRANCH  25  39
ATOM     39  C   UNL A   1      35.325  33.708  29.824  1.00  0.00     0.064 A 
ATOM     40  C   UNL A   1      34.696  34.537  28.858  1.00  0.00     0.173 A 
ATOM     41  C   UNL A   1      34.769  33.733  31.111  1.00  0.00     0.173 A 
ATOM     42  F   UNL A   1      35.127  34.558  27.587  1.00  0.00    -0.203 F 
ATOM     43  C   UNL A   1      33.683  35.431  29.198  1.00  0.00     0.198 A 
ATOM     44  C   UNL A   1      33.713  34.592  31.432  1.00  0.00     0.198 A 
ATOM     45  F   UNL A   1      35.296  33.015  32.110  1.00  0.00    -0.203 F 
ATOM     46  F   UNL A   1      33.229  36.303  28.286  1.00  0.00    -0.200 F 
ATOM     47  C   UNL A   1      33.203  35.470  30.491  1.00  0.00     0.200 A 
ATOM     48  F   UNL A   1      33.245  34.622  32.687  1.00  0.00    -0.200 F 
ATOM     49  F   UNL A   1      32.280  36.377  30.840  1.00  0.00    -0.200 F 
ENDBRANCH  25  39
BRANCH  26  50
ATOM     50  C   UNL A   1      45.119  31.333  32.173  1.00  0.00     0.064 A 
ATOM     51  C   UNL A   1      46.217  31.478  31.316  1.00  0.00     0.173 A 
ATOM     52  C   UNL A   1      45.482  31.283  33.554  1.00  0.00     0.173 A 
ATOM     53  F   UNL A   1      46.080  31.427  29.989  1.00  0.00    -0.203 F 
ATOM     54  C   UNL A   1      47.530  31.665  31.791  1.00  0.00     0.198 A 
ATOM     55  C   UNL A   1      46.777  31.505  34.029  1.00  0.00     0.198 A 
ATOM     56  F   UNL A   1      44.587  31.013  34.513  1.00  0.00    -0.203 F 
ATOM     57  F   UNL A   1      48.533  31.813  30.915  1.00  0.00    -0.200 F 
ATOM     58  C   UNL A   1      47.803  31.715  33.144  1.00  0.00     0.200 A 
ATOM     59  F   UNL A   1      47.006  31.531  35.350  1.00  0.00    -0.200 F 
ATOM     60  F   UNL A   1      49.045  31.947  33.589  1.00  0.00    -0.200 F 
ENDBRANCH  26  50
BRANCH  38  61
ATOM     61  C   UNL A   1      39.429  32.892  33.558  1.00  0.00     0.064 A 
ATOM     62  C   UNL A   1      39.434  33.173  34.933  1.00  0.00     0.173 A 
ATOM     63  C   UNL A   1      38.978  31.616  33.183  1.00  0.00     0.173 A 
ATOM     64  F   UNL A   1      39.853  34.370  35.370  1.00  0.00    -0.203 F 
ATOM     65  C   UNL A   1      39.016  32.225  35.871  1.00  0.00     0.198 A 
ATOM     66  C   UNL A   1      38.548  30.674  34.115  1.00  0.00     0.198 A 
ATOM     67  F   UNL A   1      38.956  31.259  31.900  1.00  0.00    -0.203 F 
ATOM     68  F   UNL A   1      39.042  32.524  37.177  1.00  0.00    -0.200 F 
ATOM     69  C   UNL A   1      38.573  30.977  35.462  1.00  0.00     0.200 A 
ATOM     70  F   UNL A   1      38.109  29.475  33.702  1.00  0.00    -0.200 F 
ATOM     71  F   UNL A   1      38.165  30.073  36.363  1.00  0.00    -0.200 F 
ENDBRANCH  38  61
ENDBRANCH  12  13
ENDBRANCH   5   7
ENDBRANCH   2   3
ENDBRANCH   1   2
BRANCH   1  72
ATOM     72  C   UNL A   1      36.198  21.615  24.996  1.00  0.00     0.118 C 
BRANCH  72  73
ATOM     73  N   UNL A   1      35.608  21.441  26.315  1.00  0.00    -0.351 N 
ATOM     74  C   UNL A   1      34.372  21.787  26.786  1.00  0.00     0.284 C 
ATOM     75  H   UNL A   1      36.193  21.003  26.974  1.00  0.00     0.163 HD
ATOM     76  O   UNL A   1      34.103  21.475  27.951  1.00  0.00    -0.268 OA
BRANCH  74  77
ATOM     77  C   UNL A   1      33.337  22.500  25.886  1.00  0.00     0.328 C 
ATOM     78  C   UNL A   1      33.333  24.018  26.219  1.00  0.00     0.339 C 
ATOM     79  N   UNL A   1      32.001  21.893  26.130  1.00  0.00    -0.327 N 
ATOM     80  N   UNL A   1      32.288  24.822  25.563  1.00  0.00    -0.318 N 
ATOM     81  C   UNL A   1      30.975  22.631  25.371  1.00  0.00     0.323 C 
ATOM     82  H   UNL A   1      31.785  21.938  27.126  1.00  0.00     0.347 HD
ATOM     83  H   UNL A   1      32.011  20.918  25.828  1.00  0.00     0.347 HD
ATOM     84  C   UNL A   1      30.977  24.160  25.604  1.00  0.00     0.324 C 
ATOM     85  H   UNL A   1      32.203  25.658  26.140  1.00  0.00     0.348 HD
BRANCH  80  86
ATOM     86  C   UNL A   1      32.646  25.415  24.265  1.00  0.00     0.346 C 
BRANCH  86  87
ATOM     87  C   UNL A   1      33.247  26.813  24.322  1.00  0.00     0.232 C 
ATOM     88  O   UNL A   1      33.907  27.260  23.365  1.00  0.00    -0.286 OA
BRANCH  87  89
ATOM     89  C   UNL A   1      33.053  27.614  25.514  1.00  0.00     0.088 A 
ATOM     90  C   UNL A   1      33.951  28.146  26.429  1.00  0.00     0.031 A 
ATOM     91  N   UNL A   1      31.797  27.997  25.929  1.00  0.00    -0.359 N 
ATOM     92  C   UNL A   1      33.212  28.861  27.403  1.00  0.00     0.020 A 
ATOM     93  C   UNL A   1      31.884  28.745  27.068  1.00  0.00     0.083 A 
ATOM     94  H   UNL A   1      30.958  27.766  25.469  1.00  0.00     0.166 HD
ENDBRANCH  87  89
ENDBRANCH  86  87
ENDBRANCH  80  86
ENDBRANCH  74  77
ENDBRANCH  72  73
ENDBRANCH   1  72
TORSDOF 13
ENDMDL
MODEL 2
REMARK VINA RESULT:     -12.0      4.629      9.666
REMARK SMILES O=C(NCCCNC(=O)[C@@H]1C[N@@H+](CC(=O)c2ccc[nH]2)CC[NH2+]1)c1ccc(-c2c3nc(c(-c4c(F)c(F)c(F)c(F)c4F)c4ccc([nH]4)c(-c4c(F)c(F)c(F)c(F)c4F)c4nc(c(-c5c(F)c(F)c(F)c(F)c5F)c5ccc2[nH]5)C=C4)C=C3)cc1
REMARK SMILES IDX 5 1 4 2 3 3 1 4 2 5 24 7 25 8 86 9 26 10 85 11 27 12 28 13
REMARK SMILES IDX 29 14 79 15 30 16 84 17 78 18 80 19 31 20 83 21 77 22 76 23
REMARK SMILES IDX 32 25 64 26 44 27 63 28 45 29 48 30 62 31 81 32 46 33 47 34
REMARK SMILES IDX 61 36 82 37 49 38 33 39 34 40 42 41 35 42 36 43 40 44 43 45
REMARK SMILES IDX 37 46 38 47 41 48 39 49 65 50 66 51 74 52 67 53 68 54 72 55
REMARK SMILES IDX 75 56 69 57 70 58 73 59 71 60 50 61 51 62 59 63 52 64 53 65
REMARK SMILES IDX 57 66 60 67 54 68 55 69 58 70 56 71 6 72 7 73 8 74 9 76
REMARK SMILES IDX 10 77 11 78 23 79 12 80 22 81 21 84 13 86 14 87 15 88 16 89
REMARK SMILES IDX 17 90 20 91 18 92 19 93
REMARK H PARENT 3 6 80 24 48 35 7 75 23 82 23 83 12 85 20 94
REMARK Flexibility Score: inf
ROOT
ATOM      1  C   UNL A   1      32.916  28.810  26.878  1.00  0.00     0.042 C 
ENDROOT
BRANCH   1   2
ATOM      2  C   UNL A   1      34.426  29.013  26.764  1.00  0.00     0.118 C 
BRANCH   2   3
ATOM      3  N   UNL A   1      34.942  30.244  27.341  1.00  0.00    -0.352 N 
ATOM      4  O   UNL A   1      36.284  31.853  28.083  1.00  0.00    -0.269 OA
ATOM      5  C   UNL A   1      36.175  30.660  27.763  1.00  0.00     0.251 C 
ATOM      6  H   UNL A   1      34.248  30.933  27.453  1.00  0.00     0.163 HD
BRANCH   5   7
ATOM      7  C   UNL A   1      37.372  29.789  27.908  1.00  0.00     0.039 A 
ATOM      8  C   UNL A   1      38.442  29.752  27.012  1.00  0.00     0.014 A 
ATOM      9  C   UNL A   1      37.450  29.015  29.082  1.00  0.00     0.014 A 
ATOM     10  C   UNL A   1      39.555  28.943  27.272  1.00  0.00     0.010 A 
ATOM     11  C   UNL A   1      38.561  28.208  29.348  1.00  0.00     0.010 A 
ATOM     12  C   UNL A   1      39.627  28.178  28.444  1.00  0.00    -0.014 A 
BRANCH  12  13
ATOM     13  C   UNL A   1      40.917  27.526  28.804  1.00  0.00     0.031 A 
ATOM     14  C   UNL A   1      41.016  26.078  28.314  1.00  0.00     0.074 A 
ATOM     15  C   UNL A   1      41.840  28.243  29.506  1.00  0.00     0.049 A 
ATOM     16  N   UNL A   1      41.779  25.110  28.727  1.00  0.00    -0.248 NA
ATOM     17  C   UNL A   1      40.097  25.626  27.237  1.00  0.00     0.031 C 
ATOM     18  C   UNL A   1      41.655  29.647  29.901  1.00  0.00     0.029 A 
ATOM     19  N   UNL A   1      43.097  27.966  30.026  1.00  0.00    -0.354 N 
ATOM     20  C   UNL A   1      41.576  24.021  27.855  1.00  0.00     0.074 A 
ATOM     21  C   UNL A   1      40.452  24.357  27.035  1.00  0.00     0.031 C 
ATOM     22  C   UNL A   1      42.702  30.078  30.632  1.00  0.00     0.029 A 
ATOM     23  C   UNL A   1      43.684  29.018  30.777  1.00  0.00     0.049 A 
ATOM     24  H   UNL A   1      43.549  27.101  29.885  1.00  0.00     0.167 HD
ATOM     25  C   UNL A   1      42.435  22.967  27.755  1.00  0.00     0.037 A 
ATOM     26  C   UNL A   1      44.857  29.046  31.486  1.00  0.00     0.037 A 
ATOM     27  C   UNL A   1      43.479  23.063  28.717  1.00  0.00     0.049 A 
ATOM     28  C   UNL A   1      45.557  27.784  31.192  1.00  0.00     0.074 A 
ATOM     29  C   UNL A   1      43.549  22.871  30.071  1.00  0.00     0.029 A 
ATOM     30  N   UNL A   1      44.659  23.616  28.291  1.00  0.00    -0.354 N 
ATOM     31  N   UNL A   1      46.195  27.534  30.087  1.00  0.00    -0.248 NA
ATOM     32  C   UNL A   1      45.561  26.716  32.202  1.00  0.00     0.031 C 
ATOM     33  C   UNL A   1      44.664  23.633  30.486  1.00  0.00     0.029 A 
ATOM     34  C   UNL A   1      45.238  24.241  29.365  1.00  0.00     0.049 A 
ATOM     35  H   UNL A   1      45.025  23.571  27.379  1.00  0.00     0.167 HD
ATOM     36  C   UNL A   1      46.391  26.174  30.159  1.00  0.00     0.074 A 
ATOM     37  C   UNL A   1      46.291  25.812  31.553  1.00  0.00     0.031 C 
ATOM     38  C   UNL A   1      46.048  25.407  29.095  1.00  0.00     0.037 A 
BRANCH  25  39
ATOM     39  C   UNL A   1      42.602  21.924  26.678  1.00  0.00     0.064 A 
ATOM     40  C   UNL A   1      42.107  20.618  26.929  1.00  0.00     0.173 A 
ATOM     41  C   UNL A   1      43.522  22.041  25.627  1.00  0.00     0.173 A 
ATOM     42  F   UNL A   1      41.193  20.403  27.889  1.00  0.00    -0.203 F 
ATOM     43  C   UNL A   1      42.610  19.497  26.273  1.00  0.00     0.198 A 
ATOM     44  C   UNL A   1      43.982  20.917  24.931  1.00  0.00     0.198 A 
ATOM     45  F   UNL A   1      44.079  23.218  25.317  1.00  0.00    -0.203 F 
ATOM     46  F   UNL A   1      42.224  18.270  26.654  1.00  0.00    -0.200 F 
ATOM     47  C   UNL A   1      43.562  19.646  25.285  1.00  0.00     0.200 A 
ATOM     48  F   UNL A   1      44.900  21.067  23.968  1.00  0.00    -0.200 F 
ATOM     49  F   UNL A   1      44.101  18.568  24.700  1.00  0.00    -0.200 F 
ENDBRANCH  25  39
BRANCH  26  50
ATOM     50  C   UNL A   1      45.572  29.979  32.457  1.00  0.00     0.064 A 
ATOM     51  C   UNL A   1      46.623  30.851  32.145  1.00  0.00     0.173 A 
ATOM     52  C   UNL A   1      45.143  30.073  33.816  1.00  0.00     0.173 A 
ATOM     53  F   UNL A   1      47.229  30.818  30.956  1.00  0.00    -0.203 F 
ATOM     54  C   UNL A   1      47.121  31.796  33.063  1.00  0.00     0.198 A 
ATOM     55  C   UNL A   1      45.609  31.034  34.717  1.00  0.00     0.198 A 
ATOM     56  F   UNL A   1      44.243  29.228  34.336  1.00  0.00    -0.203 F 
ATOM     57  F   UNL A   1      48.120  32.610  32.695  1.00  0.00    -0.200 F 
ATOM     58  C   UNL A   1      46.591  31.911  34.333  1.00  0.00     0.200 A 
ATOM     59  F   UNL A   1      45.080  31.105  35.947  1.00  0.00    -0.200 F 
ATOM     60  F   UNL A   1      47.032  32.848  35.183  1.00  0.00    -0.200 F 
ENDBRANCH  26  50
BRANCH  38  61
ATOM     61  C   UNL A   1      46.111  26.158  27.784  1.00  0.00     0.064 A 
ATOM     62  C   UNL A   1      44.932  26.605  27.170  1.00  0.00     0.173 A 
ATOM     63  C   UNL A   1      47.297  26.313  27.047  1.00  0.00     0.173 A 
ATOM     64  F   UNL A   1      43.759  26.489  27.810  1.00  0.00    -0.203 F 
ATOM     65  C   UNL A   1      44.944  27.167  25.890  1.00  0.00     0.198 A 
ATOM     66  C   UNL A   1      47.315  26.886  25.777  1.00  0.00     0.198 A 
ATOM     67  F   UNL A   1      48.461  25.901  27.547  1.00  0.00    -0.203 F 
ATOM     68  F   UNL A   1      43.798  27.575  25.330  1.00  0.00    -0.200 F 
ATOM     69  C   UNL A   1      46.135  27.307  25.195  1.00  0.00     0.200 A 
ATOM     70  F   UNL A   1      48.478  27.027  25.122  1.00  0.00    -0.200 F 
ATOM     71  F   UNL A   1      46.147  27.854  23.971  1.00  0.00    -0.200 F 
ENDBRANCH  38  61
ENDBRANCH  12  13
ENDBRANCH   5   7
ENDBRANCH   2   3
ENDBRANCH   1   2
BRANCH   1  72
ATOM     72  C   UNL A   1      32.093  29.408  25.736  1.00  0.00     0.118 C 
BRANCH  72  73
ATOM     73  N   UNL A   1      32.906  29.675  24.559  1.00  0.00    -0.351 N 
ATOM     74  C   UNL A   1      33.190  28.885  23.480  1.00  0.00     0.284 C 
ATOM     75  H   UNL A   1      33.316  30.570  24.536  1.00  0.00     0.163 HD
ATOM     76  O   UNL A   1      33.876  29.383  22.580  1.00  0.00    -0.268 OA
BRANCH  74  77
ATOM     77  C   UNL A   1      32.640  27.446  23.368  1.00  0.00     0.328 C 
ATOM     78  C   UNL A   1      33.751  26.443  23.789  1.00  0.00     0.339 C 
ATOM     79  N   UNL A   1      32.209  27.212  21.964  1.00  0.00    -0.327 N 
ATOM     80  N   UNL A   1      33.444  25.016  23.588  1.00  0.00    -0.318 N 
ATOM     81  C   UNL A   1      31.789  25.808  21.802  1.00  0.00     0.323 C 
ATOM     82  H   UNL A   1      32.987  27.408  21.333  1.00  0.00     0.347 HD
ATOM     83  H   UNL A   1      31.427  27.828  21.742  1.00  0.00     0.347 HD
ATOM     84  C   UNL A   1      32.826  24.765  22.280  1.00  0.00     0.324 C 
ATOM     85  H   UNL A   1      34.354  24.556  23.566  1.00  0.00     0.348 HD
BRANCH  80  86
ATOM     86  C   UNL A   1      32.810  24.323  24.720  1.00  0.00     0.346 C 
BRANCH  86  87
ATOM     87  C   UNL A   1      33.581  23.137  25.283  1.00  0.00     0.232 C 
ATOM     88  O   UNL A   1      32.990  22.228  25.896  1.00  0.00    -0.286 OA
BRANCH  87  89
ATOM     89  C   UNL A   1      35.019  23.087  25.108  1.00  0.00     0.088 A 
ATOM     90  C   UNL A   1      36.053  23.775  25.729  1.00  0.00     0.031 A 
ATOM     91  N   UNL A   1      35.605  22.236  24.197  1.00  0.00    -0.359 N 
ATOM     92  C   UNL A   1      37.274  23.321  25.176  1.00  0.00     0.020 A 
ATOM     93  C   UNL A   1      36.963  22.375  24.229  1.00  0.00     0.083 A 
ATOM     94  H   UNL A   1      35.115  21.616  23.610  1.00  0.00     0.166 HD
ENDBRANCH  87  89
ENDBRANCH  86  87
ENDBRANCH  80  86
ENDBRANCH  74  77
ENDBRANCH  72  73
ENDBRANCH   1  72
TORSDOF 13
ENDMDL
MODEL 3
REMARK VINA RESULT:     -12.0      0.513      1.694
REMARK SMILES O=C(NCCCNC(=O)[C@@H]1C[N@@H+](CC(=O)c2ccc[nH]2)CC[NH2+]1)c1ccc(-c2c3nc(c(-c4c(F)c(F)c(F)c(F)c4F)c4ccc([nH]4)c(-c4c(F)c(F)c(F)c(F)c4F)c4nc(c(-c5c(F)c(F)c(F)c(F)c5F)c5ccc2[nH]5)C=C4)C=C3)cc1
REMARK SMILES IDX 5 1 4 2 3 3 1 4 2 5 24 7 25 8 86 9 26 10 85 11 27 12 28 13
REMARK SMILES IDX 29 14 79 15 30 16 84 17 78 18 80 19 31 20 83 21 77 22 76 23
REMARK SMILES IDX 32 25 64 26 44 27 63 28 45 29 48 30 62 31 81 32 46 33 47 34
REMARK SMILES IDX 61 36 82 37 49 38 33 39 34 40 42 41 35 42 36 43 40 44 43 45
REMARK SMILES IDX 37 46 38 47 41 48 39 49 65 50 66 51 74 52 67 53 68 54 72 55
REMARK SMILES IDX 75 56 69 57 70 58 73 59 71 60 50 61 51 62 59 63 52 64 53 65
REMARK SMILES IDX 57 66 60 67 54 68 55 69 58 70 56 71 6 72 7 73 8 74 9 76
REMARK SMILES IDX 10 77 11 78 23 79 12 80 22 81 21 84 13 86 14 87 15 88 16 89
REMARK SMILES IDX 17 90 20 91 18 92 19 93
REMARK H PARENT 3 6 80 24 48 35 7 75 23 82 23 83 12 85 20 94
REMARK Flexibility Score: inf
ROOT
ATOM      1  C   UNL A   1      36.898  23.141  24.643  1.00  0.00     0.042 C 
ENDROOT
BRANCH   1   2
ATOM      2  C   UNL A   1      37.345  23.719  25.986  1.00  0.00     0.118 C 
BRANCH   2   3
ATOM      3  N   UNL A   1      38.681  23.343  26.420  1.00  0.00    -0.352 N 
ATOM      4  O   UNL A   1      40.621  23.233  27.500  1.00  0.00    -0.269 OA
ATOM      5  C   UNL A   1      39.618  23.914  27.238  1.00  0.00     0.251 C 
ATOM      6  H   UNL A   1      38.979  22.485  26.039  1.00  0.00     0.163 HD
BRANCH   5   7
ATOM      7  C   UNL A   1      39.546  25.291  27.795  1.00  0.00     0.039 A 
ATOM      8  C   UNL A   1      39.120  25.605  29.087  1.00  0.00     0.014 A 
ATOM      9  C   UNL A   1      40.024  26.330  26.974  1.00  0.00     0.014 A 
ATOM     10  C   UNL A   1      39.150  26.929  29.541  1.00  0.00     0.010 A 
ATOM     11  C   UNL A   1      40.060  27.654  27.423  1.00  0.00     0.010 A 
ATOM     12  C   UNL A   1      39.631  27.957  28.717  1.00  0.00    -0.014 A 
BRANCH  12  13
ATOM     13  C   UNL A   1      39.875  29.302  29.309  1.00  0.00     0.031 A 
ATOM     14  C   UNL A   1      38.672  30.242  29.188  1.00  0.00     0.074 A 
ATOM     15  C   UNL A   1      41.092  29.559  29.871  1.00  0.00     0.049 A 
ATOM     16  N   UNL A   1      38.620  31.540  29.241  1.00  0.00    -0.248 NA
ATOM     17  C   UNL A   1      37.334  29.653  28.918  1.00  0.00     0.031 C 
ATOM     18  C   UNL A   1      42.174  28.568  29.964  1.00  0.00     0.029 A 
ATOM     19  N   UNL A   1      41.671  30.669  30.471  1.00  0.00    -0.354 N 
ATOM     20  C   UNL A   1      37.258  31.902  29.209  1.00  0.00     0.074 A 
ATOM     21  C   UNL A   1      36.525  30.714  28.895  1.00  0.00     0.031 C 
ATOM     22  C   UNL A   1      43.275  29.116  30.514  1.00  0.00     0.029 A 
ATOM     23  C   UNL A   1      43.029  30.506  30.853  1.00  0.00     0.049 A 
ATOM     24  H   UNL A   1      41.177  31.509  30.619  1.00  0.00     0.167 HD
ATOM     25  C   UNL A   1      36.797  33.128  29.588  1.00  0.00     0.037 A 
ATOM     26  C   UNL A   1      43.909  31.414  31.383  1.00  0.00     0.037 A 
ATOM     27  C   UNL A   1      37.872  34.005  29.902  1.00  0.00     0.049 A 
ATOM     28  C   UNL A   1      43.133  32.631  31.679  1.00  0.00     0.074 A 
ATOM     29  C   UNL A   1      38.794  34.688  29.156  1.00  0.00     0.029 A 
ATOM     30  N   UNL A   1      38.213  34.111  31.225  1.00  0.00    -0.354 N 
ATOM     31  N   UNL A   1      42.334  32.767  32.695  1.00  0.00    -0.248 NA
ATOM     32  C   UNL A   1      43.256  33.792  30.787  1.00  0.00     0.031 C 
ATOM     33  C   UNL A   1      39.875  34.914  30.037  1.00  0.00     0.029 A 
ATOM     34  C   UNL A   1      39.556  34.378  31.289  1.00  0.00     0.049 A 
ATOM     35  H   UNL A   1      37.604  34.013  31.992  1.00  0.00     0.167 HD
ATOM     36  C   UNL A   1      41.631  33.905  32.369  1.00  0.00     0.074 A 
ATOM     37  C   UNL A   1      42.435  34.630  31.415  1.00  0.00     0.031 C 
ATOM     38  C   UNL A   1      40.278  33.879  32.438  1.00  0.00     0.037 A 
BRANCH  25  39
ATOM     39  C   UNL A   1      35.413  33.590  29.971  1.00  0.00     0.064 A 
ATOM     40  C   UNL A   1      34.697  34.393  29.045  1.00  0.00     0.173 A 
ATOM     41  C   UNL A   1      34.940  33.603  31.290  1.00  0.00     0.173 A 
ATOM     42  F   UNL A   1      35.045  34.422  27.748  1.00  0.00    -0.203 F 
ATOM     43  C   UNL A   1      33.680  35.257  29.445  1.00  0.00     0.198 A 
ATOM     44  C   UNL A   1      33.879  34.430  31.676  1.00  0.00     0.198 A 
ATOM     45  F   UNL A   1      35.552  32.908  32.256  1.00  0.00    -0.203 F 
ATOM     46  F   UNL A   1      33.141  36.109  28.562  1.00  0.00    -0.200 F 
ATOM     47  C   UNL A   1      33.283  35.287  30.767  1.00  0.00     0.200 A 
ATOM     48  F   UNL A   1      33.492  34.452  32.959  1.00  0.00    -0.200 F 
ATOM     49  F   UNL A   1      32.355  36.166  31.172  1.00  0.00    -0.200 F 
ENDBRANCH  25  39
BRANCH  26  50
ATOM     50  C   UNL A   1      45.397  31.493  31.707  1.00  0.00     0.064 A 
ATOM     51  C   UNL A   1      45.967  31.491  32.986  1.00  0.00     0.173 A 
ATOM     52  C   UNL A   1      46.364  31.512  30.656  1.00  0.00     0.173 A 
ATOM     53  F   UNL A   1      45.218  31.592  34.086  1.00  0.00    -0.203 F 
ATOM     54  C   UNL A   1      47.357  31.405  33.196  1.00  0.00     0.198 A 
ATOM     55  C   UNL A   1      47.741  31.389  30.860  1.00  0.00     0.198 A 
ATOM     56  F   UNL A   1      46.013  31.652  29.371  1.00  0.00    -0.203 F 
ATOM     57  F   UNL A   1      47.836  31.392  34.447  1.00  0.00    -0.200 F 
ATOM     58  C   UNL A   1      48.239  31.318  32.136  1.00  0.00     0.200 A 
ATOM     59  F   UNL A   1      48.566  31.323  29.806  1.00  0.00    -0.200 F 
ATOM     60  F   UNL A   1      49.555  31.181  32.343  1.00  0.00    -0.200 F 
ENDBRANCH  26  50
BRANCH  38  61
ATOM     61  C   UNL A   1      39.758  32.877  33.444  1.00  0.00     0.064 A 
ATOM     62  C   UNL A   1      39.216  31.659  33.010  1.00  0.00     0.173 A 
ATOM     63  C   UNL A   1      39.646  33.158  34.816  1.00  0.00     0.173 A 
ATOM     64  F   UNL A   1      39.282  31.321  31.713  1.00  0.00    -0.203 F 
ATOM     65  C   UNL A   1      38.593  30.780  33.900  1.00  0.00     0.198 A 
ATOM     66  C   UNL A   1      39.038  32.277  35.709  1.00  0.00     0.198 A 
ATOM     67  F   UNL A   1      40.119  34.300  35.312  1.00  0.00    -0.203 F 
ATOM     68  F   UNL A   1      38.077  29.628  33.450  1.00  0.00    -0.200 F 
ATOM     69  C   UNL A   1      38.504  31.089  35.249  1.00  0.00     0.200 A 
ATOM     70  F   UNL A   1      38.973  32.585  37.014  1.00  0.00    -0.200 F 
ATOM     71  F   UNL A   1      37.914  30.242  36.103  1.00  0.00    -0.200 F 
ENDBRANCH  38  61
ENDBRANCH  12  13
ENDBRANCH   5   7
ENDBRANCH   2   3
ENDBRANCH   1   2
BRANCH   1  72
ATOM     72  C   UNL A   1      36.168  21.800  24.726  1.00  0.00     0.118 C 
BRANCH  72  73
ATOM     73  N   UNL A   1      35.671  21.530  26.066  1.00  0.00    -0.351 N 
ATOM     74  C   UNL A   1      34.470  21.835  26.645  1.00  0.00     0.284 C 
ATOM     75  H   UNL A   1      36.300  21.049  26.650  1.00  0.00     0.163 HD
ATOM     76  O   UNL A   1      34.283  21.439  27.801  1.00  0.00    -0.268 OA
BRANCH  74  77
ATOM     77  C   UNL A   1      33.376  22.605  25.872  1.00  0.00     0.328 C 
ATOM     78  C   UNL A   1      33.449  24.111  26.252  1.00  0.00     0.339 C 
ATOM     79  N   UNL A   1      32.052  22.026  26.225  1.00  0.00    -0.327 N 
ATOM     80  N   UNL A   1      32.370  24.964  25.726  1.00  0.00    -0.318 N 
ATOM     81  C   UNL A   1      30.981  22.816  25.593  1.00  0.00     0.323 C 
ATOM     82  H   UNL A   1      31.933  22.042  27.238  1.00  0.00     0.347 HD
ATOM     83  H   UNL A   1      32.004  21.062  25.893  1.00  0.00     0.347 HD
ATOM     84  C   UNL A   1      31.050  24.336  25.872  1.00  0.00     0.324 C 
ATOM     85  H   UNL A   1      32.365  25.782  26.334  1.00  0.00     0.348 HD
BRANCH  80  86
ATOM     86  C   UNL A   1      32.619  25.592  24.419  1.00  0.00     0.346 C 
BRANCH  86  87
ATOM     87  C   UNL A   1      32.314  27.081  24.333  1.00  0.00     0.232 C 
ATOM     88  O   UNL A   1      31.797  27.566  23.309  1.00  0.00    -0.286 OA
BRANCH  87  89
ATOM     89  C   UNL A   1      32.647  27.932  25.458  1.00  0.00     0.088 A 
ATOM     90  C   UNL A   1      33.864  28.370  25.961  1.00  0.00     0.031 A 
ATOM     91  N   UNL A   1      31.671  28.485  26.258  1.00  0.00    -0.359 N 
ATOM     92  C   UNL A   1      33.604  29.200  27.078  1.00  0.00     0.020 A 
ATOM     93  C   UNL A   1      32.240  29.246  27.238  1.00  0.00     0.083 A 
ATOM     94  H   UNL A   1      30.703  28.351  26.138  1.00  0.00     0.166 HD
ENDBRANCH  87  89
ENDBRANCH  86  87
ENDBRANCH  80  86
ENDBRANCH  74  77
ENDBRANCH  72  73
ENDBRANCH   1  72
TORSDOF 13
ENDMDL
