MODEL 1
REMARK VINA RESULT:     -10.7      0.000      0.000
REMARK SMILES Cc1cc(CC(=O)C(=O)NCCCNC(=O)c2ccc(-c3c4nc(c(-c5c(F)c(F)c(F)c(F)c5F)c5ccc([nH]5)c(-c5c(F)c(F)c(F)c(F)c5F)c5nc(c(-c6c(F)c(F)c(F)c(F)c6F)c6ccc3[nH]6)C=C5)C=C4)cc2)cc2cn[nH]c12
REMARK SMILES IDX 12 1 11 2 10 3 8 4 9 5 6 7 7 8 5 9 4 10 1 11 2 12 3 13 85 14
REMARK SMILES IDX 81 15 84 16 80 17 82 18 83 19 13 21 14 22 15 23 16 25 17 26
REMARK SMILES IDX 18 27 79 28 19 29 78 30 20 31 21 32 22 33 72 34 23 35 77 36
REMARK SMILES IDX 71 37 73 38 24 39 76 40 70 41 69 42 25 44 57 45 37 46 56 47
REMARK SMILES IDX 38 48 41 49 55 50 74 51 39 52 40 53 54 55 75 56 42 57 26 58
REMARK SMILES IDX 27 59 35 60 28 61 29 62 33 63 36 64 30 65 31 66 34 67 32 68
REMARK SMILES IDX 58 69 59 70 67 71 60 72 61 73 65 74 68 75 62 76 63 77 66 78
REMARK SMILES IDX 64 79 43 80 44 81 52 82 45 83 46 84 50 85 53 86 47 87 48 88
REMARK SMILES IDX 51 89 49 90
REMARK H PARENT 10 6 84 20 14 24 73 43 41 54
REMARK Flexibility Score: inf
ROOT
ATOM      1  C   UNL A   1      43.364  22.110  27.467  1.00  0.00     0.042 C 
ENDROOT
BRANCH   1   2
ATOM      2  C   UNL A   1      44.319  23.040  28.225  1.00  0.00     0.118 C 
BRANCH   2   3
ATOM      3  N   UNL A   1      44.008  23.114  29.646  1.00  0.00    -0.349 N 
ATOM      4  C   UNL A   1      44.472  24.012  30.581  1.00  0.00     0.287 C 
ATOM      5  O   UNL A   1      44.184  23.888  31.765  1.00  0.00    -0.266 OA
ATOM      6  H   UNL A   1      43.383  22.432  29.982  1.00  0.00     0.163 HD
BRANCH   4   7
ATOM      7  C   UNL A   1      45.364  25.174  30.137  1.00  0.00     0.224 C 
ATOM      8  O   UNL A   1      46.578  25.125  30.314  1.00  0.00    -0.288 OA
BRANCH   7   9
ATOM      9  C   UNL A   1      44.670  26.411  29.622  1.00  0.00     0.122 C 
BRANCH   9  10
ATOM     10  C   UNL A   1      44.910  26.745  28.168  1.00  0.00    -0.039 A 
ATOM     11  C   UNL A   1      43.228  25.928  24.830  1.00  0.00     0.047 C 
ATOM     12  C   UNL A   1      44.189  26.521  25.818  1.00  0.00    -0.025 A 
ATOM     13  C   UNL A   1      44.049  26.225  27.188  1.00  0.00     0.009 A 
ATOM     14  C   UNL A   1      45.252  27.375  25.484  1.00  0.00     0.068 A 
ATOM     15  C   UNL A   1      46.127  27.910  26.425  1.00  0.00     0.020 A 
ATOM     16  N   UNL A   1      45.679  27.873  24.279  1.00  0.00    -0.278 N 
ATOM     17  C   UNL A   1      45.959  27.599  27.787  1.00  0.00     0.016 A 
ATOM     18  C   UNL A   1      47.024  28.696  25.667  1.00  0.00     0.143 A 
ATOM     19  N   UNL A   1      46.755  28.674  24.359  1.00  0.00    -0.183 NA
ATOM     20  H   UNL A   1      45.234  27.661  23.427  1.00  0.00     0.190 HD
ENDBRANCH   9  10
ENDBRANCH   7   9
ENDBRANCH   4   7
ENDBRANCH   2   3
ENDBRANCH   1   2
BRANCH   1  21
ATOM     21  C   UNL A   1      42.834  22.761  26.199  1.00  0.00     0.118 C 
BRANCH  21  22
ATOM     22  N   UNL A   1      41.422  22.459  25.941  1.00  0.00    -0.352 N 
ATOM     23  C   UNL A   1      40.294  23.073  26.459  1.00  0.00     0.251 C 
ATOM     24  H   UNL A   1      41.253  21.719  25.314  1.00  0.00     0.163 HD
ATOM     25  O   UNL A   1      39.196  22.553  26.369  1.00  0.00    -0.269 OA
BRANCH  23  26
ATOM     26  C   UNL A   1      40.446  24.384  27.115  1.00  0.00     0.039 A 
ATOM     27  C   UNL A   1      40.978  24.510  28.402  1.00  0.00     0.014 A 
ATOM     28  C   UNL A   1      40.018  25.506  26.413  1.00  0.00     0.014 A 
ATOM     29  C   UNL A   1      41.099  25.785  28.952  1.00  0.00     0.010 A 
ATOM     30  C   UNL A   1      40.337  26.755  26.855  1.00  0.00     0.010 A 
ATOM     31  C   UNL A   1      40.764  26.895  28.165  1.00  0.00    -0.014 A 
BRANCH  31  32
ATOM     32  C   UNL A   1      40.810  28.252  28.673  1.00  0.00     0.031 A 
ATOM     33  C   UNL A   1      41.905  29.084  28.129  1.00  0.00     0.074 A 
ATOM     34  C   UNL A   1      39.778  28.763  29.382  1.00  0.00     0.049 A 
ATOM     35  N   UNL A   1      42.921  29.561  28.765  1.00  0.00    -0.248 NA
ATOM     36  C   UNL A   1      41.940  29.330  26.678  1.00  0.00     0.031 C 
ATOM     37  C   UNL A   1      38.476  28.135  29.669  1.00  0.00     0.029 A 
ATOM     38  N   UNL A   1      39.633  30.005  29.913  1.00  0.00    -0.354 N 
ATOM     39  C   UNL A   1      43.625  30.327  27.841  1.00  0.00     0.074 A 
ATOM     40  C   UNL A   1      43.083  30.008  26.546  1.00  0.00     0.031 C 
ATOM     41  C   UNL A   1      37.611  29.067  30.125  1.00  0.00     0.029 A 
ATOM     42  C   UNL A   1      38.345  30.297  30.345  1.00  0.00     0.049 A 
ATOM     43  H   UNL A   1      40.379  30.643  29.988  1.00  0.00     0.167 HD
ATOM     44  C   UNL A   1      44.414  31.358  28.250  1.00  0.00     0.037 A 
ATOM     45  C   UNL A   1      37.922  31.478  30.848  1.00  0.00     0.037 A 
ATOM     46  C   UNL A   1      44.587  31.335  29.679  1.00  0.00     0.049 A 
ATOM     47  C   UNL A   1      39.121  32.198  31.332  1.00  0.00     0.074 A 
ATOM     48  C   UNL A   1      45.353  30.630  30.581  1.00  0.00     0.029 A 
ATOM     49  N   UNL A   1      43.547  31.894  30.374  1.00  0.00    -0.354 N 
ATOM     50  N   UNL A   1      39.848  31.792  32.335  1.00  0.00    -0.248 NA
ATOM     51  C   UNL A   1      39.734  33.212  30.483  1.00  0.00     0.031 C 
ATOM     52  C   UNL A   1      44.618  30.621  31.804  1.00  0.00     0.029 A 
ATOM     53  C   UNL A   1      43.444  31.349  31.627  1.00  0.00     0.049 A 
ATOM     54  H   UNL A   1      42.953  32.595  30.020  1.00  0.00     0.167 HD
ATOM     55  C   UNL A   1      41.132  32.173  32.001  1.00  0.00     0.074 A 
ATOM     56  C   UNL A   1      40.979  33.188  30.967  1.00  0.00     0.031 C 
ATOM     57  C   UNL A   1      42.199  31.405  32.359  1.00  0.00     0.037 A 
BRANCH  44  58
ATOM     58  C   UNL A   1      44.667  32.620  27.465  1.00  0.00     0.064 A 
ATOM     59  C   UNL A   1      45.880  32.769  26.763  1.00  0.00     0.173 A 
ATOM     60  C   UNL A   1      43.902  33.796  27.616  1.00  0.00     0.173 A 
ATOM     61  F   UNL A   1      46.704  31.724  26.596  1.00  0.00    -0.203 F 
ATOM     62  C   UNL A   1      46.307  34.011  26.283  1.00  0.00     0.198 A 
ATOM     63  C   UNL A   1      44.305  35.022  27.089  1.00  0.00     0.198 A 
ATOM     64  F   UNL A   1      42.800  33.829  28.377  1.00  0.00    -0.203 F 
ATOM     65  F   UNL A   1      47.515  34.127  25.713  1.00  0.00    -0.200 F 
ATOM     66  C   UNL A   1      45.518  35.136  26.444  1.00  0.00     0.200 A 
ATOM     67  F   UNL A   1      43.538  36.106  27.280  1.00  0.00    -0.200 F 
ATOM     68  F   UNL A   1      45.944  36.335  26.024  1.00  0.00    -0.200 F 
ENDBRANCH  44  58
BRANCH  45  69
ATOM     69  C   UNL A   1      36.614  32.152  30.716  1.00  0.00     0.064 A 
ATOM     70  C   UNL A   1      35.758  32.262  31.824  1.00  0.00     0.173 A 
ATOM     71  C   UNL A   1      36.345  32.990  29.620  1.00  0.00     0.173 A 
ATOM     72  F   UNL A   1      35.964  31.507  32.912  1.00  0.00    -0.203 F 
ATOM     73  C   UNL A   1      34.737  33.215  31.865  1.00  0.00     0.198 A 
ATOM     74  C   UNL A   1      35.323  33.940  29.662  1.00  0.00     0.198 A 
ATOM     75  F   UNL A   1      37.139  32.979  28.539  1.00  0.00    -0.203 F 
ATOM     76  F   UNL A   1      33.999  33.356  32.975  1.00  0.00    -0.200 F 
ATOM     77  C   UNL A   1      34.536  34.069  30.793  1.00  0.00     0.200 A 
ATOM     78  F   UNL A   1      35.158  34.784  28.633  1.00  0.00    -0.200 F 
ATOM     79  F   UNL A   1      33.621  35.044  30.869  1.00  0.00    -0.200 F 
ENDBRANCH  45  69
BRANCH  57  80
ATOM     80  C   UNL A   1      41.988  30.447  33.491  1.00  0.00     0.064 A 
ATOM     81  C   UNL A   1      41.640  29.094  33.335  1.00  0.00     0.173 A 
ATOM     82  C   UNL A   1      42.190  30.914  34.794  1.00  0.00     0.173 A 
ATOM     83  F   UNL A   1      41.505  28.555  32.119  1.00  0.00    -0.203 F 
ATOM     84  C   UNL A   1      41.455  28.264  34.439  1.00  0.00     0.198 A 
ATOM     85  C   UNL A   1      42.040  30.076  35.894  1.00  0.00     0.198 A 
ATOM     86  F   UNL A   1      42.564  32.188  34.999  1.00  0.00    -0.203 F 
ATOM     87  F   UNL A   1      41.096  26.983  34.266  1.00  0.00    -0.200 F 
ATOM     88  C   UNL A   1      41.659  28.755  35.717  1.00  0.00     0.200 A 
ATOM     89  F   UNL A   1      42.277  30.547  37.125  1.00  0.00    -0.200 F 
ATOM     90  F   UNL A   1      41.508  27.953  36.781  1.00  0.00    -0.200 F 
ENDBRANCH  57  80
ENDBRANCH  31  32
ENDBRANCH  23  26
ENDBRANCH  21  22
ENDBRANCH   1  21
TORSDOF 12
ENDMDL
MODEL 2
REMARK VINA RESULT:     -10.7      1.332      2.623
REMARK SMILES Cc1cc(CC(=O)C(=O)NCCCNC(=O)c2ccc(-c3c4nc(c(-c5c(F)c(F)c(F)c(F)c5F)c5ccc([nH]5)c(-c5c(F)c(F)c(F)c(F)c5F)c5nc(c(-c6c(F)c(F)c(F)c(F)c6F)c6ccc3[nH]6)C=C5)C=C4)cc2)cc2cn[nH]c12
REMARK SMILES IDX 12 1 11 2 10 3 8 4 9 5 6 7 7 8 5 9 4 10 1 11 2 12 3 13 85 14
REMARK SMILES IDX 81 15 84 16 80 17 82 18 83 19 13 21 14 22 15 23 16 25 17 26
REMARK SMILES IDX 18 27 79 28 19 29 78 30 20 31 21 32 22 33 72 34 23 35 77 36
REMARK SMILES IDX 71 37 73 38 24 39 76 40 70 41 69 42 25 44 57 45 37 46 56 47
REMARK SMILES IDX 38 48 41 49 55 50 74 51 39 52 40 53 54 55 75 56 42 57 26 58
REMARK SMILES IDX 27 59 35 60 28 61 29 62 33 63 36 64 30 65 31 66 34 67 32 68
REMARK SMILES IDX 58 69 59 70 67 71 60 72 61 73 65 74 68 75 62 76 63 77 66 78
REMARK SMILES IDX 64 79 43 80 44 81 52 82 45 83 46 84 50 85 53 86 47 87 48 88
REMARK SMILES IDX 51 89 49 90
REMARK H PARENT 10 6 84 20 14 24 73 43 41 54
REMARK Flexibility Score: inf
ROOT
ATOM      1  C   UNL A   1      44.286  22.598  25.129  1.00  0.00     0.042 C 
ENDROOT
BRANCH   1   2
ATOM      2  C   UNL A   1      45.294  23.374  25.986  1.00  0.00     0.118 C 
BRANCH   2   3
ATOM      3  N   UNL A   1      46.004  24.390  25.221  1.00  0.00    -0.349 N 
ATOM      4  C   UNL A   1      45.844  25.758  25.254  1.00  0.00     0.287 C 
ATOM      5  O   UNL A   1      46.461  26.479  24.479  1.00  0.00    -0.266 OA
ATOM      6  H   UNL A   1      46.689  24.056  24.599  1.00  0.00     0.163 HD
BRANCH   4   7
ATOM      7  C   UNL A   1      44.878  26.383  26.265  1.00  0.00     0.224 C 
ATOM      8  O   UNL A   1      43.679  26.454  26.012  1.00  0.00    -0.288 OA
BRANCH   7   9
ATOM      9  C   UNL A   1      45.488  27.024  27.487  1.00  0.00     0.122 C 
BRANCH   9  10
ATOM     10  C   UNL A   1      45.128  26.394  28.812  1.00  0.00    -0.039 A 
ATOM     11  C   UNL A   1      44.328  22.872  30.073  1.00  0.00     0.047 C 
ATOM     12  C   UNL A   1      44.576  24.351  30.083  1.00  0.00    -0.025 A 
ATOM     13  C   UNL A   1      44.882  25.013  28.878  1.00  0.00     0.009 A 
ATOM     14  C   UNL A   1      44.529  25.161  31.228  1.00  0.00     0.068 A 
ATOM     15  C   UNL A   1      44.765  26.532  31.204  1.00  0.00     0.020 A 
ATOM     16  N   UNL A   1      44.272  24.867  32.544  1.00  0.00    -0.278 N 
ATOM     17  C   UNL A   1      45.073  27.165  29.986  1.00  0.00     0.016 A 
ATOM     18  C   UNL A   1      44.616  26.939  32.550  1.00  0.00     0.143 A 
ATOM     19  N   UNL A   1      44.315  25.928  33.367  1.00  0.00    -0.183 NA
ATOM     20  H   UNL A   1      44.074  23.956  32.857  1.00  0.00     0.190 HD
ENDBRANCH   9  10
ENDBRANCH   7   9
ENDBRANCH   4   7
ENDBRANCH   2   3
ENDBRANCH   1   2
BRANCH   1  21
ATOM     21  C   UNL A   1      42.935  23.293  25.084  1.00  0.00     0.118 C 
BRANCH  21  22
ATOM     22  N   UNL A   1      41.863  22.512  25.709  1.00  0.00    -0.352 N 
ATOM     23  C   UNL A   1      41.035  22.862  26.762  1.00  0.00     0.251 C 
ATOM     24  H   UNL A   1      41.710  21.617  25.328  1.00  0.00     0.163 HD
ATOM     25  O   UNL A   1      40.374  22.024  27.350  1.00  0.00    -0.269 OA
BRANCH  23  26
ATOM     26  C   UNL A   1      40.957  24.280  27.154  1.00  0.00     0.039 A 
ATOM     27  C   UNL A   1      40.280  25.226  26.377  1.00  0.00     0.014 A 
ATOM     28  C   UNL A   1      41.603  24.660  28.326  1.00  0.00     0.014 A 
ATOM     29  C   UNL A   1      40.241  26.547  26.818  1.00  0.00     0.010 A 
ATOM     30  C   UNL A   1      41.381  25.891  28.865  1.00  0.00     0.010 A 
ATOM     31  C   UNL A   1      40.806  26.862  28.061  1.00  0.00    -0.014 A 
BRANCH  31  32
ATOM     32  C   UNL A   1      40.856  28.217  28.573  1.00  0.00     0.031 A 
ATOM     33  C   UNL A   1      41.962  29.044  28.042  1.00  0.00     0.074 A 
ATOM     34  C   UNL A   1      39.821  28.732  29.274  1.00  0.00     0.049 A 
ATOM     35  N   UNL A   1      42.974  29.512  28.688  1.00  0.00    -0.248 NA
ATOM     36  C   UNL A   1      42.011  29.294  26.591  1.00  0.00     0.031 C 
ATOM     37  C   UNL A   1      38.513  28.112  29.547  1.00  0.00     0.029 A 
ATOM     38  N   UNL A   1      39.679  29.973  29.808  1.00  0.00    -0.354 N 
ATOM     39  C   UNL A   1      43.691  30.277  27.773  1.00  0.00     0.074 A 
ATOM     40  C   UNL A   1      43.159  29.965  26.472  1.00  0.00     0.031 C 
ATOM     41  C   UNL A   1      37.649  29.048  29.999  1.00  0.00     0.029 A 
ATOM     42  C   UNL A   1      38.389  30.273  30.228  1.00  0.00     0.049 A 
ATOM     43  H   UNL A   1      40.428  30.607  29.891  1.00  0.00     0.167 HD
ATOM     44  C   UNL A   1      44.483  31.301  28.192  1.00  0.00     0.037 A 
ATOM     45  C   UNL A   1      37.968  31.455  30.731  1.00  0.00     0.037 A 
ATOM     46  C   UNL A   1      44.643  31.273  29.623  1.00  0.00     0.049 A 
ATOM     47  C   UNL A   1      39.168  32.166  31.228  1.00  0.00     0.074 A 
ATOM     48  C   UNL A   1      45.396  30.561  30.529  1.00  0.00     0.029 A 
ATOM     49  N   UNL A   1      43.600  31.837  30.310  1.00  0.00    -0.354 N 
ATOM     50  N   UNL A   1      39.883  31.752  32.236  1.00  0.00    -0.248 NA
ATOM     51  C   UNL A   1      39.795  33.178  30.388  1.00  0.00     0.031 C 
ATOM     52  C   UNL A   1      44.650  30.553  31.746  1.00  0.00     0.029 A 
ATOM     53  C   UNL A   1      43.482  31.290  31.560  1.00  0.00     0.049 A 
ATOM     54  H   UNL A   1      43.013  32.543  29.952  1.00  0.00     0.167 HD
ATOM     55  C   UNL A   1      41.172  32.126  31.915  1.00  0.00     0.074 A 
ATOM     56  C   UNL A   1      41.034  33.145  30.883  1.00  0.00     0.031 C 
ATOM     57  C   UNL A   1      42.231  31.351  32.281  1.00  0.00     0.037 A 
BRANCH  44  58
ATOM     58  C   UNL A   1      44.752  32.564  27.413  1.00  0.00     0.064 A 
ATOM     59  C   UNL A   1      45.967  32.703  26.715  1.00  0.00     0.173 A 
ATOM     60  C   UNL A   1      43.998  33.747  27.567  1.00  0.00     0.173 A 
ATOM     61  F   UNL A   1      46.782  31.650  26.546  1.00  0.00    -0.203 F 
ATOM     62  C   UNL A   1      46.409  33.943  26.241  1.00  0.00     0.198 A 
ATOM     63  C   UNL A   1      44.415  34.971  27.046  1.00  0.00     0.198 A 
ATOM     64  F   UNL A   1      42.894  33.788  28.325  1.00  0.00    -0.203 F 
ATOM     65  F   UNL A   1      47.619  34.049  25.674  1.00  0.00    -0.200 F 
ATOM     66  C   UNL A   1      45.631  35.076  26.404  1.00  0.00     0.200 A 
ATOM     67  F   UNL A   1      43.659  36.062  27.240  1.00  0.00    -0.200 F 
ATOM     68  F   UNL A   1      46.071  36.271  25.991  1.00  0.00    -0.200 F 
ENDBRANCH  44  58
BRANCH  45  69
ATOM     69  C   UNL A   1      36.666  32.138  30.589  1.00  0.00     0.064 A 
ATOM     70  C   UNL A   1      35.780  32.209  31.677  1.00  0.00     0.173 A 
ATOM     71  C   UNL A   1      36.428  33.016  29.518  1.00  0.00     0.173 A 
ATOM     72  F   UNL A   1      35.956  31.413  32.741  1.00  0.00    -0.203 F 
ATOM     73  C   UNL A   1      34.761  33.163  31.726  1.00  0.00     0.198 A 
ATOM     74  C   UNL A   1      35.408  33.967  29.568  1.00  0.00     0.198 A 
ATOM     75  F   UNL A   1      37.252  33.043  28.459  1.00  0.00    -0.203 F 
ATOM     76  F   UNL A   1      33.994  33.265  32.820  1.00  0.00    -0.200 F 
ATOM     77  C   UNL A   1      34.591  34.056  30.681  1.00  0.00     0.200 A 
ATOM     78  F   UNL A   1      35.273  34.849  28.567  1.00  0.00    -0.200 F 
ATOM     79  F   UNL A   1      33.676  35.032  30.768  1.00  0.00    -0.200 F 
ENDBRANCH  45  69
BRANCH  57  80
ATOM     80  C   UNL A   1      42.004  30.391  33.408  1.00  0.00     0.064 A 
ATOM     81  C   UNL A   1      41.655  29.039  33.245  1.00  0.00     0.173 A 
ATOM     82  C   UNL A   1      42.189  30.856  34.714  1.00  0.00     0.173 A 
ATOM     83  F   UNL A   1      41.535  28.503  32.026  1.00  0.00    -0.203 F 
ATOM     84  C   UNL A   1      41.455  28.208  34.345  1.00  0.00     0.198 A 
ATOM     85  C   UNL A   1      42.024  30.015  35.811  1.00  0.00     0.198 A 
ATOM     86  F   UNL A   1      42.563  32.128  34.927  1.00  0.00    -0.203 F 
ATOM     87  F   UNL A   1      41.096  26.927  34.164  1.00  0.00    -0.200 F 
ATOM     88  C   UNL A   1      41.643  28.696  35.626  1.00  0.00     0.200 A 
ATOM     89  F   UNL A   1      42.246  30.483  37.046  1.00  0.00    -0.200 F 
ATOM     90  F   UNL A   1      41.476  27.891  36.686  1.00  0.00    -0.200 F 
ENDBRANCH  57  80
ENDBRANCH  31  32
ENDBRANCH  23  26
ENDBRANCH  21  22
ENDBRANCH   1  21
TORSDOF 12
ENDMDL
MODEL 3
REMARK VINA RESULT:     -10.3      3.761      6.486
REMARK SMILES Cc1cc(CC(=O)C(=O)NCCCNC(=O)c2ccc(-c3c4nc(c(-c5c(F)c(F)c(F)c(F)c5F)c5ccc([nH]5)c(-c5c(F)c(F)c(F)c(F)c5F)c5nc(c(-c6c(F)c(F)c(F)c(F)c6F)c6ccc3[nH]6)C=C5)C=C4)cc2)cc2cn[nH]c12
REMARK SMILES IDX 12 1 11 2 10 3 8 4 9 5 6 7 7 8 5 9 4 10 1 11 2 12 3 13 85 14
REMARK SMILES IDX 81 15 84 16 80 17 82 18 83 19 13 21 14 22 15 23 16 25 17 26
REMARK SMILES IDX 18 27 79 28 19 29 78 30 20 31 21 32 22 33 72 34 23 35 77 36
REMARK SMILES IDX 71 37 73 38 24 39 76 40 70 41 69 42 25 44 57 45 37 46 56 47
REMARK SMILES IDX 38 48 41 49 55 50 74 51 39 52 40 53 54 55 75 56 42 57 26 58
REMARK SMILES IDX 27 59 35 60 28 61 29 62 33 63 36 64 30 65 31 66 34 67 32 68
REMARK SMILES IDX 58 69 59 70 67 71 60 72 61 73 65 74 68 75 62 76 63 77 66 78
REMARK SMILES IDX 64 79 43 80 44 81 52 82 45 83 46 84 50 85 53 86 47 87 48 88
REMARK SMILES IDX 51 89 49 90
REMARK H PARENT 10 6 84 20 14 24 73 43 41 54
REMARK Flexibility Score: inf
ROOT
ATOM      1  C   UNL A   1      38.065  21.720  25.347  1.00  0.00     0.042 C 
ENDROOT
BRANCH   1   2
ATOM      2  C   UNL A   1      36.624  22.231  25.220  1.00  0.00     0.118 C 
BRANCH   2   3
ATOM      3  N   UNL A   1      35.907  22.183  26.488  1.00  0.00    -0.349 N 
ATOM      4  C   UNL A   1      34.553  22.297  26.713  1.00  0.00     0.287 C 
ATOM      5  O   UNL A   1      34.108  22.324  27.854  1.00  0.00    -0.266 OA
ATOM      6  H   UNL A   1      36.464  22.051  27.289  1.00  0.00     0.163 HD
BRANCH   4   7
ATOM      7  C   UNL A   1      33.594  22.399  25.524  1.00  0.00     0.224 C 
ATOM      8  O   UNL A   1      33.781  23.239  24.649  1.00  0.00    -0.288 OA
BRANCH   7   9
ATOM      9  C   UNL A   1      32.357  21.536  25.567  1.00  0.00     0.122 C 
BRANCH   9  10
ATOM     10  C   UNL A   1      32.505  20.143  25.000  1.00  0.00    -0.039 A 
ATOM     11  C   UNL A   1      32.253  18.523  21.544  1.00  0.00     0.047 C 
ATOM     12  C   UNL A   1      32.471  18.669  23.021  1.00  0.00    -0.025 A 
ATOM     13  C   UNL A   1      32.316  19.932  23.625  1.00  0.00     0.009 A 
ATOM     14  C   UNL A   1      32.830  17.621  23.882  1.00  0.00     0.068 A 
ATOM     15  C   UNL A   1      33.025  17.789  25.250  1.00  0.00     0.020 A 
ATOM     16  N   UNL A   1      33.067  16.289  23.651  1.00  0.00    -0.278 N 
ATOM     17  C   UNL A   1      32.867  19.064  25.824  1.00  0.00     0.016 A 
ATOM     18  C   UNL A   1      33.366  16.500  25.719  1.00  0.00     0.143 A 
ATOM     19  N   UNL A   1      33.390  15.584  24.748  1.00  0.00    -0.183 NA
ATOM     20  H   UNL A   1      33.005  15.885  22.756  1.00  0.00     0.190 HD
ENDBRANCH   9  10
ENDBRANCH   7   9
ENDBRANCH   4   7
ENDBRANCH   2   3
ENDBRANCH   1   2
BRANCH   1  21
ATOM     21  C   UNL A   1      38.858  22.522  26.365  1.00  0.00     0.118 C 
BRANCH  21  22
ATOM     22  N   UNL A   1      40.240  22.055  26.519  1.00  0.00    -0.352 N 
ATOM     23  C   UNL A   1      41.392  22.800  26.708  1.00  0.00     0.251 C 
ATOM     24  H   UNL A   1      40.366  21.080  26.484  1.00  0.00     0.163 HD
ATOM     25  O   UNL A   1      42.494  22.306  26.553  1.00  0.00    -0.269 OA
BRANCH  23  26
ATOM     26  C   UNL A   1      41.259  24.210  27.116  1.00  0.00     0.039 A 
ATOM     27  C   UNL A   1      40.478  25.119  26.393  1.00  0.00     0.014 A 
ATOM     28  C   UNL A   1      41.959  24.621  28.245  1.00  0.00     0.014 A 
ATOM     29  C   UNL A   1      40.393  26.433  26.847  1.00  0.00     0.010 A 
ATOM     30  C   UNL A   1      41.703  25.834  28.808  1.00  0.00     0.010 A 
ATOM     31  C   UNL A   1      41.021  26.774  28.052  1.00  0.00    -0.014 A 
BRANCH  31  32
ATOM     32  C   UNL A   1      41.027  28.127  28.572  1.00  0.00     0.031 A 
ATOM     33  C   UNL A   1      42.110  28.991  28.050  1.00  0.00     0.074 A 
ATOM     34  C   UNL A   1      39.973  28.607  29.269  1.00  0.00     0.049 A 
ATOM     35  N   UNL A   1      43.104  29.486  28.704  1.00  0.00    -0.248 NA
ATOM     36  C   UNL A   1      42.159  29.249  26.601  1.00  0.00     0.031 C 
ATOM     37  C   UNL A   1      38.683  27.947  29.533  1.00  0.00     0.029 A 
ATOM     38  N   UNL A   1      39.791  29.841  29.809  1.00  0.00    -0.354 N 
ATOM     39  C   UNL A   1      43.802  30.276  27.796  1.00  0.00     0.074 A 
ATOM     40  C   UNL A   1      43.286  29.955  26.491  1.00  0.00     0.031 C 
ATOM     41  C   UNL A   1      37.789  28.853  29.985  1.00  0.00     0.029 A 
ATOM     42  C   UNL A   1      38.490  30.099  30.224  1.00  0.00     0.049 A 
ATOM     43  H   UNL A   1      40.520  30.497  29.899  1.00  0.00     0.167 HD
ATOM     44  C   UNL A   1      44.561  31.323  28.225  1.00  0.00     0.037 A 
ATOM     45  C   UNL A   1      38.031  31.266  30.730  1.00  0.00     0.037 A 
ATOM     46  C   UNL A   1      44.714  31.292  29.656  1.00  0.00     0.049 A 
ATOM     47  C   UNL A   1      39.206  32.010  31.237  1.00  0.00     0.074 A 
ATOM     48  C   UNL A   1      45.484  30.599  30.562  1.00  0.00     0.029 A 
ATOM     49  N   UNL A   1      43.651  31.821  30.340  1.00  0.00    -0.354 N 
ATOM     50  N   UNL A   1      39.928  31.613  32.247  1.00  0.00    -0.248 NA
ATOM     51  C   UNL A   1      39.806  33.045  30.405  1.00  0.00     0.031 C 
ATOM     52  C   UNL A   1      44.732  30.562  31.775  1.00  0.00     0.029 A 
ATOM     53  C   UNL A   1      43.543  31.263  31.587  1.00  0.00     0.049 A 
ATOM     54  H   UNL A   1      43.045  32.510  29.983  1.00  0.00     0.167 HD
ATOM     55  C   UNL A   1      41.207  32.028  31.934  1.00  0.00     0.074 A 
ATOM     56  C   UNL A   1      41.044  33.047  30.906  1.00  0.00     0.031 C 
ATOM     57  C   UNL A   1      42.288  31.283  32.301  1.00  0.00     0.037 A 
BRANCH  44  58
ATOM     58  C   UNL A   1      44.794  32.597  27.453  1.00  0.00     0.064 A 
ATOM     59  C   UNL A   1      45.997  32.765  26.738  1.00  0.00     0.173 A 
ATOM     60  C   UNL A   1      44.022  33.765  27.629  1.00  0.00     0.173 A 
ATOM     61  F   UNL A   1      46.827  31.728  26.547  1.00  0.00    -0.203 F 
ATOM     62  C   UNL A   1      46.409  34.016  26.269  1.00  0.00     0.198 A 
ATOM     63  C   UNL A   1      44.409  35.001  27.113  1.00  0.00     0.198 A 
ATOM     64  F   UNL A   1      42.929  33.779  28.403  1.00  0.00    -0.203 F 
ATOM     65  F   UNL A   1      47.608  34.149  25.685  1.00  0.00    -0.200 F 
ATOM     66  C   UNL A   1      45.613  35.133  26.454  1.00  0.00     0.200 A 
ATOM     67  F   UNL A   1      43.636  36.076  27.327  1.00  0.00    -0.200 F 
ATOM     68  F   UNL A   1      46.025  36.340  26.045  1.00  0.00    -0.200 F 
ENDBRANCH  44  58
BRANCH  45  69
ATOM     69  C   UNL A   1      36.710  31.909  30.585  1.00  0.00     0.064 A 
ATOM     70  C   UNL A   1      35.817  31.947  31.669  1.00  0.00     0.173 A 
ATOM     71  C   UNL A   1      36.451  32.786  29.517  1.00  0.00     0.173 A 
ATOM     72  F   UNL A   1      36.011  31.151  32.729  1.00  0.00    -0.203 F 
ATOM     73  C   UNL A   1      34.769  32.869  31.717  1.00  0.00     0.198 A 
ATOM     74  C   UNL A   1      35.402  33.704  29.567  1.00  0.00     0.198 A 
ATOM     75  F   UNL A   1      37.278  32.843  28.463  1.00  0.00    -0.203 F 
ATOM     76  F   UNL A   1      33.993  32.942  32.808  1.00  0.00    -0.200 F 
ATOM     77  C   UNL A   1      34.577  33.763  30.676  1.00  0.00     0.200 A 
ATOM     78  F   UNL A   1      35.245  34.588  28.570  1.00  0.00    -0.200 F 
ATOM     79  F   UNL A   1      33.632  34.709  30.763  1.00  0.00    -0.200 F 
ENDBRANCH  45  69
BRANCH  57  80
ATOM     80  C   UNL A   1      42.084  30.311  33.423  1.00  0.00     0.064 A 
ATOM     81  C   UNL A   1      41.753  28.956  33.252  1.00  0.00     0.173 A 
ATOM     82  C   UNL A   1      42.275  30.768  34.731  1.00  0.00     0.173 A 
ATOM     83  F   UNL A   1      41.629  28.427  32.029  1.00  0.00    -0.203 F 
ATOM     84  C   UNL A   1      41.574  28.113  34.347  1.00  0.00     0.198 A 
ATOM     85  C   UNL A   1      42.132  29.916  35.822  1.00  0.00     0.198 A 
ATOM     86  F   UNL A   1      42.633  32.043  34.950  1.00  0.00    -0.203 F 
ATOM     87  F   UNL A   1      41.232  26.829  34.159  1.00  0.00    -0.200 F 
ATOM     88  C   UNL A   1      41.767  28.593  35.630  1.00  0.00     0.200 A 
ATOM     89  F   UNL A   1      42.358  30.377  37.059  1.00  0.00    -0.200 F 
ATOM     90  F   UNL A   1      41.622  27.778  36.685  1.00  0.00    -0.200 F 
ENDBRANCH  57  80
ENDBRANCH  31  32
ENDBRANCH  23  26
ENDBRANCH  21  22
ENDBRANCH   1  21
TORSDOF 12
ENDMDL
