MODEL 1
REMARK VINA RESULT:     -12.3      0.000      0.000
REMARK SMILES COc1ccc(C(=O)/C=C/c2c(F)cccc2F)cc1CC(=O)NCCCNC(=O)c1ccc(-c2c3nc(c(-c4c(F)c(F)c(F)c(F)c4F)c4ccc([nH]4)c(-c4c(F)c(F)c(F)c(F)c4F)c4nc(c(-c5c(F)c(F)c(F)c(F)c5F)c5ccc2[nH]5)C=C4)C=C3)cc1
REMARK SMILES IDX 25 1 24 2 22 3 23 4 21 6 20 7 3 8 4 9 5 10 19 11 6 12 2 13
REMARK SMILES IDX 1 14 7 15 8 16 9 17 10 18 11 19 12 20 17 21 13 22 14 23
REMARK SMILES IDX 16 24 18 25 15 26 26 27 27 28 28 29 29 30 30 32 31 33 32 34
REMARK SMILES IDX 93 35 33 36 92 37 34 38 35 39 36 40 86 41 37 42 91 43 85 44
REMARK SMILES IDX 87 45 38 46 90 47 84 48 83 49 39 51 71 52 51 53 70 54 52 55
REMARK SMILES IDX 55 56 69 57 88 58 53 59 54 60 68 62 89 63 56 64 40 65 41 66
REMARK SMILES IDX 49 67 42 68 43 69 47 70 50 71 44 72 45 73 48 74 46 75 72 76
REMARK SMILES IDX 73 77 81 78 74 79 75 80 79 81 82 82 76 83 77 84 80 85 78 86
REMARK SMILES IDX 57 87 58 88 66 89 59 90 60 91 64 92 67 93 61 94 62 95 65 96
REMARK SMILES IDX 63 97
REMARK H PARENT 24 5 28 31 87 50 55 61
REMARK Flexibility Score: inf
ROOT
ATOM      1  C   UNL A   1      37.363  20.626  24.656  1.00  0.00     0.117 C 
ENDROOT
BRANCH   1   2
ATOM      2  N   UNL A   1      37.847  21.949  25.002  1.00  0.00    -0.356 N 
ATOM      3  C   UNL A   1      37.151  22.981  25.558  1.00  0.00     0.224 C 
ATOM      4  O   UNL A   1      37.721  24.057  25.740  1.00  0.00    -0.275 OA
ATOM      5  H   UNL A   1      38.797  22.122  24.812  1.00  0.00     0.163 HD
BRANCH   3   6
ATOM      6  C   UNL A   1      35.707  22.769  25.968  1.00  0.00     0.139 C 
BRANCH   6   7
ATOM      7  C   UNL A   1      34.704  22.938  24.849  1.00  0.00     0.004 A 
ATOM      8  C   UNL A   1      33.891  21.914  24.340  1.00  0.00     0.122 A 
ATOM      9  C   UNL A   1      32.991  22.190  23.303  1.00  0.00     0.047 A 
ATOM     10  C   UNL A   1      32.869  23.481  22.778  1.00  0.00     0.016 A 
ATOM     11  C   UNL A   1      34.592  24.226  24.277  1.00  0.00     0.020 A 
ATOM     12  C   UNL A   1      33.673  24.516  23.259  1.00  0.00     0.022 A 
BRANCH   8  13
ATOM     13  O   UNL A   1      34.014  20.583  24.635  1.00  0.00    -0.496 OA
ATOM     14  C   UNL A   1      32.948  19.994  25.370  1.00  0.00     0.278 C 
ENDBRANCH   8  13
BRANCH  12  15
ATOM     15  C   UNL A   1      33.575  25.856  22.601  1.00  0.00     0.185 C 
ATOM     16  O   UNL A   1      33.672  25.948  21.379  1.00  0.00    -0.289 OA
BRANCH  15  17
ATOM     17  C   UNL A   1      33.447  27.107  23.398  1.00  0.00     0.053 C 
ATOM     18  C   UNL A   1      32.552  27.289  24.379  1.00  0.00     0.018 C 
BRANCH  18  19
ATOM     19  C   UNL A   1      32.528  28.498  25.204  1.00  0.00     0.046 A 
ATOM     20  C   UNL A   1      33.444  28.668  26.247  1.00  0.00     0.133 A 
ATOM     21  C   UNL A   1      31.565  29.486  25.009  1.00  0.00     0.133 A 
ATOM     22  F   UNL A   1      34.394  27.746  26.465  1.00  0.00    -0.206 F 
ATOM     23  C   UNL A   1      33.389  29.778  27.089  1.00  0.00     0.040 A 
ATOM     24  C   UNL A   1      31.502  30.607  25.837  1.00  0.00     0.040 A 
ATOM     25  F   UNL A   1      30.666  29.366  24.021  1.00  0.00    -0.206 F 
ATOM     26  C   UNL A   1      32.410  30.751  26.886  1.00  0.00     0.006 A 
ENDBRANCH  18  19
ENDBRANCH  15  17
ENDBRANCH  12  15
ENDBRANCH   6   7
ENDBRANCH   3   6
ENDBRANCH   1   2
BRANCH   1  27
ATOM     27  C   UNL A   1      38.396  19.541  24.944  1.00  0.00     0.042 C 
BRANCH  27  28
ATOM     28  C   UNL A   1      39.418  19.929  26.007  1.00  0.00     0.118 C 
BRANCH  28  29
ATOM     29  N   UNL A   1      40.609  19.094  25.960  1.00  0.00    -0.352 N 
ATOM     30  C   UNL A   1      41.936  19.425  26.035  1.00  0.00     0.251 C 
ATOM     31  H   UNL A   1      40.431  18.132  25.859  1.00  0.00     0.163 HD
ATOM     32  O   UNL A   1      42.778  18.568  25.780  1.00  0.00    -0.269 OA
BRANCH  30  33
ATOM     33  C   UNL A   1      42.369  20.788  26.410  1.00  0.00     0.039 A 
ATOM     34  C   UNL A   1      42.421  21.111  27.770  1.00  0.00     0.014 A 
ATOM     35  C   UNL A   1      42.647  21.767  25.452  1.00  0.00     0.014 A 
ATOM     36  C   UNL A   1      42.776  22.400  28.168  1.00  0.00     0.010 A 
ATOM     37  C   UNL A   1      43.068  23.035  25.850  1.00  0.00     0.010 A 
ATOM     38  C   UNL A   1      43.119  23.368  27.211  1.00  0.00    -0.014 A 
BRANCH  38  39
ATOM     39  C   UNL A   1      43.512  24.736  27.631  1.00  0.00     0.031 A 
ATOM     40  C   UNL A   1      42.465  25.753  27.992  1.00  0.00     0.074 A 
ATOM     41  C   UNL A   1      44.816  25.069  27.661  1.00  0.00     0.049 A 
ATOM     42  N   UNL A   1      42.616  26.994  28.382  1.00  0.00    -0.248 NA
ATOM     43  C   UNL A   1      41.062  25.326  27.878  1.00  0.00     0.031 C 
ATOM     44  C   UNL A   1      45.921  24.188  27.281  1.00  0.00     0.029 A 
ATOM     45  N   UNL A   1      45.432  26.239  28.024  1.00  0.00    -0.354 N 
ATOM     46  C   UNL A   1      41.332  27.498  28.544  1.00  0.00     0.074 A 
ATOM     47  C   UNL A   1      40.414  26.446  28.167  1.00  0.00     0.031 C 
ATOM     48  C   UNL A   1      47.081  24.839  27.457  1.00  0.00     0.029 A 
ATOM     49  C   UNL A   1      46.801  26.188  27.938  1.00  0.00     0.049 A 
ATOM     50  H   UNL A   1      44.940  27.039  28.318  1.00  0.00     0.167 HD
ATOM     51  C   UNL A   1      40.954  28.720  28.990  1.00  0.00     0.037 A 
ATOM     52  C   UNL A   1      47.727  27.124  28.223  1.00  0.00     0.037 A 
ATOM     53  C   UNL A   1      41.870  29.755  29.391  1.00  0.00     0.049 A 
ATOM     54  C   UNL A   1      47.281  28.460  28.749  1.00  0.00     0.074 A 
ATOM     55  C   UNL A   1      41.587  31.009  29.907  1.00  0.00     0.029 A 
ATOM     56  N   UNL A   1      43.252  29.654  29.323  1.00  0.00    -0.354 N 
ATOM     57  N   UNL A   1      46.066  28.902  28.966  1.00  0.00    -0.248 NA
ATOM     58  C   UNL A   1      48.338  29.422  29.086  1.00  0.00     0.031 C 
ATOM     59  C   UNL A   1      42.797  31.678  30.120  1.00  0.00     0.029 A 
ATOM     60  C   UNL A   1      43.835  30.827  29.778  1.00  0.00     0.049 A 
ATOM     61  H   UNL A   1      43.745  28.866  29.001  1.00  0.00     0.167 HD
ATOM     62  C   UNL A   1      46.212  30.179  29.487  1.00  0.00     0.074 A 
ATOM     63  C   UNL A   1      47.635  30.435  29.571  1.00  0.00     0.031 C 
ATOM     64  C   UNL A   1      45.254  31.061  29.864  1.00  0.00     0.037 A 
BRANCH  51  65
ATOM     65  C   UNL A   1      39.482  29.002  29.073  1.00  0.00     0.064 A 
ATOM     66  C   UNL A   1      38.787  28.920  30.289  1.00  0.00     0.173 A 
ATOM     67  C   UNL A   1      38.765  29.391  27.931  1.00  0.00     0.173 A 
ATOM     68  F   UNL A   1      39.423  28.541  31.406  1.00  0.00    -0.203 F 
ATOM     69  C   UNL A   1      37.422  29.191  30.354  1.00  0.00     0.198 A 
ATOM     70  C   UNL A   1      37.407  29.689  28.005  1.00  0.00     0.198 A 
ATOM     71  F   UNL A   1      39.383  29.491  26.745  1.00  0.00    -0.203 F 
ATOM     72  F   UNL A   1      36.770  29.061  31.517  1.00  0.00    -0.200 F 
ATOM     73  C   UNL A   1      36.735  29.581  29.214  1.00  0.00     0.200 A 
ATOM     74  F   UNL A   1      36.745  30.077  26.906  1.00  0.00    -0.200 F 
ATOM     75  F   UNL A   1      35.423  29.847  29.279  1.00  0.00    -0.200 F 
ENDBRANCH  51  65
BRANCH  52  76
ATOM     76  C   UNL A   1      49.168  26.809  28.062  1.00  0.00     0.064 A 
ATOM     77  C   UNL A   1      49.930  26.363  29.150  1.00  0.00     0.173 A 
ATOM     78  C   UNL A   1      49.810  26.940  26.823  1.00  0.00     0.173 A 
ATOM     79  F   UNL A   1      49.364  26.241  30.359  1.00  0.00    -0.203 F 
ATOM     80  C   UNL A   1      51.287  26.080  29.010  1.00  0.00     0.198 A 
ATOM     81  C   UNL A   1      51.161  26.633  26.678  1.00  0.00     0.198 A 
ATOM     82  F   UNL A   1      49.122  27.357  25.750  1.00  0.00    -0.203 F 
ATOM     83  F   UNL A   1      52.004  25.697  30.076  1.00  0.00    -0.200 F 
ATOM     84  C   UNL A   1      51.901  26.210  27.772  1.00  0.00     0.200 A 
ATOM     85  F   UNL A   1      51.748  26.746  25.478  1.00  0.00    -0.200 F 
ATOM     86  F   UNL A   1      53.205  25.934  27.637  1.00  0.00    -0.200 F 
ENDBRANCH  52  76
BRANCH  64  87
ATOM     87  C   UNL A   1      45.716  32.369  30.433  1.00  0.00     0.064 A 
ATOM     88  C   UNL A   1      45.955  32.530  31.806  1.00  0.00     0.173 A 
ATOM     89  C   UNL A   1      45.943  33.467  29.592  1.00  0.00     0.173 A 
ATOM     90  F   UNL A   1      45.739  31.513  32.654  1.00  0.00    -0.203 F 
ATOM     91  C   UNL A   1      46.374  33.755  32.319  1.00  0.00     0.198 A 
ATOM     92  C   UNL A   1      46.389  34.683  30.104  1.00  0.00     0.198 A 
ATOM     93  F   UNL A   1      45.736  33.362  28.270  1.00  0.00    -0.203 F 
ATOM     94  F   UNL A   1      46.546  33.902  33.639  1.00  0.00    -0.200 F 
ATOM     95  C   UNL A   1      46.595  34.828  31.467  1.00  0.00     0.200 A 
ATOM     96  F   UNL A   1      46.612  35.714  29.279  1.00  0.00    -0.200 F 
ATOM     97  F   UNL A   1      46.998  36.006  31.963  1.00  0.00    -0.200 F 
ENDBRANCH  64  87
ENDBRANCH  38  39
ENDBRANCH  30  33
ENDBRANCH  28  29
ENDBRANCH  27  28
ENDBRANCH   1  27
TORSDOF 15
ENDMDL
MODEL 2
REMARK VINA RESULT:     -12.1      0.856      7.283
REMARK SMILES COc1ccc(C(=O)/C=C/c2c(F)cccc2F)cc1CC(=O)NCCCNC(=O)c1ccc(-c2c3nc(c(-c4c(F)c(F)c(F)c(F)c4F)c4ccc([nH]4)c(-c4c(F)c(F)c(F)c(F)c4F)c4nc(c(-c5c(F)c(F)c(F)c(F)c5F)c5ccc2[nH]5)C=C4)C=C3)cc1
REMARK SMILES IDX 25 1 24 2 22 3 23 4 21 6 20 7 3 8 4 9 5 10 19 11 6 12 2 13
REMARK SMILES IDX 1 14 7 15 8 16 9 17 10 18 11 19 12 20 17 21 13 22 14 23
REMARK SMILES IDX 16 24 18 25 15 26 26 27 27 28 28 29 29 30 30 32 31 33 32 34
REMARK SMILES IDX 93 35 33 36 92 37 34 38 35 39 36 40 86 41 37 42 91 43 85 44
REMARK SMILES IDX 87 45 38 46 90 47 84 48 83 49 39 51 71 52 51 53 70 54 52 55
REMARK SMILES IDX 55 56 69 57 88 58 53 59 54 60 68 62 89 63 56 64 40 65 41 66
REMARK SMILES IDX 49 67 42 68 43 69 47 70 50 71 44 72 45 73 48 74 46 75 72 76
REMARK SMILES IDX 73 77 81 78 74 79 75 80 79 81 82 82 76 83 77 84 80 85 78 86
REMARK SMILES IDX 57 87 58 88 66 89 59 90 60 91 64 92 67 93 61 94 62 95 65 96
REMARK SMILES IDX 63 97
REMARK H PARENT 24 5 28 31 87 50 55 61
REMARK Flexibility Score: inf
ROOT
ATOM      1  C   UNL A   1      37.411  20.764  24.413  1.00  0.00     0.117 C 
ENDROOT
BRANCH   1   2
ATOM      2  N   UNL A   1      37.794  22.032  25.005  1.00  0.00    -0.356 N 
ATOM      3  C   UNL A   1      37.010  22.911  25.692  1.00  0.00     0.224 C 
ATOM      4  O   UNL A   1      37.501  23.969  26.085  1.00  0.00    -0.275 OA
ATOM      5  H   UNL A   1      38.738  22.289  24.896  1.00  0.00     0.163 HD
BRANCH   3   6
ATOM      6  C   UNL A   1      35.567  22.548  25.984  1.00  0.00     0.139 C 
BRANCH   6   7
ATOM      7  C   UNL A   1      34.612  22.798  24.839  1.00  0.00     0.004 A 
ATOM      8  C   UNL A   1      33.810  21.816  24.238  1.00  0.00     0.122 A 
ATOM      9  C   UNL A   1      32.955  22.166  23.185  1.00  0.00     0.047 A 
ATOM     10  C   UNL A   1      32.866  23.488  22.734  1.00  0.00     0.016 A 
ATOM     11  C   UNL A   1      34.536  24.119  24.342  1.00  0.00     0.020 A 
ATOM     12  C   UNL A   1      33.661  24.481  23.309  1.00  0.00     0.022 A 
BRANCH   8  13
ATOM     13  O   UNL A   1      33.906  20.469  24.455  1.00  0.00    -0.496 OA
ATOM     14  C   UNL A   1      32.991  19.909  25.389  1.00  0.00     0.278 C 
ENDBRANCH   8  13
BRANCH  12  15
ATOM     15  C   UNL A   1      33.603  25.860  22.730  1.00  0.00     0.185 C 
ATOM     16  O   UNL A   1      33.705  26.020  21.515  1.00  0.00    -0.289 OA
BRANCH  15  17
ATOM     17  C   UNL A   1      33.511  27.065  23.598  1.00  0.00     0.053 C 
ATOM     18  C   UNL A   1      32.483  27.330  24.416  1.00  0.00     0.018 C 
BRANCH  18  19
ATOM     19  C   UNL A   1      32.480  28.475  25.327  1.00  0.00     0.046 A 
ATOM     20  C   UNL A   1      31.603  29.546  25.125  1.00  0.00     0.133 A 
ATOM     21  C   UNL A   1      33.379  28.555  26.390  1.00  0.00     0.133 A 
ATOM     22  F   UNL A   1      30.715  29.507  24.120  1.00  0.00    -0.206 F 
ATOM     23  C   UNL A   1      31.637  30.677  25.940  1.00  0.00     0.040 A 
ATOM     24  C   UNL A   1      33.419  29.676  27.220  1.00  0.00     0.040 A 
ATOM     25  F   UNL A   1      34.238  27.552  26.624  1.00  0.00    -0.206 F 
ATOM     26  C   UNL A   1      32.552  30.744  26.990  1.00  0.00     0.006 A 
ENDBRANCH  18  19
ENDBRANCH  15  17
ENDBRANCH  12  15
ENDBRANCH   6   7
ENDBRANCH   3   6
ENDBRANCH   1   2
BRANCH   1  27
ATOM     27  C   UNL A   1      38.227  19.600  24.968  1.00  0.00     0.042 C 
BRANCH  27  28
ATOM     28  C   UNL A   1      39.246  20.009  26.025  1.00  0.00     0.118 C 
BRANCH  28  29
ATOM     29  N   UNL A   1      40.450  19.193  25.980  1.00  0.00    -0.352 N 
ATOM     30  C   UNL A   1      41.772  19.547  26.021  1.00  0.00     0.251 C 
ATOM     31  H   UNL A   1      40.286  18.225  25.907  1.00  0.00     0.163 HD
ATOM     32  O   UNL A   1      42.624  18.697  25.775  1.00  0.00    -0.269 OA
BRANCH  30  33
ATOM     33  C   UNL A   1      42.189  20.926  26.352  1.00  0.00     0.039 A 
ATOM     34  C   UNL A   1      42.382  21.251  27.699  1.00  0.00     0.014 A 
ATOM     35  C   UNL A   1      42.317  21.917  25.373  1.00  0.00     0.014 A 
ATOM     36  C   UNL A   1      42.727  22.553  28.061  1.00  0.00     0.010 A 
ATOM     37  C   UNL A   1      42.728  23.201  25.728  1.00  0.00     0.010 A 
ATOM     38  C   UNL A   1      42.919  23.535  27.076  1.00  0.00    -0.014 A 
BRANCH  38  39
ATOM     39  C   UNL A   1      43.301  24.918  27.456  1.00  0.00     0.031 A 
ATOM     40  C   UNL A   1      44.716  25.393  27.279  1.00  0.00     0.074 A 
ATOM     41  C   UNL A   1      42.374  25.737  27.988  1.00  0.00     0.049 A 
ATOM     42  N   UNL A   1      45.237  26.563  27.552  1.00  0.00    -0.248 NA
ATOM     43  C   UNL A   1      45.680  24.418  26.745  1.00  0.00     0.031 C 
ATOM     44  C   UNL A   1      40.983  25.374  28.259  1.00  0.00     0.029 A 
ATOM     45  N   UNL A   1      42.464  27.043  28.397  1.00  0.00    -0.354 N 
ATOM     46  C   UNL A   1      46.586  26.459  27.239  1.00  0.00     0.074 A 
ATOM     47  C   UNL A   1      46.815  25.101  26.799  1.00  0.00     0.031 C 
ATOM     48  C   UNL A   1      40.342  26.439  28.764  1.00  0.00     0.029 A 
ATOM     49  C   UNL A   1      41.282  27.551  28.874  1.00  0.00     0.049 A 
ATOM     50  H   UNL A   1      43.297  27.566  28.353  1.00  0.00     0.167 HD
ATOM     51  C   UNL A   1      47.542  27.418  27.292  1.00  0.00     0.037 A 
ATOM     52  C   UNL A   1      40.988  28.779  29.342  1.00  0.00     0.037 A 
ATOM     53  C   UNL A   1      47.305  28.777  27.703  1.00  0.00     0.049 A 
ATOM     54  C   UNL A   1      42.060  29.834  29.357  1.00  0.00     0.074 A 
ATOM     55  C   UNL A   1      48.195  29.837  27.740  1.00  0.00     0.029 A 
ATOM     56  N   UNL A   1      46.085  29.265  28.147  1.00  0.00    -0.354 N 
ATOM     57  N   UNL A   1      43.315  29.745  28.992  1.00  0.00    -0.248 NA
ATOM     58  C   UNL A   1      41.667  31.166  29.834  1.00  0.00     0.031 C 
ATOM     59  C   UNL A   1      47.521  30.958  28.238  1.00  0.00     0.029 A 
ATOM     60  C   UNL A   1      46.201  30.608  28.470  1.00  0.00     0.049 A 
ATOM     61  H   UNL A   1      45.258  28.735  28.220  1.00  0.00     0.167 HD
ATOM     62  C   UNL A   1      43.855  31.010  29.168  1.00  0.00     0.074 A 
ATOM     63  C   UNL A   1      42.785  31.855  29.658  1.00  0.00     0.031 C 
ATOM     64  C   UNL A   1      45.123  31.435  28.946  1.00  0.00     0.037 A 
BRANCH  51  65
ATOM     65  C   UNL A   1      48.934  27.030  26.888  1.00  0.00     0.064 A 
ATOM     66  C   UNL A   1      49.862  26.546  27.823  1.00  0.00     0.173 A 
ATOM     67  C   UNL A   1      49.337  27.112  25.546  1.00  0.00     0.173 A 
ATOM     68  F   UNL A   1      49.531  26.460  29.120  1.00  0.00    -0.203 F 
ATOM     69  C   UNL A   1      51.149  26.183  27.434  1.00  0.00     0.198 A 
ATOM     70  C   UNL A   1      50.615  26.722  25.156  1.00  0.00     0.198 A 
ATOM     71  F   UNL A   1      48.487  27.563  24.611  1.00  0.00    -0.203 F 
ATOM     72  F   UNL A   1      52.032  25.767  28.352  1.00  0.00    -0.200 F 
ATOM     73  C   UNL A   1      51.522  26.264  26.101  1.00  0.00     0.200 A 
ATOM     74  F   UNL A   1      50.972  26.790  23.867  1.00  0.00    -0.200 F 
ATOM     75  F   UNL A   1      52.760  25.909  25.728  1.00  0.00    -0.200 F 
ENDBRANCH  51  65
BRANCH  52  76
ATOM     76  C   UNL A   1      39.606  29.088  29.787  1.00  0.00     0.064 A 
ATOM     77  C   UNL A   1      38.641  29.532  28.874  1.00  0.00     0.173 A 
ATOM     78  C   UNL A   1      39.222  28.941  31.127  1.00  0.00     0.173 A 
ATOM     79  F   UNL A   1      38.969  29.706  27.585  1.00  0.00    -0.203 F 
ATOM     80  C   UNL A   1      37.347  29.838  29.287  1.00  0.00     0.198 A 
ATOM     81  C   UNL A   1      37.920  29.223  31.535  1.00  0.00     0.198 A 
ATOM     82  F   UNL A   1      40.108  28.513  32.038  1.00  0.00    -0.203 F 
ATOM     83  F   UNL A   1      36.454  30.302  28.402  1.00  0.00    -0.200 F 
ATOM     84  C   UNL A   1      36.985  29.678  30.617  1.00  0.00     0.200 A 
ATOM     85  F   UNL A   1      37.570  29.055  32.818  1.00  0.00    -0.200 F 
ATOM     86  F   UNL A   1      35.739  29.969  31.013  1.00  0.00    -0.200 F 
ENDBRANCH  52  76
BRANCH  64  87
ATOM     87  C   UNL A   1      45.409  32.886  29.196  1.00  0.00     0.064 A 
ATOM     88  C   UNL A   1      45.219  33.856  28.201  1.00  0.00     0.173 A 
ATOM     89  C   UNL A   1      45.860  33.313  30.453  1.00  0.00     0.173 A 
ATOM     90  F   UNL A   1      44.803  33.495  26.977  1.00  0.00    -0.203 F 
ATOM     91  C   UNL A   1      45.500  35.197  28.447  1.00  0.00     0.198 A 
ATOM     92  C   UNL A   1      46.114  34.658  30.705  1.00  0.00     0.198 A 
ATOM     93  F   UNL A   1      46.051  32.425  31.441  1.00  0.00    -0.203 F 
ATOM     94  F   UNL A   1      45.362  36.099  27.466  1.00  0.00    -0.200 F 
ATOM     95  C   UNL A   1      45.943  35.597  29.700  1.00  0.00     0.200 A 
ATOM     96  F   UNL A   1      46.530  35.045  31.919  1.00  0.00    -0.200 F 
ATOM     97  F   UNL A   1      46.213  36.889  29.934  1.00  0.00    -0.200 F 
ENDBRANCH  64  87
ENDBRANCH  38  39
ENDBRANCH  30  33
ENDBRANCH  28  29
ENDBRANCH  27  28
ENDBRANCH   1  27
TORSDOF 15
ENDMDL
MODEL 3
REMARK VINA RESULT:     -11.9      1.730      2.938
REMARK SMILES COc1ccc(C(=O)/C=C/c2c(F)cccc2F)cc1CC(=O)NCCCNC(=O)c1ccc(-c2c3nc(c(-c4c(F)c(F)c(F)c(F)c4F)c4ccc([nH]4)c(-c4c(F)c(F)c(F)c(F)c4F)c4nc(c(-c5c(F)c(F)c(F)c(F)c5F)c5ccc2[nH]5)C=C4)C=C3)cc1
REMARK SMILES IDX 25 1 24 2 22 3 23 4 21 6 20 7 3 8 4 9 5 10 19 11 6 12 2 13
REMARK SMILES IDX 1 14 7 15 8 16 9 17 10 18 11 19 12 20 17 21 13 22 14 23
REMARK SMILES IDX 16 24 18 25 15 26 26 27 27 28 28 29 29 30 30 32 31 33 32 34
REMARK SMILES IDX 93 35 33 36 92 37 34 38 35 39 36 40 86 41 37 42 91 43 85 44
REMARK SMILES IDX 87 45 38 46 90 47 84 48 83 49 39 51 71 52 51 53 70 54 52 55
REMARK SMILES IDX 55 56 69 57 88 58 53 59 54 60 68 62 89 63 56 64 40 65 41 66
REMARK SMILES IDX 49 67 42 68 43 69 47 70 50 71 44 72 45 73 48 74 46 75 72 76
REMARK SMILES IDX 73 77 81 78 74 79 75 80 79 81 82 82 76 83 77 84 80 85 78 86
REMARK SMILES IDX 57 87 58 88 66 89 59 90 60 91 64 92 67 93 61 94 62 95 65 96
REMARK SMILES IDX 63 97
REMARK H PARENT 24 5 28 31 87 50 55 61
REMARK Flexibility Score: inf
ROOT
ATOM      1  C   UNL A   1      37.081  20.061  24.866  1.00  0.00     0.117 C 
ENDROOT
BRANCH   1   2
ATOM      2  N   UNL A   1      37.062  21.372  25.486  1.00  0.00    -0.356 N 
ATOM      3  C   UNL A   1      36.701  22.562  24.927  1.00  0.00     0.224 C 
ATOM      4  O   UNL A   1      36.793  23.590  25.598  1.00  0.00    -0.275 OA
ATOM      5  H   UNL A   1      37.345  21.407  26.428  1.00  0.00     0.163 HD
BRANCH   3   6
ATOM      6  C   UNL A   1      36.164  22.585  23.510  1.00  0.00     0.139 C 
BRANCH   6   7
ATOM      7  C   UNL A   1      34.708  22.975  23.395  1.00  0.00     0.004 A 
ATOM      8  C   UNL A   1      33.633  22.205  23.866  1.00  0.00     0.122 A 
ATOM      9  C   UNL A   1      32.322  22.672  23.710  1.00  0.00     0.047 A 
ATOM     10  C   UNL A   1      32.062  23.909  23.111  1.00  0.00     0.016 A 
ATOM     11  C   UNL A   1      34.420  24.204  22.757  1.00  0.00     0.020 A 
ATOM     12  C   UNL A   1      33.112  24.690  22.624  1.00  0.00     0.022 A 
BRANCH   8  13
ATOM     13  O   UNL A   1      33.718  20.917  24.319  1.00  0.00    -0.496 OA
ATOM     14  C   UNL A   1      32.497  20.193  24.409  1.00  0.00     0.278 C 
ENDBRANCH   8  13
BRANCH  12  15
ATOM     15  C   UNL A   1      32.779  25.959  21.905  1.00  0.00     0.185 C 
ATOM     16  O   UNL A   1      33.653  26.560  21.284  1.00  0.00    -0.289 OA
BRANCH  15  17
ATOM     17  C   UNL A   1      31.424  26.569  21.990  1.00  0.00     0.053 C 
ATOM     18  C   UNL A   1      31.081  27.527  22.861  1.00  0.00     0.018 C 
BRANCH  18  19
ATOM     19  C   UNL A   1      29.766  28.171  22.843  1.00  0.00     0.046 A 
ATOM     20  C   UNL A   1      29.593  29.424  22.246  1.00  0.00     0.133 A 
ATOM     21  C   UNL A   1      28.664  27.580  23.459  1.00  0.00     0.133 A 
ATOM     22  F   UNL A   1      30.624  30.025  21.633  1.00  0.00    -0.206 F 
ATOM     23  C   UNL A   1      28.365  30.083  22.284  1.00  0.00     0.040 A 
ATOM     24  C   UNL A   1      27.427  28.223  23.498  1.00  0.00     0.040 A 
ATOM     25  F   UNL A   1      28.782  26.378  24.044  1.00  0.00    -0.206 F 
ATOM     26  C   UNL A   1      27.277  29.482  22.917  1.00  0.00     0.006 A 
ENDBRANCH  18  19
ENDBRANCH  15  17
ENDBRANCH  12  15
ENDBRANCH   6   7
ENDBRANCH   3   6
ENDBRANCH   1   2
BRANCH   1  27
ATOM     27  C   UNL A   1      38.237  19.203  25.370  1.00  0.00     0.042 C 
BRANCH  27  28
ATOM     28  C   UNL A   1      39.465  20.004  25.788  1.00  0.00     0.118 C 
BRANCH  28  29
ATOM     29  N   UNL A   1      40.599  19.151  26.111  1.00  0.00    -0.352 N 
ATOM     30  C   UNL A   1      41.902  19.465  26.389  1.00  0.00     0.251 C 
ATOM     31  H   UNL A   1      40.394  18.189  26.135  1.00  0.00     0.163 HD
ATOM     32  O   UNL A   1      42.732  18.562  26.447  1.00  0.00    -0.269 OA
BRANCH  30  33
ATOM     33  C   UNL A   1      42.326  20.864  26.614  1.00  0.00     0.039 A 
ATOM     34  C   UNL A   1      42.533  21.678  25.496  1.00  0.00     0.014 A 
ATOM     35  C   UNL A   1      42.597  21.359  27.894  1.00  0.00     0.014 A 
ATOM     36  C   UNL A   1      42.982  22.988  25.659  1.00  0.00     0.010 A 
ATOM     37  C   UNL A   1      42.981  22.688  28.061  1.00  0.00     0.010 A 
ATOM     38  C   UNL A   1      43.194  23.510  26.946  1.00  0.00    -0.014 A 
BRANCH  38  39
ATOM     39  C   UNL A   1      43.657  24.908  27.125  1.00  0.00     0.031 A 
ATOM     40  C   UNL A   1      42.716  25.962  27.638  1.00  0.00     0.074 A 
ATOM     41  C   UNL A   1      44.922  25.232  26.796  1.00  0.00     0.049 A 
ATOM     42  N   UNL A   1      42.939  27.234  27.859  1.00  0.00    -0.248 NA
ATOM     43  C   UNL A   1      41.336  25.538  27.918  1.00  0.00     0.031 C 
ATOM     44  C   UNL A   1      45.911  24.311  26.237  1.00  0.00     0.029 A 
ATOM     45  N   UNL A   1      45.590  26.426  26.883  1.00  0.00    -0.354 N 
ATOM     46  C   UNL A   1      41.728  27.760  28.289  1.00  0.00     0.074 A 
ATOM     47  C   UNL A   1      40.762  26.685  28.254  1.00  0.00     0.031 C 
ATOM     48  C   UNL A   1      47.068  24.966  26.056  1.00  0.00     0.029 A 
ATOM     49  C   UNL A   1      46.895  26.357  26.464  1.00  0.00     0.049 A 
ATOM     50  H   UNL A   1      45.174  27.255  27.215  1.00  0.00     0.167 HD
ATOM     51  C   UNL A   1      41.454  29.023  28.698  1.00  0.00     0.037 A 
ATOM     52  C   UNL A   1      47.847  27.308  26.420  1.00  0.00     0.037 A 
ATOM     53  C   UNL A   1      42.424  30.084  28.760  1.00  0.00     0.049 A 
ATOM     54  C   UNL A   1      47.524  28.692  26.913  1.00  0.00     0.074 A 
ATOM     55  C   UNL A   1      42.258  31.383  29.209  1.00  0.00     0.029 A 
ATOM     56  N   UNL A   1      43.747  29.966  28.359  1.00  0.00    -0.354 N 
ATOM     57  N   UNL A   1      46.395  29.161  27.383  1.00  0.00    -0.248 NA
ATOM     58  C   UNL A   1      48.617  29.674  26.883  1.00  0.00     0.031 C 
ATOM     59  C   UNL A   1      43.472  32.060  29.051  1.00  0.00     0.029 A 
ATOM     60  C   UNL A   1      44.405  31.172  28.542  1.00  0.00     0.049 A 
ATOM     61  H   UNL A   1      44.157  29.148  27.999  1.00  0.00     0.167 HD
ATOM     62  C   UNL A   1      46.645  30.481  27.730  1.00  0.00     0.074 A 
ATOM     63  C   UNL A   1      48.040  30.733  27.431  1.00  0.00     0.031 C 
ATOM     64  C   UNL A   1      45.797  31.402  28.249  1.00  0.00     0.037 A 
BRANCH  51  65
ATOM     65  C   UNL A   1      40.044  29.323  29.118  1.00  0.00     0.064 A 
ATOM     66  C   UNL A   1      39.038  29.586  28.177  1.00  0.00     0.173 A 
ATOM     67  C   UNL A   1      39.687  29.314  30.475  1.00  0.00     0.173 A 
ATOM     68  F   UNL A   1      39.329  29.618  26.868  1.00  0.00    -0.203 F 
ATOM     69  C   UNL A   1      37.732  29.857  28.579  1.00  0.00     0.198 A 
ATOM     70  C   UNL A   1      38.375  29.557  30.873  1.00  0.00     0.198 A 
ATOM     71  F   UNL A   1      40.610  29.062  31.416  1.00  0.00    -0.203 F 
ATOM     72  F   UNL A   1      36.798  30.151  27.665  1.00  0.00    -0.200 F 
ATOM     73  C   UNL A   1      37.401  29.835  29.926  1.00  0.00     0.200 A 
ATOM     74  F   UNL A   1      38.052  29.525  32.173  1.00  0.00    -0.200 F 
ATOM     75  F   UNL A   1      36.142  30.090  30.311  1.00  0.00    -0.200 F 
ENDBRANCH  51  65
BRANCH  52  76
ATOM     76  C   UNL A   1      49.208  26.968  25.935  1.00  0.00     0.064 A 
ATOM     77  C   UNL A   1      49.539  27.098  24.579  1.00  0.00     0.173 A 
ATOM     78  C   UNL A   1      50.203  26.514  26.811  1.00  0.00     0.173 A 
ATOM     79  F   UNL A   1      48.614  27.511  23.701  1.00  0.00    -0.203 F 
ATOM     80  C   UNL A   1      50.809  26.767  24.114  1.00  0.00     0.198 A 
ATOM     81  C   UNL A   1      51.481  26.206  26.349  1.00  0.00     0.198 A 
ATOM     82  F   UNL A   1      49.936  26.378  28.118  1.00  0.00    -0.203 F 
ATOM     83  F   UNL A   1      51.088  26.859  22.806  1.00  0.00    -0.200 F 
ATOM     84  C   UNL A   1      51.782  26.326  25.001  1.00  0.00     0.200 A 
ATOM     85  F   UNL A   1      52.422  25.794  27.210  1.00  0.00    -0.200 F 
ATOM     86  F   UNL A   1      53.005  26.011  24.553  1.00  0.00    -0.200 F 
ENDBRANCH  52  76
BRANCH  64  87
ATOM     87  C   UNL A   1      46.365  32.755  28.560  1.00  0.00     0.064 A 
ATOM     88  C   UNL A   1      46.347  33.794  27.618  1.00  0.00     0.173 A 
ATOM     89  C   UNL A   1      46.917  33.019  29.821  1.00  0.00     0.173 A 
ATOM     90  F   UNL A   1      45.843  33.586  26.391  1.00  0.00    -0.203 F 
ATOM     91  C   UNL A   1      46.889  35.041  27.920  1.00  0.00     0.198 A 
ATOM     92  C   UNL A   1      47.432  34.275  30.129  1.00  0.00     0.198 A 
ATOM     93  F   UNL A   1      46.951  32.060  30.759  1.00  0.00    -0.203 F 
ATOM     94  F   UNL A   1      46.908  36.004  26.988  1.00  0.00    -0.200 F 
ATOM     95  C   UNL A   1      47.426  35.281  29.176  1.00  0.00     0.200 A 
ATOM     96  F   UNL A   1      47.941  34.508  31.347  1.00  0.00    -0.200 F 
ATOM     97  F   UNL A   1      47.948  36.482  29.464  1.00  0.00    -0.200 F 
ENDBRANCH  64  87
ENDBRANCH  38  39
ENDBRANCH  30  33
ENDBRANCH  28  29
ENDBRANCH  27  28
ENDBRANCH   1  27
TORSDOF 15
ENDMDL
