MODEL 1
REMARK VINA RESULT:     -13.9      0.000      0.000
REMARK SMILES O=C(NCCCNC(=O)c1ccc(-c2c3nc(c(-c4c(F)c(F)c(F)c(F)c4F)c4ccc([nH]4)c(-c4c(F)c(F)c(F)c(F)c4F)c4nc(c(-c5c(F)c(F)c(F)c(F)c5F)c5ccc2[nH]5)C=C4)C=C3)cc1)c1ccc(C[N@@H+]2CCC[C@H]2c2nc(-c3ccc(-c4cncnc4)nc3)no2)cc1
REMARK SMILES IDX 1 1 2 2 3 3 73 5 74 6 101 7 75 8 100 9 76 10 77 11 78 12
REMARK SMILES IDX 79 13 82 14 80 16 81 17 83 18 84 19 99 20 85 21 98 22 86 23
REMARK SMILES IDX 87 24 97 25 88 26 96 27 89 28 90 29 91 30 95 31 92 32 94 33
REMARK SMILES IDX 93 34 4 35 5 36 6 37 7 38 8 39 9 41 10 42 11 43 72 44 12 45
REMARK SMILES IDX 71 46 13 47 14 48 15 49 65 50 16 51 70 52 64 53 66 54 17 55
REMARK SMILES IDX 69 56 63 57 62 58 18 60 50 61 30 62 49 63 31 64 34 65 48 66
REMARK SMILES IDX 67 67 32 68 33 69 47 71 68 72 35 73 19 74 20 75 28 76 21 77
REMARK SMILES IDX 22 78 26 79 29 80 23 81 24 82 27 83 25 84 51 85 52 86 60 87
REMARK SMILES IDX 53 88 54 89 58 90 61 91 55 92 56 93 59 94 57 95 36 96 37 97
REMARK SMILES IDX 45 98 38 99 39 100 43 101 46 102 40 103 41 104 44 105 42 106
REMARK H PARENT 3 4 78 15 7 40 66 59 34 70
REMARK Flexibility Score: inf
ROOT
ATOM      1  O   UNL A   1      35.257  28.937  27.308  1.00  0.00    -0.269 OA
ATOM      2  C   UNL A   1      34.138  29.053  26.824  1.00  0.00     0.251 C 
ATOM      3  N   UNL A   1      33.470  30.253  26.877  1.00  0.00    -0.352 N 
ATOM      4  H   UNL A   1      34.003  31.019  27.190  1.00  0.00     0.163 HD
ENDROOT
BRANCH   2   5
ATOM      5  C   UNL A   1      33.476  27.891  26.201  1.00  0.00     0.039 A 
ATOM      6  C   UNL A   1      32.485  27.190  26.891  1.00  0.00     0.014 A 
ATOM      7  C   UNL A   1      33.874  27.487  24.927  1.00  0.00     0.014 A 
ATOM      8  C   UNL A   1      31.973  26.011  26.350  1.00  0.00     0.010 A 
ATOM      9  C   UNL A   1      33.360  26.305  24.390  1.00  0.00     0.010 A 
ATOM     10  C   UNL A   1      32.445  25.525  25.120  1.00  0.00     0.006 A 
BRANCH  10  11
ATOM     11  C   UNL A   1      31.987  24.176  24.600  1.00  0.00     0.299 C 
BRANCH  11  12
ATOM     12  N   UNL A   1      32.996  23.110  24.500  1.00  0.00    -0.321 N 
ATOM     13  C   UNL A   1      32.532  21.848  23.928  1.00  0.00     0.263 C 
ATOM     14  C   UNL A   1      33.689  22.781  25.759  1.00  0.00     0.275 C 
ATOM     15  H   UNL A   1      33.649  23.552  23.851  1.00  0.00     0.349 HD
ATOM     16  C   UNL A   1      32.242  20.928  25.100  1.00  0.00     0.068 C 
ATOM     17  C   UNL A   1      33.139  21.426  26.222  1.00  0.00     0.081 C 
BRANCH  14  18
ATOM     18  C   UNL A   1      35.186  22.710  25.609  1.00  0.00     0.285 A 
ATOM     19  N   UNL A   1      36.030  21.697  25.682  1.00  0.00    -0.186 NA
ATOM     20  O   UNL A   1      35.814  23.919  25.514  1.00  0.00    -0.332 OA
ATOM     21  C   UNL A   1      37.253  22.332  25.664  1.00  0.00     0.204 A 
ATOM     22  N   UNL A   1      37.177  23.668  25.567  1.00  0.00    -0.057 NA
BRANCH  21  23
ATOM     23  C   UNL A   1      38.518  21.644  25.829  1.00  0.00     0.041 A 
ATOM     24  C   UNL A   1      39.626  22.311  26.356  1.00  0.00     0.016 A 
ATOM     25  C   UNL A   1      38.698  20.330  25.429  1.00  0.00     0.123 A 
ATOM     26  C   UNL A   1      40.852  21.653  26.454  1.00  0.00     0.030 A 
ATOM     27  N   UNL A   1      39.891  19.673  25.486  1.00  0.00    -0.255 NA
ATOM     28  C   UNL A   1      40.955  20.339  25.998  1.00  0.00     0.073 A 
BRANCH  28  29
ATOM     29  C   UNL A   1      42.227  19.626  26.009  1.00  0.00     0.037 A 
ATOM     30  C   UNL A   1      43.368  20.091  25.379  1.00  0.00     0.124 A 
ATOM     31  C   UNL A   1      42.389  18.394  26.618  1.00  0.00     0.124 A 
ATOM     32  N   UNL A   1      44.541  19.421  25.320  1.00  0.00    -0.244 NA
ATOM     33  N   UNL A   1      43.532  17.670  26.592  1.00  0.00    -0.244 NA
ATOM     34  C   UNL A   1      44.559  18.230  25.936  1.00  0.00     0.221 A 
ENDBRANCH  28  29
ENDBRANCH  21  23
ENDBRANCH  14  18
ENDBRANCH  11  12
ENDBRANCH  10  11
ENDBRANCH   2   5
BRANCH   3  35
ATOM     35  C   UNL A   1      32.086  30.550  26.534  1.00  0.00     0.118 C 
BRANCH  35  36
ATOM     36  C   UNL A   1      31.723  32.008  26.795  1.00  0.00     0.042 C 
BRANCH  36  37
ATOM     37  C   UNL A   1      32.899  32.879  27.222  1.00  0.00     0.118 C 
BRANCH  37  38
ATOM     38  N   UNL A   1      32.494  34.208  27.664  1.00  0.00    -0.352 N 
ATOM     39  C   UNL A   1      32.982  34.992  28.684  1.00  0.00     0.251 C 
ATOM     40  H   UNL A   1      31.754  34.607  27.153  1.00  0.00     0.163 HD
ATOM     41  O   UNL A   1      32.403  36.026  28.991  1.00  0.00    -0.269 OA
BRANCH  39  42
ATOM     42  C   UNL A   1      34.187  34.573  29.434  1.00  0.00     0.039 A 
ATOM     43  C   UNL A   1      34.034  34.033  30.714  1.00  0.00     0.014 A 
ATOM     44  C   UNL A   1      35.461  34.706  28.879  1.00  0.00     0.014 A 
ATOM     45  C   UNL A   1      35.147  33.537  31.397  1.00  0.00     0.010 A 
ATOM     46  C   UNL A   1      36.557  34.144  29.524  1.00  0.00     0.010 A 
ATOM     47  C   UNL A   1      36.410  33.541  30.785  1.00  0.00    -0.014 A 
BRANCH  47  48
ATOM     48  C   UNL A   1      37.596  32.910  31.419  1.00  0.00     0.031 A 
ATOM     49  C   UNL A   1      38.257  31.731  30.765  1.00  0.00     0.074 A 
ATOM     50  C   UNL A   1      38.006  33.326  32.633  1.00  0.00     0.049 A 
ATOM     51  N   UNL A   1      39.179  30.930  31.235  1.00  0.00    -0.248 NA
ATOM     52  C   UNL A   1      37.797  31.389  29.411  1.00  0.00     0.031 C 
ATOM     53  C   UNL A   1      37.433  34.443  33.385  1.00  0.00     0.029 A 
ATOM     54  N   UNL A   1      38.988  32.840  33.460  1.00  0.00    -0.354 N 
ATOM     55  C   UNL A   1      39.390  29.977  30.248  1.00  0.00     0.074 A 
ATOM     56  C   UNL A   1      38.470  30.274  29.170  1.00  0.00     0.031 C 
ATOM     57  C   UNL A   1      38.076  34.562  34.557  1.00  0.00     0.029 A 
ATOM     58  C   UNL A   1      39.072  33.500  34.663  1.00  0.00     0.049 A 
ATOM     59  H   UNL A   1      39.576  32.090  33.217  1.00  0.00     0.167 HD
ATOM     60  C   UNL A   1      40.280  28.956  30.236  1.00  0.00     0.037 A 
ATOM     61  C   UNL A   1      39.846  33.261  35.739  1.00  0.00     0.037 A 
ATOM     62  C   UNL A   1      41.211  28.682  31.298  1.00  0.00     0.049 A 
ATOM     63  C   UNL A   1      40.810  32.106  35.711  1.00  0.00     0.074 A 
ATOM     64  C   UNL A   1      42.188  27.704  31.357  1.00  0.00     0.029 A 
ATOM     65  N   UNL A   1      41.280  29.388  32.490  1.00  0.00    -0.354 N 
ATOM     66  N   UNL A   1      41.031  31.238  34.754  1.00  0.00    -0.248 NA
ATOM     67  C   UNL A   1      41.630  31.895  36.913  1.00  0.00     0.031 C 
ATOM     68  C   UNL A   1      42.821  27.791  32.602  1.00  0.00     0.029 A 
ATOM     69  C   UNL A   1      42.271  28.855  33.299  1.00  0.00     0.049 A 
ATOM     70  H   UNL A   1      40.709  30.155  32.726  1.00  0.00     0.167 HD
ATOM     71  C   UNL A   1      42.038  30.403  35.222  1.00  0.00     0.074 A 
ATOM     72  C   UNL A   1      42.386  30.869  36.548  1.00  0.00     0.031 C 
ATOM     73  C   UNL A   1      42.621  29.346  34.607  1.00  0.00     0.037 A 
BRANCH  60  74
ATOM     74  C   UNL A   1      40.290  28.059  29.033  1.00  0.00     0.064 A 
ATOM     75  C   UNL A   1      41.045  28.366  27.891  1.00  0.00     0.173 A 
ATOM     76  C   UNL A   1      39.562  26.859  29.035  1.00  0.00     0.173 A 
ATOM     77  F   UNL A   1      41.750  29.507  27.835  1.00  0.00    -0.203 F 
ATOM     78  C   UNL A   1      41.047  27.522  26.785  1.00  0.00     0.198 A 
ATOM     79  C   UNL A   1      39.590  26.002  27.937  1.00  0.00     0.198 A 
ATOM     80  F   UNL A   1      38.828  26.514  30.103  1.00  0.00    -0.203 F 
ATOM     81  F   UNL A   1      41.735  27.862  25.685  1.00  0.00    -0.200 F 
ATOM     82  C   UNL A   1      40.325  26.338  26.810  1.00  0.00     0.200 A 
ATOM     83  F   UNL A   1      38.903  24.852  27.969  1.00  0.00    -0.200 F 
ATOM     84  F   UNL A   1      40.333  25.524  25.747  1.00  0.00    -0.200 F 
ENDBRANCH  60  74
BRANCH  61  85
ATOM     85  C   UNL A   1      39.751  34.142  36.933  1.00  0.00     0.064 A 
ATOM     86  C   UNL A   1      38.920  33.802  38.009  1.00  0.00     0.173 A 
ATOM     87  C   UNL A   1      40.481  35.337  37.023  1.00  0.00     0.173 A 
ATOM     88  F   UNL A   1      38.188  32.680  37.960  1.00  0.00    -0.203 F 
ATOM     89  C   UNL A   1      38.808  34.631  39.123  1.00  0.00     0.198 A 
ATOM     90  C   UNL A   1      40.389  36.152  38.150  1.00  0.00     0.198 A 
ATOM     91  F   UNL A   1      41.293  35.705  36.022  1.00  0.00    -0.203 F 
ATOM     92  F   UNL A   1      37.975  34.303  40.119  1.00  0.00    -0.200 F 
ATOM     93  C   UNL A   1      39.547  35.802  39.195  1.00  0.00     0.200 A 
ATOM     94  F   UNL A   1      41.117  37.274  38.222  1.00  0.00    -0.200 F 
ATOM     95  F   UNL A   1      39.445  36.597  40.269  1.00  0.00    -0.200 F 
ENDBRANCH  61  85
BRANCH  73  96
ATOM     96  C   UNL A   1      43.735  28.649  35.332  1.00  0.00     0.064 A 
ATOM     97  C   UNL A   1      45.074  29.027  35.164  1.00  0.00     0.173 A 
ATOM     98  C   UNL A   1      43.447  27.633  36.256  1.00  0.00     0.173 A 
ATOM     99  F   UNL A   1      45.400  29.981  34.280  1.00  0.00    -0.203 F 
ATOM    100  C   UNL A   1      46.088  28.401  35.885  1.00  0.00     0.198 A 
ATOM    101  C   UNL A   1      44.460  27.029  36.995  1.00  0.00     0.198 A 
ATOM    102  F   UNL A   1      42.180  27.240  36.456  1.00  0.00    -0.203 F 
ATOM    103  F   UNL A   1      47.365  28.753  35.684  1.00  0.00    -0.200 F 
ATOM    104  C   UNL A   1      45.779  27.411  36.807  1.00  0.00     0.200 A 
ATOM    105  F   UNL A   1      44.158  26.082  37.895  1.00  0.00    -0.200 F 
ATOM    106  F   UNL A   1      46.755  26.821  37.511  1.00  0.00    -0.200 F 
ENDBRANCH  73  96
ENDBRANCH  47  48
ENDBRANCH  39  42
ENDBRANCH  37  38
ENDBRANCH  36  37
ENDBRANCH  35  36
ENDBRANCH   3  35
TORSDOF 15
ENDMDL
MODEL 2
REMARK VINA RESULT:     -13.5      4.538     11.557
REMARK SMILES O=C(NCCCNC(=O)c1ccc(-c2c3nc(c(-c4c(F)c(F)c(F)c(F)c4F)c4ccc([nH]4)c(-c4c(F)c(F)c(F)c(F)c4F)c4nc(c(-c5c(F)c(F)c(F)c(F)c5F)c5ccc2[nH]5)C=C4)C=C3)cc1)c1ccc(C[N@@H+]2CCC[C@H]2c2nc(-c3ccc(-c4cncnc4)nc3)no2)cc1
REMARK SMILES IDX 1 1 2 2 3 3 73 5 74 6 101 7 75 8 100 9 76 10 77 11 78 12
REMARK SMILES IDX 79 13 82 14 80 16 81 17 83 18 84 19 99 20 85 21 98 22 86 23
REMARK SMILES IDX 87 24 97 25 88 26 96 27 89 28 90 29 91 30 95 31 92 32 94 33
REMARK SMILES IDX 93 34 4 35 5 36 6 37 7 38 8 39 9 41 10 42 11 43 72 44 12 45
REMARK SMILES IDX 71 46 13 47 14 48 15 49 65 50 16 51 70 52 64 53 66 54 17 55
REMARK SMILES IDX 69 56 63 57 62 58 18 60 50 61 30 62 49 63 31 64 34 65 48 66
REMARK SMILES IDX 67 67 32 68 33 69 47 71 68 72 35 73 19 74 20 75 28 76 21 77
REMARK SMILES IDX 22 78 26 79 29 80 23 81 24 82 27 83 25 84 51 85 52 86 60 87
REMARK SMILES IDX 53 88 54 89 58 90 61 91 55 92 56 93 59 94 57 95 36 96 37 97
REMARK SMILES IDX 45 98 38 99 39 100 43 101 46 102 40 103 41 104 44 105 42 106
REMARK H PARENT 3 4 78 15 7 40 66 59 34 70
REMARK Flexibility Score: inf
ROOT
ATOM      1  O   UNL A   1      32.294  18.862  25.632  1.00  0.00    -0.269 OA
ATOM      2  C   UNL A   1      32.958  19.781  25.170  1.00  0.00     0.251 C 
ATOM      3  N   UNL A   1      34.319  19.660  25.023  1.00  0.00    -0.352 N 
ATOM      4  H   UNL A   1      34.681  18.758  25.175  1.00  0.00     0.163 HD
ENDROOT
BRANCH   2   5
ATOM      5  C   UNL A   1      32.306  21.049  24.790  1.00  0.00     0.039 A 
ATOM      6  C   UNL A   1      32.265  21.449  23.453  1.00  0.00     0.014 A 
ATOM      7  C   UNL A   1      31.754  21.852  25.788  1.00  0.00     0.014 A 
ATOM      8  C   UNL A   1      31.776  22.713  23.129  1.00  0.00     0.010 A 
ATOM      9  C   UNL A   1      31.266  23.118  25.458  1.00  0.00     0.010 A 
ATOM     10  C   UNL A   1      31.323  23.584  24.132  1.00  0.00     0.006 A 
BRANCH  10  11
ATOM     11  C   UNL A   1      30.919  25.006  23.791  1.00  0.00     0.299 C 
BRANCH  11  12
ATOM     12  N   UNL A   1      31.946  26.051  23.921  1.00  0.00    -0.321 N 
ATOM     13  C   UNL A   1      33.238  25.752  23.307  1.00  0.00     0.263 C 
ATOM     14  C   UNL A   1      32.220  26.494  25.301  1.00  0.00     0.275 C 
ATOM     15  H   UNL A   1      31.493  26.803  23.401  1.00  0.00     0.349 HD
ATOM     16  C   UNL A   1      34.142  25.269  24.426  1.00  0.00     0.068 C 
ATOM     17  C   UNL A   1      33.585  25.911  25.686  1.00  0.00     0.081 C 
BRANCH  14  18
ATOM     18  C   UNL A   1      32.235  27.993  25.449  1.00  0.00     0.285 A 
ATOM     19  N   UNL A   1      32.889  28.788  26.276  1.00  0.00    -0.186 NA
ATOM     20  O   UNL A   1      31.312  28.656  24.692  1.00  0.00    -0.332 OA
ATOM     21  C   UNL A   1      32.303  30.011  26.031  1.00  0.00     0.204 A 
ATOM     22  N   UNL A   1      31.348  29.985  25.089  1.00  0.00    -0.057 NA
BRANCH  21  23
ATOM     23  C   UNL A   1      32.612  31.213  26.778  1.00  0.00     0.041 A 
ATOM     24  C   UNL A   1      33.741  31.272  27.597  1.00  0.00     0.016 A 
ATOM     25  C   UNL A   1      31.786  32.326  26.756  1.00  0.00     0.123 A 
ATOM     26  C   UNL A   1      33.993  32.415  28.356  1.00  0.00     0.030 A 
ATOM     27  N   UNL A   1      31.991  33.443  27.508  1.00  0.00    -0.255 NA
ATOM     28  C   UNL A   1      33.092  33.478  28.299  1.00  0.00     0.073 A 
BRANCH  28  29
ATOM     29  C   UNL A   1      33.266  34.669  29.123  1.00  0.00     0.037 A 
ATOM     30  C   UNL A   1      33.796  34.641  30.401  1.00  0.00     0.124 A 
ATOM     31  C   UNL A   1      32.870  35.929  28.711  1.00  0.00     0.124 A 
ATOM     32  N   UNL A   1      33.910  35.718  31.210  1.00  0.00    -0.244 NA
ATOM     33  N   UNL A   1      32.951  37.045  29.471  1.00  0.00    -0.244 NA
ATOM     34  C   UNL A   1      33.474  36.878  30.695  1.00  0.00     0.221 A 
ENDBRANCH  28  29
ENDBRANCH  21  23
ENDBRANCH  14  18
ENDBRANCH  11  12
ENDBRANCH  10  11
ENDBRANCH   2   5
BRANCH   3  35
ATOM     35  C   UNL A   1      35.300  20.679  24.675  1.00  0.00     0.118 C 
BRANCH  35  36
ATOM     36  C   UNL A   1      35.625  21.598  25.847  1.00  0.00     0.042 C 
BRANCH  36  37
ATOM     37  C   UNL A   1      37.050  22.137  25.843  1.00  0.00     0.118 C 
BRANCH  37  38
ATOM     38  N   UNL A   1      38.058  21.087  25.928  1.00  0.00    -0.352 N 
ATOM     39  C   UNL A   1      39.386  21.156  26.279  1.00  0.00     0.251 C 
ATOM     40  H   UNL A   1      37.738  20.185  25.696  1.00  0.00     0.163 HD
ATOM     41  O   UNL A   1      40.107  20.176  26.145  1.00  0.00    -0.269 OA
BRANCH  39  42
ATOM     42  C   UNL A   1      39.957  22.423  26.789  1.00  0.00     0.039 A 
ATOM     43  C   UNL A   1      40.915  22.374  27.805  1.00  0.00     0.014 A 
ATOM     44  C   UNL A   1      39.554  23.653  26.266  1.00  0.00     0.014 A 
ATOM     45  C   UNL A   1      41.540  23.549  28.229  1.00  0.00     0.010 A 
ATOM     46  C   UNL A   1      40.229  24.813  26.632  1.00  0.00     0.010 A 
ATOM     47  C   UNL A   1      41.239  24.772  27.607  1.00  0.00    -0.014 A 
BRANCH  47  48
ATOM     48  C   UNL A   1      41.969  26.023  27.934  1.00  0.00     0.031 A 
ATOM     49  C   UNL A   1      41.289  27.102  28.727  1.00  0.00     0.074 A 
ATOM     50  C   UNL A   1      43.199  26.234  27.425  1.00  0.00     0.049 A 
ATOM     51  N   UNL A   1      41.677  28.330  28.963  1.00  0.00    -0.248 NA
ATOM     52  C   UNL A   1      39.981  26.764  29.307  1.00  0.00     0.031 C 
ATOM     53  C   UNL A   1      43.958  25.276  26.619  1.00  0.00     0.029 A 
ATOM     54  N   UNL A   1      44.018  27.334  27.489  1.00  0.00    -0.354 N 
ATOM     55  C   UNL A   1      40.654  28.916  29.694  1.00  0.00     0.074 A 
ATOM     56  C   UNL A   1      39.607  27.924  29.827  1.00  0.00     0.031 C 
ATOM     57  C   UNL A   1      45.131  25.827  26.271  1.00  0.00     0.029 A 
ATOM     58  C   UNL A   1      45.188  27.192  26.784  1.00  0.00     0.049 A 
ATOM     59  H   UNL A   1      43.788  28.149  27.992  1.00  0.00     0.167 HD
ATOM     60  C   UNL A   1      40.598  30.163  30.219  1.00  0.00     0.037 A 
ATOM     61  C   UNL A   1      46.183  28.071  26.555  1.00  0.00     0.037 A 
ATOM     62  C   UNL A   1      41.652  31.136  30.107  1.00  0.00     0.049 A 
ATOM     63  C   UNL A   1      46.086  29.458  27.128  1.00  0.00     0.074 A 
ATOM     64  C   UNL A   1      41.712  32.408  30.649  1.00  0.00     0.029 A 
ATOM     65  N   UNL A   1      42.831  30.945  29.404  1.00  0.00    -0.354 N 
ATOM     66  N   UNL A   1      45.133  29.988  27.855  1.00  0.00    -0.248 NA
ATOM     67  C   UNL A   1      47.203  30.373  26.848  1.00  0.00     0.031 C 
ATOM     68  C   UNL A   1      42.910  33.003  30.239  1.00  0.00     0.029 A 
ATOM     69  C   UNL A   1      43.618  32.083  29.482  1.00  0.00     0.049 A 
ATOM     70  H   UNL A   1      43.074  30.122  28.920  1.00  0.00     0.167 HD
ATOM     71  C   UNL A   1      45.549  31.280  28.149  1.00  0.00     0.074 A 
ATOM     72  C   UNL A   1      46.842  31.455  27.523  1.00  0.00     0.031 C 
ATOM     73  C   UNL A   1      44.915  32.234  28.873  1.00  0.00     0.037 A 
BRANCH  60  74
ATOM     74  C   UNL A   1      39.353  30.546  30.965  1.00  0.00     0.064 A 
ATOM     75  C   UNL A   1      38.308  31.246  30.343  1.00  0.00     0.173 A 
ATOM     76  C   UNL A   1      39.186  30.177  32.308  1.00  0.00     0.173 A 
ATOM     77  F   UNL A   1      38.422  31.631  29.062  1.00  0.00    -0.203 F 
ATOM     78  C   UNL A   1      37.158  31.591  31.046  1.00  0.00     0.198 A 
ATOM     79  C   UNL A   1      38.021  30.497  33.001  1.00  0.00     0.198 A 
ATOM     80  F   UNL A   1      40.151  29.501  32.949  1.00  0.00    -0.203 F 
ATOM     81  F   UNL A   1      36.195  32.305  30.445  1.00  0.00    -0.200 F 
ATOM     82  C   UNL A   1      37.011  31.211  32.372  1.00  0.00     0.200 A 
ATOM     83  F   UNL A   1      37.876  30.118  34.278  1.00  0.00    -0.200 F 
ATOM     84  F   UNL A   1      35.901  31.538  33.045  1.00  0.00    -0.200 F 
ENDBRANCH  60  74
BRANCH  61  85
ATOM     85  C   UNL A   1      47.366  27.661  25.754  1.00  0.00     0.064 A 
ATOM     86  C   UNL A   1      47.340  27.725  24.354  1.00  0.00     0.173 A 
ATOM     87  C   UNL A   1      48.541  27.196  26.364  1.00  0.00     0.173 A 
ATOM     88  F   UNL A   1      46.232  28.143  23.724  1.00  0.00    -0.203 F 
ATOM     89  C   UNL A   1      48.436  27.323  23.593  1.00  0.00     0.198 A 
ATOM     90  C   UNL A   1      49.647  26.821  25.603  1.00  0.00     0.198 A 
ATOM     91  F   UNL A   1      48.619  27.120  27.701  1.00  0.00    -0.203 F 
ATOM     92  F   UNL A   1      48.369  27.356  22.256  1.00  0.00    -0.200 F 
ATOM     93  C   UNL A   1      49.591  26.877  24.219  1.00  0.00     0.200 A 
ATOM     94  F   UNL A   1      50.765  26.406  26.212  1.00  0.00    -0.200 F 
ATOM     95  F   UNL A   1      50.647  26.497  23.489  1.00  0.00    -0.200 F 
ENDBRANCH  61  85
BRANCH  73  96
ATOM     96  C   UNL A   1      45.629  33.537  29.078  1.00  0.00     0.064 A 
ATOM     97  C   UNL A   1      45.445  34.624  28.213  1.00  0.00     0.173 A 
ATOM     98  C   UNL A   1      46.459  33.717  30.195  1.00  0.00     0.173 A 
ATOM     99  F   UNL A   1      44.674  34.494  27.122  1.00  0.00    -0.203 F 
ATOM    100  C   UNL A   1      46.078  35.841  28.449  1.00  0.00     0.198 A 
ATOM    101  C   UNL A   1      47.068  34.943  30.444  1.00  0.00     0.198 A 
ATOM    102  F   UNL A   1      46.663  32.709  31.056  1.00  0.00    -0.203 F 
ATOM    103  F   UNL A   1      45.916  36.856  27.591  1.00  0.00    -0.200 F 
ATOM    104  C   UNL A   1      46.881  36.003  29.570  1.00  0.00     0.200 A 
ATOM    105  F   UNL A   1      47.832  35.102  31.534  1.00  0.00    -0.200 F 
ATOM    106  F   UNL A   1      47.477  37.180  29.804  1.00  0.00    -0.200 F 
ENDBRANCH  73  96
ENDBRANCH  47  48
ENDBRANCH  39  42
ENDBRANCH  37  38
ENDBRANCH  36  37
ENDBRANCH  35  36
ENDBRANCH   3  35
TORSDOF 15
ENDMDL
MODEL 3
REMARK VINA RESULT:     -13.4      4.464     10.234
REMARK SMILES O=C(NCCCNC(=O)c1ccc(-c2c3nc(c(-c4c(F)c(F)c(F)c(F)c4F)c4ccc([nH]4)c(-c4c(F)c(F)c(F)c(F)c4F)c4nc(c(-c5c(F)c(F)c(F)c(F)c5F)c5ccc2[nH]5)C=C4)C=C3)cc1)c1ccc(C[N@@H+]2CCC[C@H]2c2nc(-c3ccc(-c4cncnc4)nc3)no2)cc1
REMARK SMILES IDX 1 1 2 2 3 3 73 5 74 6 101 7 75 8 100 9 76 10 77 11 78 12
REMARK SMILES IDX 79 13 82 14 80 16 81 17 83 18 84 19 99 20 85 21 98 22 86 23
REMARK SMILES IDX 87 24 97 25 88 26 96 27 89 28 90 29 91 30 95 31 92 32 94 33
REMARK SMILES IDX 93 34 4 35 5 36 6 37 7 38 8 39 9 41 10 42 11 43 72 44 12 45
REMARK SMILES IDX 71 46 13 47 14 48 15 49 65 50 16 51 70 52 64 53 66 54 17 55
REMARK SMILES IDX 69 56 63 57 62 58 18 60 50 61 30 62 49 63 31 64 34 65 48 66
REMARK SMILES IDX 67 67 32 68 33 69 47 71 68 72 35 73 19 74 20 75 28 76 21 77
REMARK SMILES IDX 22 78 26 79 29 80 23 81 24 82 27 83 25 84 51 85 52 86 60 87
REMARK SMILES IDX 53 88 54 89 58 90 61 91 55 92 56 93 59 94 57 95 36 96 37 97
REMARK SMILES IDX 45 98 38 99 39 100 43 101 46 102 40 103 41 104 44 105 42 106
REMARK H PARENT 3 4 78 15 7 40 66 59 34 70
REMARK Flexibility Score: inf
ROOT
ATOM      1  O   UNL A   1      32.355  18.966  25.389  1.00  0.00    -0.269 OA
ATOM      2  C   UNL A   1      33.003  20.000  25.293  1.00  0.00     0.251 C 
ATOM      3  N   UNL A   1      34.350  20.013  25.565  1.00  0.00    -0.352 N 
ATOM      4  H   UNL A   1      34.763  19.128  25.694  1.00  0.00     0.163 HD
ENDROOT
BRANCH   2   5
ATOM      5  C   UNL A   1      32.337  21.259  24.911  1.00  0.00     0.039 A 
ATOM      6  C   UNL A   1      32.310  21.666  23.576  1.00  0.00     0.014 A 
ATOM      7  C   UNL A   1      31.760  22.048  25.905  1.00  0.00     0.014 A 
ATOM      8  C   UNL A   1      31.805  22.925  23.251  1.00  0.00     0.010 A 
ATOM      9  C   UNL A   1      31.257  23.309  25.576  1.00  0.00     0.010 A 
ATOM     10  C   UNL A   1      31.325  23.783  24.253  1.00  0.00     0.006 A 
BRANCH  10  11
ATOM     11  C   UNL A   1      30.905  25.201  23.914  1.00  0.00     0.299 C 
BRANCH  11  12
ATOM     12  N   UNL A   1      31.932  26.250  23.998  1.00  0.00    -0.321 N 
ATOM     13  C   UNL A   1      33.194  25.958  23.322  1.00  0.00     0.263 C 
ATOM     14  C   UNL A   1      32.268  26.691  25.364  1.00  0.00     0.275 C 
ATOM     15  H   UNL A   1      31.452  27.002  23.501  1.00  0.00     0.349 HD
ATOM     16  C   UNL A   1      34.153  25.477  24.396  1.00  0.00     0.068 C 
ATOM     17  C   UNL A   1      33.653  26.114  25.683  1.00  0.00     0.081 C 
BRANCH  14  18
ATOM     18  C   UNL A   1      32.284  28.190  25.515  1.00  0.00     0.285 A 
ATOM     19  N   UNL A   1      32.932  28.983  26.349  1.00  0.00    -0.186 NA
ATOM     20  O   UNL A   1      31.368  28.855  24.752  1.00  0.00    -0.332 OA
ATOM     21  C   UNL A   1      32.350  30.207  26.101  1.00  0.00     0.204 A 
ATOM     22  N   UNL A   1      31.402  30.183  25.151  1.00  0.00    -0.057 NA
BRANCH  21  23
ATOM     23  C   UNL A   1      32.653  31.408  26.853  1.00  0.00     0.041 A 
ATOM     24  C   UNL A   1      33.803  31.481  27.642  1.00  0.00     0.016 A 
ATOM     25  C   UNL A   1      31.804  32.503  26.865  1.00  0.00     0.123 A 
ATOM     26  C   UNL A   1      34.051  32.622  28.406  1.00  0.00     0.030 A 
ATOM     27  N   UNL A   1      32.007  33.617  27.623  1.00  0.00    -0.255 NA
ATOM     28  C   UNL A   1      33.128  33.666  28.385  1.00  0.00     0.073 A 
BRANCH  28  29
ATOM     29  C   UNL A   1      33.299  34.852  29.217  1.00  0.00     0.037 A 
ATOM     30  C   UNL A   1      33.575  34.799  30.572  1.00  0.00     0.124 A 
ATOM     31  C   UNL A   1      33.155  36.137  28.727  1.00  0.00     0.124 A 
ATOM     32  N   UNL A   1      33.676  35.879  31.379  1.00  0.00    -0.244 NA
ATOM     33  N   UNL A   1      33.237  37.259  29.480  1.00  0.00    -0.244 NA
ATOM     34  C   UNL A   1      33.497  37.067  30.781  1.00  0.00     0.221 A 
ENDBRANCH  28  29
ENDBRANCH  21  23
ENDBRANCH  14  18
ENDBRANCH  11  12
ENDBRANCH  10  11
ENDBRANCH   2   5
BRANCH   3  35
ATOM     35  C   UNL A   1      35.252  21.149  25.690  1.00  0.00     0.118 C 
BRANCH  35  36
ATOM     36  C   UNL A   1      36.338  21.150  24.619  1.00  0.00     0.042 C 
BRANCH  36  37
ATOM     37  C   UNL A   1      37.660  21.758  25.069  1.00  0.00     0.118 C 
BRANCH  37  38
ATOM     38  N   UNL A   1      38.531  20.799  25.740  1.00  0.00    -0.352 N 
ATOM     39  C   UNL A   1      39.659  21.004  26.501  1.00  0.00     0.251 C 
ATOM     40  H   UNL A   1      38.271  19.857  25.630  1.00  0.00     0.163 HD
ATOM     41  O   UNL A   1      40.338  20.050  26.856  1.00  0.00    -0.269 OA
BRANCH  39  42
ATOM     42  C   UNL A   1      40.073  22.377  26.863  1.00  0.00     0.039 A 
ATOM     43  C   UNL A   1      41.114  22.551  27.781  1.00  0.00     0.014 A 
ATOM     44  C   UNL A   1      39.445  23.489  26.300  1.00  0.00     0.014 A 
ATOM     45  C   UNL A   1      41.589  23.835  28.059  1.00  0.00     0.010 A 
ATOM     46  C   UNL A   1      39.967  24.760  26.517  1.00  0.00     0.010 A 
ATOM     47  C   UNL A   1      41.053  24.946  27.388  1.00  0.00    -0.014 A 
BRANCH  47  48
ATOM     48  C   UNL A   1      41.611  26.312  27.555  1.00  0.00     0.031 A 
ATOM     49  C   UNL A   1      42.979  26.633  27.026  1.00  0.00     0.074 A 
ATOM     50  C   UNL A   1      40.936  27.227  28.278  1.00  0.00     0.049 A 
ATOM     51  N   UNL A   1      43.718  27.696  27.222  1.00  0.00    -0.248 NA
ATOM     52  C   UNL A   1      43.615  25.606  26.186  1.00  0.00     0.031 C 
ATOM     53  C   UNL A   1      39.611  27.031  28.868  1.00  0.00     0.029 A 
ATOM     54  N   UNL A   1      41.284  28.498  28.663  1.00  0.00    -0.354 N 
ATOM     55  C   UNL A   1      44.910  27.455  26.555  1.00  0.00     0.074 A 
ATOM     56  C   UNL A   1      44.815  26.128  25.983  1.00  0.00     0.031 C 
ATOM     57  C   UNL A   1      39.256  28.143  29.532  1.00  0.00     0.029 A 
ATOM     58  C   UNL A   1      40.346  29.110  29.458  1.00  0.00     0.049 A 
ATOM     59  H   UNL A   1      42.127  28.931  28.395  1.00  0.00     0.167 HD
ATOM     60  C   UNL A   1      45.982  28.273  26.418  1.00  0.00     0.037 A 
ATOM     61  C   UNL A   1      40.372  30.305  30.080  1.00  0.00     0.037 A 
ATOM     62  C   UNL A   1      46.061  29.601  26.966  1.00  0.00     0.049 A 
ATOM     63  C   UNL A   1      41.584  31.184  29.934  1.00  0.00     0.074 A 
ATOM     64  C   UNL A   1      47.081  30.527  26.838  1.00  0.00     0.029 A 
ATOM     65  N   UNL A   1      45.079  30.193  27.746  1.00  0.00    -0.354 N 
ATOM     66  N   UNL A   1      42.689  30.965  29.263  1.00  0.00    -0.248 NA
ATOM     67  C   UNL A   1      41.554  32.478  30.632  1.00  0.00     0.031 C 
ATOM     68  C   UNL A   1      46.736  31.664  27.577  1.00  0.00     0.029 A 
ATOM     69  C   UNL A   1      45.478  31.465  28.124  1.00  0.00     0.049 A 
ATOM     70  H   UNL A   1      44.224  29.772  27.996  1.00  0.00     0.167 HD
ATOM     71  C   UNL A   1      43.468  32.102  29.429  1.00  0.00     0.074 A 
ATOM     72  C   UNL A   1      42.709  33.012  30.261  1.00  0.00     0.031 C 
ATOM     73  C   UNL A   1      44.701  32.368  28.933  1.00  0.00     0.037 A 
BRANCH  60  74
ATOM     74  C   UNL A   1      47.157  27.751  25.645  1.00  0.00     0.064 A 
ATOM     75  C   UNL A   1      48.231  27.110  26.281  1.00  0.00     0.173 A 
ATOM     76  C   UNL A   1      47.195  27.863  24.247  1.00  0.00     0.173 A 
ATOM     77  F   UNL A   1      48.248  26.987  27.617  1.00  0.00    -0.203 F 
ATOM     78  C   UNL A   1      49.313  26.628  25.550  1.00  0.00     0.198 A 
ATOM     79  C   UNL A   1      48.265  27.353  23.515  1.00  0.00     0.198 A 
ATOM     80  F   UNL A   1      46.192  28.461  23.588  1.00  0.00    -0.203 F 
ATOM     81  F   UNL A   1      50.351  26.065  26.184  1.00  0.00    -0.200 F 
ATOM     82  C   UNL A   1      49.327  26.744  24.168  1.00  0.00     0.200 A 
ATOM     83  F   UNL A   1      48.270  27.453  22.179  1.00  0.00    -0.200 F 
ATOM     84  F   UNL A   1      50.366  26.273  23.465  1.00  0.00    -0.200 F 
ENDBRANCH  60  74
BRANCH  61  85
ATOM     85  C   UNL A   1      39.206  30.747  30.889  1.00  0.00     0.064 A 
ATOM     86  C   UNL A   1      39.079  30.364  32.231  1.00  0.00     0.173 A 
ATOM     87  C   UNL A   1      38.197  31.554  30.342  1.00  0.00     0.173 A 
ATOM     88  F   UNL A   1      40.008  29.576  32.792  1.00  0.00    -0.203 F 
ATOM     89  C   UNL A   1      37.979  30.755  32.992  1.00  0.00     0.198 A 
ATOM     90  C   UNL A   1      37.111  31.968  31.112  1.00  0.00     0.198 A 
ATOM     91  F   UNL A   1      38.273  31.952  29.064  1.00  0.00    -0.203 F 
ATOM     92  F   UNL A   1      37.863  30.340  34.260  1.00  0.00    -0.200 F 
ATOM     93  C   UNL A   1      37.000  31.562  32.433  1.00  0.00     0.200 A 
ATOM     94  F   UNL A   1      36.175  32.760  30.573  1.00  0.00    -0.200 F 
ATOM     95  F   UNL A   1      35.945  31.945  33.165  1.00  0.00    -0.200 F 
ENDBRANCH  61  85
BRANCH  73  96
ATOM     96  C   UNL A   1      45.291  33.715  29.229  1.00  0.00     0.064 A 
ATOM     97  C   UNL A   1      45.049  34.823  28.405  1.00  0.00     0.173 A 
ATOM     98  C   UNL A   1      46.057  33.911  30.388  1.00  0.00     0.173 A 
ATOM     99  F   UNL A   1      44.337  34.683  27.277  1.00  0.00    -0.203 F 
ATOM    100  C   UNL A   1      45.564  36.077  28.725  1.00  0.00     0.198 A 
ATOM    101  C   UNL A   1      46.547  35.170  30.719  1.00  0.00     0.198 A 
ATOM    102  F   UNL A   1      46.312  32.883  31.211  1.00  0.00    -0.203 F 
ATOM    103  F   UNL A   1      45.350  37.116  27.906  1.00  0.00    -0.200 F 
ATOM    104  C   UNL A   1      46.304  36.252  29.886  1.00  0.00     0.200 A 
ATOM    105  F   UNL A   1      47.250  35.340  31.848  1.00  0.00    -0.200 F 
ATOM    106  F   UNL A   1      46.786  37.462  30.199  1.00  0.00    -0.200 F 
ENDBRANCH  73  96
ENDBRANCH  47  48
ENDBRANCH  39  42
ENDBRANCH  37  38
ENDBRANCH  36  37
ENDBRANCH  35  36
ENDBRANCH   3  35
TORSDOF 15
ENDMDL
