MODEL 1
REMARK VINA RESULT:     -12.2      0.000      0.000
REMARK SMILES CC(C)[C@H]([NH2+][C@@H](C)C[C@@H]1CCCC[NH2+]1)C(=O)NCCCNC(=O)c1ccc(-c2c3nc(c(-c4c(F)c(F)c(F)c(F)c4F)c4ccc([nH]4)c(-c4c(F)c(F)c(F)c(F)c4F)c4nc(c(-c5c(F)c(F)c(F)c(F)c5F)c5ccc2[nH]5)C=C4)C=C3)cc1
REMARK SMILES IDX 18 1 17 2 15 3 16 4 4 6 2 7 1 8 3 9 5 10 6 13 7 14 8 15 9 16
REMARK SMILES IDX 10 17 14 18 11 19 13 20 12 23 19 24 20 25 21 26 22 27 23 29
REMARK SMILES IDX 24 30 25 31 86 32 26 33 85 34 27 35 28 36 29 37 79 38 30 39
REMARK SMILES IDX 84 40 78 41 80 42 31 43 83 44 77 45 76 46 32 48 64 49 44 50
REMARK SMILES IDX 63 51 45 52 48 53 62 54 81 55 46 56 47 57 61 59 82 60 49 61
REMARK SMILES IDX 33 62 34 63 42 64 35 65 36 66 40 67 43 68 37 69 38 70 41 71
REMARK SMILES IDX 39 72 65 73 66 74 74 75 67 76 68 77 72 78 75 79 69 80 70 81
REMARK SMILES IDX 73 82 71 83 50 84 51 85 59 86 52 87 53 88 57 89 60 90 54 91
REMARK SMILES IDX 55 92 58 93 56 94
REMARK H PARENT 17 5 5 11 5 12 14 21 14 22 21 28 80 47 48 58
REMARK Flexibility Score: inf
ROOT
ATOM      1  C   UNL A   1      31.803  30.794  26.062  1.00  0.00     0.118 C 
ENDROOT
BRANCH   1   2
ATOM      2  N   UNL A   1      31.685  29.686  26.993  1.00  0.00    -0.351 N 
ATOM      3  C   UNL A   1      31.659  28.338  26.738  1.00  0.00     0.278 C 
ATOM      4  O   UNL A   1      31.610  27.577  27.709  1.00  0.00    -0.268 OA
ATOM      5  H   UNL A   1      31.611  29.939  27.941  1.00  0.00     0.163 HD
BRANCH   3   6
ATOM      6  C   UNL A   1      31.753  27.777  25.281  1.00  0.00     0.275 C 
BRANCH   6   7
ATOM      7  C   UNL A   1      33.224  27.693  24.780  1.00  0.00     0.051 C 
ATOM      8  C   UNL A   1      33.713  26.305  24.346  1.00  0.00     0.014 C 
ATOM      9  C   UNL A   1      33.567  28.723  23.698  1.00  0.00     0.014 C 
ENDBRANCH   6   7
BRANCH   6  10
ATOM     10  N   UNL A   1      30.751  28.506  24.453  1.00  0.00    -0.333 N 
ATOM     11  H   UNL A   1      31.246  29.292  24.033  1.00  0.00     0.347 HD
ATOM     12  H   UNL A   1      30.010  28.691  25.129  1.00  0.00     0.347 HD
BRANCH  10  13
ATOM     13  C   UNL A   1      30.016  27.853  23.363  1.00  0.00     0.185 C 
ATOM     14  C   UNL A   1      29.713  26.419  23.841  1.00  0.00     0.075 C 
BRANCH  13  15
ATOM     15  C   UNL A   1      28.639  28.544  23.075  1.00  0.00     0.129 C 
BRANCH  15  16
ATOM     16  C   UNL A   1      28.705  29.984  22.534  1.00  0.00     0.188 C 
ATOM     17  C   UNL A   1      28.353  31.073  23.552  1.00  0.00     0.065 C 
ATOM     18  N   UNL A   1      27.847  30.160  21.353  1.00  0.00    -0.344 N 
ATOM     19  C   UNL A   1      28.718  32.434  22.944  1.00  0.00     0.012 C 
ATOM     20  C   UNL A   1      28.145  31.422  20.669  1.00  0.00     0.260 C 
ATOM     21  H   UNL A   1      26.870  30.162  21.647  1.00  0.00     0.346 HD
ATOM     22  H   UNL A   1      28.024  29.392  20.706  1.00  0.00     0.346 HD
ATOM     23  C   UNL A   1      28.042  32.639  21.587  1.00  0.00     0.062 C 
ENDBRANCH  15  16
ENDBRANCH  13  15
ENDBRANCH  10  13
ENDBRANCH   6  10
ENDBRANCH   3   6
ENDBRANCH   1   2
BRANCH   1  24
ATOM     24  C   UNL A   1      31.451  32.135  26.697  1.00  0.00     0.042 C 
BRANCH  24  25
ATOM     25  C   UNL A   1      32.668  32.804  27.309  1.00  0.00     0.118 C 
BRANCH  25  26
ATOM     26  N   UNL A   1      32.416  34.205  27.633  1.00  0.00    -0.352 N 
ATOM     27  C   UNL A   1      32.986  34.998  28.595  1.00  0.00     0.251 C 
ATOM     28  H   UNL A   1      31.733  34.647  27.078  1.00  0.00     0.163 HD
ATOM     29  O   UNL A   1      32.519  36.109  28.835  1.00  0.00    -0.269 OA
BRANCH  27  30
ATOM     30  C   UNL A   1      34.143  34.499  29.361  1.00  0.00     0.039 A 
ATOM     31  C   UNL A   1      33.922  33.885  30.596  1.00  0.00     0.014 A 
ATOM     32  C   UNL A   1      35.438  34.617  28.852  1.00  0.00     0.014 A 
ATOM     33  C   UNL A   1      34.997  33.328  31.287  1.00  0.00     0.010 A 
ATOM     34  C   UNL A   1      36.489  33.973  29.489  1.00  0.00     0.010 A 
ATOM     35  C   UNL A   1      36.282  33.331  30.718  1.00  0.00    -0.014 A 
BRANCH  35  36
ATOM     36  C   UNL A   1      37.428  32.679  31.396  1.00  0.00     0.031 A 
ATOM     37  C   UNL A   1      38.132  31.528  30.736  1.00  0.00     0.074 A 
ATOM     38  C   UNL A   1      37.786  33.081  32.631  1.00  0.00     0.049 A 
ATOM     39  N   UNL A   1      39.102  30.778  31.195  1.00  0.00    -0.248 NA
ATOM     40  C   UNL A   1      37.661  31.143  29.396  1.00  0.00     0.031 C 
ATOM     41  C   UNL A   1      37.141  34.151  33.394  1.00  0.00     0.029 A 
ATOM     42  N   UNL A   1      38.776  32.629  33.466  1.00  0.00    -0.354 N 
ATOM     43  C   UNL A   1      39.342  29.830  30.209  1.00  0.00     0.074 A 
ATOM     44  C   UNL A   1      38.375  30.054  29.159  1.00  0.00     0.031 C 
ATOM     45  C   UNL A   1      37.770  34.293  34.572  1.00  0.00     0.029 A 
ATOM     46  C   UNL A   1      38.831  33.295  34.666  1.00  0.00     0.049 A 
ATOM     47  H   UNL A   1      39.388  31.895  33.229  1.00  0.00     0.167 HD
ATOM     48  C   UNL A   1      40.303  28.876  30.171  1.00  0.00     0.037 A 
ATOM     49  C   UNL A   1      39.642  33.115  35.725  1.00  0.00     0.037 A 
ATOM     50  C   UNL A   1      41.278  28.677  31.209  1.00  0.00     0.049 A 
ATOM     51  C   UNL A   1      40.696  32.042  35.661  1.00  0.00     0.074 A 
ATOM     52  C   UNL A   1      42.332  27.782  31.243  1.00  0.00     0.029 A 
ATOM     53  N   UNL A   1      41.313  29.384  32.404  1.00  0.00    -0.354 N 
ATOM     54  N   UNL A   1      40.964  31.201  34.692  1.00  0.00    -0.248 NA
ATOM     55  C   UNL A   1      41.565  31.900  36.836  1.00  0.00     0.031 C 
ATOM     56  C   UNL A   1      42.971  27.908  32.480  1.00  0.00     0.029 A 
ATOM     57  C   UNL A   1      42.356  28.925  33.193  1.00  0.00     0.049 A 
ATOM     58  H   UNL A   1      40.690  30.105  32.653  1.00  0.00     0.167 HD
ATOM     59  C   UNL A   1      42.048  30.452  35.126  1.00  0.00     0.074 A 
ATOM     60  C   UNL A   1      42.400  30.949  36.439  1.00  0.00     0.031 C 
ATOM     61  C   UNL A   1      42.696  29.440  34.495  1.00  0.00     0.037 A 
BRANCH  48  62
ATOM     62  C   UNL A   1      40.346  27.979  28.967  1.00  0.00     0.064 A 
ATOM     63  C   UNL A   1      41.099  28.307  27.828  1.00  0.00     0.173 A 
ATOM     64  C   UNL A   1      39.650  26.761  28.962  1.00  0.00     0.173 A 
ATOM     65  F   UNL A   1      41.773  29.467  27.774  1.00  0.00    -0.203 F 
ATOM     66  C   UNL A   1      41.127  27.465  26.719  1.00  0.00     0.198 A 
ATOM     67  C   UNL A   1      39.709  25.905  27.865  1.00  0.00     0.198 A 
ATOM     68  F   UNL A   1      38.918  26.395  30.024  1.00  0.00    -0.203 F 
ATOM     69  F   UNL A   1      41.807  27.828  25.623  1.00  0.00    -0.200 F 
ATOM     70  C   UNL A   1      40.439  26.262  26.742  1.00  0.00     0.200 A 
ATOM     71  F   UNL A   1      39.057  24.736  27.894  1.00  0.00    -0.200 F 
ATOM     72  F   UNL A   1      40.475  25.449  25.677  1.00  0.00    -0.200 F 
ENDBRANCH  48  62
BRANCH  49  73
ATOM     73  C   UNL A   1      39.504  33.982  36.926  1.00  0.00     0.064 A 
ATOM     74  C   UNL A   1      40.124  35.239  36.981  1.00  0.00     0.173 A 
ATOM     75  C   UNL A   1      38.760  33.574  38.042  1.00  0.00     0.173 A 
ATOM     76  F   UNL A   1      40.862  35.668  35.947  1.00  0.00    -0.203 F 
ATOM     77  C   UNL A   1      40.027  36.040  38.117  1.00  0.00     0.198 A 
ATOM     78  C   UNL A   1      38.637  34.390  39.164  1.00  0.00     0.198 A 
ATOM     79  F   UNL A   1      38.141  32.383  38.037  1.00  0.00    -0.203 F 
ATOM     80  F   UNL A   1      40.673  37.214  38.163  1.00  0.00    -0.200 F 
ATOM     81  C   UNL A   1      39.278  35.618  39.205  1.00  0.00     0.200 A 
ATOM     82  F   UNL A   1      37.897  33.985  40.206  1.00  0.00    -0.200 F 
ATOM     83  F   UNL A   1      39.183  36.391  40.295  1.00  0.00    -0.200 F 
ENDBRANCH  49  73
BRANCH  61  84
ATOM     84  C   UNL A   1      43.875  28.832  35.199  1.00  0.00     0.064 A 
ATOM     85  C   UNL A   1      43.730  27.769  36.102  1.00  0.00     0.173 A 
ATOM     86  C   UNL A   1      45.173  29.294  34.932  1.00  0.00     0.173 A 
ATOM     87  F   UNL A   1      42.509  27.300  36.402  1.00  0.00    -0.203 F 
ATOM     88  C   UNL A   1      44.837  27.210  36.734  1.00  0.00     0.198 A 
ATOM     89  C   UNL A   1      46.281  28.709  35.537  1.00  0.00     0.198 A 
ATOM     90  F   UNL A   1      45.369  30.302  34.069  1.00  0.00    -0.203 F 
ATOM     91  F   UNL A   1      44.670  26.232  37.634  1.00  0.00    -0.200 F 
ATOM     92  C   UNL A   1      46.112  27.675  36.445  1.00  0.00     0.200 A 
ATOM     93  F   UNL A   1      47.513  29.148  35.244  1.00  0.00    -0.200 F 
ATOM     94  F   UNL A   1      47.178  27.130  37.047  1.00  0.00    -0.200 F 
ENDBRANCH  61  84
ENDBRANCH  35  36
ENDBRANCH  27  30
ENDBRANCH  25  26
ENDBRANCH  24  25
ENDBRANCH   1  24
TORSDOF 15
ENDMDL
MODEL 2
REMARK VINA RESULT:     -12.0      0.271      2.033
REMARK SMILES CC(C)[C@H]([NH2+][C@@H](C)C[C@@H]1CCCC[NH2+]1)C(=O)NCCCNC(=O)c1ccc(-c2c3nc(c(-c4c(F)c(F)c(F)c(F)c4F)c4ccc([nH]4)c(-c4c(F)c(F)c(F)c(F)c4F)c4nc(c(-c5c(F)c(F)c(F)c(F)c5F)c5ccc2[nH]5)C=C4)C=C3)cc1
REMARK SMILES IDX 18 1 17 2 15 3 16 4 4 6 2 7 1 8 3 9 5 10 6 13 7 14 8 15 9 16
REMARK SMILES IDX 10 17 14 18 11 19 13 20 12 23 19 24 20 25 21 26 22 27 23 29
REMARK SMILES IDX 24 30 25 31 86 32 26 33 85 34 27 35 28 36 29 37 79 38 30 39
REMARK SMILES IDX 84 40 78 41 80 42 31 43 83 44 77 45 76 46 32 48 64 49 44 50
REMARK SMILES IDX 63 51 45 52 48 53 62 54 81 55 46 56 47 57 61 59 82 60 49 61
REMARK SMILES IDX 33 62 34 63 42 64 35 65 36 66 40 67 43 68 37 69 38 70 41 71
REMARK SMILES IDX 39 72 65 73 66 74 74 75 67 76 68 77 72 78 75 79 69 80 70 81
REMARK SMILES IDX 73 82 71 83 50 84 51 85 59 86 52 87 53 88 57 89 60 90 54 91
REMARK SMILES IDX 55 92 58 93 56 94
REMARK H PARENT 17 5 5 11 5 12 14 21 14 22 21 28 80 47 48 58
REMARK Flexibility Score: inf
ROOT
ATOM      1  C   UNL A   1      31.829  30.615  26.010  1.00  0.00     0.118 C 
ENDROOT
BRANCH   1   2
ATOM      2  N   UNL A   1      31.603  29.543  26.963  1.00  0.00    -0.351 N 
ATOM      3  C   UNL A   1      31.461  28.197  26.736  1.00  0.00     0.278 C 
ATOM      4  O   UNL A   1      31.334  27.465  27.723  1.00  0.00    -0.268 OA
ATOM      5  H   UNL A   1      31.544  29.822  27.905  1.00  0.00     0.163 HD
BRANCH   3   6
ATOM      6  C   UNL A   1      31.518  27.597  25.293  1.00  0.00     0.275 C 
BRANCH   6   7
ATOM      7  C   UNL A   1      32.980  27.326  24.830  1.00  0.00     0.051 C 
ATOM      8  C   UNL A   1      33.709  28.503  24.168  1.00  0.00     0.014 C 
ATOM      9  C   UNL A   1      33.868  26.714  25.918  1.00  0.00     0.014 C 
ENDBRANCH   6   7
BRANCH   6  10
ATOM     10  N   UNL A   1      30.631  28.424  24.427  1.00  0.00    -0.333 N 
ATOM     11  H   UNL A   1      31.238  29.093  23.953  1.00  0.00     0.347 HD
ATOM     12  H   UNL A   1      29.941  28.768  25.094  1.00  0.00     0.347 HD
BRANCH  10  13
ATOM     13  C   UNL A   1      29.783  27.830  23.387  1.00  0.00     0.185 C 
ATOM     14  C   UNL A   1      29.404  26.422  23.886  1.00  0.00     0.075 C 
BRANCH  13  15
ATOM     15  C   UNL A   1      28.445  28.623  23.184  1.00  0.00     0.129 C 
BRANCH  15  16
ATOM     16  C   UNL A   1      28.584  30.052  22.627  1.00  0.00     0.188 C 
ATOM     17  C   UNL A   1      28.184  31.166  23.598  1.00  0.00     0.065 C 
ATOM     18  N   UNL A   1      27.817  30.226  21.384  1.00  0.00    -0.344 N 
ATOM     19  C   UNL A   1      28.623  32.508  22.997  1.00  0.00     0.012 C 
ATOM     20  C   UNL A   1      28.193  31.468  20.703  1.00  0.00     0.260 C 
ATOM     21  H   UNL A   1      26.822  30.255  21.606  1.00  0.00     0.346 HD
ATOM     22  H   UNL A   1      28.023  29.443  20.764  1.00  0.00     0.346 HD
ATOM     23  C   UNL A   1      28.053  32.704  21.592  1.00  0.00     0.062 C 
ENDBRANCH  15  16
ENDBRANCH  13  15
ENDBRANCH  10  13
ENDBRANCH   6  10
ENDBRANCH   3   6
ENDBRANCH   1   2
BRANCH   1  24
ATOM     24  C   UNL A   1      31.461  31.985  26.570  1.00  0.00     0.042 C 
BRANCH  24  25
ATOM     25  C   UNL A   1      32.633  32.634  27.284  1.00  0.00     0.118 C 
BRANCH  25  26
ATOM     26  N   UNL A   1      32.378  34.039  27.588  1.00  0.00    -0.352 N 
ATOM     27  C   UNL A   1      32.956  34.851  28.528  1.00  0.00     0.251 C 
ATOM     28  H   UNL A   1      31.685  34.468  27.034  1.00  0.00     0.163 HD
ATOM     29  O   UNL A   1      32.486  35.964  28.755  1.00  0.00    -0.269 OA
BRANCH  27  30
ATOM     30  C   UNL A   1      34.126  34.371  29.287  1.00  0.00     0.039 A 
ATOM     31  C   UNL A   1      33.921  33.723  30.507  1.00  0.00     0.014 A 
ATOM     32  C   UNL A   1      35.418  34.541  28.785  1.00  0.00     0.014 A 
ATOM     33  C   UNL A   1      35.010  33.184  31.189  1.00  0.00     0.010 A 
ATOM     34  C   UNL A   1      36.487  33.916  29.412  1.00  0.00     0.010 A 
ATOM     35  C   UNL A   1      36.295  33.240  30.626  1.00  0.00    -0.014 A 
BRANCH  35  36
ATOM     36  C   UNL A   1      37.460  32.609  31.293  1.00  0.00     0.031 A 
ATOM     37  C   UNL A   1      38.189  31.482  30.619  1.00  0.00     0.074 A 
ATOM     38  C   UNL A   1      37.812  33.007  32.531  1.00  0.00     0.049 A 
ATOM     39  N   UNL A   1      39.178  30.751  31.066  1.00  0.00    -0.248 NA
ATOM     40  C   UNL A   1      37.722  31.099  29.276  1.00  0.00     0.031 C 
ATOM     41  C   UNL A   1      37.144  34.053  33.307  1.00  0.00     0.029 A 
ATOM     42  N   UNL A   1      38.815  32.570  33.358  1.00  0.00    -0.354 N 
ATOM     43  C   UNL A   1      39.438  29.819  30.070  1.00  0.00     0.074 A 
ATOM     44  C   UNL A   1      38.462  30.031  29.026  1.00  0.00     0.031 C 
ATOM     45  C   UNL A   1      37.773  34.198  34.484  1.00  0.00     0.029 A 
ATOM     46  C   UNL A   1      38.858  33.225  34.565  1.00  0.00     0.049 A 
ATOM     47  H   UNL A   1      39.444  31.854  33.111  1.00  0.00     0.167 HD
ATOM     48  C   UNL A   1      40.421  28.889  30.020  1.00  0.00     0.037 A 
ATOM     49  C   UNL A   1      39.677  33.053  35.619  1.00  0.00     0.037 A 
ATOM     50  C   UNL A   1      41.404  28.703  31.053  1.00  0.00     0.049 A 
ATOM     51  C   UNL A   1      40.757  32.008  35.541  1.00  0.00     0.074 A 
ATOM     52  C   UNL A   1      42.480  27.834  31.074  1.00  0.00     0.029 A 
ATOM     53  N   UNL A   1      41.427  29.398  32.254  1.00  0.00    -0.354 N 
ATOM     54  N   UNL A   1      41.042  31.183  34.562  1.00  0.00    -0.248 NA
ATOM     55  C   UNL A   1      41.633  31.874  36.712  1.00  0.00     0.031 C 
ATOM     56  C   UNL A   1      43.120  27.962  32.310  1.00  0.00     0.029 A 
ATOM     57  C   UNL A   1      42.483  28.957  33.035  1.00  0.00     0.049 A 
ATOM     58  H   UNL A   1      40.788  30.101  32.513  1.00  0.00     0.167 HD
ATOM     59  C   UNL A   1      42.145  30.456  34.984  1.00  0.00     0.074 A 
ATOM     60  C   UNL A   1      42.489  30.948  36.302  1.00  0.00     0.031 C 
ATOM     61  C   UNL A   1      42.815  29.466  34.341  1.00  0.00     0.037 A 
BRANCH  48  62
ATOM     62  C   UNL A   1      40.482  28.007  28.806  1.00  0.00     0.064 A 
ATOM     63  C   UNL A   1      39.791  26.786  28.743  1.00  0.00     0.173 A 
ATOM     64  C   UNL A   1      41.216  28.400  27.677  1.00  0.00     0.173 A 
ATOM     65  F   UNL A   1      39.084  26.355  29.800  1.00  0.00    -0.203 F 
ATOM     66  C   UNL A   1      39.859  25.979  27.611  1.00  0.00     0.198 A 
ATOM     67  C   UNL A   1      41.253  27.608  26.532  1.00  0.00     0.198 A 
ATOM     68  F   UNL A   1      41.892  29.558  27.679  1.00  0.00    -0.203 F 
ATOM     69  F   UNL A   1      39.237  24.792  27.598  1.00  0.00    -0.200 F 
ATOM     70  C   UNL A   1      40.583  26.394  26.504  1.00  0.00     0.200 A 
ATOM     71  F   UNL A   1      41.941  28.017  25.458  1.00  0.00    -0.200 F 
ATOM     72  F   UNL A   1      40.640  25.620  25.411  1.00  0.00    -0.200 F 
ENDBRANCH  48  62
BRANCH  49  73
ATOM     73  C   UNL A   1      39.523  33.905  36.829  1.00  0.00     0.064 A 
ATOM     74  C   UNL A   1      38.770  33.467  37.928  1.00  0.00     0.173 A 
ATOM     75  C   UNL A   1      40.116  35.173  36.911  1.00  0.00     0.173 A 
ATOM     76  F   UNL A   1      38.168  32.269  37.892  1.00  0.00    -0.203 F 
ATOM     77  C   UNL A   1      38.594  34.275  39.049  1.00  0.00     0.198 A 
ATOM     78  C   UNL A   1      39.966  35.967  38.045  1.00  0.00     0.198 A 
ATOM     79  F   UNL A   1      40.853  35.637  35.890  1.00  0.00    -0.203 F 
ATOM     80  F   UNL A   1      37.825  33.853  40.062  1.00  0.00    -0.200 F 
ATOM     81  C   UNL A   1      39.197  35.522  39.110  1.00  0.00     0.200 A 
ATOM     82  F   UNL A   1      40.566  37.164  38.107  1.00  0.00    -0.200 F 
ATOM     83  F   UNL A   1      39.030  36.298  40.189  1.00  0.00    -0.200 F 
ENDBRANCH  49  73
BRANCH  61  84
ATOM     84  C   UNL A   1      44.011  28.880  35.035  1.00  0.00     0.064 A 
ATOM     85  C   UNL A   1      45.298  29.407  34.862  1.00  0.00     0.173 A 
ATOM     86  C   UNL A   1      43.856  27.800  35.919  1.00  0.00     0.173 A 
ATOM     87  F   UNL A   1      45.501  30.430  34.018  1.00  0.00    -0.203 F 
ATOM     88  C   UNL A   1      46.392  28.857  35.526  1.00  0.00     0.198 A 
ATOM     89  C   UNL A   1      44.945  27.276  36.608  1.00  0.00     0.198 A 
ATOM     90  F   UNL A   1      42.645  27.263  36.127  1.00  0.00    -0.203 F 
ATOM     91  F   UNL A   1      47.620  29.343  35.304  1.00  0.00    -0.200 F 
ATOM     92  C   UNL A   1      46.213  27.798  36.404  1.00  0.00     0.200 A 
ATOM     93  F   UNL A   1      44.768  26.265  37.469  1.00  0.00    -0.200 F 
ATOM     94  F   UNL A   1      47.266  27.277  37.049  1.00  0.00    -0.200 F 
ENDBRANCH  61  84
ENDBRANCH  35  36
ENDBRANCH  27  30
ENDBRANCH  25  26
ENDBRANCH  24  25
ENDBRANCH   1  24
TORSDOF 15
ENDMDL
MODEL 3
REMARK VINA RESULT:     -12.0      6.690     11.923
REMARK SMILES CC(C)[C@H]([NH2+][C@@H](C)C[C@@H]1CCCC[NH2+]1)C(=O)NCCCNC(=O)c1ccc(-c2c3nc(c(-c4c(F)c(F)c(F)c(F)c4F)c4ccc([nH]4)c(-c4c(F)c(F)c(F)c(F)c4F)c4nc(c(-c5c(F)c(F)c(F)c(F)c5F)c5ccc2[nH]5)C=C4)C=C3)cc1
REMARK SMILES IDX 18 1 17 2 15 3 16 4 4 6 2 7 1 8 3 9 5 10 6 13 7 14 8 15 9 16
REMARK SMILES IDX 10 17 14 18 11 19 13 20 12 23 19 24 20 25 21 26 22 27 23 29
REMARK SMILES IDX 24 30 25 31 86 32 26 33 85 34 27 35 28 36 29 37 79 38 30 39
REMARK SMILES IDX 84 40 78 41 80 42 31 43 83 44 77 45 76 46 32 48 64 49 44 50
REMARK SMILES IDX 63 51 45 52 48 53 62 54 81 55 46 56 47 57 61 59 82 60 49 61
REMARK SMILES IDX 33 62 34 63 42 64 35 65 36 66 40 67 43 68 37 69 38 70 41 71
REMARK SMILES IDX 39 72 65 73 66 74 74 75 67 76 68 77 72 78 75 79 69 80 70 81
REMARK SMILES IDX 73 82 71 83 50 84 51 85 59 86 52 87 53 88 57 89 60 90 54 91
REMARK SMILES IDX 55 92 58 93 56 94
REMARK H PARENT 17 5 5 11 5 12 14 21 14 22 21 28 80 47 48 58
REMARK Flexibility Score: inf
ROOT
ATOM      1  C   UNL A   1      37.293  20.645  24.883  1.00  0.00     0.118 C 
ENDROOT
BRANCH   1   2
ATOM      2  N   UNL A   1      37.793  21.965  25.226  1.00  0.00    -0.351 N 
ATOM      3  C   UNL A   1      37.095  23.117  25.487  1.00  0.00     0.278 C 
ATOM      4  O   UNL A   1      37.745  24.113  25.818  1.00  0.00    -0.268 OA
ATOM      5  H   UNL A   1      38.773  22.043  25.279  1.00  0.00     0.163 HD
BRANCH   3   6
ATOM      6  C   UNL A   1      35.532  23.159  25.432  1.00  0.00     0.275 C 
BRANCH   6   7
ATOM      7  C   UNL A   1      35.001  24.541  24.951  1.00  0.00     0.051 C 
ATOM      8  C   UNL A   1      34.395  24.579  23.541  1.00  0.00     0.014 C 
ATOM      9  C   UNL A   1      34.047  25.214  25.942  1.00  0.00     0.014 C 
ENDBRANCH   6   7
BRANCH   6  10
ATOM     10  N   UNL A   1      35.021  22.599  26.715  1.00  0.00    -0.333 N 
ATOM     11  H   UNL A   1      34.670  23.391  27.252  1.00  0.00     0.347 HD
ATOM     12  H   UNL A   1      35.832  22.085  27.061  1.00  0.00     0.347 HD
BRANCH  10  13
ATOM     13  C   UNL A   1      33.969  21.576  26.756  1.00  0.00     0.185 C 
ATOM     14  C   UNL A   1      32.956  22.038  27.821  1.00  0.00     0.075 C 
BRANCH  13  15
ATOM     15  C   UNL A   1      33.193  21.466  25.398  1.00  0.00     0.129 C 
BRANCH  15  16
ATOM     16  C   UNL A   1      33.443  20.187  24.578  1.00  0.00     0.188 C 
ATOM     17  C   UNL A   1      32.188  19.548  23.978  1.00  0.00     0.065 C 
ATOM     18  N   UNL A   1      34.149  19.167  25.366  1.00  0.00    -0.344 N 
ATOM     19  C   UNL A   1      32.628  18.459  22.990  1.00  0.00     0.012 C 
ATOM     20  C   UNL A   1      34.651  18.091  24.507  1.00  0.00     0.260 C 
ATOM     21  H   UNL A   1      33.507  18.772  26.054  1.00  0.00     0.346 HD
ATOM     22  H   UNL A   1      34.944  19.607  25.830  1.00  0.00     0.346 HD
ATOM     23  C   UNL A   1      33.558  17.444  23.656  1.00  0.00     0.062 C 
ENDBRANCH  15  16
ENDBRANCH  13  15
ENDBRANCH  10  13
ENDBRANCH   6  10
ENDBRANCH   3   6
ENDBRANCH   1   2
BRANCH   1  24
ATOM     24  C   UNL A   1      38.368  19.568  24.975  1.00  0.00     0.042 C 
BRANCH  24  25
ATOM     25  C   UNL A   1      39.545  20.019  25.819  1.00  0.00     0.118 C 
BRANCH  25  26
ATOM     26  N   UNL A   1      40.558  18.976  25.947  1.00  0.00    -0.352 N 
ATOM     27  C   UNL A   1      41.911  19.086  26.137  1.00  0.00     0.251 C 
ATOM     28  H   UNL A   1      40.219  18.053  25.886  1.00  0.00     0.163 HD
ATOM     29  O   UNL A   1      42.630  18.094  26.044  1.00  0.00    -0.269 OA
BRANCH  27  30
ATOM     30  C   UNL A   1      42.502  20.407  26.423  1.00  0.00     0.039 A 
ATOM     31  C   UNL A   1      43.046  21.146  25.371  1.00  0.00     0.014 A 
ATOM     32  C   UNL A   1      42.500  20.921  27.722  1.00  0.00     0.014 A 
ATOM     33  C   UNL A   1      43.525  22.433  25.612  1.00  0.00     0.010 A 
ATOM     34  C   UNL A   1      42.880  22.238  27.940  1.00  0.00     0.010 A 
ATOM     35  C   UNL A   1      43.407  23.003  26.890  1.00  0.00    -0.014 A 
BRANCH  35  36
ATOM     36  C   UNL A   1      43.839  24.397  27.157  1.00  0.00     0.031 A 
ATOM     37  C   UNL A   1      42.844  25.406  27.655  1.00  0.00     0.074 A 
ATOM     38  C   UNL A   1      45.106  24.763  26.886  1.00  0.00     0.049 A 
ATOM     39  N   UNL A   1      43.003  26.687  27.875  1.00  0.00    -0.248 NA
ATOM     40  C   UNL A   1      41.477  24.922  27.905  1.00  0.00     0.031 C 
ATOM     41  C   UNL A   1      46.146  23.885  26.347  1.00  0.00     0.029 A 
ATOM     42  N   UNL A   1      45.733  25.976  27.016  1.00  0.00    -0.354 N 
ATOM     43  C   UNL A   1      41.759  27.158  28.273  1.00  0.00     0.074 A 
ATOM     44  C   UNL A   1      40.840  26.045  28.198  1.00  0.00     0.031 C 
ATOM     45  C   UNL A   1      47.288  24.579  26.222  1.00  0.00     0.029 A 
ATOM     46  C   UNL A   1      47.050  25.960  26.627  1.00  0.00     0.049 A 
ATOM     47  H   UNL A   1      45.281  26.783  27.356  1.00  0.00     0.167 HD
ATOM     48  C   UNL A   1      41.421  28.401  28.689  1.00  0.00     0.037 A 
ATOM     49  C   UNL A   1      47.960  26.953  26.592  1.00  0.00     0.037 A 
ATOM     50  C   UNL A   1      42.348  29.496  28.785  1.00  0.00     0.049 A 
ATOM     51  C   UNL A   1      47.556  28.327  27.054  1.00  0.00     0.074 A 
ATOM     52  C   UNL A   1      42.125  30.778  29.253  1.00  0.00     0.029 A 
ATOM     53  N   UNL A   1      43.680  29.437  28.397  1.00  0.00    -0.354 N 
ATOM     54  N   UNL A   1      46.395  28.744  27.500  1.00  0.00    -0.248 NA
ATOM     55  C   UNL A   1      48.591  29.368  27.013  1.00  0.00     0.031 C 
ATOM     56  C   UNL A   1      43.305  31.511  29.098  1.00  0.00     0.029 A 
ATOM     57  C   UNL A   1      44.283  30.670  28.592  1.00  0.00     0.049 A 
ATOM     58  H   UNL A   1      44.130  28.638  28.038  1.00  0.00     0.167 HD
ATOM     59  C   UNL A   1      46.568  30.083  27.821  1.00  0.00     0.074 A 
ATOM     60  C   UNL A   1      47.950  30.405  27.534  1.00  0.00     0.031 C 
ATOM     61  C   UNL A   1      45.663  30.969  28.308  1.00  0.00     0.037 A 
BRANCH  48  62
ATOM     62  C   UNL A   1      39.989  28.640  29.076  1.00  0.00     0.064 A 
ATOM     63  C   UNL A   1      39.039  29.096  28.149  1.00  0.00     0.173 A 
ATOM     64  C   UNL A   1      39.554  28.379  30.384  1.00  0.00     0.173 A 
ATOM     65  F   UNL A   1      39.404  29.373  26.887  1.00  0.00    -0.203 F 
ATOM     66  C   UNL A   1      37.716  29.313  28.525  1.00  0.00     0.198 A 
ATOM     67  C   UNL A   1      38.222  28.563  30.747  1.00  0.00     0.198 A 
ATOM     68  F   UNL A   1      40.417  27.938  31.310  1.00  0.00    -0.203 F 
ATOM     69  F   UNL A   1      36.841  29.803  27.636  1.00  0.00    -0.200 F 
ATOM     70  C   UNL A   1      37.307  29.039  29.821  1.00  0.00     0.200 A 
ATOM     71  F   UNL A   1      37.825  28.284  31.996  1.00  0.00    -0.200 F 
ATOM     72  F   UNL A   1      36.031  29.240  30.178  1.00  0.00    -0.200 F 
ENDBRANCH  48  62
BRANCH  49  73
ATOM     73  C   UNL A   1      49.345  26.678  26.126  1.00  0.00     0.064 A 
ATOM     74  C   UNL A   1      49.719  26.918  24.797  1.00  0.00     0.173 A 
ATOM     75  C   UNL A   1      50.320  26.164  26.994  1.00  0.00     0.173 A 
ATOM     76  F   UNL A   1      48.819  27.391  23.923  1.00  0.00    -0.203 F 
ATOM     77  C   UNL A   1      51.006  26.629  24.347  1.00  0.00     0.198 A 
ATOM     78  C   UNL A   1      51.615  25.907  26.552  1.00  0.00     0.198 A 
ATOM     79  F   UNL A   1      50.016  25.923  28.279  1.00  0.00    -0.203 F 
ATOM     80  F   UNL A   1      51.321  26.819  23.058  1.00  0.00    -0.200 F 
ATOM     81  C   UNL A   1      51.955  26.130  25.226  1.00  0.00     0.200 A 
ATOM     82  F   UNL A   1      52.534  25.441  27.409  1.00  0.00    -0.200 F 
ATOM     83  F   UNL A   1      53.193  25.855  24.794  1.00  0.00    -0.200 F 
ENDBRANCH  49  73
BRANCH  61  84
ATOM     84  C   UNL A   1      46.150  32.359  28.600  1.00  0.00     0.064 A 
ATOM     85  C   UNL A   1      46.702  32.704  29.843  1.00  0.00     0.173 A 
ATOM     86  C   UNL A   1      46.101  33.349  27.606  1.00  0.00     0.173 A 
ATOM     87  F   UNL A   1      46.759  31.798  30.831  1.00  0.00    -0.203 F 
ATOM     88  C   UNL A   1      47.160  33.995  30.089  1.00  0.00     0.198 A 
ATOM     89  C   UNL A   1      46.593  34.629  27.844  1.00  0.00     0.198 A 
ATOM     90  F   UNL A   1      45.591  33.070  26.398  1.00  0.00    -0.203 F 
ATOM     91  F   UNL A   1      47.633  34.316  31.300  1.00  0.00    -0.200 F 
ATOM     92  C   UNL A   1      47.112  34.954  29.087  1.00  0.00     0.200 A 
ATOM     93  F   UNL A   1      46.563  35.549  26.869  1.00  0.00    -0.200 F 
ATOM     94  F   UNL A   1      47.563  36.194  29.323  1.00  0.00    -0.200 F 
ENDBRANCH  61  84
ENDBRANCH  35  36
ENDBRANCH  27  30
ENDBRANCH  25  26
ENDBRANCH  24  25
ENDBRANCH   1  24
TORSDOF 15
ENDMDL
