MODEL 1
REMARK VINA RESULT:     -12.7      0.000      0.000
REMARK SMILES CCOC(=O)[C@@]1(C)C/C(=N/c2cccc(C(=O)NCCCNC(=O)c3ccc(-c4c5nc(c(-c6c(F)c(F)c(F)c(F)c6F)c6ccc([nH]6)c(-c6c(F)c(F)c(F)c(F)c6F)c6nc(c(-c7c(F)c(F)c(F)c(F)c7F)c7ccc4[nH]7)C=C6)C=C5)cc3)c2)C(=O)N1c1ccccc1
REMARK SMILES IDX 19 1 18 2 16 3 17 4 15 6 11 7 12 8 88 9 13 10 14 11 10 12
REMARK SMILES IDX 6 13 7 14 8 15 91 16 9 17 89 18 90 19 4 20 5 21 3 22 2 23
REMARK SMILES IDX 1 24 92 25 93 26 97 27 94 28 96 29 95 30 20 31 21 32 22 33
REMARK SMILES IDX 23 34 24 36 25 37 26 38 87 39 27 40 86 41 28 42 29 43 30 44
REMARK SMILES IDX 80 45 31 46 85 47 79 48 81 49 32 50 84 51 78 52 77 53 33 55
REMARK SMILES IDX 65 56 45 57 64 58 46 59 49 60 63 61 82 62 47 63 48 64 62 66
REMARK SMILES IDX 83 67 50 68 34 69 35 70 43 71 36 72 37 73 41 74 44 75 38 76
REMARK SMILES IDX 39 77 42 78 40 79 66 80 67 81 75 82 68 83 69 84 73 85 76 86
REMARK SMILES IDX 70 87 71 88 74 89 72 90 51 91 52 92 60 93 53 94 54 95 58 96
REMARK SMILES IDX 61 97 55 98 56 99 59 100 57 101
REMARK H PARENT 18 5 22 35 81 54 49 65
REMARK Flexibility Score: inf
ROOT
ATOM      1  C   UNL A   1      31.343  30.932  25.673  1.00  0.00     0.118 C 
ENDROOT
BRANCH   1   2
ATOM      2  N   UNL A   1      30.199  31.216  24.817  1.00  0.00    -0.352 N 
ATOM      3  C   UNL A   1      29.599  30.455  23.841  1.00  0.00     0.251 C 
ATOM      4  O   UNL A   1      28.517  30.819  23.385  1.00  0.00    -0.269 OA
ATOM      5  H   UNL A   1      29.787  32.098  24.961  1.00  0.00     0.163 HD
BRANCH   3   6
ATOM      6  C   UNL A   1      30.209  29.199  23.345  1.00  0.00     0.041 A 
ATOM      7  C   UNL A   1      30.482  26.790  23.423  1.00  0.00     0.064 A 
ATOM      8  C   UNL A   1      31.401  26.863  22.376  1.00  0.00     0.028 A 
ATOM      9  C   UNL A   1      29.937  27.969  23.941  1.00  0.00     0.042 A 
ATOM     10  C   UNL A   1      31.734  28.098  21.817  1.00  0.00     0.003 A 
ATOM     11  C   UNL A   1      31.133  29.266  22.295  1.00  0.00     0.014 A 
BRANCH   7  12
ATOM     12  N   UNL A   1      30.114  25.554  23.973  1.00  0.00    -0.248 NA
ATOM     13  C   UNL A   1      32.096  22.696  24.501  1.00  0.00     0.148 C 
ATOM     14  C   UNL A   1      31.974  22.166  23.056  1.00  0.00     0.048 C 
ATOM     15  C   UNL A   1      30.768  23.390  24.882  1.00  0.00     0.103 C 
ATOM     16  N   UNL A   1      33.125  23.758  24.575  1.00  0.00    -0.290 N 
ATOM     17  C   UNL A   1      31.049  24.779  24.434  1.00  0.00     0.109 C 
ATOM     18  C   UNL A   1      32.539  25.021  24.515  1.00  0.00     0.273 C 
ATOM     19  O   UNL A   1      33.032  26.129  24.497  1.00  0.00    -0.267 OA
BRANCH  13  20
ATOM     20  C   UNL A   1      32.279  21.597  25.571  1.00  0.00     0.332 C 
ATOM     21  O   UNL A   1      32.573  21.814  26.739  1.00  0.00    -0.249 OA
BRANCH  20  22
ATOM     22  O   UNL A   1      31.969  20.371  25.067  1.00  0.00    -0.464 OA
BRANCH  22  23
ATOM     23  C   UNL A   1      32.913  19.315  25.307  1.00  0.00     0.229 C 
ATOM     24  C   UNL A   1      34.224  19.657  24.628  1.00  0.00     0.049 C 
ENDBRANCH  22  23
ENDBRANCH  20  22
ENDBRANCH  13  20
BRANCH  16  25
ATOM     25  C   UNL A   1      34.536  23.530  24.638  1.00  0.00     0.045 A 
ATOM     26  C   UNL A   1      35.255  23.771  25.821  1.00  0.00     0.026 A 
ATOM     27  C   UNL A   1      35.265  23.055  23.537  1.00  0.00     0.026 A 
ATOM     28  C   UNL A   1      36.637  23.563  25.899  1.00  0.00     0.002 A 
ATOM     29  C   UNL A   1      36.651  22.857  23.608  1.00  0.00     0.002 A 
ATOM     30  C   UNL A   1      37.336  23.110  24.790  1.00  0.00     0.000 A 
ENDBRANCH  16  25
ENDBRANCH   7  12
ENDBRANCH   3   6
ENDBRANCH   1   2
BRANCH   1  31
ATOM     31  C   UNL A   1      31.410  31.854  26.893  1.00  0.00     0.042 C 
BRANCH  31  32
ATOM     32  C   UNL A   1      32.708  32.655  27.008  1.00  0.00     0.118 C 
BRANCH  32  33
ATOM     33  N   UNL A   1      32.480  34.017  27.456  1.00  0.00    -0.352 N 
ATOM     34  C   UNL A   1      33.060  34.694  28.503  1.00  0.00     0.251 C 
ATOM     35  H   UNL A   1      31.816  34.528  26.939  1.00  0.00     0.163 HD
ATOM     36  O   UNL A   1      32.616  35.789  28.839  1.00  0.00    -0.269 OA
BRANCH  34  37
ATOM     37  C   UNL A   1      34.205  34.117  29.248  1.00  0.00     0.039 A 
ATOM     38  C   UNL A   1      35.500  34.439  28.827  1.00  0.00     0.014 A 
ATOM     39  C   UNL A   1      34.021  33.207  30.294  1.00  0.00     0.014 A 
ATOM     40  C   UNL A   1      36.610  33.880  29.470  1.00  0.00     0.010 A 
ATOM     41  C   UNL A   1      35.131  32.664  30.951  1.00  0.00     0.010 A 
ATOM     42  C   UNL A   1      36.432  32.991  30.539  1.00  0.00    -0.014 A 
BRANCH  42  43
ATOM     43  C   UNL A   1      37.599  32.372  31.212  1.00  0.00     0.031 A 
ATOM     44  C   UNL A   1      38.380  31.290  30.525  1.00  0.00     0.074 A 
ATOM     45  C   UNL A   1      37.944  32.759  32.454  1.00  0.00     0.049 A 
ATOM     46  N   UNL A   1      39.371  30.566  30.984  1.00  0.00    -0.248 NA
ATOM     47  C   UNL A   1      37.989  30.970  29.144  1.00  0.00     0.031 C 
ATOM     48  C   UNL A   1      37.267  33.791  33.237  1.00  0.00     0.029 A 
ATOM     49  N   UNL A   1      38.950  32.318  33.276  1.00  0.00    -0.354 N 
ATOM     50  C   UNL A   1      39.699  29.685  29.964  1.00  0.00     0.074 A 
ATOM     51  C   UNL A   1      38.812  29.971  28.855  1.00  0.00     0.031 C 
ATOM     52  C   UNL A   1      37.881  33.908  34.428  1.00  0.00     0.029 A 
ATOM     53  C   UNL A   1      38.980  32.948  34.494  1.00  0.00     0.049 A 
ATOM     54  H   UNL A   1      39.590  31.616  33.017  1.00  0.00     0.167 HD
ATOM     55  C   UNL A   1      40.649  28.720  29.955  1.00  0.00     0.037 A 
ATOM     56  C   UNL A   1      39.799  32.767  35.547  1.00  0.00     0.037 A 
ATOM     57  C   UNL A   1      41.560  28.447  31.033  1.00  0.00     0.049 A 
ATOM     58  C   UNL A   1      40.884  31.731  35.488  1.00  0.00     0.074 A 
ATOM     59  C   UNL A   1      42.559  27.491  31.102  1.00  0.00     0.029 A 
ATOM     60  N   UNL A   1      41.590  29.144  32.229  1.00  0.00    -0.354 N 
ATOM     61  N   UNL A   1      41.172  30.895  34.524  1.00  0.00    -0.248 NA
ATOM     62  C   UNL A   1      41.755  31.615  36.668  1.00  0.00     0.031 C 
ATOM     63  C   UNL A   1      43.195  27.610  32.344  1.00  0.00     0.029 A 
ATOM     64  C   UNL A   1      42.595  28.645  33.041  1.00  0.00     0.049 A 
ATOM     65  H   UNL A   1      40.986  29.885  32.467  1.00  0.00     0.167 HD
ATOM     66  C   UNL A   1      42.253  30.153  34.976  1.00  0.00     0.074 A 
ATOM     67  C   UNL A   1      42.579  30.644  36.299  1.00  0.00     0.031 C 
ATOM     68  C   UNL A   1      42.911  29.149  34.350  1.00  0.00     0.037 A 
BRANCH  55  69
ATOM     69  C   UNL A   1      40.740  27.870  28.730  1.00  0.00     0.064 A 
ATOM     70  C   UNL A   1      41.582  28.217  27.666  1.00  0.00     0.173 A 
ATOM     71  C   UNL A   1      40.002  26.682  28.636  1.00  0.00     0.173 A 
ATOM     72  F   UNL A   1      42.296  29.352  27.712  1.00  0.00    -0.203 F 
ATOM     73  C   UNL A   1      41.678  27.404  26.541  1.00  0.00     0.198 A 
ATOM     74  C   UNL A   1      40.105  25.868  27.513  1.00  0.00     0.198 A 
ATOM     75  F   UNL A   1      39.181  26.317  29.632  1.00  0.00    -0.203 F 
ATOM     76  F   UNL A   1      42.476  27.758  25.524  1.00  0.00    -0.200 F 
ATOM     77  C   UNL A   1      40.942  26.229  26.467  1.00  0.00     0.200 A 
ATOM     78  F   UNL A   1      39.393  24.735  27.440  1.00  0.00    -0.200 F 
ATOM     79  F   UNL A   1      41.034  25.447  25.382  1.00  0.00    -0.200 F 
ENDBRANCH  55  69
BRANCH  56  80
ATOM     80  C   UNL A   1      39.621  33.598  36.758  1.00  0.00     0.064 A 
ATOM     81  C   UNL A   1      40.282  34.826  36.884  1.00  0.00     0.173 A 
ATOM     82  C   UNL A   1      38.783  33.185  37.801  1.00  0.00     0.173 A 
ATOM     83  F   UNL A   1      41.106  35.246  35.913  1.00  0.00    -0.203 F 
ATOM     84  C   UNL A   1      40.112  35.615  38.018  1.00  0.00     0.198 A 
ATOM     85  C   UNL A   1      38.608  33.979  38.932  1.00  0.00     0.198 A 
ATOM     86  F   UNL A   1      38.138  32.013  37.719  1.00  0.00    -0.203 F 
ATOM     87  F   UNL A   1      40.763  36.781  38.124  1.00  0.00    -0.200 F 
ATOM     88  C   UNL A   1      39.273  35.193  39.040  1.00  0.00     0.200 A 
ATOM     89  F   UNL A   1      37.797  33.570  39.917  1.00  0.00    -0.200 F 
ATOM     90  F   UNL A   1      39.108  35.953  40.130  1.00  0.00    -0.200 F 
ENDBRANCH  56  80
BRANCH  68  91
ATOM     91  C   UNL A   1      44.048  28.518  35.086  1.00  0.00     0.064 A 
ATOM     92  C   UNL A   1      43.843  27.407  35.914  1.00  0.00     0.173 A 
ATOM     93  C   UNL A   1      45.354  29.004  34.934  1.00  0.00     0.173 A 
ATOM     94  F   UNL A   1      42.606  26.920  36.095  1.00  0.00    -0.203 F 
ATOM     95  C   UNL A   1      44.910  26.804  36.573  1.00  0.00     0.198 A 
ATOM     96  C   UNL A   1      46.420  28.396  35.591  1.00  0.00     0.198 A 
ATOM     97  F   UNL A   1      45.592  30.071  34.156  1.00  0.00    -0.203 F 
ATOM     98  F   UNL A   1      44.694  25.751  37.373  1.00  0.00    -0.200 F 
ATOM     99  C   UNL A   1      46.197  27.297  36.408  1.00  0.00     0.200 A 
ATOM    100  F   UNL A   1      47.662  28.875  35.438  1.00  0.00    -0.200 F 
ATOM    101  F   UNL A   1      47.223  26.717  37.046  1.00  0.00    -0.200 F 
ENDBRANCH  68  91
ENDBRANCH  42  43
ENDBRANCH  34  37
ENDBRANCH  32  33
ENDBRANCH  31  32
ENDBRANCH   1  31
TORSDOF 15
ENDMDL
MODEL 2
REMARK VINA RESULT:     -12.7      0.321      2.015
REMARK SMILES CCOC(=O)[C@@]1(C)C/C(=N/c2cccc(C(=O)NCCCNC(=O)c3ccc(-c4c5nc(c(-c6c(F)c(F)c(F)c(F)c6F)c6ccc([nH]6)c(-c6c(F)c(F)c(F)c(F)c6F)c6nc(c(-c7c(F)c(F)c(F)c(F)c7F)c7ccc4[nH]7)C=C6)C=C5)cc3)c2)C(=O)N1c1ccccc1
REMARK SMILES IDX 19 1 18 2 16 3 17 4 15 6 11 7 12 8 88 9 13 10 14 11 10 12
REMARK SMILES IDX 6 13 7 14 8 15 91 16 9 17 89 18 90 19 4 20 5 21 3 22 2 23
REMARK SMILES IDX 1 24 92 25 93 26 97 27 94 28 96 29 95 30 20 31 21 32 22 33
REMARK SMILES IDX 23 34 24 36 25 37 26 38 87 39 27 40 86 41 28 42 29 43 30 44
REMARK SMILES IDX 80 45 31 46 85 47 79 48 81 49 32 50 84 51 78 52 77 53 33 55
REMARK SMILES IDX 65 56 45 57 64 58 46 59 49 60 63 61 82 62 47 63 48 64 62 66
REMARK SMILES IDX 83 67 50 68 34 69 35 70 43 71 36 72 37 73 41 74 44 75 38 76
REMARK SMILES IDX 39 77 42 78 40 79 66 80 67 81 75 82 68 83 69 84 73 85 76 86
REMARK SMILES IDX 70 87 71 88 74 89 72 90 51 91 52 92 60 93 53 94 54 95 58 96
REMARK SMILES IDX 61 97 55 98 56 99 59 100 57 101
REMARK H PARENT 18 5 22 35 81 54 49 65
REMARK Flexibility Score: inf
ROOT
ATOM      1  C   UNL A   1      31.166  30.990  25.487  1.00  0.00     0.118 C 
ENDROOT
BRANCH   1   2
ATOM      2  N   UNL A   1      30.008  31.187  24.624  1.00  0.00    -0.352 N 
ATOM      3  C   UNL A   1      29.443  30.360  23.682  1.00  0.00     0.251 C 
ATOM      4  O   UNL A   1      28.343  30.654  23.216  1.00  0.00    -0.269 OA
ATOM      5  H   UNL A   1      29.556  32.054  24.734  1.00  0.00     0.163 HD
BRANCH   3   6
ATOM      6  C   UNL A   1      30.109  29.114  23.235  1.00  0.00     0.041 A 
ATOM      7  C   UNL A   1      30.454  26.717  23.374  1.00  0.00     0.064 A 
ATOM      8  C   UNL A   1      31.408  26.798  22.360  1.00  0.00     0.028 A 
ATOM      9  C   UNL A   1      29.854  27.888  23.847  1.00  0.00     0.042 A 
ATOM     10  C   UNL A   1      31.721  28.032  21.786  1.00  0.00     0.003 A 
ATOM     11  C   UNL A   1      31.067  29.189  22.217  1.00  0.00     0.014 A 
BRANCH   7  12
ATOM     12  N   UNL A   1      30.106  25.482  23.938  1.00  0.00    -0.248 NA
ATOM     13  C   UNL A   1      32.133  22.660  24.495  1.00  0.00     0.148 C 
ATOM     14  C   UNL A   1      32.019  22.113  23.056  1.00  0.00     0.048 C 
ATOM     15  C   UNL A   1      30.794  23.337  24.869  1.00  0.00     0.103 C 
ATOM     16  N   UNL A   1      33.145  23.739  24.558  1.00  0.00    -0.290 N 
ATOM     17  C   UNL A   1      31.053  24.726  24.406  1.00  0.00     0.109 C 
ATOM     18  C   UNL A   1      32.539  24.992  24.485  1.00  0.00     0.273 C 
ATOM     19  O   UNL A   1      33.015  26.107  24.455  1.00  0.00    -0.267 OA
BRANCH  13  20
ATOM     20  C   UNL A   1      32.333  21.576  25.577  1.00  0.00     0.332 C 
ATOM     21  O   UNL A   1      32.606  21.811  26.747  1.00  0.00    -0.249 OA
BRANCH  20  22
ATOM     22  O   UNL A   1      32.064  20.337  25.079  1.00  0.00    -0.464 OA
BRANCH  22  23
ATOM     23  C   UNL A   1      33.018  19.303  25.367  1.00  0.00     0.229 C 
ATOM     24  C   UNL A   1      34.306  19.595  24.625  1.00  0.00     0.049 C 
ENDBRANCH  22  23
ENDBRANCH  20  22
ENDBRANCH  13  20
BRANCH  16  25
ATOM     25  C   UNL A   1      34.559  23.534  24.624  1.00  0.00     0.045 A 
ATOM     26  C   UNL A   1      35.273  23.058  23.511  1.00  0.00     0.026 A 
ATOM     27  C   UNL A   1      35.298  23.797  25.787  1.00  0.00     0.026 A 
ATOM     28  C   UNL A   1      36.655  22.841  23.559  1.00  0.00     0.002 A 
ATOM     29  C   UNL A   1      36.680  23.569  25.843  1.00  0.00     0.002 A 
ATOM     30  C   UNL A   1      37.358  23.092  24.728  1.00  0.00     0.000 A 
ENDBRANCH  16  25
ENDBRANCH   7  12
ENDBRANCH   3   6
ENDBRANCH   1   2
BRANCH   1  31
ATOM     31  C   UNL A   1      31.192  31.963  26.668  1.00  0.00     0.042 C 
BRANCH  31  32
ATOM     32  C   UNL A   1      32.536  32.660  26.882  1.00  0.00     0.118 C 
BRANCH  32  33
ATOM     33  N   UNL A   1      32.386  34.001  27.419  1.00  0.00    -0.352 N 
ATOM     34  C   UNL A   1      33.069  34.604  28.448  1.00  0.00     0.251 C 
ATOM     35  H   UNL A   1      31.698  34.556  26.986  1.00  0.00     0.163 HD
ATOM     36  O   UNL A   1      32.687  35.689  28.878  1.00  0.00    -0.269 OA
BRANCH  34  37
ATOM     37  C   UNL A   1      34.253  33.958  29.065  1.00  0.00     0.039 A 
ATOM     38  C   UNL A   1      34.040  32.922  29.982  1.00  0.00     0.014 A 
ATOM     39  C   UNL A   1      35.554  34.409  28.817  1.00  0.00     0.014 A 
ATOM     40  C   UNL A   1      35.124  32.316  30.625  1.00  0.00     0.010 A 
ATOM     41  C   UNL A   1      36.640  33.789  29.443  1.00  0.00     0.010 A 
ATOM     42  C   UNL A   1      36.432  32.743  30.357  1.00  0.00    -0.014 A 
BRANCH  42  43
ATOM     43  C   UNL A   1      37.589  32.126  31.050  1.00  0.00     0.031 A 
ATOM     44  C   UNL A   1      38.421  31.089  30.353  1.00  0.00     0.074 A 
ATOM     45  C   UNL A   1      37.877  32.473  32.318  1.00  0.00     0.049 A 
ATOM     46  N   UNL A   1      39.412  30.372  30.821  1.00  0.00    -0.248 NA
ATOM     47  C   UNL A   1      38.088  30.813  28.947  1.00  0.00     0.031 C 
ATOM     48  C   UNL A   1      37.147  33.458  33.113  1.00  0.00     0.029 A 
ATOM     49  N   UNL A   1      38.864  32.024  33.160  1.00  0.00    -0.354 N 
ATOM     50  C   UNL A   1      39.799  29.539  29.782  1.00  0.00     0.074 A 
ATOM     51  C   UNL A   1      38.947  29.846  28.653  1.00  0.00     0.031 C 
ATOM     52  C   UNL A   1      37.714  33.543  34.329  1.00  0.00     0.029 A 
ATOM     53  C   UNL A   1      38.833  32.608  34.401  1.00  0.00     0.049 A 
ATOM     54  H   UNL A   1      39.530  31.348  32.899  1.00  0.00     0.167 HD
ATOM     55  C   UNL A   1      40.773  28.597  29.773  1.00  0.00     0.037 A 
ATOM     56  C   UNL A   1      39.617  32.405  35.477  1.00  0.00     0.037 A 
ATOM     57  C   UNL A   1      41.649  28.304  30.873  1.00  0.00     0.049 A 
ATOM     58  C   UNL A   1      40.729  31.399  35.420  1.00  0.00     0.074 A 
ATOM     59  C   UNL A   1      42.669  27.370  30.945  1.00  0.00     0.029 A 
ATOM     60  N   UNL A   1      41.618  28.955  32.096  1.00  0.00    -0.354 N 
ATOM     61  N   UNL A   1      41.073  30.607  34.437  1.00  0.00    -0.248 NA
ATOM     62  C   UNL A   1      41.558  31.257  36.627  1.00  0.00     0.031 C 
ATOM     63  C   UNL A   1      43.256  27.456  32.213  1.00  0.00     0.029 A 
ATOM     64  C   UNL A   1      42.604  28.449  32.925  1.00  0.00     0.049 A 
ATOM     65  H   UNL A   1      40.988  29.672  32.338  1.00  0.00     0.167 HD
ATOM     66  C   UNL A   1      42.155  29.873  34.901  1.00  0.00     0.074 A 
ATOM     67  C   UNL A   1      42.419  30.321  36.253  1.00  0.00     0.031 C 
ATOM     68  C   UNL A   1      42.859  28.909  34.263  1.00  0.00     0.037 A 
BRANCH  55  69
ATOM     69  C   UNL A   1      40.929  27.797  28.521  1.00  0.00     0.064 A 
ATOM     70  C   UNL A   1      40.201  26.618  28.317  1.00  0.00     0.173 A 
ATOM     71  C   UNL A   1      41.790  28.233  27.505  1.00  0.00     0.173 A 
ATOM     72  F   UNL A   1      39.375  26.161  29.271  1.00  0.00    -0.203 F 
ATOM     73  C   UNL A   1      40.336  25.895  27.136  1.00  0.00     0.198 A 
ATOM     74  C   UNL A   1      41.918  27.512  26.322  1.00  0.00     0.198 A 
ATOM     75  F   UNL A   1      42.508  29.355  27.663  1.00  0.00    -0.203 F 
ATOM     76  F   UNL A   1      39.644  24.760  26.962  1.00  0.00    -0.200 F 
ATOM     77  C   UNL A   1      41.191  26.344  26.139  1.00  0.00     0.200 A 
ATOM     78  F   UNL A   1      42.745  27.943  25.361  1.00  0.00    -0.200 F 
ATOM     79  F   UNL A   1      41.321  25.646  25.002  1.00  0.00    -0.200 F 
ENDBRANCH  55  69
BRANCH  56  80
ATOM     80  C   UNL A   1      39.374  33.185  36.710  1.00  0.00     0.064 A 
ATOM     81  C   UNL A   1      38.479  32.724  37.682  1.00  0.00     0.173 A 
ATOM     82  C   UNL A   1      40.038  34.397  36.941  1.00  0.00     0.173 A 
ATOM     83  F   UNL A   1      37.812  31.577  37.488  1.00  0.00    -0.203 F 
ATOM     84  C   UNL A   1      38.254  33.451  38.848  1.00  0.00     0.198 A 
ATOM     85  C   UNL A   1      39.818  35.120  38.110  1.00  0.00     0.198 A 
ATOM     86  F   UNL A   1      40.899  34.874  36.030  1.00  0.00    -0.203 F 
ATOM     87  F   UNL A   1      37.384  32.998  39.760  1.00  0.00    -0.200 F 
ATOM     88  C   UNL A   1      38.925  34.646  39.063  1.00  0.00     0.200 A 
ATOM     89  F   UNL A   1      40.467  36.273  38.317  1.00  0.00    -0.200 F 
ATOM     90  F   UNL A   1      38.709  35.345  40.185  1.00  0.00    -0.200 F 
ENDBRANCH  56  80
BRANCH  68  91
ATOM     91  C   UNL A   1      43.985  28.278  35.017  1.00  0.00     0.064 A 
ATOM     92  C   UNL A   1      45.272  28.830  34.985  1.00  0.00     0.173 A 
ATOM     93  C   UNL A   1      43.767  27.139  35.803  1.00  0.00     0.173 A 
ATOM     94  F   UNL A   1      45.523  29.914  34.235  1.00  0.00    -0.203 F 
ATOM     95  C   UNL A   1      46.310  28.257  35.714  1.00  0.00     0.198 A 
ATOM     96  C   UNL A   1      44.806  26.570  36.534  1.00  0.00     0.198 A 
ATOM     97  F   UNL A   1      42.551  26.575  35.855  1.00  0.00    -0.203 F 
ATOM     98  F   UNL A   1      47.539  28.789  35.661  1.00  0.00    -0.200 F 
ATOM     99  C   UNL A   1      46.076  27.130  36.490  1.00  0.00     0.200 A 
ATOM    100  F   UNL A   1      44.582  25.478  37.278  1.00  0.00    -0.200 F 
ATOM    101  F   UNL A   1      47.077  26.577  37.188  1.00  0.00    -0.200 F 
ENDBRANCH  68  91
ENDBRANCH  42  43
ENDBRANCH  34  37
ENDBRANCH  32  33
ENDBRANCH  31  32
ENDBRANCH   1  31
TORSDOF 15
ENDMDL
MODEL 3
REMARK VINA RESULT:     -12.6      5.042     10.938
REMARK SMILES CCOC(=O)[C@@]1(C)C/C(=N/c2cccc(C(=O)NCCCNC(=O)c3ccc(-c4c5nc(c(-c6c(F)c(F)c(F)c(F)c6F)c6ccc([nH]6)c(-c6c(F)c(F)c(F)c(F)c6F)c6nc(c(-c7c(F)c(F)c(F)c(F)c7F)c7ccc4[nH]7)C=C6)C=C5)cc3)c2)C(=O)N1c1ccccc1
REMARK SMILES IDX 19 1 18 2 16 3 17 4 15 6 11 7 12 8 88 9 13 10 14 11 10 12
REMARK SMILES IDX 6 13 7 14 8 15 91 16 9 17 89 18 90 19 4 20 5 21 3 22 2 23
REMARK SMILES IDX 1 24 92 25 93 26 97 27 94 28 96 29 95 30 20 31 21 32 22 33
REMARK SMILES IDX 23 34 24 36 25 37 26 38 87 39 27 40 86 41 28 42 29 43 30 44
REMARK SMILES IDX 80 45 31 46 85 47 79 48 81 49 32 50 84 51 78 52 77 53 33 55
REMARK SMILES IDX 65 56 45 57 64 58 46 59 49 60 63 61 82 62 47 63 48 64 62 66
REMARK SMILES IDX 83 67 50 68 34 69 35 70 43 71 36 72 37 73 41 74 44 75 38 76
REMARK SMILES IDX 39 77 42 78 40 79 66 80 67 81 75 82 68 83 69 84 73 85 76 86
REMARK SMILES IDX 70 87 71 88 74 89 72 90 51 91 52 92 60 93 53 94 54 95 58 96
REMARK SMILES IDX 61 97 55 98 56 99 59 100 57 101
REMARK H PARENT 18 5 22 35 81 54 49 65
REMARK Flexibility Score: inf
ROOT
ATOM      1  C   UNL A   1      36.688  20.295  25.000  1.00  0.00     0.118 C 
ENDROOT
BRANCH   1   2
ATOM      2  N   UNL A   1      35.748  19.215  24.733  1.00  0.00    -0.352 N 
ATOM      3  C   UNL A   1      34.373  19.211  24.702  1.00  0.00     0.251 C 
ATOM      4  O   UNL A   1      33.791  18.225  24.254  1.00  0.00    -0.269 OA
ATOM      5  H   UNL A   1      36.165  18.344  24.543  1.00  0.00     0.163 HD
BRANCH   3   6
ATOM      6  C   UNL A   1      33.578  20.371  25.168  1.00  0.00     0.041 A 
ATOM      7  C   UNL A   1      32.111  22.255  24.742  1.00  0.00     0.064 A 
ATOM      8  C   UNL A   1      32.105  22.556  26.104  1.00  0.00     0.028 A 
ATOM      9  C   UNL A   1      32.898  21.199  24.276  1.00  0.00     0.042 A 
ATOM     10  C   UNL A   1      32.838  21.775  27.000  1.00  0.00     0.003 A 
ATOM     11  C   UNL A   1      33.568  20.678  26.534  1.00  0.00     0.014 A 
BRANCH   7  12
ATOM     12  N   UNL A   1      31.355  23.011  23.835  1.00  0.00    -0.248 NA
ATOM     13  C   UNL A   1      30.532  26.430  23.958  1.00  0.00     0.148 C 
ATOM     14  C   UNL A   1      29.335  26.256  24.917  1.00  0.00     0.048 C 
ATOM     15  C   UNL A   1      30.606  25.189  23.038  1.00  0.00     0.103 C 
ATOM     16  N   UNL A   1      31.804  26.428  24.716  1.00  0.00    -0.290 N 
ATOM     17  C   UNL A   1      31.485  24.303  23.847  1.00  0.00     0.109 C 
ATOM     18  C   UNL A   1      32.394  25.166  24.692  1.00  0.00     0.273 C 
ATOM     19  O   UNL A   1      33.400  24.746  25.224  1.00  0.00    -0.267 OA
BRANCH  13  20
ATOM     20  C   UNL A   1      30.405  27.624  22.987  1.00  0.00     0.332 C 
ATOM     21  O   UNL A   1      30.840  27.631  21.842  1.00  0.00    -0.249 OA
BRANCH  20  22
ATOM     22  O   UNL A   1      29.657  28.621  23.536  1.00  0.00    -0.464 OA
BRANCH  22  23
ATOM     23  C   UNL A   1      28.709  29.269  22.674  1.00  0.00     0.229 C 
ATOM     24  C   UNL A   1      27.306  28.916  23.124  1.00  0.00     0.049 C 
ENDBRANCH  22  23
ENDBRANCH  20  22
ENDBRANCH  13  20
BRANCH  16  25
ATOM     25  C   UNL A   1      32.334  27.549  25.431  1.00  0.00     0.045 A 
ATOM     26  C   UNL A   1      31.662  28.078  26.546  1.00  0.00     0.026 A 
ATOM     27  C   UNL A   1      33.538  28.168  25.062  1.00  0.00     0.026 A 
ATOM     28  C   UNL A   1      32.159  29.180  27.251  1.00  0.00     0.002 A 
ATOM     29  C   UNL A   1      34.032  29.280  25.758  1.00  0.00     0.002 A 
ATOM     30  C   UNL A   1      33.343  29.784  26.853  1.00  0.00     0.000 A 
ENDBRANCH  16  25
ENDBRANCH   7  12
ENDBRANCH   3   6
ENDBRANCH   1   2
BRANCH   1  31
ATOM     31  C   UNL A   1      38.142  19.884  24.758  1.00  0.00     0.042 C 
BRANCH  31  32
ATOM     32  C   UNL A   1      39.065  20.086  25.960  1.00  0.00     0.118 C 
BRANCH  32  33
ATOM     33  N   UNL A   1      40.139  19.111  26.005  1.00  0.00    -0.352 N 
ATOM     34  C   UNL A   1      41.494  19.317  26.112  1.00  0.00     0.251 C 
ATOM     35  H   UNL A   1      39.859  18.168  25.950  1.00  0.00     0.163 HD
ATOM     36  O   UNL A   1      42.266  18.375  25.961  1.00  0.00    -0.269 OA
BRANCH  34  37
ATOM     37  C   UNL A   1      42.044  20.667  26.389  1.00  0.00     0.039 A 
ATOM     38  C   UNL A   1      42.259  21.034  27.723  1.00  0.00     0.014 A 
ATOM     39  C   UNL A   1      42.271  21.595  25.368  1.00  0.00     0.014 A 
ATOM     40  C   UNL A   1      42.731  22.313  28.034  1.00  0.00     0.010 A 
ATOM     41  C   UNL A   1      42.763  22.868  25.677  1.00  0.00     0.010 A 
ATOM     42  C   UNL A   1      42.989  23.238  27.013  1.00  0.00    -0.014 A 
BRANCH  42  43
ATOM     43  C   UNL A   1      43.466  24.606  27.331  1.00  0.00     0.031 A 
ATOM     44  C   UNL A   1      42.522  25.616  27.915  1.00  0.00     0.074 A 
ATOM     45  C   UNL A   1      44.739  24.953  27.069  1.00  0.00     0.049 A 
ATOM     46  N   UNL A   1      42.725  26.884  28.176  1.00  0.00    -0.248 NA
ATOM     47  C   UNL A   1      41.167  25.143  28.239  1.00  0.00     0.031 C 
ATOM     48  C   UNL A   1      45.755  24.073  26.496  1.00  0.00     0.029 A 
ATOM     49  N   UNL A   1      45.389  26.149  27.247  1.00  0.00    -0.354 N 
ATOM     50  C   UNL A   1      41.519  27.367  28.660  1.00  0.00     0.074 A 
ATOM     51  C   UNL A   1      40.590  26.256  28.672  1.00  0.00     0.031 C 
ATOM     52  C   UNL A   1      46.906  24.759  26.373  1.00  0.00     0.029 A 
ATOM     53  C   UNL A   1      46.700  26.126  26.843  1.00  0.00     0.049 A 
ATOM     54  H   UNL A   1      44.957  26.946  27.629  1.00  0.00     0.167 HD
ATOM     55  C   UNL A   1      41.211  28.626  29.055  1.00  0.00     0.037 A 
ATOM     56  C   UNL A   1      47.627  27.102  26.845  1.00  0.00     0.037 A 
ATOM     57  C   UNL A   1      42.130  29.731  29.082  1.00  0.00     0.049 A 
ATOM     58  C   UNL A   1      47.277  28.473  27.345  1.00  0.00     0.074 A 
ATOM     59  C   UNL A   1      41.901  31.039  29.475  1.00  0.00     0.029 A 
ATOM     60  N   UNL A   1      43.463  29.653  28.713  1.00  0.00    -0.354 N 
ATOM     61  N   UNL A   1      46.129  28.920  27.785  1.00  0.00    -0.248 NA
ATOM     62  C   UNL A   1      48.354  29.475  27.342  1.00  0.00     0.031 C 
ATOM     63  C   UNL A   1      43.098  31.754  29.342  1.00  0.00     0.029 A 
ATOM     64  C   UNL A   1      44.071  30.886  28.874  1.00  0.00     0.049 A 
ATOM     65  H   UNL A   1      43.911  28.839  28.384  1.00  0.00     0.167 HD
ATOM     66  C   UNL A   1      46.340  30.251  28.112  1.00  0.00     0.074 A 
ATOM     67  C   UNL A   1      47.731  30.540  27.829  1.00  0.00     0.031 C 
ATOM     68  C   UNL A   1      45.456  31.154  28.596  1.00  0.00     0.037 A 
BRANCH  55  69
ATOM     69  C   UNL A   1      39.801  28.878  29.478  1.00  0.00     0.064 A 
ATOM     70  C   UNL A   1      39.406  28.729  30.813  1.00  0.00     0.173 A 
ATOM     71  C   UNL A   1      38.846  29.303  28.544  1.00  0.00     0.173 A 
ATOM     72  F   UNL A   1      40.287  28.313  31.735  1.00  0.00    -0.203 F 
ATOM     73  C   UNL A   1      38.095  28.992  31.200  1.00  0.00     0.198 A 
ATOM     74  C   UNL A   1      37.538  29.572  28.935  1.00  0.00     0.198 A 
ATOM     75  F   UNL A   1      39.184  29.454  27.255  1.00  0.00    -0.203 F 
ATOM     76  F   UNL A   1      37.729  28.829  32.479  1.00  0.00    -0.200 F 
ATOM     77  C   UNL A   1      37.164  29.415  30.262  1.00  0.00     0.200 A 
ATOM     78  F   UNL A   1      36.639  29.978  28.028  1.00  0.00    -0.200 F 
ATOM     79  F   UNL A   1      35.902  29.667  30.635  1.00  0.00    -0.200 F 
ENDBRANCH  55  69
BRANCH  56  80
ATOM     80  C   UNL A   1      48.992  26.808  26.356  1.00  0.00     0.064 A 
ATOM     81  C   UNL A   1      49.973  26.321  27.228  1.00  0.00     0.173 A 
ATOM     82  C   UNL A   1      49.335  27.000  25.012  1.00  0.00     0.173 A 
ATOM     83  F   UNL A   1      49.687  26.141  28.526  1.00  0.00    -0.203 F 
ATOM     84  C   UNL A   1      51.257  26.036  26.770  1.00  0.00     0.198 A 
ATOM     85  C   UNL A   1      50.617  26.708  24.554  1.00  0.00     0.198 A 
ATOM     86  F   UNL A   1      48.424  27.470  24.148  1.00  0.00    -0.203 F 
ATOM     87  F   UNL A   1      52.185  25.582  27.624  1.00  0.00    -0.200 F 
ATOM     88  C   UNL A   1      51.577  26.227  25.434  1.00  0.00     0.200 A 
ATOM     89  F   UNL A   1      50.925  26.892  23.263  1.00  0.00    -0.200 F 
ATOM     90  F   UNL A   1      52.812  25.951  24.994  1.00  0.00    -0.200 F 
ENDBRANCH  56  80
BRANCH  68  91
ATOM     91  C   UNL A   1      45.966  32.535  28.854  1.00  0.00     0.064 A 
ATOM     92  C   UNL A   1      45.911  33.521  27.860  1.00  0.00     0.173 A 
ATOM     93  C   UNL A   1      46.477  32.884  30.111  1.00  0.00     0.173 A 
ATOM     94  F   UNL A   1      45.440  33.222  26.640  1.00  0.00    -0.203 F 
ATOM     95  C   UNL A   1      46.358  34.814  28.115  1.00  0.00     0.198 A 
ATOM     96  C   UNL A   1      46.920  34.179  30.364  1.00  0.00     0.198 A 
ATOM     97  F   UNL A   1      46.553  31.968  31.088  1.00  0.00    -0.203 F 
ATOM     98  F   UNL A   1      46.313  35.740  27.148  1.00  0.00    -0.200 F 
ATOM     99  C   UNL A   1      46.859  35.142  29.367  1.00  0.00     0.200 A 
ATOM    100  F   UNL A   1      47.409  34.496  31.571  1.00  0.00    -0.200 F 
ATOM    101  F   UNL A   1      47.292  36.387  29.610  1.00  0.00    -0.200 F 
ENDBRANCH  68  91
ENDBRANCH  42  43
ENDBRANCH  34  37
ENDBRANCH  32  33
ENDBRANCH  31  32
ENDBRANCH   1  31
TORSDOF 15
ENDMDL
