MODEL 1
REMARK VINA RESULT:     -12.7      0.000      0.000
REMARK SMILES C[C@@H]1[C@H](C(=O)NCCCNC(=O)c2ccc(-c3c4nc(c(-c5c(F)c(F)c(F)c(F)c5F)c5ccc([nH]5)c(-c5c(F)c(F)c(F)c(F)c5F)c5nc(c(-c6c(F)c(F)c(F)c(F)c6F)c6ccc3[nH]6)C=C5)C=C4)cc2)CCN1c1ccc(C(F)(F)F)cc1
REMARK SMILES IDX 8 1 7 2 6 3 4 4 5 5 3 7 1 8 2 9 78 10 76 11 77 12 79 13
REMARK SMILES IDX 80 14 88 15 81 16 87 17 82 18 83 19 84 20 85 21 86 22 9 23
REMARK SMILES IDX 10 24 11 25 12 27 13 28 14 29 75 30 15 31 74 32 16 33 17 34
REMARK SMILES IDX 18 35 68 36 19 37 73 38 67 39 69 40 20 41 72 42 66 43 65 44
REMARK SMILES IDX 21 46 53 47 33 48 52 49 34 50 37 51 51 52 70 53 35 54 36 55
REMARK SMILES IDX 50 57 71 58 38 59 22 60 23 61 31 62 24 63 25 64 29 65 32 66
REMARK SMILES IDX 26 67 27 68 30 69 28 70 54 71 55 72 63 73 56 74 57 75 61 76
REMARK SMILES IDX 64 77 58 78 59 79 62 80 60 81 39 82 40 83 48 84 41 85 42 86
REMARK SMILES IDX 46 87 49 88 43 89 44 90 47 91 45 92
REMARK H PARENT 6 6 10 26 69 45 37 56
REMARK Flexibility Score: inf
ROOT
ATOM      1  C   UNL A   1      32.647  27.957  25.514  1.00  0.00     0.042 C 
ENDROOT
BRANCH   1   2
ATOM      2  C   UNL A   1      33.164  26.684  24.846  1.00  0.00     0.117 C 
BRANCH   2   3
ATOM      3  N   UNL A   1      33.493  26.888  23.444  1.00  0.00    -0.356 N 
ATOM      4  C   UNL A   1      33.260  26.159  22.326  1.00  0.00     0.225 C 
ATOM      5  O   UNL A   1      33.755  26.595  21.279  1.00  0.00    -0.275 OA
ATOM      6  H   UNL A   1      33.983  27.725  23.273  1.00  0.00     0.163 HD
BRANCH   4   7
ATOM      7  C   UNL A   1      32.452  24.876  22.287  1.00  0.00     0.102 C 
ATOM      8  C   UNL A   1      34.593  23.617  23.123  1.00  0.00     0.032 C 
ATOM      9  C   UNL A   1      33.172  23.544  22.593  1.00  0.00     0.091 C 
ATOM     10  N   UNL A   1      32.255  22.856  23.530  1.00  0.00    -0.368 N 
ATOM     11  C   UNL A   1      31.161  24.884  23.108  1.00  0.00     0.037 C 
ATOM     12  C   UNL A   1      30.911  23.415  23.411  1.00  0.00     0.118 C 
BRANCH  10  13
ATOM     13  C   UNL A   1      32.414  21.498  23.752  1.00  0.00     0.037 A 
ATOM     14  C   UNL A   1      32.170  20.533  22.768  1.00  0.00     0.026 A 
ATOM     15  C   UNL A   1      32.850  21.048  25.004  1.00  0.00     0.026 A 
ATOM     16  C   UNL A   1      32.359  19.169  23.025  1.00  0.00     0.015 A 
ATOM     17  C   UNL A   1      33.044  19.688  25.271  1.00  0.00     0.015 A 
ATOM     18  C   UNL A   1      32.802  18.732  24.280  1.00  0.00     0.056 A 
BRANCH  18  19
ATOM     19  C   UNL A   1      32.997  17.261  24.546  1.00  0.00     0.416 C 
ATOM     20  F   UNL A   1      32.041  16.749  25.370  1.00  0.00    -0.166 F 
ATOM     21  F   UNL A   1      32.950  16.513  23.409  1.00  0.00    -0.166 F 
ATOM     22  F   UNL A   1      34.192  16.966  25.135  1.00  0.00    -0.166 F 
ENDBRANCH  18  19
ENDBRANCH  10  13
ENDBRANCH   4   7
ENDBRANCH   2   3
ENDBRANCH   1   2
BRANCH   1  23
ATOM     23  C   UNL A   1      33.307  29.246  25.046  1.00  0.00     0.118 C 
BRANCH  23  24
ATOM     24  N   UNL A   1      32.706  30.433  25.630  1.00  0.00    -0.352 N 
ATOM     25  C   UNL A   1      33.035  31.128  26.769  1.00  0.00     0.251 C 
ATOM     26  H   UNL A   1      31.940  30.799  25.129  1.00  0.00     0.163 HD
ATOM     27  O   UNL A   1      32.279  32.005  27.177  1.00  0.00    -0.269 OA
BRANCH  25  28
ATOM     28  C   UNL A   1      34.271  30.822  27.530  1.00  0.00     0.039 A 
ATOM     29  C   UNL A   1      35.249  31.816  27.644  1.00  0.00     0.014 A 
ATOM     30  C   UNL A   1      34.508  29.561  28.083  1.00  0.00     0.014 A 
ATOM     31  C   UNL A   1      36.427  31.566  28.355  1.00  0.00     0.010 A 
ATOM     32  C   UNL A   1      35.639  29.340  28.867  1.00  0.00     0.010 A 
ATOM     33  C   UNL A   1      36.620  30.334  29.000  1.00  0.00    -0.014 A 
BRANCH  33  34
ATOM     34  C   UNL A   1      37.854  30.053  29.783  1.00  0.00     0.031 A 
ATOM     35  C   UNL A   1      38.911  29.137  29.224  1.00  0.00     0.074 A 
ATOM     36  C   UNL A   1      38.003  30.572  31.017  1.00  0.00     0.049 A 
ATOM     37  N   UNL A   1      40.013  28.702  29.784  1.00  0.00    -0.248 NA
ATOM     38  C   UNL A   1      38.686  28.619  27.866  1.00  0.00     0.031 C 
ATOM     39  C   UNL A   1      37.037  31.439  31.693  1.00  0.00     0.029 A 
ATOM     40  N   UNL A   1      39.022  30.436  31.927  1.00  0.00    -0.354 N 
ATOM     41  C   UNL A   1      40.593  27.844  28.859  1.00  0.00     0.074 A 
ATOM     42  C   UNL A   1      39.702  27.782  27.721  1.00  0.00     0.031 C 
ATOM     43  C   UNL A   1      37.519  31.777  32.899  1.00  0.00     0.029 A 
ATOM     44  C   UNL A   1      38.810  31.123  33.098  1.00  0.00     0.049 A 
ATOM     45  H   UNL A   1      39.828  29.897  31.758  1.00  0.00     0.167 HD
ATOM     46  C   UNL A   1      41.774  27.186  28.939  1.00  0.00     0.037 A 
ATOM     47  C   UNL A   1      39.568  31.212  34.208  1.00  0.00     0.037 A 
ATOM     48  C   UNL A   1      42.684  27.280  30.049  1.00  0.00     0.049 A 
ATOM     49  C   UNL A   1      40.883  30.483  34.265  1.00  0.00     0.074 A 
ATOM     50  C   UNL A   1      43.933  26.700  30.194  1.00  0.00     0.029 A 
ATOM     51  N   UNL A   1      42.445  28.008  31.204  1.00  0.00    -0.354 N 
ATOM     52  N   UNL A   1      41.445  29.718  33.362  1.00  0.00    -0.248 NA
ATOM     53  C   UNL A   1      41.672  30.635  35.496  1.00  0.00     0.031 C 
ATOM     54  C   UNL A   1      44.435  27.051  31.452  1.00  0.00     0.029 A 
ATOM     55  C   UNL A   1      43.516  27.882  32.073  1.00  0.00     0.049 A 
ATOM     56  H   UNL A   1      41.633  28.536  31.381  1.00  0.00     0.167 HD
ATOM     57  C   UNL A   1      42.660  29.320  33.902  1.00  0.00     0.074 A 
ATOM     58  C   UNL A   1      42.762  29.938  35.207  1.00  0.00     0.031 C 
ATOM     59  C   UNL A   1      43.607  28.514  33.363  1.00  0.00     0.037 A 
BRANCH  46  60
ATOM     60  C   UNL A   1      42.157  26.307  27.783  1.00  0.00     0.064 A 
ATOM     61  C   UNL A   1      43.072  26.734  26.809  1.00  0.00     0.173 A 
ATOM     62  C   UNL A   1      41.630  25.012  27.666  1.00  0.00     0.173 A 
ATOM     63  F   UNL A   1      43.596  27.967  26.869  1.00  0.00    -0.203 F 
ATOM     64  C   UNL A   1      43.422  25.907  25.745  1.00  0.00     0.198 A 
ATOM     65  C   UNL A   1      42.004  24.178  26.616  1.00  0.00     0.198 A 
ATOM     66  F   UNL A   1      40.755  24.553  28.574  1.00  0.00    -0.203 F 
ATOM     67  F   UNL A   1      44.261  26.354  24.800  1.00  0.00    -0.200 F 
ATOM     68  C   UNL A   1      42.893  24.628  25.652  1.00  0.00     0.200 A 
ATOM     69  F   UNL A   1      41.501  22.938  26.535  1.00  0.00    -0.200 F 
ATOM     70  F   UNL A   1      43.236  23.833  24.630  1.00  0.00    -0.200 F 
ENDBRANCH  46  60
BRANCH  47  71
ATOM     71  C   UNL A   1      39.117  32.051  35.348  1.00  0.00     0.064 A 
ATOM     72  C   UNL A   1      39.424  33.418  35.396  1.00  0.00     0.173 A 
ATOM     73  C   UNL A   1      38.377  31.509  36.407  1.00  0.00     0.173 A 
ATOM     74  F   UNL A   1      40.149  33.975  34.416  1.00  0.00    -0.203 F 
ATOM     75  C   UNL A   1      39.021  34.208  36.469  1.00  0.00     0.198 A 
ATOM     76  C   UNL A   1      37.953  32.305  37.468  1.00  0.00     0.198 A 
ATOM     77  F   UNL A   1      38.056  30.206  36.405  1.00  0.00    -0.203 F 
ATOM     78  F   UNL A   1      39.362  35.504  36.510  1.00  0.00    -0.200 F 
ATOM     79  C   UNL A   1      38.281  33.653  37.503  1.00  0.00     0.200 A 
ATOM     80  F   UNL A   1      37.228  31.769  38.460  1.00  0.00    -0.200 F 
ATOM     81  F   UNL A   1      37.890  34.414  38.534  1.00  0.00    -0.200 F 
ENDBRANCH  47  71
BRANCH  59  82
ATOM     82  C   UNL A   1      44.851  28.281  34.169  1.00  0.00     0.064 A 
ATOM     83  C   UNL A   1      45.955  29.140  34.079  1.00  0.00     0.173 A 
ATOM     84  C   UNL A   1      44.921  27.208  35.071  1.00  0.00     0.173 A 
ATOM     85  F   UNL A   1      45.941  30.169  33.219  1.00  0.00    -0.203 F 
ATOM     86  C   UNL A   1      47.094  28.922  34.849  1.00  0.00     0.198 A 
ATOM     87  C   UNL A   1      46.052  27.008  35.857  1.00  0.00     0.198 A 
ATOM     88  F   UNL A   1      43.888  26.361  35.197  1.00  0.00    -0.203 F 
ATOM     89  F   UNL A   1      48.154  29.731  34.718  1.00  0.00    -0.200 F 
ATOM     90  C   UNL A   1      47.139  27.861  35.742  1.00  0.00     0.200 A 
ATOM     91  F   UNL A   1      46.089  25.990  36.727  1.00  0.00    -0.200 F 
ATOM     92  F   UNL A   1      48.234  27.657  36.487  1.00  0.00    -0.200 F 
ENDBRANCH  59  82
ENDBRANCH  33  34
ENDBRANCH  25  28
ENDBRANCH  23  24
ENDBRANCH   1  23
TORSDOF 12
ENDMDL
MODEL 2
REMARK VINA RESULT:     -12.7      5.060     10.739
REMARK SMILES C[C@@H]1[C@H](C(=O)NCCCNC(=O)c2ccc(-c3c4nc(c(-c5c(F)c(F)c(F)c(F)c5F)c5ccc([nH]5)c(-c5c(F)c(F)c(F)c(F)c5F)c5nc(c(-c6c(F)c(F)c(F)c(F)c6F)c6ccc3[nH]6)C=C5)C=C4)cc2)CCN1c1ccc(C(F)(F)F)cc1
REMARK SMILES IDX 8 1 7 2 6 3 4 4 5 5 3 7 1 8 2 9 78 10 76 11 77 12 79 13
REMARK SMILES IDX 80 14 88 15 81 16 87 17 82 18 83 19 84 20 85 21 86 22 9 23
REMARK SMILES IDX 10 24 11 25 12 27 13 28 14 29 75 30 15 31 74 32 16 33 17 34
REMARK SMILES IDX 18 35 68 36 19 37 73 38 67 39 69 40 20 41 72 42 66 43 65 44
REMARK SMILES IDX 21 46 53 47 33 48 52 49 34 50 37 51 51 52 70 53 35 54 36 55
REMARK SMILES IDX 50 57 71 58 38 59 22 60 23 61 31 62 24 63 25 64 29 65 32 66
REMARK SMILES IDX 26 67 27 68 30 69 28 70 54 71 55 72 63 73 56 74 57 75 61 76
REMARK SMILES IDX 64 77 58 78 59 79 62 80 60 81 39 82 40 83 48 84 41 85 42 86
REMARK SMILES IDX 46 87 49 88 43 89 44 90 47 91 45 92
REMARK H PARENT 6 6 10 26 69 45 37 56
REMARK Flexibility Score: inf
ROOT
ATOM      1  C   UNL A   1      34.476  33.852  29.159  1.00  0.00     0.042 C 
ENDROOT
BRANCH   1   2
ATOM      2  C   UNL A   1      34.348  33.530  30.646  1.00  0.00     0.117 C 
BRANCH   2   3
ATOM      3  N   UNL A   1      34.871  34.592  31.490  1.00  0.00    -0.356 N 
ATOM      4  C   UNL A   1      35.575  34.589  32.649  1.00  0.00     0.225 C 
ATOM      5  O   UNL A   1      35.798  35.696  33.152  1.00  0.00    -0.275 OA
ATOM      6  H   UNL A   1      34.674  35.496  31.152  1.00  0.00     0.163 HD
BRANCH   4   7
ATOM      7  C   UNL A   1      36.087  33.341  33.342  1.00  0.00     0.102 C 
ATOM      8  C   UNL A   1      37.923  33.176  31.479  1.00  0.00     0.032 C 
ATOM      9  C   UNL A   1      37.232  32.547  32.677  1.00  0.00     0.091 C 
ATOM     10  N   UNL A   1      38.168  32.279  33.791  1.00  0.00    -0.368 N 
ATOM     11  C   UNL A   1      36.460  33.511  34.816  1.00  0.00     0.037 C 
ATOM     12  C   UNL A   1      37.470  32.402  35.068  1.00  0.00     0.118 C 
BRANCH  10  13
ATOM     13  C   UNL A   1      39.140  31.304  33.635  1.00  0.00     0.037 A 
ATOM     14  C   UNL A   1      40.475  31.495  34.005  1.00  0.00     0.026 A 
ATOM     15  C   UNL A   1      38.790  30.059  33.096  1.00  0.00     0.026 A 
ATOM     16  C   UNL A   1      41.426  30.479  33.848  1.00  0.00     0.015 A 
ATOM     17  C   UNL A   1      39.731  29.036  32.936  1.00  0.00     0.015 A 
ATOM     18  C   UNL A   1      41.063  29.235  33.314  1.00  0.00     0.056 A 
BRANCH  18  19
ATOM     19  C   UNL A   1      42.096  28.150  33.145  1.00  0.00     0.416 C 
ATOM     20  F   UNL A   1      41.935  27.454  31.986  1.00  0.00    -0.166 F 
ATOM     21  F   UNL A   1      43.367  28.638  33.114  1.00  0.00    -0.166 F 
ATOM     22  F   UNL A   1      42.080  27.221  34.143  1.00  0.00    -0.166 F 
ENDBRANCH  18  19
ENDBRANCH  10  13
ENDBRANCH   4   7
ENDBRANCH   2   3
ENDBRANCH   1   2
BRANCH   1  23
ATOM     23  C   UNL A   1      35.217  32.810  28.333  1.00  0.00     0.118 C 
BRANCH  23  24
ATOM     24  N   UNL A   1      34.436  31.607  28.107  1.00  0.00    -0.352 N 
ATOM     25  C   UNL A   1      34.837  30.299  27.971  1.00  0.00     0.251 C 
ATOM     26  H   UNL A   1      33.463  31.750  28.040  1.00  0.00     0.163 HD
ATOM     27  O   UNL A   1      34.023  29.456  27.605  1.00  0.00    -0.269 OA
BRANCH  25  28
ATOM     28  C   UNL A   1      36.238  29.890  28.233  1.00  0.00     0.039 A 
ATOM     29  C   UNL A   1      37.180  30.038  27.208  1.00  0.00     0.014 A 
ATOM     30  C   UNL A   1      36.628  29.314  29.444  1.00  0.00     0.014 A 
ATOM     31  C   UNL A   1      38.512  29.666  27.418  1.00  0.00     0.010 A 
ATOM     32  C   UNL A   1      37.972  29.027  29.684  1.00  0.00     0.010 A 
ATOM     33  C   UNL A   1      38.927  29.185  28.670  1.00  0.00    -0.014 A 
BRANCH  33  34
ATOM     34  C   UNL A   1      40.343  28.806  28.924  1.00  0.00     0.031 A 
ATOM     35  C   UNL A   1      41.275  29.776  29.602  1.00  0.00     0.074 A 
ATOM     36  C   UNL A   1      40.811  27.617  28.498  1.00  0.00     0.049 A 
ATOM     37  N   UNL A   1      42.559  29.669  29.836  1.00  0.00    -0.248 NA
ATOM     38  C   UNL A   1      40.690  31.049  30.051  1.00  0.00     0.031 C 
ATOM     39  C   UNL A   1      40.028  26.603  27.792  1.00  0.00     0.029 A 
ATOM     40  N   UNL A   1      42.065  27.064  28.589  1.00  0.00    -0.354 N 
ATOM     41  C   UNL A   1      42.936  30.864  30.433  1.00  0.00     0.074 A 
ATOM     42  C   UNL A   1      41.758  31.702  30.484  1.00  0.00     0.031 C 
ATOM     43  C   UNL A   1      40.810  25.543  27.535  1.00  0.00     0.029 A 
ATOM     44  C   UNL A   1      42.159  25.814  28.025  1.00  0.00     0.049 A 
ATOM     45  H   UNL A   1      42.825  27.519  29.018  1.00  0.00     0.167 HD
ATOM     46  C   UNL A   1      44.149  31.224  30.918  1.00  0.00     0.037 A 
ATOM     47  C   UNL A   1      43.214  24.985  27.911  1.00  0.00     0.037 A 
ATOM     48  C   UNL A   1      45.312  30.377  30.910  1.00  0.00     0.049 A 
ATOM     49  C   UNL A   1      44.546  25.402  28.472  1.00  0.00     0.074 A 
ATOM     50  C   UNL A   1      46.568  30.629  31.434  1.00  0.00     0.029 A 
ATOM     51  N   UNL A   1      45.358  29.108  30.353  1.00  0.00    -0.354 N 
ATOM     52  N   UNL A   1      44.876  26.514  29.081  1.00  0.00    -0.248 NA
ATOM     53  C   UNL A   1      45.653  24.444  28.332  1.00  0.00     0.031 C 
ATOM     54  C   UNL A   1      47.384  29.525  31.166  1.00  0.00     0.029 A 
ATOM     55  C   UNL A   1      46.625  28.569  30.509  1.00  0.00     0.049 A 
ATOM     56  H   UNL A   1      44.602  28.657  29.912  1.00  0.00     0.167 HD
ATOM     57  C   UNL A   1      46.214  26.380  29.421  1.00  0.00     0.074 A 
ATOM     58  C   UNL A   1      46.636  25.074  28.961  1.00  0.00     0.031 C 
ATOM     59  C   UNL A   1      47.024  27.263  30.056  1.00  0.00     0.037 A 
BRANCH  46  60
ATOM     60  C   UNL A   1      44.278  32.598  31.510  1.00  0.00     0.064 A 
ATOM     61  C   UNL A   1      44.382  33.739  30.700  1.00  0.00     0.173 A 
ATOM     62  C   UNL A   1      44.264  32.779  32.901  1.00  0.00     0.173 A 
ATOM     63  F   UNL A   1      44.412  33.618  29.365  1.00  0.00    -0.203 F 
ATOM     64  C   UNL A   1      44.496  35.007  31.262  1.00  0.00     0.198 A 
ATOM     65  C   UNL A   1      44.351  34.051  33.459  1.00  0.00     0.198 A 
ATOM     66  F   UNL A   1      44.161  31.721  33.721  1.00  0.00    -0.203 F 
ATOM     67  F   UNL A   1      44.643  36.078  30.470  1.00  0.00    -0.200 F 
ATOM     68  C   UNL A   1      44.475  35.164  32.640  1.00  0.00     0.200 A 
ATOM     69  F   UNL A   1      44.317  34.202  34.791  1.00  0.00    -0.200 F 
ATOM     70  F   UNL A   1      44.580  36.387  33.179  1.00  0.00    -0.200 F 
ENDBRANCH  46  60
BRANCH  47  71
ATOM     71  C   UNL A   1      43.045  23.658  27.265  1.00  0.00     0.064 A 
ATOM     72  C   UNL A   1      43.486  23.439  25.953  1.00  0.00     0.173 A 
ATOM     73  C   UNL A   1      42.441  22.588  27.939  1.00  0.00     0.173 A 
ATOM     74  F   UNL A   1      44.050  24.440  25.261  1.00  0.00    -0.203 F 
ATOM     75  C   UNL A   1      43.316  22.204  25.333  1.00  0.00     0.198 A 
ATOM     76  C   UNL A   1      42.292  21.346  27.327  1.00  0.00     0.198 A 
ATOM     77  F   UNL A   1      42.004  22.747  29.197  1.00  0.00    -0.203 F 
ATOM     78  F   UNL A   1      43.711  22.033  24.064  1.00  0.00    -0.200 F 
ATOM     79  C   UNL A   1      42.723  21.156  26.022  1.00  0.00     0.200 A 
ATOM     80  F   UNL A   1      41.731  20.331  27.999  1.00  0.00    -0.200 F 
ATOM     81  F   UNL A   1      42.562  19.967  25.427  1.00  0.00    -0.200 F 
ENDBRANCH  47  71
BRANCH  59  82
ATOM     82  C   UNL A   1      48.435  26.832  30.324  1.00  0.00     0.064 A 
ATOM     83  C   UNL A   1      48.772  26.089  31.464  1.00  0.00     0.173 A 
ATOM     84  C   UNL A   1      49.454  27.133  29.407  1.00  0.00     0.173 A 
ATOM     85  F   UNL A   1      47.836  25.791  32.377  1.00  0.00    -0.203 F 
ATOM     86  C   UNL A   1      50.084  25.679  31.687  1.00  0.00     0.198 A 
ATOM     87  C   UNL A   1      50.759  26.699  29.621  1.00  0.00     0.198 A 
ATOM     88  F   UNL A   1      49.180  27.837  28.298  1.00  0.00    -0.203 F 
ATOM     89  F   UNL A   1      50.393  25.004  32.803  1.00  0.00    -0.200 F 
ATOM     90  C   UNL A   1      51.074  25.978  30.762  1.00  0.00     0.200 A 
ATOM     91  F   UNL A   1      51.713  26.980  28.722  1.00  0.00    -0.200 F 
ATOM     92  F   UNL A   1      52.336  25.577  30.976  1.00  0.00    -0.200 F 
ENDBRANCH  59  82
ENDBRANCH  33  34
ENDBRANCH  25  28
ENDBRANCH  23  24
ENDBRANCH   1  23
TORSDOF 12
ENDMDL
MODEL 3
REMARK VINA RESULT:     -12.7      4.984      7.748
REMARK SMILES C[C@@H]1[C@H](C(=O)NCCCNC(=O)c2ccc(-c3c4nc(c(-c5c(F)c(F)c(F)c(F)c5F)c5ccc([nH]5)c(-c5c(F)c(F)c(F)c(F)c5F)c5nc(c(-c6c(F)c(F)c(F)c(F)c6F)c6ccc3[nH]6)C=C5)C=C4)cc2)CCN1c1ccc(C(F)(F)F)cc1
REMARK SMILES IDX 8 1 7 2 6 3 4 4 5 5 3 7 1 8 2 9 78 10 76 11 77 12 79 13
REMARK SMILES IDX 80 14 88 15 81 16 87 17 82 18 83 19 84 20 85 21 86 22 9 23
REMARK SMILES IDX 10 24 11 25 12 27 13 28 14 29 75 30 15 31 74 32 16 33 17 34
REMARK SMILES IDX 18 35 68 36 19 37 73 38 67 39 69 40 20 41 72 42 66 43 65 44
REMARK SMILES IDX 21 46 53 47 33 48 52 49 34 50 37 51 51 52 70 53 35 54 36 55
REMARK SMILES IDX 50 57 71 58 38 59 22 60 23 61 31 62 24 63 25 64 29 65 32 66
REMARK SMILES IDX 26 67 27 68 30 69 28 70 54 71 55 72 63 73 56 74 57 75 61 76
REMARK SMILES IDX 64 77 58 78 59 79 62 80 60 81 39 82 40 83 48 84 41 85 42 86
REMARK SMILES IDX 46 87 49 88 43 89 44 90 47 91 45 92
REMARK H PARENT 6 6 10 26 69 45 37 56
REMARK Flexibility Score: inf
ROOT
ATOM      1  C   UNL A   1      35.231  23.038  25.215  1.00  0.00     0.042 C 
ENDROOT
BRANCH   1   2
ATOM      2  C   UNL A   1      33.981  23.914  25.270  1.00  0.00     0.117 C 
BRANCH   2   3
ATOM      3  N   UNL A   1      33.111  23.569  26.383  1.00  0.00    -0.356 N 
ATOM      4  C   UNL A   1      31.771  23.653  26.568  1.00  0.00     0.225 C 
ATOM      5  O   UNL A   1      31.356  23.337  27.689  1.00  0.00    -0.275 OA
ATOM      6  H   UNL A   1      33.592  23.200  27.159  1.00  0.00     0.163 HD
BRANCH   4   7
ATOM      7  C   UNL A   1      30.782  24.101  25.508  1.00  0.00     0.102 C 
ATOM      8  C   UNL A   1      31.286  26.572  26.220  1.00  0.00     0.032 C 
ATOM      9  C   UNL A   1      30.448  25.605  25.402  1.00  0.00     0.091 C 
ATOM     10  N   UNL A   1      30.525  25.880  23.950  1.00  0.00    -0.368 N 
ATOM     11  C   UNL A   1      31.068  23.606  24.089  1.00  0.00     0.037 C 
ATOM     12  C   UNL A   1      30.387  24.635  23.199  1.00  0.00     0.118 C 
BRANCH  10  13
ATOM     13  C   UNL A   1      29.957  27.044  23.455  1.00  0.00     0.037 A 
ATOM     14  C   UNL A   1      28.600  27.350  23.601  1.00  0.00     0.026 A 
ATOM     15  C   UNL A   1      30.762  27.974  22.785  1.00  0.00     0.026 A 
ATOM     16  C   UNL A   1      28.066  28.544  23.102  1.00  0.00     0.015 A 
ATOM     17  C   UNL A   1      30.239  29.172  22.284  1.00  0.00     0.015 A 
ATOM     18  C   UNL A   1      28.882  29.471  22.440  1.00  0.00     0.056 A 
BRANCH  18  19
ATOM     19  C   UNL A   1      28.296  30.752  21.903  1.00  0.00     0.416 C 
ATOM     20  F   UNL A   1      29.240  31.711  21.698  1.00  0.00    -0.166 F 
ATOM     21  F   UNL A   1      27.672  30.580  20.704  1.00  0.00    -0.166 F 
ATOM     22  F   UNL A   1      27.366  31.315  22.727  1.00  0.00    -0.166 F 
ENDBRANCH  18  19
ENDBRANCH  10  13
ENDBRANCH   4   7
ENDBRANCH   2   3
ENDBRANCH   1   2
BRANCH   1  23
ATOM     23  C   UNL A   1      36.463  23.625  25.888  1.00  0.00     0.118 C 
BRANCH  23  24
ATOM     24  N   UNL A   1      37.565  22.682  25.974  1.00  0.00    -0.352 N 
ATOM     25  C   UNL A   1      38.871  22.873  26.358  1.00  0.00     0.251 C 
ATOM     26  H   UNL A   1      37.340  21.757  25.717  1.00  0.00     0.163 HD
ATOM     27  O   UNL A   1      39.685  21.970  26.185  1.00  0.00    -0.269 OA
BRANCH  25  28
ATOM     28  C   UNL A   1      39.322  24.155  26.951  1.00  0.00     0.039 A 
ATOM     29  C   UNL A   1      39.987  25.074  26.130  1.00  0.00     0.014 A 
ATOM     30  C   UNL A   1      39.152  24.445  28.307  1.00  0.00     0.014 A 
ATOM     31  C   UNL A   1      40.425  26.295  26.653  1.00  0.00     0.010 A 
ATOM     32  C   UNL A   1      39.508  25.697  28.806  1.00  0.00     0.010 A 
ATOM     33  C   UNL A   1      40.162  26.631  27.990  1.00  0.00    -0.014 A 
BRANCH  33  34
ATOM     34  C   UNL A   1      40.596  27.935  28.562  1.00  0.00     0.031 A 
ATOM     35  C   UNL A   1      42.039  28.152  28.936  1.00  0.00     0.074 A 
ATOM     36  C   UNL A   1      39.691  28.903  28.799  1.00  0.00     0.049 A 
ATOM     37  N   UNL A   1      42.599  29.181  29.523  1.00  0.00    -0.248 NA
ATOM     38  C   UNL A   1      42.972  27.055  28.635  1.00  0.00     0.031 C 
ATOM     39  C   UNL A   1      38.257  28.808  28.523  1.00  0.00     0.029 A 
ATOM     40  N   UNL A   1      39.843  30.158  29.336  1.00  0.00    -0.354 N 
ATOM     41  C   UNL A   1      43.936  28.843  29.684  1.00  0.00     0.074 A 
ATOM     42  C   UNL A   1      44.097  27.499  29.175  1.00  0.00     0.031 C 
ATOM     43  C   UNL A   1      37.665  29.961  28.870  1.00  0.00     0.029 A 
ATOM     44  C   UNL A   1      38.668  30.865  29.425  1.00  0.00     0.049 A 
ATOM     45  H   UNL A   1      40.711  30.517  29.630  1.00  0.00     0.167 HD
ATOM     46  C   UNL A   1      44.945  29.595  30.185  1.00  0.00     0.037 A 
ATOM     47  C   UNL A   1      38.427  32.100  29.906  1.00  0.00     0.037 A 
ATOM     48  C   UNL A   1      44.798  30.949  30.650  1.00  0.00     0.049 A 
ATOM     49  C   UNL A   1      39.568  32.920  30.444  1.00  0.00     0.074 A 
ATOM     50  C   UNL A   1      45.773  31.812  31.118  1.00  0.00     0.029 A 
ATOM     51  N   UNL A   1      43.596  31.638  30.699  1.00  0.00    -0.354 N 
ATOM     52  N   UNL A   1      40.837  32.609  30.541  1.00  0.00    -0.248 NA
ATOM     53  C   UNL A   1      39.242  34.266  30.936  1.00  0.00     0.031 C 
ATOM     54  C   UNL A   1      45.156  33.014  31.480  1.00  0.00     0.029 A 
ATOM     55  C   UNL A   1      43.803  32.912  31.201  1.00  0.00     0.049 A 
ATOM     56  H   UNL A   1      42.725  31.276  30.418  1.00  0.00     0.167 HD
ATOM     57  C   UNL A   1      41.464  33.725  31.077  1.00  0.00     0.074 A 
ATOM     58  C   UNL A   1      40.438  34.727  31.274  1.00  0.00     0.031 C 
ATOM     59  C   UNL A   1      42.773  33.902  31.380  1.00  0.00     0.037 A 
BRANCH  46  60
ATOM     60  C   UNL A   1      46.309  28.969  30.251  1.00  0.00     0.064 A 
ATOM     61  C   UNL A   1      46.743  28.276  31.391  1.00  0.00     0.173 A 
ATOM     62  C   UNL A   1      47.176  29.033  29.151  1.00  0.00     0.173 A 
ATOM     63  F   UNL A   1      45.956  28.196  32.473  1.00  0.00    -0.203 F 
ATOM     64  C   UNL A   1      48.008  27.696  31.436  1.00  0.00     0.198 A 
ATOM     65  C   UNL A   1      48.430  28.428  29.190  1.00  0.00     0.198 A 
ATOM     66  F   UNL A   1      46.807  29.679  28.034  1.00  0.00    -0.203 F 
ATOM     67  F   UNL A   1      48.421  27.081  32.553  1.00  0.00    -0.200 F 
ATOM     68  C   UNL A   1      48.848  27.766  30.335  1.00  0.00     0.200 A 
ATOM     69  F   UNL A   1      49.235  28.486  28.120  1.00  0.00    -0.200 F 
ATOM     70  F   UNL A   1      50.063  27.203  30.380  1.00  0.00    -0.200 F 
ENDBRANCH  46  60
BRANCH  47  71
ATOM     71  C   UNL A   1      37.048  32.652  29.869  1.00  0.00     0.064 A 
ATOM     72  C   UNL A   1      36.180  32.482  30.956  1.00  0.00     0.173 A 
ATOM     73  C   UNL A   1      36.571  33.354  28.755  1.00  0.00     0.173 A 
ATOM     74  F   UNL A   1      36.586  31.798  32.036  1.00  0.00    -0.203 F 
ATOM     75  C   UNL A   1      34.880  32.980  30.924  1.00  0.00     0.198 A 
ATOM     76  C   UNL A   1      35.278  33.872  28.732  1.00  0.00     0.198 A 
ATOM     77  F   UNL A   1      37.364  33.545  27.690  1.00  0.00    -0.203 F 
ATOM     78  F   UNL A   1      34.058  32.768  31.961  1.00  0.00    -0.200 F 
ATOM     79  C   UNL A   1      34.431  33.679  29.814  1.00  0.00     0.200 A 
ATOM     80  F   UNL A   1      34.851  34.558  27.663  1.00  0.00    -0.200 F 
ATOM     81  F   UNL A   1      33.181  34.161  29.784  1.00  0.00    -0.200 F 
ENDBRANCH  47  71
BRANCH  59  82
ATOM     82  C   UNL A   1      43.178  35.240  31.923  1.00  0.00     0.064 A 
ATOM     83  C   UNL A   1      43.646  36.262  31.084  1.00  0.00     0.173 A 
ATOM     84  C   UNL A   1      43.056  35.516  33.294  1.00  0.00     0.173 A 
ATOM     85  F   UNL A   1      43.794  36.041  29.770  1.00  0.00    -0.203 F 
ATOM     86  C   UNL A   1      43.998  37.505  31.602  1.00  0.00     0.198 A 
ATOM     87  C   UNL A   1      43.385  36.768  33.803  1.00  0.00     0.198 A 
ATOM     88  F   UNL A   1      42.607  34.572  34.136  1.00  0.00    -0.203 F 
ATOM     89  F   UNL A   1      44.482  38.455  30.789  1.00  0.00    -0.200 F 
ATOM     90  C   UNL A   1      43.860  37.760  32.959  1.00  0.00     0.200 A 
ATOM     91  F   UNL A   1      43.242  37.015  35.113  1.00  0.00    -0.200 F 
ATOM     92  F   UNL A   1      44.194  38.960  33.454  1.00  0.00    -0.200 F 
ENDBRANCH  59  82
ENDBRANCH  33  34
ENDBRANCH  25  28
ENDBRANCH  23  24
ENDBRANCH   1  23
TORSDOF 12
ENDMDL
