MODEL 1
REMARK VINA RESULT:     -13.0      0.000      0.000
REMARK SMILES O=C(NCCCNC(=O)c1nccnc1C(=O)Nc1ccc2c(c1)OCO2)c1ccc(-c2c3nc(c(-c4c(F)c(F)c(F)c(F)c4F)c4ccc([nH]4)c(-c4c(F)c(F)c(F)c(F)c4F)c4nc(c(-c5c(F)c(F)c(F)c(F)c5F)c5ccc2[nH]5)C=C4)C=C3)cc1
REMARK SMILES IDX 5 1 4 2 3 3 1 4 2 5 28 7 29 8 90 9 30 10 89 11 31 12 32 13
REMARK SMILES IDX 33 14 83 15 34 16 88 17 82 18 84 19 35 20 87 21 81 22 80 23
REMARK SMILES IDX 36 25 68 26 48 27 67 28 49 29 52 30 66 31 85 32 50 33 51 34
REMARK SMILES IDX 65 36 86 37 53 38 37 39 38 40 46 41 39 42 40 43 44 44 47 45
REMARK SMILES IDX 41 46 42 47 45 48 43 49 69 50 70 51 78 52 71 53 72 54 76 55
REMARK SMILES IDX 79 56 73 57 74 58 77 59 75 60 54 61 55 62 63 63 56 64 57 65
REMARK SMILES IDX 61 66 64 67 58 68 59 69 62 70 60 71 6 72 7 73 8 74 9 76
REMARK SMILES IDX 10 77 11 78 15 79 12 80 14 81 13 82 16 83 17 84 18 85 19 87
REMARK SMILES IDX 20 88 24 89 21 90 23 91 22 92 25 93 27 94 26 95
REMARK H PARENT 3 6 84 24 52 35 7 75 18 86
REMARK Flexibility Score: inf
ROOT
ATOM      1  C   UNL A   1      31.509  31.584  26.515  1.00  0.00     0.042 C 
ENDROOT
BRANCH   1   2
ATOM      2  C   UNL A   1      32.685  32.471  26.949  1.00  0.00     0.118 C 
BRANCH   2   3
ATOM      3  N   UNL A   1      32.408  33.831  27.366  1.00  0.00    -0.352 N 
ATOM      4  O   UNL A   1      32.616  35.615  28.747  1.00  0.00    -0.269 OA
ATOM      5  C   UNL A   1      33.027  34.524  28.387  1.00  0.00     0.251 C 
ATOM      6  H   UNL A   1      31.705  34.309  26.870  1.00  0.00     0.163 HD
BRANCH   5   7
ATOM      7  C   UNL A   1      34.199  33.916  29.057  1.00  0.00     0.039 A 
ATOM      8  C   UNL A   1      34.023  32.860  29.954  1.00  0.00     0.014 A 
ATOM      9  C   UNL A   1      35.482  34.384  28.763  1.00  0.00     0.014 A 
ATOM     10  C   UNL A   1      35.124  32.329  30.626  1.00  0.00     0.010 A 
ATOM     11  C   UNL A   1      36.591  33.820  29.405  1.00  0.00     0.010 A 
ATOM     12  C   UNL A   1      36.421  32.799  30.355  1.00  0.00    -0.014 A 
BRANCH  12  13
ATOM     13  C   UNL A   1      37.592  32.166  31.021  1.00  0.00     0.031 A 
ATOM     14  C   UNL A   1      38.375  31.073  30.349  1.00  0.00     0.074 A 
ATOM     15  C   UNL A   1      37.949  32.586  32.250  1.00  0.00     0.049 A 
ATOM     16  N   UNL A   1      39.416  30.410  30.791  1.00  0.00    -0.248 NA
ATOM     17  C   UNL A   1      37.934  30.665  29.006  1.00  0.00     0.031 C 
ATOM     18  C   UNL A   1      37.261  33.628  33.014  1.00  0.00     0.029 A 
ATOM     19  N   UNL A   1      38.975  32.193  33.073  1.00  0.00    -0.354 N 
ATOM     20  C   UNL A   1      39.747  29.504  29.792  1.00  0.00     0.074 A 
ATOM     21  C   UNL A   1      38.783  29.684  28.726  1.00  0.00     0.031 C 
ATOM     22  C   UNL A   1      37.891  33.801  34.186  1.00  0.00     0.029 A 
ATOM     23  C   UNL A   1      38.997  32.853  34.278  1.00  0.00     0.049 A 
ATOM     24  H   UNL A   1      39.632  31.503  32.825  1.00  0.00     0.167 HD
ATOM     25  C   UNL A   1      40.766  28.610  29.767  1.00  0.00     0.037 A 
ATOM     26  C   UNL A   1      39.800  32.698  35.347  1.00  0.00     0.037 A 
ATOM     27  C   UNL A   1      41.733  28.441  30.823  1.00  0.00     0.049 A 
ATOM     28  C   UNL A   1      40.901  31.675  35.299  1.00  0.00     0.074 A 
ATOM     29  C   UNL A   1      42.834  27.602  30.856  1.00  0.00     0.029 A 
ATOM     30  N   UNL A   1      41.711  29.116  32.034  1.00  0.00    -0.354 N 
ATOM     31  N   UNL A   1      41.240  30.869  34.322  1.00  0.00    -0.248 NA
ATOM     32  C   UNL A   1      41.731  31.538  36.505  1.00  0.00     0.031 C 
ATOM     33  C   UNL A   1      43.447  27.728  32.107  1.00  0.00     0.029 A 
ATOM     34  C   UNL A   1      42.759  28.686  32.833  1.00  0.00     0.049 A 
ATOM     35  H   UNL A   1      41.049  29.799  32.289  1.00  0.00     0.167 HD
ATOM     36  C   UNL A   1      42.331  30.147  34.786  1.00  0.00     0.074 A 
ATOM     37  C   UNL A   1      42.614  30.627  36.122  1.00  0.00     0.031 C 
ATOM     38  C   UNL A   1      43.033  29.171  34.162  1.00  0.00     0.037 A 
BRANCH  25  39
ATOM     39  C   UNL A   1      40.899  27.721  28.564  1.00  0.00     0.064 A 
ATOM     40  C   UNL A   1      40.183  26.520  28.452  1.00  0.00     0.173 A 
ATOM     41  C   UNL A   1      41.674  28.127  27.466  1.00  0.00     0.173 A 
ATOM     42  F   UNL A   1      39.432  26.084  29.475  1.00  0.00    -0.203 F 
ATOM     43  C   UNL A   1      40.243  25.756  27.289  1.00  0.00     0.198 A 
ATOM     44  C   UNL A   1      41.713  27.373  26.295  1.00  0.00     0.198 A 
ATOM     45  F   UNL A   1      42.372  29.272  27.517  1.00  0.00    -0.203 F 
ATOM     46  F   UNL A   1      39.568  24.602  27.211  1.00  0.00    -0.200 F 
ATOM     47  C   UNL A   1      40.999  26.189  26.208  1.00  0.00     0.200 A 
ATOM     48  F   UNL A   1      42.431  27.800  25.248  1.00  0.00    -0.200 F 
ATOM     49  F   UNL A   1      41.039  25.462  25.083  1.00  0.00    -0.200 F 
ENDBRANCH  25  39
BRANCH  26  50
ATOM     50  C   UNL A   1      39.582  33.519  36.567  1.00  0.00     0.064 A 
ATOM     51  C   UNL A   1      38.772  33.062  37.615  1.00  0.00     0.173 A 
ATOM     52  C   UNL A   1      40.161  34.791  36.696  1.00  0.00     0.173 A 
ATOM     53  F   UNL A   1      38.176  31.864  37.526  1.00  0.00    -0.203 F 
ATOM     54  C   UNL A   1      38.528  33.856  38.734  1.00  0.00     0.198 A 
ATOM     55  C   UNL A   1      39.944  35.569  37.831  1.00  0.00     0.198 A 
ATOM     56  F   UNL A   1      40.945  35.276  35.722  1.00  0.00    -0.203 F 
ATOM     57  F   UNL A   1      37.703  33.417  39.695  1.00  0.00    -0.200 F 
ATOM     58  C   UNL A   1      39.118  35.105  38.843  1.00  0.00     0.200 A 
ATOM     59  F   UNL A   1      40.528  36.770  37.939  1.00  0.00    -0.200 F 
ATOM     60  F   UNL A   1      38.883  35.868  39.920  1.00  0.00    -0.200 F 
ENDBRANCH  26  50
BRANCH  38  61
ATOM     61  C   UNL A   1      44.191  28.573  34.908  1.00  0.00     0.064 A 
ATOM     62  C   UNL A   1      44.036  27.434  35.713  1.00  0.00     0.173 A 
ATOM     63  C   UNL A   1      45.473  29.132  34.799  1.00  0.00     0.173 A 
ATOM     64  F   UNL A   1      42.828  26.872  35.862  1.00  0.00    -0.203 F 
ATOM     65  C   UNL A   1      45.118  26.895  36.404  1.00  0.00     0.198 A 
ATOM     66  C   UNL A   1      46.558  28.572  35.468  1.00  0.00     0.198 A 
ATOM     67  F   UNL A   1      45.675  30.218  34.039  1.00  0.00    -0.203 F 
ATOM     68  F   UNL A   1      44.937  25.838  37.209  1.00  0.00    -0.200 F 
ATOM     69  C   UNL A   1      46.378  27.459  36.276  1.00  0.00     0.200 A 
ATOM     70  F   UNL A   1      47.778  29.111  35.332  1.00  0.00    -0.200 F 
ATOM     71  F   UNL A   1      47.418  26.937  36.940  1.00  0.00    -0.200 F 
ENDBRANCH  38  61
ENDBRANCH  12  13
ENDBRANCH   5   7
ENDBRANCH   2   3
ENDBRANCH   1   2
BRANCH   1  72
ATOM     72  C   UNL A   1      31.772  30.312  25.715  1.00  0.00     0.118 C 
BRANCH  72  73
ATOM     73  N   UNL A   1      31.405  29.063  26.372  1.00  0.00    -0.351 N 
ATOM     74  C   UNL A   1      31.487  27.759  25.902  1.00  0.00     0.272 C 
ATOM     75  H   UNL A   1      31.047  29.158  27.284  1.00  0.00     0.163 HD
ATOM     76  O   UNL A   1      31.431  26.817  26.687  1.00  0.00    -0.267 OA
BRANCH  74  77
ATOM     77  C   UNL A   1      31.740  27.487  24.472  1.00  0.00     0.159 A 
ATOM     78  N   UNL A   1      33.076  27.215  24.252  1.00  0.00    -0.247 NA
ATOM     79  C   UNL A   1      30.778  27.359  23.472  1.00  0.00     0.159 A 
ATOM     80  C   UNL A   1      33.425  26.789  23.026  1.00  0.00     0.132 A 
ATOM     81  N   UNL A   1      31.204  26.990  22.211  1.00  0.00    -0.247 NA
ATOM     82  C   UNL A   1      32.503  26.683  22.018  1.00  0.00     0.132 A 
BRANCH  79  83
ATOM     83  C   UNL A   1      29.259  27.402  23.495  1.00  0.00     0.276 C 
ATOM     84  O   UNL A   1      28.658  26.327  23.643  1.00  0.00    -0.267 OA
ATOM     85  N   UNL A   1      28.437  28.500  23.531  1.00  0.00    -0.320 N 
ATOM     86  H   UNL A   1      27.602  28.337  24.027  1.00  0.00     0.170 HD
BRANCH  85  87
ATOM     87  C   UNL A   1      28.521  29.788  23.022  1.00  0.00     0.045 A 
ATOM     88  C   UNL A   1      28.828  30.897  23.822  1.00  0.00     0.030 A 
ATOM     89  C   UNL A   1      28.273  29.933  21.650  1.00  0.00     0.076 A 
ATOM     90  C   UNL A   1      28.772  32.181  23.269  1.00  0.00     0.053 A 
ATOM     91  C   UNL A   1      28.116  31.211  21.172  1.00  0.00     0.167 A 
ATOM     92  C   UNL A   1      28.339  32.307  21.968  1.00  0.00     0.165 A 
ATOM     93  O   UNL A   1      27.653  31.553  19.939  1.00  0.00    -0.454 OA
ATOM     94  O   UNL A   1      28.028  33.472  21.339  1.00  0.00    -0.454 OA
ATOM     95  C   UNL A   1      27.393  32.956  20.148  1.00  0.00     0.468 C 
ENDBRANCH  85  87
ENDBRANCH  79  83
ENDBRANCH  74  77
ENDBRANCH  72  73
ENDBRANCH   1  72
TORSDOF 12
ENDMDL
MODEL 2
REMARK VINA RESULT:     -12.9      2.321      4.163
REMARK SMILES O=C(NCCCNC(=O)c1nccnc1C(=O)Nc1ccc2c(c1)OCO2)c1ccc(-c2c3nc(c(-c4c(F)c(F)c(F)c(F)c4F)c4ccc([nH]4)c(-c4c(F)c(F)c(F)c(F)c4F)c4nc(c(-c5c(F)c(F)c(F)c(F)c5F)c5ccc2[nH]5)C=C4)C=C3)cc1
REMARK SMILES IDX 5 1 4 2 3 3 1 4 2 5 28 7 29 8 90 9 30 10 89 11 31 12 32 13
REMARK SMILES IDX 33 14 83 15 34 16 88 17 82 18 84 19 35 20 87 21 81 22 80 23
REMARK SMILES IDX 36 25 68 26 48 27 67 28 49 29 52 30 66 31 85 32 50 33 51 34
REMARK SMILES IDX 65 36 86 37 53 38 37 39 38 40 46 41 39 42 40 43 44 44 47 45
REMARK SMILES IDX 41 46 42 47 45 48 43 49 69 50 70 51 78 52 71 53 72 54 76 55
REMARK SMILES IDX 79 56 73 57 74 58 77 59 75 60 54 61 55 62 63 63 56 64 57 65
REMARK SMILES IDX 61 66 64 67 58 68 59 69 62 70 60 71 6 72 7 73 8 74 9 76
REMARK SMILES IDX 10 77 11 78 15 79 12 80 14 81 13 82 16 83 17 84 18 85 19 87
REMARK SMILES IDX 20 88 24 89 21 90 23 91 22 92 25 93 27 94 26 95
REMARK H PARENT 3 6 84 24 52 35 7 75 18 86
REMARK Flexibility Score: inf
ROOT
ATOM      1  C   UNL A   1      31.457  32.162  26.825  1.00  0.00     0.042 C 
ENDROOT
BRANCH   1   2
ATOM      2  C   UNL A   1      32.651  33.039  27.229  1.00  0.00     0.118 C 
BRANCH   2   3
ATOM      3  N   UNL A   1      32.395  34.395  27.672  1.00  0.00    -0.352 N 
ATOM      4  O   UNL A   1      32.618  36.144  29.095  1.00  0.00    -0.269 OA
ATOM      5  C   UNL A   1      33.012  35.053  28.718  1.00  0.00     0.251 C 
ATOM      6  H   UNL A   1      31.710  34.898  27.177  1.00  0.00     0.163 HD
BRANCH   5   7
ATOM      7  C   UNL A   1      34.161  34.406  29.391  1.00  0.00     0.039 A 
ATOM      8  C   UNL A   1      33.958  33.640  30.542  1.00  0.00     0.014 A 
ATOM      9  C   UNL A   1      35.443  34.541  28.853  1.00  0.00     0.014 A 
ATOM     10  C   UNL A   1      35.050  33.081  31.205  1.00  0.00     0.010 A 
ATOM     11  C   UNL A   1      36.533  33.942  29.495  1.00  0.00     0.010 A 
ATOM     12  C   UNL A   1      36.349  33.221  30.687  1.00  0.00    -0.014 A 
BRANCH  12  13
ATOM     13  C   UNL A   1      37.492  32.549  31.364  1.00  0.00     0.031 A 
ATOM     14  C   UNL A   1      38.216  31.400  30.718  1.00  0.00     0.074 A 
ATOM     15  C   UNL A   1      37.879  32.986  32.578  1.00  0.00     0.049 A 
ATOM     16  N   UNL A   1      39.225  30.700  31.173  1.00  0.00    -0.248 NA
ATOM     17  C   UNL A   1      37.745  30.977  29.391  1.00  0.00     0.031 C 
ATOM     18  C   UNL A   1      37.248  34.082  33.316  1.00  0.00     0.029 A 
ATOM     19  N   UNL A   1      38.890  32.566  33.406  1.00  0.00    -0.354 N 
ATOM     20  C   UNL A   1      39.504  29.750  30.198  1.00  0.00     0.074 A 
ATOM     21  C   UNL A   1      38.543  29.948  29.133  1.00  0.00     0.031 C 
ATOM     22  C   UNL A   1      37.896  34.257  34.479  1.00  0.00     0.029 A 
ATOM     23  C   UNL A   1      38.954  33.258  34.591  1.00  0.00     0.049 A 
ATOM     24  H   UNL A   1      39.510  31.837  33.173  1.00  0.00     0.167 HD
ATOM     25  C   UNL A   1      40.477  28.806  30.193  1.00  0.00     0.037 A 
ATOM     26  C   UNL A   1      39.756  33.094  35.659  1.00  0.00     0.037 A 
ATOM     27  C   UNL A   1      41.443  28.620  31.247  1.00  0.00     0.049 A 
ATOM     28  C   UNL A   1      40.805  32.016  35.634  1.00  0.00     0.074 A 
ATOM     29  C   UNL A   1      42.502  27.729  31.297  1.00  0.00     0.029 A 
ATOM     30  N   UNL A   1      41.463  29.329  32.438  1.00  0.00    -0.354 N 
ATOM     31  N   UNL A   1      41.097  31.168  34.678  1.00  0.00    -0.248 NA
ATOM     32  C   UNL A   1      41.636  31.872  36.838  1.00  0.00     0.031 C 
ATOM     33  C   UNL A   1      43.129  27.859  32.540  1.00  0.00     0.029 A 
ATOM     34  C   UNL A   1      42.495  28.871  33.243  1.00  0.00     0.049 A 
ATOM     35  H   UNL A   1      40.838  30.051  32.677  1.00  0.00     0.167 HD
ATOM     36  C   UNL A   1      42.154  30.406  35.156  1.00  0.00     0.074 A 
ATOM     37  C   UNL A   1      42.470  30.909  36.476  1.00  0.00     0.031 C 
ATOM     38  C   UNL A   1      42.802  29.378  34.555  1.00  0.00     0.037 A 
BRANCH  25  39
ATOM     39  C   UNL A   1      40.557  27.878  29.014  1.00  0.00     0.064 A 
ATOM     40  C   UNL A   1      39.773  26.718  28.936  1.00  0.00     0.173 A 
ATOM     41  C   UNL A   1      41.352  28.209  27.905  1.00  0.00     0.173 A 
ATOM     42  F   UNL A   1      39.001  26.354  29.970  1.00  0.00    -0.203 F 
ATOM     43  C   UNL A   1      39.788  25.920  27.794  1.00  0.00     0.198 A 
ATOM     44  C   UNL A   1      41.346  27.422  26.757  1.00  0.00     0.198 A 
ATOM     45  F   UNL A   1      42.115  29.313  27.925  1.00  0.00    -0.203 F 
ATOM     46  F   UNL A   1      39.047  24.804  27.749  1.00  0.00    -0.200 F 
ATOM     47  C   UNL A   1      40.565  26.278  26.702  1.00  0.00     0.200 A 
ATOM     48  F   UNL A   1      42.086  27.778  25.697  1.00  0.00    -0.200 F 
ATOM     49  F   UNL A   1      40.562  25.519  25.598  1.00  0.00    -0.200 F 
ENDBRANCH  25  39
BRANCH  26  50
ATOM     50  C   UNL A   1      39.588  33.959  36.856  1.00  0.00     0.064 A 
ATOM     51  C   UNL A   1      40.221  35.206  36.945  1.00  0.00     0.173 A 
ATOM     52  C   UNL A   1      38.812  33.542  37.948  1.00  0.00     0.173 A 
ATOM     53  F   UNL A   1      40.994  35.637  35.937  1.00  0.00    -0.203 F 
ATOM     54  C   UNL A   1      40.104  35.992  38.089  1.00  0.00     0.198 A 
ATOM     55  C   UNL A   1      38.668  34.344  39.078  1.00  0.00     0.198 A 
ATOM     56  F   UNL A   1      38.185  32.357  37.914  1.00  0.00    -0.203 F 
ATOM     57  F   UNL A   1      40.766  37.155  38.170  1.00  0.00    -0.200 F 
ATOM     58  C   UNL A   1      39.324  35.563  39.152  1.00  0.00     0.200 A 
ATOM     59  F   UNL A   1      37.902  33.931  40.097  1.00  0.00    -0.200 F 
ATOM     60  F   UNL A   1      39.212  36.320  40.253  1.00  0.00    -0.200 F 
ENDBRANCH  26  50
BRANCH  38  61
ATOM     61  C   UNL A   1      43.935  28.746  35.312  1.00  0.00     0.064 A 
ATOM     62  C   UNL A   1      45.259  29.176  35.145  1.00  0.00     0.173 A 
ATOM     63  C   UNL A   1      43.689  27.714  36.231  1.00  0.00     0.173 A 
ATOM     64  F   UNL A   1      45.548  30.147  34.267  1.00  0.00    -0.203 F 
ATOM     65  C   UNL A   1      46.300  28.576  35.849  1.00  0.00     0.198 A 
ATOM     66  C   UNL A   1      44.729  27.138  36.956  1.00  0.00     0.198 A 
ATOM     67  F   UNL A   1      42.440  27.270  36.432  1.00  0.00    -0.203 F 
ATOM     68  F   UNL A   1      47.564  28.967  35.635  1.00  0.00    -0.200 F 
ATOM     69  C   UNL A   1      46.034  27.563  36.758  1.00  0.00     0.200 A 
ATOM     70  F   UNL A   1      44.467  26.168  37.843  1.00  0.00    -0.200 F 
ATOM     71  F   UNL A   1      47.036  26.989  37.437  1.00  0.00    -0.200 F 
ENDBRANCH  38  61
ENDBRANCH  12  13
ENDBRANCH   5   7
ENDBRANCH   2   3
ENDBRANCH   1   2
BRANCH   1  72
ATOM     72  C   UNL A   1      31.679  30.697  26.462  1.00  0.00     0.118 C 
BRANCH  72  73
ATOM     73  N   UNL A   1      32.897  30.093  26.989  1.00  0.00    -0.351 N 
ATOM     74  C   UNL A   1      33.698  29.099  26.442  1.00  0.00     0.272 C 
ATOM     75  H   UNL A   1      33.195  30.440  27.859  1.00  0.00     0.163 HD
ATOM     76  O   UNL A   1      34.840  28.930  26.860  1.00  0.00    -0.267 OA
BRANCH  74  77
ATOM     77  C   UNL A   1      33.230  28.299  25.292  1.00  0.00     0.159 A 
ATOM     78  N   UNL A   1      33.913  28.643  24.142  1.00  0.00    -0.247 NA
ATOM     79  C   UNL A   1      32.337  27.230  25.337  1.00  0.00     0.159 A 
ATOM     80  C   UNL A   1      33.708  27.886  23.051  1.00  0.00     0.132 A 
ATOM     81  N   UNL A   1      32.108  26.532  24.166  1.00  0.00    -0.247 NA
ATOM     82  C   UNL A   1      32.814  26.848  23.061  1.00  0.00     0.132 A 
BRANCH  79  83
ATOM     83  C   UNL A   1      31.624  26.534  26.483  1.00  0.00     0.276 C 
ATOM     84  O   UNL A   1      30.973  27.242  27.267  1.00  0.00    -0.267 OA
ATOM     85  N   UNL A   1      31.463  25.189  26.698  1.00  0.00    -0.320 N 
ATOM     86  H   UNL A   1      30.614  24.971  27.147  1.00  0.00     0.170 HD
BRANCH  85  87
ATOM     87  C   UNL A   1      32.232  24.067  26.423  1.00  0.00     0.045 A 
ATOM     88  C   UNL A   1      33.633  24.103  26.385  1.00  0.00     0.030 A 
ATOM     89  C   UNL A   1      31.533  22.878  26.172  1.00  0.00     0.076 A 
ATOM     90  C   UNL A   1      34.340  22.966  25.979  1.00  0.00     0.053 A 
ATOM     91  C   UNL A   1      32.251  21.822  25.668  1.00  0.00     0.167 A 
ATOM     92  C   UNL A   1      33.618  21.873  25.555  1.00  0.00     0.165 A 
ATOM     93  O   UNL A   1      31.732  20.675  25.153  1.00  0.00    -0.454 OA
ATOM     94  O   UNL A   1      34.125  20.772  24.938  1.00  0.00    -0.454 OA
ATOM     95  C   UNL A   1      32.901  20.139  24.501  1.00  0.00     0.468 C 
ENDBRANCH  85  87
ENDBRANCH  79  83
ENDBRANCH  74  77
ENDBRANCH  72  73
ENDBRANCH   1  72
TORSDOF 12
ENDMDL
MODEL 3
REMARK VINA RESULT:     -12.9      0.404      7.266
REMARK SMILES O=C(NCCCNC(=O)c1nccnc1C(=O)Nc1ccc2c(c1)OCO2)c1ccc(-c2c3nc(c(-c4c(F)c(F)c(F)c(F)c4F)c4ccc([nH]4)c(-c4c(F)c(F)c(F)c(F)c4F)c4nc(c(-c5c(F)c(F)c(F)c(F)c5F)c5ccc2[nH]5)C=C4)C=C3)cc1
REMARK SMILES IDX 5 1 4 2 3 3 1 4 2 5 28 7 29 8 90 9 30 10 89 11 31 12 32 13
REMARK SMILES IDX 33 14 83 15 34 16 88 17 82 18 84 19 35 20 87 21 81 22 80 23
REMARK SMILES IDX 36 25 68 26 48 27 67 28 49 29 52 30 66 31 85 32 50 33 51 34
REMARK SMILES IDX 65 36 86 37 53 38 37 39 38 40 46 41 39 42 40 43 44 44 47 45
REMARK SMILES IDX 41 46 42 47 45 48 43 49 69 50 70 51 78 52 71 53 72 54 76 55
REMARK SMILES IDX 79 56 73 57 74 58 77 59 75 60 54 61 55 62 63 63 56 64 57 65
REMARK SMILES IDX 61 66 64 67 58 68 59 69 62 70 60 71 6 72 7 73 8 74 9 76
REMARK SMILES IDX 10 77 11 78 15 79 12 80 14 81 13 82 16 83 17 84 18 85 19 87
REMARK SMILES IDX 20 88 24 89 21 90 23 91 22 92 25 93 27 94 26 95
REMARK H PARENT 3 6 84 24 52 35 7 75 18 86
REMARK Flexibility Score: inf
ROOT
ATOM      1  C   UNL A   1      31.461  31.704  26.487  1.00  0.00     0.042 C 
ENDROOT
BRANCH   1   2
ATOM      2  C   UNL A   1      32.606  32.415  27.224  1.00  0.00     0.118 C 
BRANCH   2   3
ATOM      3  N   UNL A   1      32.441  33.811  27.575  1.00  0.00    -0.352 N 
ATOM      4  O   UNL A   1      32.844  35.651  28.835  1.00  0.00    -0.269 OA
ATOM      5  C   UNL A   1      33.163  34.517  28.517  1.00  0.00     0.251 C 
ATOM      6  H   UNL A   1      31.740  34.307  27.094  1.00  0.00     0.163 HD
BRANCH   5   7
ATOM      7  C   UNL A   1      34.333  33.870  29.154  1.00  0.00     0.039 A 
ATOM      8  C   UNL A   1      34.146  32.865  30.105  1.00  0.00     0.014 A 
ATOM      9  C   UNL A   1      35.623  34.251  28.776  1.00  0.00     0.014 A 
ATOM     10  C   UNL A   1      35.250  32.300  30.744  1.00  0.00     0.010 A 
ATOM     11  C   UNL A   1      36.731  33.651  29.386  1.00  0.00     0.010 A 
ATOM     12  C   UNL A   1      36.555  32.682  30.388  1.00  0.00    -0.014 A 
BRANCH  12  13
ATOM     13  C   UNL A   1      37.721  32.010  31.021  1.00  0.00     0.031 A 
ATOM     14  C   UNL A   1      38.181  32.383  32.404  1.00  0.00     0.074 A 
ATOM     15  C   UNL A   1      38.373  31.051  30.336  1.00  0.00     0.049 A 
ATOM     16  N   UNL A   1      39.182  31.902  33.099  1.00  0.00    -0.248 NA
ATOM     17  C   UNL A   1      37.422  33.434  33.098  1.00  0.00     0.031 C 
ATOM     18  C   UNL A   1      38.035  30.610  28.981  1.00  0.00     0.029 A 
ATOM     19  N   UNL A   1      39.453  30.275  30.678  1.00  0.00    -0.354 N 
ATOM     20  C   UNL A   1      39.182  32.595  34.303  1.00  0.00     0.074 A 
ATOM     21  C   UNL A   1      38.093  33.548  34.238  1.00  0.00     0.031 C 
ATOM     22  C   UNL A   1      38.879  29.633  28.614  1.00  0.00     0.029 A 
ATOM     23  C   UNL A   1      39.847  29.411  29.685  1.00  0.00     0.049 A 
ATOM     24  H   UNL A   1      39.903  30.333  31.552  1.00  0.00     0.167 HD
ATOM     25  C   UNL A   1      40.011  32.444  35.365  1.00  0.00     0.037 A 
ATOM     26  C   UNL A   1      40.883  28.555  29.629  1.00  0.00     0.037 A 
ATOM     27  C   UNL A   1      41.085  31.485  35.434  1.00  0.00     0.049 A 
ATOM     28  C   UNL A   1      41.803  28.434  30.812  1.00  0.00     0.074 A 
ATOM     29  C   UNL A   1      41.936  31.221  36.494  1.00  0.00     0.029 A 
ATOM     30  N   UNL A   1      41.463  30.641  34.401  1.00  0.00    -0.354 N 
ATOM     31  N   UNL A   1      41.751  29.051  31.968  1.00  0.00    -0.248 NA
ATOM     32  C   UNL A   1      42.928  27.496  30.684  1.00  0.00     0.031 C 
ATOM     33  C   UNL A   1      42.864  30.257  36.085  1.00  0.00     0.029 A 
ATOM     34  C   UNL A   1      42.556  29.880  34.788  1.00  0.00     0.049 A 
ATOM     35  H   UNL A   1      41.021  30.589  33.523  1.00  0.00     0.167 HD
ATOM     36  C   UNL A   1      42.820  28.563  32.708  1.00  0.00     0.074 A 
ATOM     37  C   UNL A   1      43.488  27.581  31.881  1.00  0.00     0.031 C 
ATOM     38  C   UNL A   1      43.214  28.904  33.959  1.00  0.00     0.037 A 
BRANCH  25  39
ATOM     39  C   UNL A   1      39.810  33.339  36.554  1.00  0.00     0.064 A 
ATOM     40  C   UNL A   1      40.473  34.569  36.669  1.00  0.00     0.173 A 
ATOM     41  C   UNL A   1      38.865  33.008  37.538  1.00  0.00     0.173 A 
ATOM     42  F   UNL A   1      41.389  34.931  35.759  1.00  0.00    -0.203 F 
ATOM     43  C   UNL A   1      40.202  35.432  37.730  1.00  0.00     0.198 A 
ATOM     44  C   UNL A   1      38.580  33.883  38.583  1.00  0.00     0.198 A 
ATOM     45  F   UNL A   1      38.196  31.847  37.470  1.00  0.00    -0.203 F 
ATOM     46  F   UNL A   1      40.863  36.593  37.833  1.00  0.00    -0.200 F 
ATOM     47  C   UNL A   1      39.249  35.093  38.679  1.00  0.00     0.200 A 
ATOM     48  F   UNL A   1      37.647  33.560  39.491  1.00  0.00    -0.200 F 
ATOM     49  F   UNL A   1      38.976  35.933  39.687  1.00  0.00    -0.200 F 
ENDBRANCH  25  39
BRANCH  26  50
ATOM     50  C   UNL A   1      41.121  27.753  28.400  1.00  0.00     0.064 A 
ATOM     51  C   UNL A   1      40.518  26.502  28.220  1.00  0.00     0.173 A 
ATOM     52  C   UNL A   1      41.980  28.214  27.390  1.00  0.00     0.173 A 
ATOM     53  F   UNL A   1      39.708  26.007  29.169  1.00  0.00    -0.203 F 
ATOM     54  C   UNL A   1      40.784  25.730  27.092  1.00  0.00     0.198 A 
ATOM     55  C   UNL A   1      42.219  27.457  26.246  1.00  0.00     0.198 A 
ATOM     56  F   UNL A   1      42.583  29.406  27.512  1.00  0.00    -0.203 F 
ATOM     57  F   UNL A   1      40.238  24.512  26.973  1.00  0.00    -0.200 F 
ATOM     58  C   UNL A   1      41.629  26.211  26.103  1.00  0.00     0.200 A 
ATOM     59  F   UNL A   1      43.025  27.931  25.287  1.00  0.00    -0.200 F 
ATOM     60  F   UNL A   1      41.884  25.467  25.017  1.00  0.00    -0.200 F 
ENDBRANCH  26  50
BRANCH  38  61
ATOM     61  C   UNL A   1      44.410  28.190  34.519  1.00  0.00     0.064 A 
ATOM     62  C   UNL A   1      44.284  26.969  35.199  1.00  0.00     0.173 A 
ATOM     63  C   UNL A   1      45.698  28.720  34.353  1.00  0.00     0.173 A 
ATOM     64  F   UNL A   1      43.072  26.429  35.398  1.00  0.00    -0.203 F 
ATOM     65  C   UNL A   1      45.401  26.321  35.719  1.00  0.00     0.198 A 
ATOM     66  C   UNL A   1      46.816  28.053  34.848  1.00  0.00     0.198 A 
ATOM     67  F   UNL A   1      45.874  29.881  33.706  1.00  0.00    -0.203 F 
ATOM     68  F   UNL A   1      45.252  25.183  36.411  1.00  0.00    -0.200 F 
ATOM     69  C   UNL A   1      46.666  26.859  35.537  1.00  0.00     0.200 A 
ATOM     70  F   UNL A   1      48.039  28.569  34.660  1.00  0.00    -0.200 F 
ATOM     71  F   UNL A   1      47.741  26.233  36.035  1.00  0.00    -0.200 F 
ENDBRANCH  38  61
ENDBRANCH  12  13
ENDBRANCH   5   7
ENDBRANCH   2   3
ENDBRANCH   1   2
BRANCH   1  72
ATOM     72  C   UNL A   1      31.739  30.419  25.714  1.00  0.00     0.118 C 
BRANCH  72  73
ATOM     73  N   UNL A   1      31.362  29.182  26.387  1.00  0.00    -0.351 N 
ATOM     74  C   UNL A   1      31.459  27.869  25.944  1.00  0.00     0.272 C 
ATOM     75  H   UNL A   1      30.985  29.293  27.289  1.00  0.00     0.163 HD
ATOM     76  O   UNL A   1      31.390  26.942  26.746  1.00  0.00    -0.267 OA
BRANCH  74  77
ATOM     77  C   UNL A   1      31.742  27.571  24.525  1.00  0.00     0.159 A 
ATOM     78  N   UNL A   1      33.086  27.313  24.335  1.00  0.00    -0.247 NA
ATOM     79  C   UNL A   1      30.801  27.408  23.510  1.00  0.00     0.159 A 
ATOM     80  C   UNL A   1      33.464  26.867  23.125  1.00  0.00     0.132 A 
ATOM     81  N   UNL A   1      31.256  27.019  22.265  1.00  0.00    -0.247 NA
ATOM     82  C   UNL A   1      32.563  26.727  22.103  1.00  0.00     0.132 A 
BRANCH  79  83
ATOM     83  C   UNL A   1      29.282  27.430  23.504  1.00  0.00     0.276 C 
ATOM     84  O   UNL A   1      28.693  26.346  23.637  1.00  0.00    -0.267 OA
ATOM     85  N   UNL A   1      28.444  28.516  23.528  1.00  0.00    -0.320 N 
ATOM     86  H   UNL A   1      27.602  28.339  24.008  1.00  0.00     0.170 HD
BRANCH  85  87
ATOM     87  C   UNL A   1      28.519  29.807  23.026  1.00  0.00     0.045 A 
ATOM     88  C   UNL A   1      28.840  30.912  23.828  1.00  0.00     0.030 A 
ATOM     89  C   UNL A   1      28.248  29.961  21.659  1.00  0.00     0.076 A 
ATOM     90  C   UNL A   1      28.776  32.198  23.283  1.00  0.00     0.053 A 
ATOM     91  C   UNL A   1      28.083  31.242  21.193  1.00  0.00     0.167 A 
ATOM     92  C   UNL A   1      28.321  32.333  21.991  1.00  0.00     0.165 A 
ATOM     93  O   UNL A   1      27.600  31.591  19.970  1.00  0.00    -0.454 OA
ATOM     94  O   UNL A   1      27.999  33.502  21.375  1.00  0.00    -0.454 OA
ATOM     95  C   UNL A   1      27.343  32.993  20.191  1.00  0.00     0.468 C 
ENDBRANCH  85  87
ENDBRANCH  79  83
ENDBRANCH  74  77
ENDBRANCH  72  73
ENDBRANCH   1  72
TORSDOF 12
ENDMDL
