MODEL 1
REMARK VINA RESULT:     -12.2      0.000      0.000
REMARK SMILES CCN1C(=O)N(CC)[C@H]2NC(=O)N(CCCC(=O)NCCCNC(=O)c3ccc(-c4c5nc(c(-c6c(F)c(F)c(F)c(F)c6F)c6ccc([nH]6)c(-c6c(F)c(F)c(F)c(F)c6F)c6nc(c(-c7c(F)c(F)c(F)c(F)c7F)c7ccc4[nH]7)C=C6)C=C5)cc3)[C@@H]21
REMARK SMILES IDX 20 1 19 2 17 3 18 4 16 6 15 7 14 8 13 9 3 10 4 11 89 12 5 13
REMARK SMILES IDX 6 14 9 15 10 16 11 17 12 19 2 20 1 21 7 22 8 23 21 24 22 25
REMARK SMILES IDX 23 26 24 27 25 29 26 30 27 31 88 32 28 33 87 34 29 35 30 36
REMARK SMILES IDX 31 37 81 38 32 39 86 40 80 41 82 42 33 43 85 44 79 45 78 46
REMARK SMILES IDX 34 48 66 49 46 50 65 51 47 52 50 53 64 54 83 55 48 56 49 57
REMARK SMILES IDX 63 59 84 60 51 61 35 62 36 63 44 64 37 65 38 66 42 67 45 68
REMARK SMILES IDX 39 69 40 70 43 71 41 72 67 73 68 74 76 75 69 76 70 77 74 78
REMARK SMILES IDX 77 79 71 80 72 81 75 82 73 83 52 84 53 85 61 86 54 87 55 88
REMARK SMILES IDX 59 89 62 90 56 91 57 92 60 93 58 94
REMARK H PARENT 19 5 10 18 23 28 82 47 50 58
REMARK Flexibility Score: inf
ROOT
ATOM      1  C   UNL A   1      32.057  30.755  26.178  1.00  0.00     0.117 C 
ENDROOT
BRANCH   1   2
ATOM      2  N   UNL A   1      33.345  30.287  26.641  1.00  0.00    -0.356 N 
ATOM      3  C   UNL A   1      33.867  29.042  26.783  1.00  0.00     0.220 C 
ATOM      4  O   UNL A   1      35.086  28.985  26.972  1.00  0.00    -0.275 OA
ATOM      5  H   UNL A   1      33.961  31.010  26.902  1.00  0.00     0.163 HD
BRANCH   3   6
ATOM      6  C   UNL A   1      33.074  27.751  26.650  1.00  0.00     0.102 C 
BRANCH   6   7
ATOM      7  C   UNL A   1      33.598  26.623  25.806  1.00  0.00     0.031 C 
BRANCH   7   8
ATOM      8  C   UNL A   1      33.419  26.730  24.306  1.00  0.00     0.124 C 
BRANCH   8   9
ATOM      9  N   UNL A   1      32.469  27.624  23.627  1.00  0.00    -0.300 N 
ATOM     10  N   UNL A   1      29.685  27.351  23.681  1.00  0.00    -0.300 N 
ATOM     11  C   UNL A   1      28.813  28.339  23.088  1.00  0.00     0.323 C 
ATOM     12  C   UNL A   1      31.033  27.979  23.771  1.00  0.00     0.231 C 
ATOM     13  O   UNL A   1      27.598  28.353  23.081  1.00  0.00    -0.248 OA
ATOM     14  N   UNL A   1      29.626  29.315  22.496  1.00  0.00    -0.300 N 
ATOM     15  C   UNL A   1      30.912  28.759  22.437  1.00  0.00     0.228 C 
ATOM     16  N   UNL A   1      32.098  29.483  22.323  1.00  0.00    -0.314 N 
ATOM     17  C   UNL A   1      33.087  28.657  22.836  1.00  0.00     0.320 C 
ATOM     18  H   UNL A   1      32.210  30.390  21.955  1.00  0.00     0.167 HD
ATOM     19  O   UNL A   1      34.272  28.798  22.597  1.00  0.00    -0.249 OA
BRANCH  10  20
ATOM     20  C   UNL A   1      29.123  26.236  24.445  1.00  0.00     0.120 C 
ATOM     21  C   UNL A   1      29.892  25.647  25.622  1.00  0.00     0.027 C 
ENDBRANCH  10  20
BRANCH  14  22
ATOM     22  C   UNL A   1      29.193  30.527  21.840  1.00  0.00     0.120 C 
ATOM     23  C   UNL A   1      28.682  31.600  22.785  1.00  0.00     0.027 C 
ENDBRANCH  14  22
ENDBRANCH   8   9
ENDBRANCH   7   8
ENDBRANCH   6   7
ENDBRANCH   3   6
ENDBRANCH   1   2
BRANCH   1  24
ATOM     24  C   UNL A   1      31.625  32.070  26.795  1.00  0.00     0.042 C 
BRANCH  24  25
ATOM     25  C   UNL A   1      32.812  32.876  27.258  1.00  0.00     0.118 C 
BRANCH  25  26
ATOM     26  N   UNL A   1      32.449  34.215  27.714  1.00  0.00    -0.352 N 
ATOM     27  C   UNL A   1      33.008  34.945  28.738  1.00  0.00     0.251 C 
ATOM     28  H   UNL A   1      31.712  34.651  27.227  1.00  0.00     0.163 HD
ATOM     29  O   UNL A   1      32.511  36.008  29.092  1.00  0.00    -0.269 OA
BRANCH  27  30
ATOM     30  C   UNL A   1      34.187  34.395  29.438  1.00  0.00     0.039 A 
ATOM     31  C   UNL A   1      34.003  33.559  30.539  1.00  0.00     0.014 A 
ATOM     32  C   UNL A   1      35.469  34.638  28.941  1.00  0.00     0.014 A 
ATOM     33  C   UNL A   1      35.107  32.914  31.095  1.00  0.00     0.010 A 
ATOM     34  C   UNL A   1      36.532  33.874  29.389  1.00  0.00     0.010 A 
ATOM     35  C   UNL A   1      36.373  33.035  30.498  1.00  0.00    -0.014 A 
BRANCH  35  36
ATOM     36  C   UNL A   1      37.561  32.344  31.051  1.00  0.00     0.031 A 
ATOM     37  C   UNL A   1      38.054  32.700  32.428  1.00  0.00     0.074 A 
ATOM     38  C   UNL A   1      38.216  31.436  30.304  1.00  0.00     0.049 A 
ATOM     39  N   UNL A   1      39.072  32.219  33.095  1.00  0.00    -0.248 NA
ATOM     40  C   UNL A   1      37.333  33.771  33.136  1.00  0.00     0.031 C 
ATOM     41  C   UNL A   1      37.872  31.062  28.931  1.00  0.00     0.029 A 
ATOM     42  N   UNL A   1      39.302  30.652  30.599  1.00  0.00    -0.354 N 
ATOM     43  C   UNL A   1      39.112  32.935  34.284  1.00  0.00     0.074 A 
ATOM     44  C   UNL A   1      38.089  33.951  34.205  1.00  0.00     0.031 C 
ATOM     45  C   UNL A   1      38.687  30.074  28.527  1.00  0.00     0.029 A 
ATOM     46  C   UNL A   1      39.635  29.775  29.596  1.00  0.00     0.049 A 
ATOM     47  H   UNL A   1      39.795  30.713  31.448  1.00  0.00     0.167 HD
ATOM     48  C   UNL A   1      39.895  32.735  35.369  1.00  0.00     0.037 A 
ATOM     49  C   UNL A   1      40.589  28.827  29.557  1.00  0.00     0.037 A 
ATOM     50  C   UNL A   1      40.896  31.707  35.444  1.00  0.00     0.049 A 
ATOM     51  C   UNL A   1      41.466  28.633  30.764  1.00  0.00     0.074 A 
ATOM     52  C   UNL A   1      41.720  31.377  36.503  1.00  0.00     0.029 A 
ATOM     53  N   UNL A   1      41.211  30.842  34.404  1.00  0.00    -0.354 N 
ATOM     54  N   UNL A   1      41.442  29.260  31.917  1.00  0.00    -0.248 NA
ATOM     55  C   UNL A   1      42.498  27.593  30.667  1.00  0.00     0.031 C 
ATOM     56  C   UNL A   1      42.575  30.352  36.085  1.00  0.00     0.029 A 
ATOM     57  C   UNL A   1      42.238  29.995  34.788  1.00  0.00     0.049 A 
ATOM     58  H   UNL A   1      40.770  30.832  33.524  1.00  0.00     0.167 HD
ATOM     59  C   UNL A   1      42.429  28.668  32.695  1.00  0.00     0.074 A 
ATOM     60  C   UNL A   1      43.023  27.624  31.883  1.00  0.00     0.031 C 
ATOM     61  C   UNL A   1      42.808  28.958  33.964  1.00  0.00     0.037 A 
BRANCH  48  62
ATOM     62  C   UNL A   1      39.686  33.647  36.546  1.00  0.00     0.064 A 
ATOM     63  C   UNL A   1      38.853  33.290  37.621  1.00  0.00     0.173 A 
ATOM     64  C   UNL A   1      40.304  34.905  36.592  1.00  0.00     0.173 A 
ATOM     65  F   UNL A   1      38.223  32.104  37.622  1.00  0.00    -0.203 F 
ATOM     66  C   UNL A   1      38.603  34.178  38.664  1.00  0.00     0.198 A 
ATOM     67  C   UNL A   1      40.085  35.774  37.660  1.00  0.00     0.198 A 
ATOM     68  F   UNL A   1      41.112  35.300  35.598  1.00  0.00    -0.203 F 
ATOM     69  F   UNL A   1      37.738  33.845  39.632  1.00  0.00    -0.200 F 
ATOM     70  C   UNL A   1      39.224  35.417  38.686  1.00  0.00     0.200 A 
ATOM     71  F   UNL A   1      40.697  36.966  37.686  1.00  0.00    -0.200 F 
ATOM     72  F   UNL A   1      38.979  36.272  39.688  1.00  0.00    -0.200 F 
ENDBRANCH  48  62
BRANCH  49  73
ATOM     73  C   UNL A   1      40.714  27.949  28.365  1.00  0.00     0.064 A 
ATOM     74  C   UNL A   1      41.493  28.341  27.266  1.00  0.00     0.173 A 
ATOM     75  C   UNL A   1      40.081  26.700  28.300  1.00  0.00     0.173 A 
ATOM     76  F   UNL A   1      42.107  29.534  27.273  1.00  0.00    -0.203 F 
ATOM     77  C   UNL A   1      41.617  27.527  26.142  1.00  0.00     0.198 A 
ATOM     78  C   UNL A   1      40.229  25.873  27.188  1.00  0.00     0.198 A 
ATOM     79  F   UNL A   1      39.331  26.273  29.326  1.00  0.00    -0.203 F 
ATOM     80  F   UNL A   1      42.335  27.945  25.091  1.00  0.00    -0.200 F 
ATOM     81  C   UNL A   1      40.992  26.290  26.107  1.00  0.00     0.200 A 
ATOM     82  F   UNL A   1      39.636  24.671  27.165  1.00  0.00    -0.200 F 
ATOM     83  F   UNL A   1      41.119  25.503  25.029  1.00  0.00    -0.200 F 
ENDBRANCH  49  73
BRANCH  61  84
ATOM     84  C   UNL A   1      43.886  28.108  34.571  1.00  0.00     0.064 A 
ATOM     85  C   UNL A   1      45.228  28.516  34.593  1.00  0.00     0.173 A 
ATOM     86  C   UNL A   1      43.561  26.885  35.180  1.00  0.00     0.173 A 
ATOM     87  F   UNL A   1      45.592  29.670  34.014  1.00  0.00    -0.203 F 
ATOM     88  C   UNL A   1      46.209  27.717  35.174  1.00  0.00     0.198 A 
ATOM     89  C   UNL A   1      44.537  26.107  35.792  1.00  0.00     0.198 A 
ATOM     90  F   UNL A   1      42.291  26.453  35.194  1.00  0.00    -0.203 F 
ATOM     91  F   UNL A   1      47.491  28.100  35.135  1.00  0.00    -0.200 F 
ATOM     92  C   UNL A   1      45.861  26.519  35.781  1.00  0.00     0.200 A 
ATOM     93  F   UNL A   1      44.197  24.959  36.395  1.00  0.00    -0.200 F 
ATOM     94  F   UNL A   1      46.806  25.756  36.349  1.00  0.00    -0.200 F 
ENDBRANCH  61  84
ENDBRANCH  35  36
ENDBRANCH  27  30
ENDBRANCH  25  26
ENDBRANCH  24  25
ENDBRANCH   1  24
TORSDOF 15
ENDMDL
MODEL 2
REMARK VINA RESULT:     -12.1      0.692      7.444
REMARK SMILES CCN1C(=O)N(CC)[C@H]2NC(=O)N(CCCC(=O)NCCCNC(=O)c3ccc(-c4c5nc(c(-c6c(F)c(F)c(F)c(F)c6F)c6ccc([nH]6)c(-c6c(F)c(F)c(F)c(F)c6F)c6nc(c(-c7c(F)c(F)c(F)c(F)c7F)c7ccc4[nH]7)C=C6)C=C5)cc3)[C@@H]21
REMARK SMILES IDX 20 1 19 2 17 3 18 4 16 6 15 7 14 8 13 9 3 10 4 11 89 12 5 13
REMARK SMILES IDX 6 14 9 15 10 16 11 17 12 19 2 20 1 21 7 22 8 23 21 24 22 25
REMARK SMILES IDX 23 26 24 27 25 29 26 30 27 31 88 32 28 33 87 34 29 35 30 36
REMARK SMILES IDX 31 37 81 38 32 39 86 40 80 41 82 42 33 43 85 44 79 45 78 46
REMARK SMILES IDX 34 48 66 49 46 50 65 51 47 52 50 53 64 54 83 55 48 56 49 57
REMARK SMILES IDX 63 59 84 60 51 61 35 62 36 63 44 64 37 65 38 66 42 67 45 68
REMARK SMILES IDX 39 69 40 70 43 71 41 72 67 73 68 74 76 75 69 76 70 77 74 78
REMARK SMILES IDX 77 79 71 80 72 81 75 82 73 83 52 84 53 85 61 86 54 87 55 88
REMARK SMILES IDX 59 89 62 90 56 91 57 92 60 93 58 94
REMARK H PARENT 19 5 10 18 23 28 82 47 50 58
REMARK Flexibility Score: inf
ROOT
ATOM      1  C   UNL A   1      31.949  30.665  26.468  1.00  0.00     0.117 C 
ENDROOT
BRANCH   1   2
ATOM      2  N   UNL A   1      33.215  30.251  27.031  1.00  0.00    -0.356 N 
ATOM      3  C   UNL A   1      33.868  29.060  27.035  1.00  0.00     0.220 C 
ATOM      4  O   UNL A   1      35.050  29.093  27.391  1.00  0.00    -0.275 OA
ATOM      5  H   UNL A   1      33.697  30.971  27.500  1.00  0.00     0.163 HD
BRANCH   3   6
ATOM      6  C   UNL A   1      33.268  27.744  26.568  1.00  0.00     0.102 C 
BRANCH   6   7
ATOM      7  C   UNL A   1      34.002  26.887  25.574  1.00  0.00     0.031 C 
BRANCH   7   8
ATOM      8  C   UNL A   1      33.354  26.672  24.222  1.00  0.00     0.124 C 
BRANCH   8   9
ATOM      9  N   UNL A   1      32.411  27.598  23.576  1.00  0.00    -0.300 N 
ATOM     10  N   UNL A   1      29.625  27.370  23.657  1.00  0.00    -0.300 N 
ATOM     11  C   UNL A   1      28.763  28.387  23.099  1.00  0.00     0.323 C 
ATOM     12  C   UNL A   1      30.983  27.974  23.747  1.00  0.00     0.231 C 
ATOM     13  O   UNL A   1      27.548  28.421  23.107  1.00  0.00    -0.248 OA
ATOM     14  N   UNL A   1      29.585  29.364  22.522  1.00  0.00    -0.300 N 
ATOM     15  C   UNL A   1      30.860  28.788  22.434  1.00  0.00     0.228 C 
ATOM     16  N   UNL A   1      32.057  29.495  22.323  1.00  0.00    -0.314 N 
ATOM     17  C   UNL A   1      33.038  28.640  22.804  1.00  0.00     0.320 C 
ATOM     18  H   UNL A   1      32.180  30.409  21.977  1.00  0.00     0.167 HD
ATOM     19  O   UNL A   1      34.222  28.767  22.554  1.00  0.00    -0.249 OA
BRANCH  10  20
ATOM     20  C   UNL A   1      29.052  26.246  24.400  1.00  0.00     0.120 C 
ATOM     21  C   UNL A   1      29.801  25.651  25.588  1.00  0.00     0.027 C 
ENDBRANCH  10  20
BRANCH  14  22
ATOM     22  C   UNL A   1      29.165  30.598  21.901  1.00  0.00     0.120 C 
ATOM     23  C   UNL A   1      28.785  31.693  22.882  1.00  0.00     0.027 C 
ENDBRANCH  14  22
ENDBRANCH   8   9
ENDBRANCH   7   8
ENDBRANCH   6   7
ENDBRANCH   3   6
ENDBRANCH   1   2
BRANCH   1  24
ATOM     24  C   UNL A   1      31.581  32.102  26.775  1.00  0.00     0.042 C 
BRANCH  24  25
ATOM     25  C   UNL A   1      32.737  32.842  27.401  1.00  0.00     0.118 C 
BRANCH  25  26
ATOM     26  N   UNL A   1      32.437  34.248  27.665  1.00  0.00    -0.352 N 
ATOM     27  C   UNL A   1      32.992  35.070  28.618  1.00  0.00     0.251 C 
ATOM     28  H   UNL A   1      31.752  34.657  27.089  1.00  0.00     0.163 HD
ATOM     29  O   UNL A   1      32.547  36.195  28.810  1.00  0.00    -0.269 OA
BRANCH  27  30
ATOM     30  C   UNL A   1      34.101  34.549  29.443  1.00  0.00     0.039 A 
ATOM     31  C   UNL A   1      33.818  33.921  30.656  1.00  0.00     0.014 A 
ATOM     32  C   UNL A   1      35.412  34.605  28.965  1.00  0.00     0.014 A 
ATOM     33  C   UNL A   1      34.849  33.289  31.351  1.00  0.00     0.010 A 
ATOM     34  C   UNL A   1      36.394  33.841  29.570  1.00  0.00     0.010 A 
ATOM     35  C   UNL A   1      36.136  33.210  30.793  1.00  0.00    -0.014 A 
BRANCH  35  36
ATOM     36  C   UNL A   1      37.246  32.526  31.496  1.00  0.00     0.031 A 
ATOM     37  C   UNL A   1      37.970  31.395  30.816  1.00  0.00     0.074 A 
ATOM     38  C   UNL A   1      37.569  32.888  32.752  1.00  0.00     0.049 A 
ATOM     39  N   UNL A   1      38.963  30.663  31.254  1.00  0.00    -0.248 NA
ATOM     40  C   UNL A   1      37.488  31.003  29.481  1.00  0.00     0.031 C 
ATOM     41  C   UNL A   1      36.890  33.921  33.536  1.00  0.00     0.029 A 
ATOM     42  N   UNL A   1      38.559  32.436  33.585  1.00  0.00    -0.354 N 
ATOM     43  C   UNL A   1      39.208  29.729  30.255  1.00  0.00     0.074 A 
ATOM     44  C   UNL A   1      38.198  29.915  29.241  1.00  0.00     0.031 C 
ATOM     45  C   UNL A   1      37.527  34.071  34.709  1.00  0.00     0.029 A 
ATOM     46  C   UNL A   1      38.629  33.117  34.775  1.00  0.00     0.049 A 
ATOM     47  H   UNL A   1      39.162  31.694  33.352  1.00  0.00     0.167 HD
ATOM     48  C   UNL A   1      40.215  28.830  30.164  1.00  0.00     0.037 A 
ATOM     49  C   UNL A   1      39.499  32.992  35.794  1.00  0.00     0.037 A 
ATOM     50  C   UNL A   1      41.226  28.669  31.172  1.00  0.00     0.049 A 
ATOM     51  C   UNL A   1      40.599  31.971  35.685  1.00  0.00     0.074 A 
ATOM     52  C   UNL A   1      42.320  27.824  31.172  1.00  0.00     0.029 A 
ATOM     53  N   UNL A   1      41.260  29.371  32.369  1.00  0.00    -0.354 N 
ATOM     54  N   UNL A   1      40.873  31.149  34.700  1.00  0.00    -0.248 NA
ATOM     55  C   UNL A   1      41.515  31.867  36.828  1.00  0.00     0.031 C 
ATOM     56  C   UNL A   1      42.983  27.972  32.395  1.00  0.00     0.029 A 
ATOM     57  C   UNL A   1      42.342  28.959  33.129  1.00  0.00     0.049 A 
ATOM     58  H   UNL A   1      40.610  30.061  32.638  1.00  0.00     0.167 HD
ATOM     59  C   UNL A   1      42.013  30.455  35.087  1.00  0.00     0.074 A 
ATOM     60  C   UNL A   1      42.382  30.964  36.393  1.00  0.00     0.031 C 
ATOM     61  C   UNL A   1      42.693  29.488  34.424  1.00  0.00     0.037 A 
BRANCH  48  62
ATOM     62  C   UNL A   1      40.256  27.967  28.933  1.00  0.00     0.064 A 
ATOM     63  C   UNL A   1      39.606  26.721  28.880  1.00  0.00     0.173 A 
ATOM     64  C   UNL A   1      40.974  28.375  27.799  1.00  0.00     0.173 A 
ATOM     65  F   UNL A   1      38.918  26.273  29.941  1.00  0.00    -0.203 F 
ATOM     66  C   UNL A   1      39.722  25.897  27.764  1.00  0.00     0.198 A 
ATOM     67  C   UNL A   1      41.051  27.566  26.668  1.00  0.00     0.198 A 
ATOM     68  F   UNL A   1      41.612  29.555  27.789  1.00  0.00    -0.203 F 
ATOM     69  F   UNL A   1      39.163  24.679  27.773  1.00  0.00    -0.200 F 
ATOM     70  C   UNL A   1      40.439  26.322  26.657  1.00  0.00     0.200 A 
ATOM     71  F   UNL A   1      41.734  27.984  25.593  1.00  0.00    -0.200 F 
ATOM     72  F   UNL A   1      40.553  25.525  25.585  1.00  0.00    -0.200 F 
ENDBRANCH  48  62
BRANCH  49  73
ATOM     73  C   UNL A   1      39.405  33.902  36.966  1.00  0.00     0.064 A 
ATOM     74  C   UNL A   1      38.720  33.507  38.124  1.00  0.00     0.173 A 
ATOM     75  C   UNL A   1      40.007  35.168  36.966  1.00  0.00     0.173 A 
ATOM     76  F   UNL A   1      38.115  32.311  38.169  1.00  0.00    -0.203 F 
ATOM     77  C   UNL A   1      38.624  34.351  39.229  1.00  0.00     0.198 A 
ATOM     78  C   UNL A   1      39.936  36.000  38.082  1.00  0.00     0.198 A 
ATOM     79  F   UNL A   1      40.680  35.591  35.886  1.00  0.00    -0.203 F 
ATOM     80  F   UNL A   1      37.929  33.963  40.307  1.00  0.00    -0.200 F 
ATOM     81  C   UNL A   1      39.239  35.594  39.210  1.00  0.00     0.200 A 
ATOM     82  F   UNL A   1      40.545  37.193  38.065  1.00  0.00    -0.200 F 
ATOM     83  F   UNL A   1      39.155  36.401  40.276  1.00  0.00    -0.200 F 
ENDBRANCH  49  73
BRANCH  61  84
ATOM     84  C   UNL A   1      43.932  28.947  35.078  1.00  0.00     0.064 A 
ATOM     85  C   UNL A   1      43.896  27.832  35.927  1.00  0.00     0.173 A 
ATOM     86  C   UNL A   1      45.182  29.531  34.811  1.00  0.00     0.173 A 
ATOM     87  F   UNL A   1      42.726  27.247  36.223  1.00  0.00    -0.203 F 
ATOM     88  C   UNL A   1      45.060  27.340  36.511  1.00  0.00     0.198 A 
ATOM     89  C   UNL A   1      46.347  29.013  35.366  1.00  0.00     0.198 A 
ATOM     90  F   UNL A   1      45.273  30.594  33.998  1.00  0.00    -0.203 F 
ATOM     91  F   UNL A   1      44.994  26.308  37.362  1.00  0.00    -0.200 F 
ATOM     92  C   UNL A   1      46.284  27.925  36.223  1.00  0.00     0.200 A 
ATOM     93  F   UNL A   1      47.531  29.567  35.072  1.00  0.00    -0.200 F 
ATOM     94  F   UNL A   1      47.405  27.442  36.778  1.00  0.00    -0.200 F 
ENDBRANCH  61  84
ENDBRANCH  35  36
ENDBRANCH  27  30
ENDBRANCH  25  26
ENDBRANCH  24  25
ENDBRANCH   1  24
TORSDOF 15
ENDMDL
MODEL 3
REMARK VINA RESULT:     -12.0      6.169     11.341
REMARK SMILES CCN1C(=O)N(CC)[C@H]2NC(=O)N(CCCC(=O)NCCCNC(=O)c3ccc(-c4c5nc(c(-c6c(F)c(F)c(F)c(F)c6F)c6ccc([nH]6)c(-c6c(F)c(F)c(F)c(F)c6F)c6nc(c(-c7c(F)c(F)c(F)c(F)c7F)c7ccc4[nH]7)C=C6)C=C5)cc3)[C@@H]21
REMARK SMILES IDX 20 1 19 2 17 3 18 4 16 6 15 7 14 8 13 9 3 10 4 11 89 12 5 13
REMARK SMILES IDX 6 14 9 15 10 16 11 17 12 19 2 20 1 21 7 22 8 23 21 24 22 25
REMARK SMILES IDX 23 26 24 27 25 29 26 30 27 31 88 32 28 33 87 34 29 35 30 36
REMARK SMILES IDX 31 37 81 38 32 39 86 40 80 41 82 42 33 43 85 44 79 45 78 46
REMARK SMILES IDX 34 48 66 49 46 50 65 51 47 52 50 53 64 54 83 55 48 56 49 57
REMARK SMILES IDX 63 59 84 60 51 61 35 62 36 63 44 64 37 65 38 66 42 67 45 68
REMARK SMILES IDX 39 69 40 70 43 71 41 72 67 73 68 74 76 75 69 76 70 77 74 78
REMARK SMILES IDX 77 79 71 80 72 81 75 82 73 83 52 84 53 85 61 86 54 87 55 88
REMARK SMILES IDX 59 89 62 90 56 91 57 92 60 93 58 94
REMARK H PARENT 19 5 10 18 23 28 82 47 50 58
REMARK Flexibility Score: inf
ROOT
ATOM      1  C   UNL A   1      37.119  20.811  24.966  1.00  0.00     0.117 C 
ENDROOT
BRANCH   1   2
ATOM      2  N   UNL A   1      37.536  21.987  25.698  1.00  0.00    -0.356 N 
ATOM      3  C   UNL A   1      37.125  23.280  25.660  1.00  0.00     0.220 C 
ATOM      4  O   UNL A   1      37.511  23.998  26.587  1.00  0.00    -0.275 OA
ATOM      5  H   UNL A   1      38.255  21.816  26.349  1.00  0.00     0.163 HD
BRANCH   3   6
ATOM      6  C   UNL A   1      36.182  23.857  24.615  1.00  0.00     0.102 C 
BRANCH   6   7
ATOM      7  C   UNL A   1      34.965  24.631  25.039  1.00  0.00     0.031 C 
BRANCH   7   8
ATOM      8  C   UNL A   1      33.946  23.916  25.900  1.00  0.00     0.124 C 
BRANCH   8   9
ATOM      9  N   UNL A   1      33.628  22.482  25.825  1.00  0.00    -0.300 N 
ATOM     10  N   UNL A   1      32.637  21.172  23.561  1.00  0.00    -0.300 N 
ATOM     11  C   UNL A   1      32.463  19.737  23.529  1.00  0.00     0.323 C 
ATOM     12  C   UNL A   1      33.485  21.465  24.750  1.00  0.00     0.231 C 
ATOM     13  O   UNL A   1      32.082  19.054  22.599  1.00  0.00    -0.248 OA
ATOM     14  N   UNL A   1      32.815  19.243  24.791  1.00  0.00    -0.300 N 
ATOM     15  C   UNL A   1      32.864  20.358  25.640  1.00  0.00     0.228 C 
ATOM     16  N   UNL A   1      33.558  20.421  26.848  1.00  0.00    -0.314 N 
ATOM     17  C   UNL A   1      33.799  21.770  27.066  1.00  0.00     0.320 C 
ATOM     18  H   UNL A   1      33.822  19.667  27.424  1.00  0.00     0.167 HD
ATOM     19  O   UNL A   1      34.070  22.237  28.157  1.00  0.00    -0.249 OA
BRANCH  10  20
ATOM     20  C   UNL A   1      32.417  21.968  22.353  1.00  0.00     0.120 C 
ATOM     21  C   UNL A   1      33.245  23.223  22.100  1.00  0.00     0.027 C 
ENDBRANCH  10  20
BRANCH  14  22
ATOM     22  C   UNL A   1      32.858  17.859  25.203  1.00  0.00     0.120 C 
ATOM     23  C   UNL A   1      34.070  17.095  24.703  1.00  0.00     0.027 C 
ENDBRANCH  14  22
ENDBRANCH   8   9
ENDBRANCH   7   8
ENDBRANCH   6   7
ENDBRANCH   3   6
ENDBRANCH   1   2
BRANCH   1  24
ATOM     24  C   UNL A   1      38.117  19.671  25.015  1.00  0.00     0.042 C 
BRANCH  24  25
ATOM     25  C   UNL A   1      39.366  20.068  25.761  1.00  0.00     0.118 C 
BRANCH  25  26
ATOM     26  N   UNL A   1      40.361  19.000  25.814  1.00  0.00    -0.352 N 
ATOM     27  C   UNL A   1      41.715  19.111  26.035  1.00  0.00     0.251 C 
ATOM     28  H   UNL A   1      40.021  18.087  25.674  1.00  0.00     0.163 HD
ATOM     29  O   UNL A   1      42.449  18.136  25.921  1.00  0.00    -0.269 OA
BRANCH  27  30
ATOM     30  C   UNL A   1      42.274  20.439  26.359  1.00  0.00     0.039 A 
ATOM     31  C   UNL A   1      42.667  21.289  25.325  1.00  0.00     0.014 A 
ATOM     32  C   UNL A   1      42.319  20.872  27.686  1.00  0.00     0.014 A 
ATOM     33  C   UNL A   1      43.040  22.599  25.626  1.00  0.00     0.010 A 
ATOM     34  C   UNL A   1      42.530  22.211  27.962  1.00  0.00     0.010 A 
ATOM     35  C   UNL A   1      42.935  23.081  26.942  1.00  0.00    -0.014 A 
BRANCH  35  36
ATOM     36  C   UNL A   1      43.300  24.473  27.289  1.00  0.00     0.031 A 
ATOM     37  C   UNL A   1      44.700  24.961  27.028  1.00  0.00     0.074 A 
ATOM     38  C   UNL A   1      42.394  25.278  27.875  1.00  0.00     0.049 A 
ATOM     39  N   UNL A   1      45.227  26.137  27.259  1.00  0.00    -0.248 NA
ATOM     40  C   UNL A   1      45.652  23.984  26.472  1.00  0.00     0.031 C 
ATOM     41  C   UNL A   1      41.030  24.893  28.240  1.00  0.00     0.029 A 
ATOM     42  N   UNL A   1      42.480  26.593  28.255  1.00  0.00    -0.354 N 
ATOM     43  C   UNL A   1      46.560  26.030  26.887  1.00  0.00     0.074 A 
ATOM     44  C   UNL A   1      46.791  24.654  26.518  1.00  0.00     0.031 C 
ATOM     45  C   UNL A   1      40.386  25.966  28.728  1.00  0.00     0.029 A 
ATOM     46  C   UNL A   1      41.304  27.100  28.749  1.00  0.00     0.049 A 
ATOM     47  H   UNL A   1      43.307  27.122  28.181  1.00  0.00     0.167 HD
ATOM     48  C   UNL A   1      47.500  27.001  26.809  1.00  0.00     0.037 A 
ATOM     49  C   UNL A   1      41.002  28.347  29.155  1.00  0.00     0.037 A 
ATOM     50  C   UNL A   1      47.252  28.372  27.160  1.00  0.00     0.049 A 
ATOM     51  C   UNL A   1      42.066  29.408  29.083  1.00  0.00     0.074 A 
ATOM     52  C   UNL A   1      48.109  29.453  27.082  1.00  0.00     0.029 A 
ATOM     53  N   UNL A   1      46.049  28.847  27.666  1.00  0.00    -0.354 N 
ATOM     54  N   UNL A   1      43.301  29.318  28.652  1.00  0.00    -0.248 NA
ATOM     55  C   UNL A   1      41.688  30.749  29.549  1.00  0.00     0.031 C 
ATOM     56  C   UNL A   1      47.444  30.572  27.596  1.00  0.00     0.029 A 
ATOM     57  C   UNL A   1      46.150  30.203  27.930  1.00  0.00     0.049 A 
ATOM     58  H   UNL A   1      45.243  28.301  27.814  1.00  0.00     0.167 HD
ATOM     59  C   UNL A   1      43.839  30.594  28.759  1.00  0.00     0.074 A 
ATOM     60  C   UNL A   1      42.787  31.442  29.286  1.00  0.00     0.031 C 
ATOM     61  C   UNL A   1      45.085  31.027  28.448  1.00  0.00     0.037 A 
BRANCH  48  62
ATOM     62  C   UNL A   1      48.865  26.599  26.326  1.00  0.00     0.064 A 
ATOM     63  C   UNL A   1      49.812  26.013  27.184  1.00  0.00     0.173 A 
ATOM     64  C   UNL A   1      49.245  26.823  24.994  1.00  0.00     0.173 A 
ATOM     65  F   UNL A   1      49.508  25.790  28.473  1.00  0.00    -0.203 F 
ATOM     66  C   UNL A   1      51.100  25.721  26.743  1.00  0.00     0.198 A 
ATOM     67  C   UNL A   1      50.522  26.489  24.546  1.00  0.00     0.198 A 
ATOM     68  F   UNL A   1      48.384  27.375  24.128  1.00  0.00    -0.203 F 
ATOM     69  F   UNL A   1      52.008  25.243  27.605  1.00  0.00    -0.200 F 
ATOM     70  C   UNL A   1      51.452  25.954  25.424  1.00  0.00     0.200 A 
ATOM     71  F   UNL A   1      50.857  26.702  23.266  1.00  0.00    -0.200 F 
ATOM     72  F   UNL A   1      52.694  25.677  25.002  1.00  0.00    -0.200 F 
ENDBRANCH  48  62
BRANCH  49  73
ATOM     73  C   UNL A   1      39.620  28.669  29.597  1.00  0.00     0.064 A 
ATOM     74  C   UNL A   1      38.671  29.149  28.682  1.00  0.00     0.173 A 
ATOM     75  C   UNL A   1      39.209  28.490  30.925  1.00  0.00     0.173 A 
ATOM     76  F   UNL A   1      39.018  29.352  27.402  1.00  0.00    -0.203 F 
ATOM     77  C   UNL A   1      37.372  29.456  29.084  1.00  0.00     0.198 A 
ATOM     78  C   UNL A   1      37.902  28.768  31.320  1.00  0.00     0.198 A 
ATOM     79  F   UNL A   1      40.075  28.026  31.838  1.00  0.00    -0.203 F 
ATOM     80  F   UNL A   1      36.498  29.951  28.197  1.00  0.00    -0.200 F 
ATOM     81  C   UNL A   1      36.986  29.258  30.400  1.00  0.00     0.200 A 
ATOM     82  F   UNL A   1      37.529  28.560  32.590  1.00  0.00    -0.200 F 
ATOM     83  F   UNL A   1      35.734  29.544  30.784  1.00  0.00    -0.200 F 
ENDBRANCH  49  73
BRANCH  61  84
ATOM     84  C   UNL A   1      45.369  32.491  28.627  1.00  0.00     0.064 A 
ATOM     85  C   UNL A   1      45.083  33.429  27.624  1.00  0.00     0.173 A 
ATOM     86  C   UNL A   1      45.895  32.964  29.840  1.00  0.00     0.173 A 
ATOM     87  F   UNL A   1      44.592  33.026  26.443  1.00  0.00    -0.203 F 
ATOM     88  C   UNL A   1      45.342  34.783  27.818  1.00  0.00     0.198 A 
ATOM     89  C   UNL A   1      46.117  34.322  30.043  1.00  0.00     0.198 A 
ATOM     90  F   UNL A   1      46.178  32.109  30.834  1.00  0.00    -0.203 F 
ATOM     91  F   UNL A   1      45.112  35.654  26.827  1.00  0.00    -0.200 F 
ATOM     92  C   UNL A   1      45.849  35.229  29.029  1.00  0.00     0.200 A 
ATOM     93  F   UNL A   1      46.589  34.753  31.221  1.00  0.00    -0.200 F 
ATOM     94  F   UNL A   1      46.087  36.535  29.217  1.00  0.00    -0.200 F 
ENDBRANCH  61  84
ENDBRANCH  35  36
ENDBRANCH  27  30
ENDBRANCH  25  26
ENDBRANCH  24  25
ENDBRANCH   1  24
TORSDOF 15
ENDMDL
