MODEL 1
REMARK VINA RESULT:     -13.4      0.000      0.000
REMARK SMILES Cc1cc(C(=O)NCCCNC(=O)c2ccc(-c3c4nc(c(-c5c(F)c(F)c(F)c(F)c5F)c5ccc([nH]5)c(-c5c(F)c(F)c(F)c(F)c5F)c5nc(c(-c6c(F)c(F)c(F)c(F)c6F)c6ccc3[nH]6)C=C5)C=C4)cc2)cc(S(=O)(=O)NNC(=O)c2c[nH]c3ccccc23)c1C
REMARK SMILES IDX 8 1 7 2 5 3 6 4 4 6 1 7 2 8 3 9 95 10 78 11 96 12 77 13
REMARK SMILES IDX 79 14 80 15 81 16 82 17 83 19 84 20 85 22 86 23 87 24 94 25
REMARK SMILES IDX 88 26 89 27 93 28 90 30 92 31 91 32 9 33 10 34 11 35 12 36
REMARK SMILES IDX 13 38 14 39 15 40 76 41 16 42 75 43 17 44 18 45 19 46 69 47
REMARK SMILES IDX 20 48 74 49 68 50 70 51 21 52 73 53 67 54 66 55 22 57 54 58
REMARK SMILES IDX 34 59 53 60 35 61 38 62 52 63 71 64 36 65 37 66 51 68 72 69
REMARK SMILES IDX 39 70 23 71 24 72 32 73 25 74 26 75 30 76 33 77 27 78 28 79
REMARK SMILES IDX 31 80 29 81 55 82 56 83 64 84 57 85 58 86 62 87 65 88 59 89
REMARK SMILES IDX 60 90 63 91 61 92 40 93 41 94 49 95 42 96 43 97 47 98 50 99
REMARK SMILES IDX 44 100 45 101 48 102 46 103
REMARK H PARENT 7 5 82 18 83 21 88 29 11 37 70 56 38 67
REMARK Flexibility Score: inf
ROOT
ATOM      1  C   UNL A   1      37.275  20.268  24.636  1.00  0.00     0.118 C 
ENDROOT
BRANCH   1   2
ATOM      2  N   UNL A   1      37.687  21.602  25.045  1.00  0.00    -0.352 N 
ATOM      3  C   UNL A   1      37.009  22.749  25.374  1.00  0.00     0.251 C 
ATOM      4  O   UNL A   1      37.685  23.716  25.730  1.00  0.00    -0.269 OA
ATOM      5  H   UNL A   1      38.664  21.706  25.096  1.00  0.00     0.163 HD
BRANCH   3   6
ATOM      6  C   UNL A   1      35.523  22.899  25.356  1.00  0.00     0.041 A 
ATOM      7  C   UNL A   1      32.540  23.012  27.710  1.00  0.00     0.044 C 
ATOM      8  C   UNL A   1      33.320  23.019  26.421  1.00  0.00    -0.046 A 
ATOM      9  C   UNL A   1      34.710  22.819  26.487  1.00  0.00     0.017 A 
ATOM     10  C   UNL A   1      32.704  23.209  25.167  1.00  0.00    -0.028 A 
ATOM     11  C   UNL A   1      33.514  23.165  24.002  1.00  0.00     0.088 A 
ATOM     12  C   UNL A   1      31.214  23.441  25.067  1.00  0.00     0.046 C 
ATOM     13  C   UNL A   1      34.906  23.059  24.103  1.00  0.00     0.036 A 
BRANCH  11  14
ATOM     14  S   UNL A   1      32.715  23.071  22.411  1.00  0.00     0.257 S 
ATOM     15  O   UNL A   1      33.757  23.363  21.426  1.00  0.00    -0.205 OA
ATOM     16  O   UNL A   1      31.968  21.848  22.366  1.00  0.00    -0.205 OA
BRANCH  14  17
ATOM     17  N   UNL A   1      31.546  24.306  22.305  1.00  0.00    -0.123 NA
ATOM     18  H   UNL A   1      31.331  24.587  23.261  1.00  0.00     0.167 HD
BRANCH  17  19
ATOM     19  N   UNL A   1      31.829  25.540  21.557  1.00  0.00    -0.273 N 
ATOM     20  C   UNL A   1      32.798  26.426  22.009  1.00  0.00     0.268 C 
ATOM     21  H   UNL A   1      31.330  25.738  20.732  1.00  0.00     0.186 HD
ATOM     22  O   UNL A   1      33.870  26.554  21.424  1.00  0.00    -0.268 OA
BRANCH  20  23
ATOM     23  C   UNL A   1      32.298  27.400  22.981  1.00  0.00     0.066 A 
ATOM     24  C   UNL A   1      31.452  28.461  22.705  1.00  0.00     0.097 A 
ATOM     25  C   UNL A   1      32.725  27.605  24.335  1.00  0.00     0.012 A 
ATOM     26  N   UNL A   1      31.810  29.474  23.552  1.00  0.00    -0.360 N 
ATOM     27  C   UNL A   1      32.593  28.978  24.562  1.00  0.00     0.046 A 
ATOM     28  C   UNL A   1      33.337  26.823  25.336  1.00  0.00     0.011 A 
ATOM     29  H   UNL A   1      31.546  30.417  23.451  1.00  0.00     0.166 HD
ATOM     30  C   UNL A   1      33.206  29.633  25.631  1.00  0.00     0.027 A 
ATOM     31  C   UNL A   1      33.831  27.451  26.488  1.00  0.00     0.001 A 
ATOM     32  C   UNL A   1      33.820  28.840  26.601  1.00  0.00     0.002 A 
ENDBRANCH  20  23
ENDBRANCH  17  19
ENDBRANCH  14  17
ENDBRANCH  11  14
ENDBRANCH   3   6
ENDBRANCH   1   2
BRANCH   1  33
ATOM     33  C   UNL A   1      38.336  19.219  24.984  1.00  0.00     0.042 C 
BRANCH  33  34
ATOM     34  C   UNL A   1      39.443  19.747  25.898  1.00  0.00     0.118 C 
BRANCH  34  35
ATOM     35  N   UNL A   1      40.607  18.871  25.914  1.00  0.00    -0.352 N 
ATOM     36  C   UNL A   1      41.944  19.164  26.029  1.00  0.00     0.251 C 
ATOM     37  H   UNL A   1      40.403  17.912  25.827  1.00  0.00     0.163 HD
ATOM     38  O   UNL A   1      42.770  18.278  25.827  1.00  0.00    -0.269 OA
BRANCH  36  39
ATOM     39  C   UNL A   1      42.409  20.526  26.378  1.00  0.00     0.039 A 
ATOM     40  C   UNL A   1      42.805  21.382  25.344  1.00  0.00     0.014 A 
ATOM     41  C   UNL A   1      42.525  20.946  27.705  1.00  0.00     0.014 A 
ATOM     42  C   UNL A   1      43.264  22.669  25.633  1.00  0.00     0.010 A 
ATOM     43  C   UNL A   1      42.928  22.251  27.992  1.00  0.00     0.010 A 
ATOM     44  C   UNL A   1      43.303  23.125  26.960  1.00  0.00    -0.014 A 
BRANCH  44  45
ATOM     45  C   UNL A   1      43.729  24.511  27.286  1.00  0.00     0.031 A 
ATOM     46  C   UNL A   1      42.726  25.525  27.763  1.00  0.00     0.074 A 
ATOM     47  C   UNL A   1      45.011  24.876  27.087  1.00  0.00     0.049 A 
ATOM     48  N   UNL A   1      42.889  26.800  28.009  1.00  0.00    -0.248 NA
ATOM     49  C   UNL A   1      41.351  25.044  27.968  1.00  0.00     0.031 C 
ATOM     50  C   UNL A   1      46.072  23.998  26.594  1.00  0.00     0.029 A 
ATOM     51  N   UNL A   1      45.635  26.087  27.261  1.00  0.00    -0.354 N 
ATOM     52  C   UNL A   1      41.637  27.277  28.378  1.00  0.00     0.074 A 
ATOM     53  C   UNL A   1      40.717  26.164  28.284  1.00  0.00     0.031 C 
ATOM     54  C   UNL A   1      47.218  24.693  26.516  1.00  0.00     0.029 A 
ATOM     55  C   UNL A   1      46.965  26.074  26.917  1.00  0.00     0.049 A 
ATOM     56  H   UNL A   1      45.174  26.888  27.600  1.00  0.00     0.167 HD
ATOM     57  C   UNL A   1      41.292  28.526  28.776  1.00  0.00     0.037 A 
ATOM     58  C   UNL A   1      47.876  27.066  26.913  1.00  0.00     0.037 A 
ATOM     59  C   UNL A   1      42.214  29.625  28.894  1.00  0.00     0.049 A 
ATOM     60  C   UNL A   1      47.466  28.443  27.358  1.00  0.00     0.074 A 
ATOM     61  C   UNL A   1      41.972  30.912  29.344  1.00  0.00     0.029 A 
ATOM     62  N   UNL A   1      43.559  29.566  28.559  1.00  0.00    -0.354 N 
ATOM     63  N   UNL A   1      46.292  28.868  27.761  1.00  0.00    -0.248 NA
ATOM     64  C   UNL A   1      48.508  29.479  27.353  1.00  0.00     0.031 C 
ATOM     65  C   UNL A   1      43.160  31.643  29.241  1.00  0.00     0.029 A 
ATOM     66  C   UNL A   1      44.154  30.800  28.774  1.00  0.00     0.049 A 
ATOM     67  H   UNL A   1      44.022  28.767  28.218  1.00  0.00     0.167 HD
ATOM     68  C   UNL A   1      46.461  30.207  28.083  1.00  0.00     0.074 A 
ATOM     69  C   UNL A   1      47.854  30.523  27.841  1.00  0.00     0.031 C 
ATOM     70  C   UNL A   1      45.544  31.096  28.538  1.00  0.00     0.037 A 
BRANCH  57  71
ATOM     71  C   UNL A   1      39.850  28.773  29.114  1.00  0.00     0.064 A 
ATOM     72  C   UNL A   1      39.355  28.583  30.414  1.00  0.00     0.173 A 
ATOM     73  C   UNL A   1      38.959  29.244  28.138  1.00  0.00     0.173 A 
ATOM     74  F   UNL A   1      40.164  28.124  31.383  1.00  0.00    -0.203 F 
ATOM     75  C   UNL A   1      38.018  28.826  30.716  1.00  0.00     0.198 A 
ATOM     76  C   UNL A   1      37.628  29.515  28.450  1.00  0.00     0.198 A 
ATOM     77  F   UNL A   1      39.380  29.451  26.882  1.00  0.00    -0.203 F 
ATOM     78  F   UNL A   1      37.559  28.591  31.953  1.00  0.00    -0.200 F 
ATOM     79  C   UNL A   1      37.157  29.298  29.736  1.00  0.00     0.200 A 
ATOM     80  F   UNL A   1      36.802  29.984  27.506  1.00  0.00    -0.200 F 
ATOM     81  F   UNL A   1      35.873  29.538  30.031  1.00  0.00    -0.200 F 
ENDBRANCH  57  71
BRANCH  58  82
ATOM     82  C   UNL A   1      49.274  26.787  26.494  1.00  0.00     0.064 A 
ATOM     83  C   UNL A   1      50.220  26.319  27.417  1.00  0.00     0.173 A 
ATOM     84  C   UNL A   1      49.692  26.979  25.170  1.00  0.00     0.173 A 
ATOM     85  F   UNL A   1      49.872  26.139  28.699  1.00  0.00    -0.203 F 
ATOM     86  C   UNL A   1      51.536  26.072  27.034  1.00  0.00     0.198 A 
ATOM     87  C   UNL A   1      51.002  26.705  24.783  1.00  0.00     0.198 A 
ATOM     88  F   UNL A   1      48.824  27.420  24.248  1.00  0.00    -0.203 F 
ATOM     89  F   UNL A   1      52.432  25.666  27.946  1.00  0.00    -0.200 F 
ATOM     90  C   UNL A   1      51.926  26.260  25.717  1.00  0.00     0.200 A 
ATOM     91  F   UNL A   1      51.371  26.874  23.505  1.00  0.00    -0.200 F 
ATOM     92  F   UNL A   1      53.190  26.017  25.348  1.00  0.00    -0.200 F 
ENDBRANCH  58  82
BRANCH  70  93
ATOM     93  C   UNL A   1      46.024  32.485  28.841  1.00  0.00     0.064 A 
ATOM     94  C   UNL A   1      46.531  32.830  30.101  1.00  0.00     0.173 A 
ATOM     95  C   UNL A   1      46.011  33.471  27.843  1.00  0.00     0.173 A 
ATOM     96  F   UNL A   1      46.550  31.926  31.092  1.00  0.00    -0.203 F 
ATOM     97  C   UNL A   1      46.988  34.120  30.359  1.00  0.00     0.198 A 
ATOM     98  C   UNL A   1      46.495  34.752  28.097  1.00  0.00     0.198 A 
ATOM     99  F   UNL A   1      45.541  33.190  26.619  1.00  0.00    -0.203 F 
ATOM    100  F   UNL A   1      47.426  34.441  31.584  1.00  0.00    -0.200 F 
ATOM    101  C   UNL A   1      46.976  35.077  29.356  1.00  0.00     0.200 A 
ATOM    102  F   UNL A   1      46.493  35.672  27.122  1.00  0.00    -0.200 F 
ATOM    103  F   UNL A   1      47.422  36.316  29.605  1.00  0.00    -0.200 F 
ENDBRANCH  70  93
ENDBRANCH  44  45
ENDBRANCH  36  39
ENDBRANCH  34  35
ENDBRANCH  33  34
ENDBRANCH   1  33
TORSDOF 14
ENDMDL
MODEL 2
REMARK VINA RESULT:     -13.4      1.570      3.741
REMARK SMILES Cc1cc(C(=O)NCCCNC(=O)c2ccc(-c3c4nc(c(-c5c(F)c(F)c(F)c(F)c5F)c5ccc([nH]5)c(-c5c(F)c(F)c(F)c(F)c5F)c5nc(c(-c6c(F)c(F)c(F)c(F)c6F)c6ccc3[nH]6)C=C5)C=C4)cc2)cc(S(=O)(=O)NNC(=O)c2c[nH]c3ccccc23)c1C
REMARK SMILES IDX 8 1 7 2 5 3 6 4 4 6 1 7 2 8 3 9 95 10 78 11 96 12 77 13
REMARK SMILES IDX 79 14 80 15 81 16 82 17 83 19 84 20 85 22 86 23 87 24 94 25
REMARK SMILES IDX 88 26 89 27 93 28 90 30 92 31 91 32 9 33 10 34 11 35 12 36
REMARK SMILES IDX 13 38 14 39 15 40 76 41 16 42 75 43 17 44 18 45 19 46 69 47
REMARK SMILES IDX 20 48 74 49 68 50 70 51 21 52 73 53 67 54 66 55 22 57 54 58
REMARK SMILES IDX 34 59 53 60 35 61 38 62 52 63 71 64 36 65 37 66 51 68 72 69
REMARK SMILES IDX 39 70 23 71 24 72 32 73 25 74 26 75 30 76 33 77 27 78 28 79
REMARK SMILES IDX 31 80 29 81 55 82 56 83 64 84 57 85 58 86 62 87 65 88 59 89
REMARK SMILES IDX 60 90 63 91 61 92 40 93 41 94 49 95 42 96 43 97 47 98 50 99
REMARK SMILES IDX 44 100 45 101 48 102 46 103
REMARK H PARENT 7 5 82 18 83 21 88 29 11 37 70 56 38 67
REMARK Flexibility Score: inf
ROOT
ATOM      1  C   UNL A   1      37.396  20.725  24.662  1.00  0.00     0.118 C 
ENDROOT
BRANCH   1   2
ATOM      2  N   UNL A   1      37.903  21.978  25.199  1.00  0.00    -0.352 N 
ATOM      3  C   UNL A   1      37.310  23.101  25.721  1.00  0.00     0.251 C 
ATOM      4  O   UNL A   1      38.058  23.986  26.139  1.00  0.00    -0.269 OA
ATOM      5  H   UNL A   1      38.886  22.034  25.186  1.00  0.00     0.163 HD
BRANCH   3   6
ATOM      6  C   UNL A   1      35.836  23.313  25.839  1.00  0.00     0.041 A 
ATOM      7  C   UNL A   1      32.928  22.580  28.174  1.00  0.00     0.044 C 
ATOM      8  C   UNL A   1      33.673  23.084  26.965  1.00  0.00    -0.046 A 
ATOM      9  C   UNL A   1      35.050  22.810  26.875  1.00  0.00     0.017 A 
ATOM     10  C   UNL A   1      33.038  23.802  25.931  1.00  0.00    -0.028 A 
ATOM     11  C   UNL A   1      33.813  24.206  24.814  1.00  0.00     0.088 A 
ATOM     12  C   UNL A   1      31.563  24.122  26.009  1.00  0.00     0.046 C 
ATOM     13  C   UNL A   1      35.198  24.003  24.793  1.00  0.00     0.036 A 
BRANCH  11  14
ATOM     14  S   UNL A   1      32.969  24.813  23.365  1.00  0.00     0.257 S 
ATOM     15  O   UNL A   1      32.090  25.884  23.837  1.00  0.00    -0.205 OA
ATOM     16  O   UNL A   1      33.954  25.050  22.351  1.00  0.00    -0.205 OA
BRANCH  14  17
ATOM     17  N   UNL A   1      31.981  23.575  22.740  1.00  0.00    -0.123 NA
ATOM     18  H   UNL A   1      31.370  24.009  22.048  1.00  0.00     0.167 HD
BRANCH  17  19
ATOM     19  N   UNL A   1      32.579  22.398  22.092  1.00  0.00    -0.273 N 
ATOM     20  C   UNL A   1      31.916  21.178  22.106  1.00  0.00     0.268 C 
ATOM     21  H   UNL A   1      33.453  22.476  21.646  1.00  0.00     0.186 HD
ATOM     22  O   UNL A   1      31.407  20.715  21.089  1.00  0.00    -0.268 OA
BRANCH  20  23
ATOM     23  C   UNL A   1      32.186  20.375  23.300  1.00  0.00     0.066 A 
ATOM     24  C   UNL A   1      32.156  20.828  24.608  1.00  0.00     0.097 A 
ATOM     25  C   UNL A   1      32.736  19.052  23.376  1.00  0.00     0.012 A 
ATOM     26  N   UNL A   1      33.116  20.128  25.285  1.00  0.00    -0.360 N 
ATOM     27  C   UNL A   1      33.492  19.032  24.551  1.00  0.00     0.046 A 
ATOM     28  C   UNL A   1      32.801  17.928  22.527  1.00  0.00     0.011 A 
ATOM     29  H   UNL A   1      33.482  20.373  26.166  1.00  0.00     0.166 HD
ATOM     30  C   UNL A   1      34.446  18.050  24.824  1.00  0.00     0.027 A 
ATOM     31  C   UNL A   1      33.651  16.865  22.863  1.00  0.00     0.001 A 
ATOM     32  C   UNL A   1      34.504  16.956  23.961  1.00  0.00     0.002 A 
ENDBRANCH  20  23
ENDBRANCH  17  19
ENDBRANCH  14  17
ENDBRANCH  11  14
ENDBRANCH   3   6
ENDBRANCH   1   2
BRANCH   1  33
ATOM     33  C   UNL A   1      38.343  19.559  24.961  1.00  0.00     0.042 C 
BRANCH  33  34
ATOM     34  C   UNL A   1      39.305  19.831  26.119  1.00  0.00     0.118 C 
BRANCH  34  35
ATOM     35  N   UNL A   1      40.464  18.949  26.090  1.00  0.00    -0.352 N 
ATOM     36  C   UNL A   1      41.806  19.236  26.129  1.00  0.00     0.251 C 
ATOM     37  H   UNL A   1      40.251  17.990  26.033  1.00  0.00     0.163 HD
ATOM     38  O   UNL A   1      42.616  18.342  25.900  1.00  0.00    -0.269 OA
BRANCH  36  39
ATOM     39  C   UNL A   1      42.296  20.602  26.425  1.00  0.00     0.039 A 
ATOM     40  C   UNL A   1      42.580  21.457  25.353  1.00  0.00     0.014 A 
ATOM     41  C   UNL A   1      42.544  21.027  27.733  1.00  0.00     0.014 A 
ATOM     42  C   UNL A   1      43.058  22.748  25.592  1.00  0.00     0.010 A 
ATOM     43  C   UNL A   1      42.966  22.335  27.974  1.00  0.00     0.010 A 
ATOM     44  C   UNL A   1      43.229  23.208  26.907  1.00  0.00    -0.014 A 
BRANCH  44  45
ATOM     45  C   UNL A   1      43.678  24.597  27.184  1.00  0.00     0.031 A 
ATOM     46  C   UNL A   1      42.707  25.623  27.701  1.00  0.00     0.074 A 
ATOM     47  C   UNL A   1      44.947  24.954  26.905  1.00  0.00     0.049 A 
ATOM     48  N   UNL A   1      42.887  26.902  27.916  1.00  0.00    -0.248 NA
ATOM     49  C   UNL A   1      41.345  25.151  27.994  1.00  0.00     0.031 C 
ATOM     50  C   UNL A   1      45.974  24.063  26.366  1.00  0.00     0.029 A 
ATOM     51  N   UNL A   1      45.584  26.165  27.022  1.00  0.00    -0.354 N 
ATOM     52  C   UNL A   1      41.661  27.389  28.349  1.00  0.00     0.074 A 
ATOM     53  C   UNL A   1      40.734  26.279  28.326  1.00  0.00     0.031 C 
ATOM     54  C   UNL A   1      47.116  24.752  26.210  1.00  0.00     0.029 A 
ATOM     55  C   UNL A   1      46.891  26.140  26.602  1.00  0.00     0.049 A 
ATOM     56  H   UNL A   1      45.145  26.973  27.374  1.00  0.00     0.167 HD
ATOM     57  C   UNL A   1      41.343  28.646  28.745  1.00  0.00     0.037 A 
ATOM     58  C   UNL A   1      47.804  27.129  26.529  1.00  0.00     0.037 A 
ATOM     59  C   UNL A   1      42.274  29.744  28.791  1.00  0.00     0.049 A 
ATOM     60  C   UNL A   1      47.424  28.515  26.973  1.00  0.00     0.074 A 
ATOM     61  C   UNL A   1      42.062  31.038  29.233  1.00  0.00     0.029 A 
ATOM     62  N   UNL A   1      43.597  29.673  28.379  1.00  0.00    -0.354 N 
ATOM     63  N   UNL A   1      46.277  28.951  27.436  1.00  0.00    -0.248 NA
ATOM     64  C   UNL A   1      48.468  29.546  26.890  1.00  0.00     0.031 C 
ATOM     65  C   UNL A   1      43.245  31.763  29.049  1.00  0.00     0.029 A 
ATOM     66  C   UNL A   1      44.208  30.908  28.539  1.00  0.00     0.049 A 
ATOM     67  H   UNL A   1      44.037  28.867  28.026  1.00  0.00     0.167 HD
ATOM     68  C   UNL A   1      46.469  30.294  27.725  1.00  0.00     0.074 A 
ATOM     69  C   UNL A   1      47.846  30.601  27.398  1.00  0.00     0.031 C 
ATOM     70  C   UNL A   1      45.582  31.194  28.218  1.00  0.00     0.037 A 
BRANCH  57  71
ATOM     71  C   UNL A   1      39.924  28.905  29.162  1.00  0.00     0.064 A 
ATOM     72  C   UNL A   1      38.944  29.297  28.237  1.00  0.00     0.173 A 
ATOM     73  C   UNL A   1      39.528  28.720  30.496  1.00  0.00     0.173 A 
ATOM     74  F   UNL A   1      39.273  29.497  26.951  1.00  0.00    -0.203 F 
ATOM     75  C   UNL A   1      37.629  29.524  28.637  1.00  0.00     0.198 A 
ATOM     76  C   UNL A   1      38.205  28.918  30.886  1.00  0.00     0.198 A 
ATOM     77  F   UNL A   1      40.421  28.338  31.420  1.00  0.00    -0.203 F 
ATOM     78  F   UNL A   1      36.723  29.944  27.743  1.00  0.00    -0.200 F 
ATOM     79  C   UNL A   1      37.260  29.329  29.958  1.00  0.00     0.200 A 
ATOM     80  F   UNL A   1      37.847  28.716  32.161  1.00  0.00    -0.200 F 
ATOM     81  F   UNL A   1      35.993  29.540  30.339  1.00  0.00    -0.200 F 
ENDBRANCH  57  71
BRANCH  58  82
ATOM     82  C   UNL A   1      49.174  26.837  26.034  1.00  0.00     0.064 A 
ATOM     83  C   UNL A   1      49.504  27.020  24.684  1.00  0.00     0.173 A 
ATOM     84  C   UNL A   1      50.178  26.372  26.895  1.00  0.00     0.173 A 
ATOM     85  F   UNL A   1      48.571  27.444  23.818  1.00  0.00    -0.203 F 
ATOM     86  C   UNL A   1      50.781  26.731  24.210  1.00  0.00     0.198 A 
ATOM     87  C   UNL A   1      51.463  26.109  26.425  1.00  0.00     0.198 A 
ATOM     88  F   UNL A   1      49.914  26.185  28.196  1.00  0.00    -0.203 F 
ATOM     89  F   UNL A   1      51.058  26.875  22.906  1.00  0.00    -0.200 F 
ATOM     90  C   UNL A   1      51.762  26.282  25.081  1.00  0.00     0.200 A 
ATOM     91  F   UNL A   1      52.412  25.689  27.273  1.00  0.00    -0.200 F 
ATOM     92  F   UNL A   1      52.992  26.010  24.627  1.00  0.00    -0.200 F 
ENDBRANCH  58  82
BRANCH  70  93
ATOM     93  C   UNL A   1      46.084  32.587  28.470  1.00  0.00     0.064 A 
ATOM     94  C   UNL A   1      45.983  33.592  27.498  1.00  0.00     0.173 A 
ATOM     95  C   UNL A   1      46.637  32.926  29.713  1.00  0.00     0.173 A 
ATOM     96  F   UNL A   1      45.476  33.313  26.288  1.00  0.00    -0.203 F 
ATOM     97  C   UNL A   1      46.438  34.882  27.754  1.00  0.00     0.198 A 
ATOM     98  C   UNL A   1      47.065  34.224  29.976  1.00  0.00     0.198 A 
ATOM     99  F   UNL A   1      46.751  32.001  30.678  1.00  0.00    -0.203 F 
ATOM    100  F   UNL A   1      46.374  35.816  26.796  1.00  0.00    -0.200 F 
ATOM    101  C   UNL A   1      46.972  35.199  28.995  1.00  0.00     0.200 A 
ATOM    102  F   UNL A   1      47.570  34.530  31.180  1.00  0.00    -0.200 F 
ATOM    103  F   UNL A   1      47.404  36.443  29.242  1.00  0.00    -0.200 F 
ENDBRANCH  70  93
ENDBRANCH  44  45
ENDBRANCH  36  39
ENDBRANCH  34  35
ENDBRANCH  33  34
ENDBRANCH   1  33
TORSDOF 14
ENDMDL
MODEL 3
REMARK VINA RESULT:     -13.4      4.043      7.539
REMARK SMILES Cc1cc(C(=O)NCCCNC(=O)c2ccc(-c3c4nc(c(-c5c(F)c(F)c(F)c(F)c5F)c5ccc([nH]5)c(-c5c(F)c(F)c(F)c(F)c5F)c5nc(c(-c6c(F)c(F)c(F)c(F)c6F)c6ccc3[nH]6)C=C5)C=C4)cc2)cc(S(=O)(=O)NNC(=O)c2c[nH]c3ccccc23)c1C
REMARK SMILES IDX 8 1 7 2 5 3 6 4 4 6 1 7 2 8 3 9 95 10 78 11 96 12 77 13
REMARK SMILES IDX 79 14 80 15 81 16 82 17 83 19 84 20 85 22 86 23 87 24 94 25
REMARK SMILES IDX 88 26 89 27 93 28 90 30 92 31 91 32 9 33 10 34 11 35 12 36
REMARK SMILES IDX 13 38 14 39 15 40 76 41 16 42 75 43 17 44 18 45 19 46 69 47
REMARK SMILES IDX 20 48 74 49 68 50 70 51 21 52 73 53 67 54 66 55 22 57 54 58
REMARK SMILES IDX 34 59 53 60 35 61 38 62 52 63 71 64 36 65 37 66 51 68 72 69
REMARK SMILES IDX 39 70 23 71 24 72 32 73 25 74 26 75 30 76 33 77 27 78 28 79
REMARK SMILES IDX 31 80 29 81 55 82 56 83 64 84 57 85 58 86 62 87 65 88 59 89
REMARK SMILES IDX 60 90 63 91 61 92 40 93 41 94 49 95 42 96 43 97 47 98 50 99
REMARK SMILES IDX 44 100 45 101 48 102 46 103
REMARK H PARENT 7 5 82 18 83 21 88 29 11 37 70 56 38 67
REMARK Flexibility Score: inf
ROOT
ATOM      1  C   UNL A   1      31.646  27.523  26.505  1.00  0.00     0.118 C 
ENDROOT
BRANCH   1   2
ATOM      2  N   UNL A   1      31.060  26.260  26.923  1.00  0.00    -0.352 N 
ATOM      3  C   UNL A   1      31.368  24.943  26.689  1.00  0.00     0.251 C 
ATOM      4  O   UNL A   1      30.671  24.097  27.251  1.00  0.00    -0.269 OA
ATOM      5  H   UNL A   1      30.269  26.373  27.498  1.00  0.00     0.163 HD
BRANCH   3   6
ATOM      6  C   UNL A   1      32.494  24.467  25.829  1.00  0.00     0.041 A 
ATOM      7  C   UNL A   1      35.960  22.930  26.091  1.00  0.00     0.044 C 
ATOM      8  C   UNL A   1      34.719  23.512  25.464  1.00  0.00    -0.046 A 
ATOM      9  C   UNL A   1      33.712  23.996  26.318  1.00  0.00     0.017 A 
ATOM     10  C   UNL A   1      34.545  23.592  24.067  1.00  0.00    -0.028 A 
ATOM     11  C   UNL A   1      33.358  24.188  23.567  1.00  0.00     0.088 A 
ATOM     12  C   UNL A   1      35.605  23.067  23.127  1.00  0.00     0.046 C 
ATOM     13  C   UNL A   1      32.332  24.576  24.436  1.00  0.00     0.036 A 
BRANCH  11  14
ATOM     14  S   UNL A   1      33.273  24.594  21.833  1.00  0.00     0.257 S 
ATOM     15  O   UNL A   1      34.256  25.658  21.626  1.00  0.00    -0.205 OA
ATOM     16  O   UNL A   1      33.333  23.369  21.092  1.00  0.00    -0.205 OA
BRANCH  14  17
ATOM     17  N   UNL A   1      31.735  25.241  21.491  1.00  0.00    -0.123 NA
ATOM     18  H   UNL A   1      31.111  24.916  22.229  1.00  0.00     0.167 HD
BRANCH  17  19
ATOM     19  N   UNL A   1      31.543  26.695  21.388  1.00  0.00    -0.273 N 
ATOM     20  C   UNL A   1      31.575  27.489  22.528  1.00  0.00     0.268 C 
ATOM     21  H   UNL A   1      31.390  27.108  20.508  1.00  0.00     0.186 HD
ATOM     22  O   UNL A   1      32.515  28.247  22.752  1.00  0.00    -0.268 OA
BRANCH  20  23
ATOM     23  C   UNL A   1      30.284  27.596  23.208  1.00  0.00     0.066 A 
ATOM     24  C   UNL A   1      29.501  26.536  23.636  1.00  0.00     0.097 A 
ATOM     25  C   UNL A   1      29.464  28.759  23.383  1.00  0.00     0.012 A 
ATOM     26  N   UNL A   1      28.200  26.934  23.499  1.00  0.00    -0.360 N 
ATOM     27  C   UNL A   1      28.147  28.294  23.341  1.00  0.00     0.046 A 
ATOM     28  C   UNL A   1      29.674  30.153  23.424  1.00  0.00     0.011 A 
ATOM     29  H   UNL A   1      27.420  26.333  23.512  1.00  0.00     0.166 HD
ATOM     30  C   UNL A   1      27.050  29.135  23.143  1.00  0.00     0.027 A 
ATOM     31  C   UNL A   1      28.568  31.014  23.372  1.00  0.00     0.001 A 
ATOM     32  C   UNL A   1      27.284  30.510  23.172  1.00  0.00     0.002 A 
ENDBRANCH  20  23
ENDBRANCH  17  19
ENDBRANCH  14  17
ENDBRANCH  11  14
ENDBRANCH   3   6
ENDBRANCH   1   2
BRANCH   1  33
ATOM     33  C   UNL A   1      33.126  27.614  26.892  1.00  0.00     0.042 C 
BRANCH  33  34
ATOM     34  C   UNL A   1      33.903  28.669  26.102  1.00  0.00     0.118 C 
BRANCH  34  35
ATOM     35  N   UNL A   1      33.704  30.011  26.633  1.00  0.00    -0.352 N 
ATOM     36  C   UNL A   1      34.414  30.713  27.575  1.00  0.00     0.251 C 
ATOM     37  H   UNL A   1      32.934  30.493  26.255  1.00  0.00     0.163 HD
ATOM     38  O   UNL A   1      33.952  31.765  28.010  1.00  0.00    -0.269 OA
BRANCH  36  39
ATOM     39  C   UNL A   1      35.714  30.223  28.087  1.00  0.00     0.039 A 
ATOM     40  C   UNL A   1      36.834  30.304  27.251  1.00  0.00     0.014 A 
ATOM     41  C   UNL A   1      35.831  29.627  29.344  1.00  0.00     0.014 A 
ATOM     42  C   UNL A   1      38.075  29.838  27.692  1.00  0.00     0.010 A 
ATOM     43  C   UNL A   1      37.082  29.215  29.808  1.00  0.00     0.010 A 
ATOM     44  C   UNL A   1      38.216  29.315  28.986  1.00  0.00    -0.014 A 
BRANCH  44  45
ATOM     45  C   UNL A   1      39.539  28.871  29.498  1.00  0.00     0.031 A 
ATOM     46  C   UNL A   1      40.304  29.724  30.471  1.00  0.00     0.074 A 
ATOM     47  C   UNL A   1      40.082  27.729  29.033  1.00  0.00     0.049 A 
ATOM     48  N   UNL A   1      41.507  29.551  30.958  1.00  0.00    -0.248 NA
ATOM     49  C   UNL A   1      39.637  30.948  30.941  1.00  0.00     0.031 C 
ATOM     50  C   UNL A   1      39.457  26.832  28.061  1.00  0.00     0.029 A 
ATOM     51  N   UNL A   1      41.290  27.136  29.305  1.00  0.00    -0.354 N 
ATOM     52  C   UNL A   1      41.747  30.649  31.774  1.00  0.00     0.074 A 
ATOM     53  C   UNL A   1      40.583  31.504  31.684  1.00  0.00     0.031 C 
ATOM     54  C   UNL A   1      40.279  25.797  27.826  1.00  0.00     0.029 A 
ATOM     55  C   UNL A   1      41.503  25.976  28.601  1.00  0.00     0.049 A 
ATOM     56  H   UNL A   1      41.941  27.507  29.944  1.00  0.00     0.167 HD
ATOM     57  C   UNL A   1      42.834  30.912  32.541  1.00  0.00     0.037 A 
ATOM     58  C   UNL A   1      42.571  25.154  28.574  1.00  0.00     0.037 A 
ATOM     59  C   UNL A   1      43.980  30.047  32.649  1.00  0.00     0.049 A 
ATOM     60  C   UNL A   1      43.764  25.470  29.434  1.00  0.00     0.074 A 
ATOM     61  C   UNL A   1      45.103  30.197  33.444  1.00  0.00     0.029 A 
ATOM     62  N   UNL A   1      44.148  28.868  31.938  1.00  0.00    -0.354 N 
ATOM     63  N   UNL A   1      43.955  26.482  30.246  1.00  0.00    -0.248 NA
ATOM     64  C   UNL A   1      44.889  24.526  29.378  1.00  0.00     0.031 C 
ATOM     65  C   UNL A   1      45.970  29.131  33.183  1.00  0.00     0.029 A 
ATOM     66  C   UNL A   1      45.367  28.291  32.262  1.00  0.00     0.049 A 
ATOM     67  H   UNL A   1      43.500  28.496  31.298  1.00  0.00     0.167 HD
ATOM     68  C   UNL A   1      45.204  26.282  30.817  1.00  0.00     0.074 A 
ATOM     69  C   UNL A   1      45.722  25.045  30.268  1.00  0.00     0.031 C 
ATOM     70  C   UNL A   1      45.863  27.054  31.715  1.00  0.00     0.037 A 
BRANCH  57  71
ATOM     71  C   UNL A   1      42.836  32.191  33.328  1.00  0.00     0.064 A 
ATOM     72  C   UNL A   1      42.394  32.237  34.659  1.00  0.00     0.173 A 
ATOM     73  C   UNL A   1      43.323  33.377  32.759  1.00  0.00     0.173 A 
ATOM     74  F   UNL A   1      41.909  31.132  35.248  1.00  0.00    -0.203 F 
ATOM     75  C   UNL A   1      42.411  33.428  35.381  1.00  0.00     0.198 A 
ATOM     76  C   UNL A   1      43.367  34.561  33.493  1.00  0.00     0.198 A 
ATOM     77  F   UNL A   1      43.765  33.388  31.493  1.00  0.00    -0.203 F 
ATOM     78  F   UNL A   1      41.939  33.456  36.634  1.00  0.00    -0.200 F 
ATOM     79  C   UNL A   1      42.903  34.587  34.800  1.00  0.00     0.200 A 
ATOM     80  F   UNL A   1      43.855  35.676  32.934  1.00  0.00    -0.200 F 
ATOM     81  F   UNL A   1      42.926  35.730  35.498  1.00  0.00    -0.200 F 
ENDBRANCH  57  71
BRANCH  58  82
ATOM     82  C   UNL A   1      42.550  23.941  27.717  1.00  0.00     0.064 A 
ATOM     83  C   UNL A   1      42.200  22.692  28.249  1.00  0.00     0.173 A 
ATOM     84  C   UNL A   1      42.876  24.003  26.355  1.00  0.00     0.173 A 
ATOM     85  F   UNL A   1      41.899  22.580  29.552  1.00  0.00    -0.203 F 
ATOM     86  C   UNL A   1      42.195  21.548  27.455  1.00  0.00     0.198 A 
ATOM     87  C   UNL A   1      42.844  22.861  25.556  1.00  0.00     0.198 A 
ATOM     88  F   UNL A   1      43.212  25.174  25.797  1.00  0.00    -0.203 F 
ATOM     89  F   UNL A   1      41.898  20.359  28.000  1.00  0.00    -0.200 F 
ATOM     90  C   UNL A   1      42.512  21.633  26.109  1.00  0.00     0.200 A 
ATOM     91  F   UNL A   1      43.137  22.951  24.251  1.00  0.00    -0.200 F 
ATOM     92  F   UNL A   1      42.501  20.533  25.344  1.00  0.00    -0.200 F 
ENDBRANCH  58  82
BRANCH  70  93
ATOM     93  C   UNL A   1      47.200  26.566  32.191  1.00  0.00     0.064 A 
ATOM     94  C   UNL A   1      47.316  25.634  33.232  1.00  0.00     0.173 A 
ATOM     95  C   UNL A   1      48.377  27.010  31.570  1.00  0.00     0.173 A 
ATOM     96  F   UNL A   1      46.221  25.192  33.867  1.00  0.00    -0.203 F 
ATOM     97  C   UNL A   1      48.564  25.180  33.649  1.00  0.00     0.198 A 
ATOM     98  C   UNL A   1      49.622  26.532  31.971  1.00  0.00     0.198 A 
ATOM     99  F   UNL A   1      48.320  27.897  30.566  1.00  0.00    -0.203 F 
ATOM    100  F   UNL A   1      48.655  24.324  34.675  1.00  0.00    -0.200 F 
ATOM    101  C   UNL A   1      49.715  25.624  33.014  1.00  0.00     0.200 A 
ATOM    102  F   UNL A   1      50.732  26.953  31.348  1.00  0.00    -0.200 F 
ATOM    103  F   UNL A   1      50.915  25.181  33.413  1.00  0.00    -0.200 F 
ENDBRANCH  70  93
ENDBRANCH  44  45
ENDBRANCH  36  39
ENDBRANCH  34  35
ENDBRANCH  33  34
ENDBRANCH   1  33
TORSDOF 14
ENDMDL
