MODEL 1
REMARK VINA RESULT:     -13.7      0.000      0.000
REMARK SMILES O=C(C[C@H]1c2ccccc2CCN1C(=O)Nc1ccccc1Br)NCCCNC(=O)c1ccc(-c2c3nc(c(-c4c(F)c(F)c(F)c(F)c4F)c4ccc([nH]4)c(-c4c(F)c(F)c(F)c(F)c4F)c4nc(c(-c5c(F)c(F)c(F)c(F)c5F)c5ccc2[nH]5)C=C4)C=C3)cc1
REMARK SMILES IDX 25 1 24 2 1 3 2 4 3 6 4 7 5 8 13 9 6 10 10 11 12 12 7 13
REMARK SMILES IDX 9 14 11 15 8 16 14 17 15 18 16 19 17 21 18 22 22 23 19 24
REMARK SMILES IDX 21 25 23 26 20 27 26 28 27 29 28 30 29 31 30 33 31 34 32 35
REMARK SMILES IDX 93 36 33 37 92 38 34 39 35 40 36 41 86 42 37 43 91 44 85 45
REMARK SMILES IDX 87 46 38 47 90 48 84 49 83 50 39 52 71 53 51 54 70 55 52 56
REMARK SMILES IDX 55 57 69 58 88 59 53 60 54 61 68 63 89 64 56 65 40 66 41 67
REMARK SMILES IDX 49 68 42 69 43 70 47 71 50 72 44 73 45 74 48 75 46 76 72 77
REMARK SMILES IDX 73 78 81 79 74 80 75 81 79 82 82 83 76 84 77 85 80 86 78 87
REMARK SMILES IDX 57 88 58 89 66 90 59 91 60 92 64 93 67 94 61 95 62 96 65 97
REMARK SMILES IDX 63 98
REMARK H PARENT 24 5 16 20 28 32 87 51 55 62
REMARK Flexibility Score: inf
ROOT
ATOM      1  C   UNL A   1      36.653  23.013  23.315  1.00  0.00     0.117 C 
ENDROOT
BRANCH   1   2
ATOM      2  N   UNL A   1      35.489  23.677  23.881  1.00  0.00    -0.356 N 
ATOM      3  O   UNL A   1      34.171  23.328  22.036  1.00  0.00    -0.275 OA
ATOM      4  C   UNL A   1      34.283  23.705  23.200  1.00  0.00     0.222 C 
ATOM      5  H   UNL A   1      35.560  24.115  24.760  1.00  0.00     0.163 HD
BRANCH   4   6
ATOM      6  C   UNL A   1      33.096  24.235  23.979  1.00  0.00     0.130 C 
BRANCH   6   7
ATOM      7  C   UNL A   1      32.297  23.193  24.790  1.00  0.00     0.127 C 
ATOM      8  C   UNL A   1      32.727  21.735  24.650  1.00  0.00    -0.022 A 
ATOM      9  N   UNL A   1      32.100  23.577  26.210  1.00  0.00    -0.317 N 
ATOM     10  C   UNL A   1      32.174  20.898  23.672  1.00  0.00     0.006 A 
ATOM     11  C   UNL A   1      33.629  21.183  25.573  1.00  0.00    -0.041 A 
ATOM     12  C   UNL A   1      32.943  22.892  27.213  1.00  0.00     0.127 C 
ATOM     13  C   UNL A   1      32.527  19.547  23.614  1.00  0.00     0.000 A 
ATOM     14  C   UNL A   1      34.021  19.845  25.482  1.00  0.00     0.004 A 
ATOM     15  C   UNL A   1      34.113  22.061  26.681  1.00  0.00     0.057 C 
ATOM     16  C   UNL A   1      33.460  19.024  24.508  1.00  0.00     0.000 A 
BRANCH   9  17
ATOM     17  C   UNL A   1      30.924  24.270  26.501  1.00  0.00     0.322 C 
ATOM     18  O   UNL A   1      29.870  23.691  26.774  1.00  0.00    -0.248 OA
ATOM     19  N   UNL A   1      30.934  25.629  26.631  1.00  0.00    -0.307 N 
ATOM     20  H   UNL A   1      30.352  25.981  27.341  1.00  0.00     0.171 HD
BRANCH  19  21
ATOM     21  C   UNL A   1      31.642  26.603  25.912  1.00  0.00     0.057 A 
ATOM     22  C   UNL A   1      32.795  27.129  26.501  1.00  0.00     0.027 A 
ATOM     23  C   UNL A   1      31.272  27.040  24.637  1.00  0.00     0.041 A 
ATOM     24  C   UNL A   1      33.672  27.910  25.745  1.00  0.00     0.002 A 
ATOM     25  C   UNL A   1      32.171  27.776  23.870  1.00  0.00     0.018 A 
ATOM     26  Br  UNL A   1      29.520  26.767  23.971  1.00  0.00    -0.049 Br
ATOM     27  C   UNL A   1      33.387  28.184  24.410  1.00  0.00     0.001 A 
ENDBRANCH  19  21
ENDBRANCH   9  17
ENDBRANCH   6   7
ENDBRANCH   4   6
ENDBRANCH   1   2
BRANCH   1  28
ATOM     28  C   UNL A   1      37.010  21.647  23.916  1.00  0.00     0.042 C 
BRANCH  28  29
ATOM     29  C   UNL A   1      37.331  21.614  25.411  1.00  0.00     0.118 C 
BRANCH  29  30
ATOM     30  N   UNL A   1      38.492  20.807  25.751  1.00  0.00    -0.352 N 
ATOM     31  C   UNL A   1      39.685  21.133  26.354  1.00  0.00     0.251 C 
ATOM     32  H   UNL A   1      38.408  19.857  25.508  1.00  0.00     0.163 HD
ATOM     33  O   UNL A   1      40.541  20.261  26.447  1.00  0.00    -0.269 OA
BRANCH  31  34
ATOM     34  C   UNL A   1      39.985  22.495  26.865  1.00  0.00     0.039 A 
ATOM     35  C   UNL A   1      41.030  22.605  27.793  1.00  0.00     0.014 A 
ATOM     36  C   UNL A   1      39.289  23.643  26.489  1.00  0.00     0.014 A 
ATOM     37  C   UNL A   1      41.453  23.860  28.235  1.00  0.00     0.010 A 
ATOM     38  C   UNL A   1      39.739  24.904  26.888  1.00  0.00     0.010 A 
ATOM     39  C   UNL A   1      40.855  25.020  27.725  1.00  0.00    -0.014 A 
BRANCH  39  40
ATOM     40  C   UNL A   1      41.495  26.339  27.936  1.00  0.00     0.031 A 
ATOM     41  C   UNL A   1      42.876  26.631  27.440  1.00  0.00     0.074 A 
ATOM     42  C   UNL A   1      40.813  27.257  28.647  1.00  0.00     0.049 A 
ATOM     43  N   UNL A   1      43.562  27.743  27.526  1.00  0.00    -0.248 NA
ATOM     44  C   UNL A   1      43.592  25.530  26.782  1.00  0.00     0.031 C 
ATOM     45  C   UNL A   1      39.489  27.048  29.241  1.00  0.00     0.029 A 
ATOM     46  N   UNL A   1      41.130  28.545  28.995  1.00  0.00    -0.354 N 
ATOM     47  C   UNL A   1      44.786  27.480  26.929  1.00  0.00     0.074 A 
ATOM     48  C   UNL A   1      44.768  26.088  26.529  1.00  0.00     0.031 C 
ATOM     49  C   UNL A   1      39.094  28.176  29.848  1.00  0.00     0.029 A 
ATOM     50  C   UNL A   1      40.144  29.177  29.712  1.00  0.00     0.049 A 
ATOM     51  H   UNL A   1      41.982  28.975  28.752  1.00  0.00     0.167 HD
ATOM     52  C   UNL A   1      45.819  28.332  26.722  1.00  0.00     0.037 A 
ATOM     53  C   UNL A   1      40.091  30.429  30.200  1.00  0.00     0.037 A 
ATOM     54  C   UNL A   1      45.822  29.715  27.131  1.00  0.00     0.049 A 
ATOM     55  C   UNL A   1      41.243  31.357  29.938  1.00  0.00     0.074 A 
ATOM     56  C   UNL A   1      46.800  30.674  26.932  1.00  0.00     0.029 A 
ATOM     57  N   UNL A   1      44.795  30.333  27.831  1.00  0.00    -0.354 N 
ATOM     58  N   UNL A   1      42.360  31.125  29.294  1.00  0.00    -0.248 NA
ATOM     59  C   UNL A   1      41.121  32.725  30.458  1.00  0.00     0.031 C 
ATOM     60  C   UNL A   1      46.381  31.861  27.545  1.00  0.00     0.029 A 
ATOM     61  C   UNL A   1      45.122  31.655  28.085  1.00  0.00     0.049 A 
ATOM     62  H   UNL A   1      43.957  29.895  28.107  1.00  0.00     0.167 HD
ATOM     63  C   UNL A   1      43.062  32.321  29.304  1.00  0.00     0.074 A 
ATOM     64  C   UNL A   1      42.236  33.281  30.007  1.00  0.00     0.031 C 
ATOM     65  C   UNL A   1      44.281  32.598  28.779  1.00  0.00     0.037 A 
BRANCH  52  66
ATOM     66  C   UNL A   1      47.030  27.792  26.019  1.00  0.00     0.064 A 
ATOM     67  C   UNL A   1      47.115  27.770  24.618  1.00  0.00     0.173 A 
ATOM     68  C   UNL A   1      48.132  27.319  26.749  1.00  0.00     0.173 A 
ATOM     69  F   UNL A   1      46.086  28.202  23.874  1.00  0.00    -0.203 F 
ATOM     70  C   UNL A   1      48.243  27.268  23.975  1.00  0.00     0.198 A 
ATOM     71  C   UNL A   1      49.269  26.843  26.102  1.00  0.00     0.198 A 
ATOM     72  F   UNL A   1      48.107  27.325  28.090  1.00  0.00    -0.203 F 
ATOM     73  F   UNL A   1      48.280  27.213  22.637  1.00  0.00    -0.200 F 
ATOM     74  C   UNL A   1      49.321  26.809  24.717  1.00  0.00     0.200 A 
ATOM     75  F   UNL A   1      50.315  26.411  26.820  1.00  0.00    -0.200 F 
ATOM     76  F   UNL A   1      50.407  26.329  24.097  1.00  0.00    -0.200 F 
ENDBRANCH  52  66
BRANCH  53  77
ATOM     77  C   UNL A   1      38.886  30.886  30.939  1.00  0.00     0.064 A 
ATOM     78  C   UNL A   1      38.807  30.760  32.332  1.00  0.00     0.173 A 
ATOM     79  C   UNL A   1      37.798  31.468  30.273  1.00  0.00     0.173 A 
ATOM     80  F   UNL A   1      39.818  30.197  33.012  1.00  0.00    -0.203 F 
ATOM     81  C   UNL A   1      37.676  31.178  33.030  1.00  0.00     0.198 A 
ATOM     82  C   UNL A   1      36.679  31.910  30.974  1.00  0.00     0.198 A 
ATOM     83  F   UNL A   1      37.831  31.622  28.941  1.00  0.00    -0.203 F 
ATOM     84  F   UNL A   1      37.610  31.008  34.357  1.00  0.00    -0.200 F 
ATOM     85  C   UNL A   1      36.615  31.757  32.350  1.00  0.00     0.200 A 
ATOM     86  F   UNL A   1      35.663  32.485  30.315  1.00  0.00    -0.200 F 
ATOM     87  F   UNL A   1      35.529  32.164  33.022  1.00  0.00    -0.200 F 
ENDBRANCH  53  77
BRANCH  65  88
ATOM     88  C   UNL A   1      44.774  34.007  28.916  1.00  0.00     0.064 A 
ATOM     89  C   UNL A   1      44.477  34.989  27.959  1.00  0.00     0.173 A 
ATOM     90  C   UNL A   1      45.531  34.386  30.035  1.00  0.00     0.173 A 
ATOM     91  F   UNL A   1      43.771  34.670  26.863  1.00  0.00    -0.203 F 
ATOM     92  C   UNL A   1      44.941  36.292  28.104  1.00  0.00     0.198 A 
ATOM     93  C   UNL A   1      45.969  35.697  30.191  1.00  0.00     0.198 A 
ATOM     94  F   UNL A   1      45.840  33.485  30.980  1.00  0.00    -0.203 F 
ATOM     95  F   UNL A   1      44.686  37.202  27.155  1.00  0.00    -0.200 F 
ATOM     96  C   UNL A   1      45.680  36.648  29.223  1.00  0.00     0.200 A 
ATOM     97  F   UNL A   1      46.676  36.042  31.277  1.00  0.00    -0.200 F 
ATOM     98  F   UNL A   1      46.123  37.905  29.364  1.00  0.00    -0.200 F 
ENDBRANCH  65  88
ENDBRANCH  39  40
ENDBRANCH  31  34
ENDBRANCH  29  30
ENDBRANCH  28  29
ENDBRANCH   1  28
TORSDOF 13
ENDMDL
MODEL 2
REMARK VINA RESULT:     -13.7      4.260      9.452
REMARK SMILES O=C(C[C@H]1c2ccccc2CCN1C(=O)Nc1ccccc1Br)NCCCNC(=O)c1ccc(-c2c3nc(c(-c4c(F)c(F)c(F)c(F)c4F)c4ccc([nH]4)c(-c4c(F)c(F)c(F)c(F)c4F)c4nc(c(-c5c(F)c(F)c(F)c(F)c5F)c5ccc2[nH]5)C=C4)C=C3)cc1
REMARK SMILES IDX 25 1 24 2 1 3 2 4 3 6 4 7 5 8 13 9 6 10 10 11 12 12 7 13
REMARK SMILES IDX 9 14 11 15 8 16 14 17 15 18 16 19 17 21 18 22 22 23 19 24
REMARK SMILES IDX 21 25 23 26 20 27 26 28 27 29 28 30 29 31 30 33 31 34 32 35
REMARK SMILES IDX 93 36 33 37 92 38 34 39 35 40 36 41 86 42 37 43 91 44 85 45
REMARK SMILES IDX 87 46 38 47 90 48 84 49 83 50 39 52 71 53 51 54 70 55 52 56
REMARK SMILES IDX 55 57 69 58 88 59 53 60 54 61 68 63 89 64 56 65 40 66 41 67
REMARK SMILES IDX 49 68 42 69 43 70 47 71 50 72 44 73 45 74 48 75 46 76 72 77
REMARK SMILES IDX 73 78 81 79 74 80 75 81 79 82 82 83 76 84 77 85 80 86 78 87
REMARK SMILES IDX 57 88 58 89 66 90 59 91 60 92 64 93 67 94 61 95 62 96 65 97
REMARK SMILES IDX 63 98
REMARK H PARENT 24 5 16 20 28 32 87 51 55 62
REMARK Flexibility Score: inf
ROOT
ATOM      1  C   UNL A   1      31.726  29.297  23.690  1.00  0.00     0.117 C 
ENDROOT
BRANCH   1   2
ATOM      2  N   UNL A   1      32.107  28.105  22.951  1.00  0.00    -0.356 N 
ATOM      3  O   UNL A   1      34.347  28.328  23.397  1.00  0.00    -0.275 OA
ATOM      4  C   UNL A   1      33.421  27.664  22.938  1.00  0.00     0.222 C 
ATOM      5  H   UNL A   1      31.423  27.604  22.451  1.00  0.00     0.163 HD
BRANCH   4   6
ATOM      6  C   UNL A   1      33.655  26.302  22.316  1.00  0.00     0.130 C 
BRANCH   6   7
ATOM      7  C   UNL A   1      33.398  25.086  23.231  1.00  0.00     0.127 C 
ATOM      8  C   UNL A   1      34.626  24.380  23.799  1.00  0.00    -0.022 A 
ATOM      9  N   UNL A   1      32.373  25.340  24.275  1.00  0.00    -0.317 N 
ATOM     10  C   UNL A   1      35.238  23.316  23.126  1.00  0.00     0.006 A 
ATOM     11  C   UNL A   1      35.108  24.737  25.069  1.00  0.00    -0.041 A 
ATOM     12  C   UNL A   1      32.861  25.569  25.651  1.00  0.00     0.127 C 
ATOM     13  C   UNL A   1      36.315  22.637  23.703  1.00  0.00     0.000 A 
ATOM     14  C   UNL A   1      36.217  24.091  25.623  1.00  0.00     0.004 A 
ATOM     15  C   UNL A   1      34.366  25.792  25.823  1.00  0.00     0.057 C 
ATOM     16  C   UNL A   1      36.813  23.033  24.943  1.00  0.00     0.000 A 
BRANCH   9  17
ATOM     17  C   UNL A   1      31.062  24.995  23.945  1.00  0.00     0.322 C 
ATOM     18  O   UNL A   1      30.140  25.815  23.965  1.00  0.00    -0.248 OA
ATOM     19  N   UNL A   1      30.775  23.755  23.449  1.00  0.00    -0.307 N 
ATOM     20  H   UNL A   1      30.091  23.741  22.742  1.00  0.00     0.171 HD
BRANCH  19  21
ATOM     21  C   UNL A   1      31.301  22.499  23.786  1.00  0.00     0.057 A 
ATOM     22  C   UNL A   1      31.774  21.697  22.745  1.00  0.00     0.027 A 
ATOM     23  C   UNL A   1      31.403  22.036  25.101  1.00  0.00     0.041 A 
ATOM     24  C   UNL A   1      32.527  20.556  23.030  1.00  0.00     0.002 A 
ATOM     25  C   UNL A   1      32.195  20.926  25.383  1.00  0.00     0.018 A 
ATOM     26  Br  UNL A   1      30.381  22.803  26.499  1.00  0.00    -0.049 Br
ATOM     27  C   UNL A   1      32.787  20.204  24.351  1.00  0.00     0.001 A 
ENDBRANCH  19  21
ENDBRANCH   9  17
ENDBRANCH   6   7
ENDBRANCH   4   6
ENDBRANCH   1   2
BRANCH   1  28
ATOM     28  C   UNL A   1      31.391  29.096  25.173  1.00  0.00     0.042 C 
BRANCH  28  29
ATOM     29  C   UNL A   1      32.483  29.457  26.182  1.00  0.00     0.118 C 
BRANCH  29  30
ATOM     30  N   UNL A   1      32.456  30.845  26.614  1.00  0.00    -0.352 N 
ATOM     31  C   UNL A   1      33.367  31.601  27.315  1.00  0.00     0.251 C 
ATOM     32  H   UNL A   1      31.640  31.332  26.358  1.00  0.00     0.163 HD
ATOM     33  O   UNL A   1      33.051  32.743  27.625  1.00  0.00    -0.269 OA
BRANCH  31  34
ATOM     34  C   UNL A   1      34.694  31.082  27.733  1.00  0.00     0.039 A 
ATOM     35  C   UNL A   1      35.689  32.033  28.001  1.00  0.00     0.014 A 
ATOM     36  C   UNL A   1      35.001  29.727  27.859  1.00  0.00     0.014 A 
ATOM     37  C   UNL A   1      36.926  31.636  28.511  1.00  0.00     0.010 A 
ATOM     38  C   UNL A   1      36.218  29.328  28.415  1.00  0.00     0.010 A 
ATOM     39  C   UNL A   1      37.168  30.284  28.789  1.00  0.00    -0.014 A 
BRANCH  39  40
ATOM     40  C   UNL A   1      38.336  29.895  29.614  1.00  0.00     0.031 A 
ATOM     41  C   UNL A   1      38.534  30.427  30.997  1.00  0.00     0.074 A 
ATOM     42  C   UNL A   1      39.254  29.084  29.053  1.00  0.00     0.049 A 
ATOM     43  N   UNL A   1      39.490  30.161  31.851  1.00  0.00    -0.248 NA
ATOM     44  C   UNL A   1      37.546  31.401  31.482  1.00  0.00     0.031 C 
ATOM     45  C   UNL A   1      39.194  28.568  27.682  1.00  0.00     0.029 A 
ATOM     46  N   UNL A   1      40.413  28.551  29.556  1.00  0.00    -0.354 N 
ATOM     47  C   UNL A   1      39.219  30.928  32.975  1.00  0.00     0.074 A 
ATOM     48  C   UNL A   1      38.035  31.707  32.677  1.00  0.00     0.031 C 
ATOM     49  C   UNL A   1      40.248  27.768  27.465  1.00  0.00     0.029 A 
ATOM     50  C   UNL A   1      41.071  27.736  28.668  1.00  0.00     0.049 A 
ATOM     51  H   UNL A   1      40.741  28.735  30.466  1.00  0.00     0.167 HD
ATOM     52  C   UNL A   1      39.891  30.960  34.152  1.00  0.00     0.037 A 
ATOM     53  C   UNL A   1      42.210  27.035  28.811  1.00  0.00     0.037 A 
ATOM     54  C   UNL A   1      41.070  30.180  34.431  1.00  0.00     0.049 A 
ATOM     55  C   UNL A   1      42.922  27.074  30.133  1.00  0.00     0.074 A 
ATOM     56  C   UNL A   1      41.801  30.107  35.604  1.00  0.00     0.029 A 
ATOM     57  N   UNL A   1      41.696  29.341  33.519  1.00  0.00    -0.354 N 
ATOM     58  N   UNL A   1      42.607  27.733  31.221  1.00  0.00    -0.248 NA
ATOM     59  C   UNL A   1      44.139  26.262  30.253  1.00  0.00     0.031 C 
ATOM     60  C   UNL A   1      42.891  29.254  35.389  1.00  0.00     0.029 A 
ATOM     61  C   UNL A   1      42.813  28.759  34.098  1.00  0.00     0.049 A 
ATOM     62  H   UNL A   1      41.391  29.184  32.596  1.00  0.00     0.167 HD
ATOM     63  C   UNL A   1      43.567  27.395  32.163  1.00  0.00     0.074 A 
ATOM     64  C   UNL A   1      44.468  26.460  31.521  1.00  0.00     0.031 C 
ATOM     65  C   UNL A   1      43.691  27.822  33.444  1.00  0.00     0.037 A 
BRANCH  52  66
ATOM     66  C   UNL A   1      39.362  31.865  35.225  1.00  0.00     0.064 A 
ATOM     67  C   UNL A   1      39.684  33.232  35.255  1.00  0.00     0.173 A 
ATOM     68  C   UNL A   1      38.501  31.374  36.218  1.00  0.00     0.173 A 
ATOM     69  F   UNL A   1      40.511  33.750  34.334  1.00  0.00    -0.203 F 
ATOM     70  C   UNL A   1      39.188  34.064  36.255  1.00  0.00     0.198 A 
ATOM     71  C   UNL A   1      37.984  32.216  37.200  1.00  0.00     0.198 A 
ATOM     72  F   UNL A   1      38.154  30.078  36.231  1.00  0.00    -0.203 F 
ATOM     73  F   UNL A   1      39.548  35.354  36.289  1.00  0.00    -0.200 F 
ATOM     74  C   UNL A   1      38.334  33.557  37.223  1.00  0.00     0.200 A 
ATOM     75  F   UNL A   1      37.151  31.727  38.129  1.00  0.00    -0.200 F 
ATOM     76  F   UNL A   1      37.856  34.360  38.183  1.00  0.00    -0.200 F 
ENDBRANCH  52  66
BRANCH  53  77
ATOM     77  C   UNL A   1      42.712  26.201  27.690  1.00  0.00     0.064 A 
ATOM     78  C   UNL A   1      42.214  24.908  27.477  1.00  0.00     0.173 A 
ATOM     79  C   UNL A   1      43.686  26.680  26.802  1.00  0.00     0.173 A 
ATOM     80  F   UNL A   1      41.291  24.401  28.307  1.00  0.00    -0.203 F 
ATOM     81  C   UNL A   1      42.688  24.118  26.432  1.00  0.00     0.198 A 
ATOM     82  C   UNL A   1      44.140  25.899  25.741  1.00  0.00     0.198 A 
ATOM     83  F   UNL A   1      44.185  27.916  26.956  1.00  0.00    -0.203 F 
ATOM     84  F   UNL A   1      42.225  22.870  26.276  1.00  0.00    -0.200 F 
ATOM     85  C   UNL A   1      43.647  24.616  25.562  1.00  0.00     0.200 A 
ATOM     86  F   UNL A   1      45.053  26.391  24.894  1.00  0.00    -0.200 F 
ATOM     87  F   UNL A   1      44.098  23.857  24.555  1.00  0.00    -0.200 F 
ENDBRANCH  53  77
BRANCH  65  88
ATOM     88  C   UNL A   1      44.823  27.249  34.243  1.00  0.00     0.064 A 
ATOM     89  C   UNL A   1      44.684  26.058  34.970  1.00  0.00     0.173 A 
ATOM     90  C   UNL A   1      46.073  27.886  34.257  1.00  0.00     0.173 A 
ATOM     91  F   UNL A   1      43.503  25.422  35.001  1.00  0.00    -0.203 F 
ATOM     92  C   UNL A   1      45.746  25.540  35.704  1.00  0.00     0.198 A 
ATOM     93  C   UNL A   1      47.142  27.351  34.969  1.00  0.00     0.198 A 
ATOM     94  F   UNL A   1      46.258  29.027  33.575  1.00  0.00    -0.203 F 
ATOM     95  F   UNL A   1      45.577  24.427  36.430  1.00  0.00    -0.200 F 
ATOM     96  C   UNL A   1      46.976  26.182  35.697  1.00  0.00     0.200 A 
ATOM     97  F   UNL A   1      48.332  27.967  34.954  1.00  0.00    -0.200 F 
ATOM     98  F   UNL A   1      48.000  25.680  36.401  1.00  0.00    -0.200 F 
ENDBRANCH  65  88
ENDBRANCH  39  40
ENDBRANCH  31  34
ENDBRANCH  29  30
ENDBRANCH  28  29
ENDBRANCH   1  28
TORSDOF 13
ENDMDL
MODEL 3
REMARK VINA RESULT:     -13.7      4.284      9.852
REMARK SMILES O=C(C[C@H]1c2ccccc2CCN1C(=O)Nc1ccccc1Br)NCCCNC(=O)c1ccc(-c2c3nc(c(-c4c(F)c(F)c(F)c(F)c4F)c4ccc([nH]4)c(-c4c(F)c(F)c(F)c(F)c4F)c4nc(c(-c5c(F)c(F)c(F)c(F)c5F)c5ccc2[nH]5)C=C4)C=C3)cc1
REMARK SMILES IDX 25 1 24 2 1 3 2 4 3 6 4 7 5 8 13 9 6 10 10 11 12 12 7 13
REMARK SMILES IDX 9 14 11 15 8 16 14 17 15 18 16 19 17 21 18 22 22 23 19 24
REMARK SMILES IDX 21 25 23 26 20 27 26 28 27 29 28 30 29 31 30 33 31 34 32 35
REMARK SMILES IDX 93 36 33 37 92 38 34 39 35 40 36 41 86 42 37 43 91 44 85 45
REMARK SMILES IDX 87 46 38 47 90 48 84 49 83 50 39 52 71 53 51 54 70 55 52 56
REMARK SMILES IDX 55 57 69 58 88 59 53 60 54 61 68 63 89 64 56 65 40 66 41 67
REMARK SMILES IDX 49 68 42 69 43 70 47 71 50 72 44 73 45 74 48 75 46 76 72 77
REMARK SMILES IDX 73 78 81 79 74 80 75 81 79 82 82 83 76 84 77 85 80 86 78 87
REMARK SMILES IDX 57 88 58 89 66 90 59 91 60 92 64 93 67 94 61 95 62 96 65 97
REMARK SMILES IDX 63 98
REMARK H PARENT 24 5 16 20 28 32 87 51 55 62
REMARK Flexibility Score: inf
ROOT
ATOM      1  C   UNL A   1      31.881  28.204  27.625  1.00  0.00     0.117 C 
ENDROOT
BRANCH   1   2
ATOM      2  N   UNL A   1      32.355  27.132  26.765  1.00  0.00    -0.356 N 
ATOM      3  O   UNL A   1      30.341  26.035  26.719  1.00  0.00    -0.275 OA
ATOM      4  C   UNL A   1      31.491  26.152  26.304  1.00  0.00     0.222 C 
ATOM      5  H   UNL A   1      33.305  27.102  26.507  1.00  0.00     0.163 HD
BRANCH   4   6
ATOM      6  C   UNL A   1      32.052  25.219  25.250  1.00  0.00     0.130 C 
BRANCH   6   7
ATOM      7  C   UNL A   1      31.812  25.631  23.783  1.00  0.00     0.127 C 
ATOM      8  C   UNL A   1      31.009  26.908  23.549  1.00  0.00    -0.022 A 
ATOM      9  N   UNL A   1      33.041  25.590  22.951  1.00  0.00    -0.317 N 
ATOM     10  C   UNL A   1      29.615  26.884  23.415  1.00  0.00     0.006 A 
ATOM     11  C   UNL A   1      31.680  28.128  23.371  1.00  0.00    -0.041 A 
ATOM     12  C   UNL A   1      33.675  26.886  22.628  1.00  0.00     0.127 C 
ATOM     13  C   UNL A   1      28.911  28.056  23.125  1.00  0.00     0.000 A 
ATOM     14  C   UNL A   1      30.970  29.309  23.132  1.00  0.00     0.004 A 
ATOM     15  C   UNL A   1      33.173  28.112  23.396  1.00  0.00     0.057 C 
ATOM     16  C   UNL A   1      29.585  29.269  22.998  1.00  0.00     0.000 A 
BRANCH   9  17
ATOM     17  C   UNL A   1      33.280  24.398  22.267  1.00  0.00     0.322 C 
ATOM     18  O   UNL A   1      32.806  24.172  21.151  1.00  0.00    -0.248 OA
ATOM     19  N   UNL A   1      34.172  23.485  22.756  1.00  0.00    -0.307 N 
ATOM     20  H   UNL A   1      34.718  23.034  22.073  1.00  0.00     0.171 HD
BRANCH  19  21
ATOM     21  C   UNL A   1      34.432  23.089  24.076  1.00  0.00     0.057 A 
ATOM     22  C   UNL A   1      35.499  23.704  24.735  1.00  0.00     0.027 A 
ATOM     23  C   UNL A   1      33.662  22.147  24.762  1.00  0.00     0.041 A 
ATOM     24  C   UNL A   1      35.657  23.539  26.113  1.00  0.00     0.002 A 
ATOM     25  C   UNL A   1      33.791  22.023  26.143  1.00  0.00     0.018 A 
ATOM     26  Br  UNL A   1      32.536  20.933  23.841  1.00  0.00    -0.049 Br
ATOM     27  C   UNL A   1      34.765  22.744  26.827  1.00  0.00     0.001 A 
ENDBRANCH  19  21
ENDBRANCH   9  17
ENDBRANCH   6   7
ENDBRANCH   4   6
ENDBRANCH   1   2
BRANCH   1  28
ATOM     28  C   UNL A   1      31.414  29.483  26.917  1.00  0.00     0.042 C 
BRANCH  28  29
ATOM     29  C   UNL A   1      32.500  30.359  26.290  1.00  0.00     0.118 C 
BRANCH  29  30
ATOM     30  N   UNL A   1      32.569  31.704  26.839  1.00  0.00    -0.352 N 
ATOM     31  C   UNL A   1      33.513  32.322  27.626  1.00  0.00     0.251 C 
ATOM     32  H   UNL A   1      31.803  32.275  26.604  1.00  0.00     0.163 HD
ATOM     33  O   UNL A   1      33.280  33.456  28.024  1.00  0.00    -0.269 OA
BRANCH  31  34
ATOM     34  C   UNL A   1      34.781  31.662  28.032  1.00  0.00     0.039 A 
ATOM     35  C   UNL A   1      35.897  32.492  28.207  1.00  0.00     0.014 A 
ATOM     36  C   UNL A   1      34.920  30.289  28.233  1.00  0.00     0.014 A 
ATOM     37  C   UNL A   1      37.095  31.971  28.700  1.00  0.00     0.010 A 
ATOM     38  C   UNL A   1      36.099  29.770  28.773  1.00  0.00     0.010 A 
ATOM     39  C   UNL A   1      37.176  30.618  29.055  1.00  0.00    -0.014 A 
BRANCH  39  40
ATOM     40  C   UNL A   1      38.317  30.131  29.864  1.00  0.00     0.031 A 
ATOM     41  C   UNL A   1      38.533  30.585  31.273  1.00  0.00     0.074 A 
ATOM     42  C   UNL A   1      39.198  29.304  29.267  1.00  0.00     0.049 A 
ATOM     43  N   UNL A   1      39.469  30.231  32.116  1.00  0.00    -0.248 NA
ATOM     44  C   UNL A   1      37.591  31.581  31.801  1.00  0.00     0.031 C 
ATOM     45  C   UNL A   1      39.122  28.860  27.872  1.00  0.00     0.029 A 
ATOM     46  N   UNL A   1      40.326  28.691  29.748  1.00  0.00    -0.354 N 
ATOM     47  C   UNL A   1      39.229  30.953  33.275  1.00  0.00     0.074 A 
ATOM     48  C   UNL A   1      38.087  31.804  33.011  1.00  0.00     0.031 C 
ATOM     49  C   UNL A   1      40.136  28.020  27.621  1.00  0.00     0.029 A 
ATOM     50  C   UNL A   1      40.949  27.889  28.823  1.00  0.00     0.049 A 
ATOM     51  H   UNL A   1      40.657  28.814  30.667  1.00  0.00     0.167 HD
ATOM     52  C   UNL A   1      39.894  30.895  34.455  1.00  0.00     0.037 A 
ATOM     53  C   UNL A   1      42.051  27.126  28.936  1.00  0.00     0.037 A 
ATOM     54  C   UNL A   1      41.032  30.045  34.700  1.00  0.00     0.049 A 
ATOM     55  C   UNL A   1      42.756  27.065  30.262  1.00  0.00     0.074 A 
ATOM     56  C   UNL A   1      41.752  29.878  35.870  1.00  0.00     0.029 A 
ATOM     57  N   UNL A   1      41.622  29.222  33.750  1.00  0.00    -0.354 N 
ATOM     58  N   UNL A   1      42.467  27.685  31.379  1.00  0.00    -0.248 NA
ATOM     59  C   UNL A   1      43.931  26.189  30.346  1.00  0.00     0.031 C 
ATOM     60  C   UNL A   1      42.799  28.984  35.619  1.00  0.00     0.029 A 
ATOM     61  C   UNL A   1      42.705  28.557  34.304  1.00  0.00     0.049 A 
ATOM     62  H   UNL A   1      41.315  29.125  32.820  1.00  0.00     0.167 HD
ATOM     63  C   UNL A   1      43.403  27.254  32.307  1.00  0.00     0.074 A 
ATOM     64  C   UNL A   1      44.261  26.308  31.623  1.00  0.00     0.031 C 
ATOM     65  C   UNL A   1      43.540  27.611  33.608  1.00  0.00     0.037 A 
BRANCH  52  66
ATOM     66  C   UNL A   1      39.404  31.772  35.569  1.00  0.00     0.064 A 
ATOM     67  C   UNL A   1      38.436  31.324  36.482  1.00  0.00     0.173 A 
ATOM     68  C   UNL A   1      39.925  33.062  35.749  1.00  0.00     0.173 A 
ATOM     69  F   UNL A   1      37.898  30.102  36.349  1.00  0.00    -0.203 F 
ATOM     70  C   UNL A   1      37.988  32.145  37.513  1.00  0.00     0.198 A 
ATOM     71  C   UNL A   1      39.495  33.870  36.798  1.00  0.00     0.198 A 
ATOM     72  F   UNL A   1      40.859  33.537  34.910  1.00  0.00    -0.203 F 
ATOM     73  F   UNL A   1      37.028  31.713  38.342  1.00  0.00    -0.200 F 
ATOM     74  C   UNL A   1      38.520  33.416  37.674  1.00  0.00     0.200 A 
ATOM     75  F   UNL A   1      40.019  35.093  36.959  1.00  0.00    -0.200 F 
ATOM     76  F   UNL A   1      38.090  34.204  38.668  1.00  0.00    -0.200 F 
ENDBRANCH  52  66
BRANCH  53  77
ATOM     77  C   UNL A   1      42.519  26.325  27.777  1.00  0.00     0.064 A 
ATOM     78  C   UNL A   1      43.482  26.833  26.895  1.00  0.00     0.173 A 
ATOM     79  C   UNL A   1      42.027  25.035  27.534  1.00  0.00     0.173 A 
ATOM     80  F   UNL A   1      43.974  28.067  27.078  1.00  0.00    -0.203 F 
ATOM     81  C   UNL A   1      43.919  26.089  25.800  1.00  0.00     0.198 A 
ATOM     82  C   UNL A   1      42.483  24.281  26.455  1.00  0.00     0.198 A 
ATOM     83  F   UNL A   1      41.113  24.499  28.357  1.00  0.00    -0.203 F 
ATOM     84  F   UNL A   1      44.810  26.615  24.949  1.00  0.00    -0.200 F 
ATOM     85  C   UNL A   1      43.423  24.812  25.585  1.00  0.00     0.200 A 
ATOM     86  F   UNL A   1      42.014  23.042  26.260  1.00  0.00    -0.200 F 
ATOM     87  F   UNL A   1      43.847  24.096  24.535  1.00  0.00    -0.200 F 
ENDBRANCH  53  77
BRANCH  65  88
ATOM     88  C   UNL A   1      44.638  26.945  34.382  1.00  0.00     0.064 A 
ATOM     89  C   UNL A   1      45.917  27.511  34.484  1.00  0.00     0.173 A 
ATOM     90  C   UNL A   1      44.397  25.738  35.056  1.00  0.00     0.173 A 
ATOM     91  F   UNL A   1      46.200  28.656  33.843  1.00  0.00    -0.203 F 
ATOM     92  C   UNL A   1      46.922  26.880  35.210  1.00  0.00     0.198 A 
ATOM     93  C   UNL A   1      45.396  25.124  35.804  1.00  0.00     0.198 A 
ATOM     94  F   UNL A   1      43.189  25.157  34.992  1.00  0.00    -0.203 F 
ATOM     95  F   UNL A   1      48.150  27.414  35.254  1.00  0.00    -0.200 F 
ATOM     96  C   UNL A   1      46.660  25.691  35.875  1.00  0.00     0.200 A 
ATOM     97  F   UNL A   1      45.139  23.980  36.453  1.00  0.00    -0.200 F 
ATOM     98  F   UNL A   1      47.628  25.087  36.577  1.00  0.00    -0.200 F 
ENDBRANCH  65  88
ENDBRANCH  39  40
ENDBRANCH  31  34
ENDBRANCH  29  30
ENDBRANCH  28  29
ENDBRANCH   1  28
TORSDOF 13
ENDMDL
