MODEL 1
REMARK VINA RESULT:     -12.3      0.000      0.000
REMARK SMILES CC(C)(CC(=O)NCCCNC(=O)c1ccc(-c2c3nc(c(-c4c(F)c(F)c(F)c(F)c4F)c4ccc([nH]4)c(-c4c(F)c(F)c(F)c(F)c4F)c4nc(c(-c5c(F)c(F)c(F)c(F)c5F)c5ccc2[nH]5)C=C4)C=C3)cc1)Cc1nc([C@@]2(C)CCCO2)no1
REMARK SMILES IDX 8 1 7 2 5 3 6 4 4 6 2 7 1 8 3 9 77 10 78 11 79 12 88 13
REMARK SMILES IDX 80 14 87 15 81 16 82 17 83 18 86 19 84 20 85 21 9 22 10 23
REMARK SMILES IDX 11 24 12 25 13 27 14 28 15 29 76 30 16 31 75 32 17 33 18 34
REMARK SMILES IDX 19 35 69 36 20 37 74 38 68 39 70 40 21 41 73 42 67 43 66 44
REMARK SMILES IDX 22 46 54 47 34 48 53 49 35 50 38 51 52 52 71 53 36 54 37 55
REMARK SMILES IDX 51 57 72 58 39 59 23 60 24 61 32 62 25 63 26 64 30 65 33 66
REMARK SMILES IDX 27 67 28 68 31 69 29 70 55 71 56 72 64 73 57 74 58 75 62 76
REMARK SMILES IDX 65 77 59 78 60 79 63 80 61 81 40 82 41 83 49 84 42 85 43 86
REMARK SMILES IDX 47 87 50 88 44 89 45 90 48 91 46 92
REMARK H PARENT 7 5 11 26 70 45 38 56
REMARK Flexibility Score: inf
ROOT
ATOM      1  C   UNL A   1      31.724  30.794  26.676  1.00  0.00     0.117 C 
ENDROOT
BRANCH   1   2
ATOM      2  N   UNL A   1      33.026  30.345  27.138  1.00  0.00    -0.356 N 
ATOM      3  C   UNL A   1      33.577  29.109  27.227  1.00  0.00     0.220 C 
ATOM      4  O   UNL A   1      34.742  29.023  27.621  1.00  0.00    -0.275 OA
ATOM      5  H   UNL A   1      33.618  31.072  27.442  1.00  0.00     0.163 HD
BRANCH   3   6
ATOM      6  C   UNL A   1      32.809  27.866  26.838  1.00  0.00     0.107 C 
BRANCH   6   7
ATOM      7  C   UNL A   1      33.094  27.207  25.457  1.00  0.00    -0.018 C 
ATOM      8  C   UNL A   1      33.876  28.146  24.519  1.00  0.00     0.012 C 
ATOM      9  C   UNL A   1      34.078  26.034  25.752  1.00  0.00     0.012 C 
BRANCH   7  10
ATOM     10  C   UNL A   1      31.857  26.574  24.753  1.00  0.00     0.107 C 
BRANCH  10  11
ATOM     11  C   UNL A   1      31.020  27.402  23.836  1.00  0.00     0.227 A 
ATOM     12  N   UNL A   1      30.017  28.196  24.140  1.00  0.00    -0.193 NA
ATOM     13  O   UNL A   1      31.242  27.326  22.493  1.00  0.00    -0.339 OA
ATOM     14  C   UNL A   1      29.616  28.663  22.908  1.00  0.00     0.203 A 
ATOM     15  N   UNL A   1      30.333  28.183  21.878  1.00  0.00    -0.059 NA
BRANCH  14  16
ATOM     16  C   UNL A   1      28.478  29.638  22.728  1.00  0.00     0.128 C 
ATOM     17  C   UNL A   1      27.140  29.001  23.131  1.00  0.00     0.051 C 
ATOM     18  C   UNL A   1      28.725  30.940  23.502  1.00  0.00     0.046 C 
ATOM     19  O   UNL A   1      28.315  30.042  21.335  1.00  0.00    -0.367 OA
ATOM     20  C   UNL A   1      28.033  31.981  22.655  1.00  0.00     0.032 C 
ATOM     21  C   UNL A   1      28.300  31.472  21.260  1.00  0.00     0.161 C 
ENDBRANCH  14  16
ENDBRANCH  10  11
ENDBRANCH   7  10
ENDBRANCH   6   7
ENDBRANCH   3   6
ENDBRANCH   1   2
BRANCH   1  22
ATOM     22  C   UNL A   1      31.503  32.291  26.877  1.00  0.00     0.042 C 
BRANCH  22  23
ATOM     23  C   UNL A   1      32.777  33.119  27.012  1.00  0.00     0.118 C 
BRANCH  23  24
ATOM     24  N   UNL A   1      32.528  34.411  27.628  1.00  0.00    -0.352 N 
ATOM     25  C   UNL A   1      33.037  34.951  28.782  1.00  0.00     0.251 C 
ATOM     26  H   UNL A   1      31.896  34.989  27.142  1.00  0.00     0.163 HD
ATOM     27  O   UNL A   1      32.528  35.979  29.234  1.00  0.00    -0.269 OA
BRANCH  25  28
ATOM     28  C   UNL A   1      34.168  34.326  29.509  1.00  0.00     0.039 A 
ATOM     29  C   UNL A   1      35.444  34.391  28.935  1.00  0.00     0.014 A 
ATOM     30  C   UNL A   1      33.991  33.615  30.700  1.00  0.00     0.014 A 
ATOM     31  C   UNL A   1      36.535  33.785  29.566  1.00  0.00     0.010 A 
ATOM     32  C   UNL A   1      35.092  33.073  31.368  1.00  0.00     0.010 A 
ATOM     33  C   UNL A   1      36.374  33.138  30.801  1.00  0.00    -0.014 A 
BRANCH  33  34
ATOM     34  C   UNL A   1      37.533  32.508  31.492  1.00  0.00     0.031 A 
ATOM     35  C   UNL A   1      38.266  31.357  30.855  1.00  0.00     0.074 A 
ATOM     36  C   UNL A   1      37.903  32.941  32.713  1.00  0.00     0.049 A 
ATOM     37  N   UNL A   1      39.266  30.651  31.322  1.00  0.00    -0.248 NA
ATOM     38  C   UNL A   1      37.803  30.928  29.526  1.00  0.00     0.031 C 
ATOM     39  C   UNL A   1      37.250  34.014  33.464  1.00  0.00     0.029 A 
ATOM     40  N   UNL A   1      38.912  32.521  33.546  1.00  0.00    -0.354 N 
ATOM     41  C   UNL A   1      39.533  29.684  30.360  1.00  0.00     0.074 A 
ATOM     42  C   UNL A   1      38.570  29.872  29.296  1.00  0.00     0.031 C 
ATOM     43  C   UNL A   1      37.878  34.175  34.640  1.00  0.00     0.029 A 
ATOM     44  C   UNL A   1      38.957  33.196  34.742  1.00  0.00     0.049 A 
ATOM     45  H   UNL A   1      39.543  31.804  33.309  1.00  0.00     0.167 HD
ATOM     46  C   UNL A   1      40.503  28.739  30.357  1.00  0.00     0.037 A 
ATOM     47  C   UNL A   1      39.768  33.038  35.807  1.00  0.00     0.037 A 
ATOM     48  C   UNL A   1      41.491  28.581  31.391  1.00  0.00     0.049 A 
ATOM     49  C   UNL A   1      40.851  31.993  35.763  1.00  0.00     0.074 A 
ATOM     50  C   UNL A   1      42.568  27.711  31.427  1.00  0.00     0.029 A 
ATOM     51  N   UNL A   1      41.523  29.306  32.571  1.00  0.00    -0.354 N 
ATOM     52  N   UNL A   1      41.145  31.146  34.809  1.00  0.00    -0.248 NA
ATOM     53  C   UNL A   1      41.722  31.891  36.943  1.00  0.00     0.031 C 
ATOM     54  C   UNL A   1      43.227  27.880  32.649  1.00  0.00     0.029 A 
ATOM     55  C   UNL A   1      42.587  28.887  33.354  1.00  0.00     0.049 A 
ATOM     56  H   UNL A   1      40.885  30.015  32.816  1.00  0.00     0.167 HD
ATOM     57  C   UNL A   1      42.245  30.428  35.261  1.00  0.00     0.074 A 
ATOM     58  C   UNL A   1      42.579  30.952  36.567  1.00  0.00     0.031 C 
ATOM     59  C   UNL A   1      42.916  29.423  34.647  1.00  0.00     0.037 A 
BRANCH  46  60
ATOM     60  C   UNL A   1      40.560  27.794  29.192  1.00  0.00     0.064 A 
ATOM     61  C   UNL A   1      39.721  26.673  29.114  1.00  0.00     0.173 A 
ATOM     62  C   UNL A   1      41.406  28.062  28.105  1.00  0.00     0.173 A 
ATOM     63  F   UNL A   1      38.900  26.373  30.130  1.00  0.00    -0.203 F 
ATOM     64  C   UNL A   1      39.738  25.845  27.994  1.00  0.00     0.198 A 
ATOM     65  C   UNL A   1      41.401  27.245  26.976  1.00  0.00     0.198 A 
ATOM     66  F   UNL A   1      42.221  29.127  28.127  1.00  0.00    -0.203 F 
ATOM     67  F   UNL A   1      38.948  24.763  27.952  1.00  0.00    -0.200 F 
ATOM     68  C   UNL A   1      40.570  26.136  26.923  1.00  0.00     0.200 A 
ATOM     69  F   UNL A   1      42.196  27.536  25.936  1.00  0.00    -0.200 F 
ATOM     70  F   UNL A   1      40.571  25.348  25.840  1.00  0.00    -0.200 F 
ENDBRANCH  46  60
BRANCH  47  71
ATOM     71  C   UNL A   1      39.593  33.891  37.011  1.00  0.00     0.064 A 
ATOM     72  C   UNL A   1      38.804  33.468  38.089  1.00  0.00     0.173 A 
ATOM     73  C   UNL A   1      40.186  35.159  37.095  1.00  0.00     0.173 A 
ATOM     74  F   UNL A   1      38.195  32.273  38.045  1.00  0.00    -0.203 F 
ATOM     75  C   UNL A   1      38.592  34.290  39.194  1.00  0.00     0.198 A 
ATOM     76  C   UNL A   1      39.999  35.969  38.213  1.00  0.00     0.198 A 
ATOM     77  F   UNL A   1      40.952  35.611  36.092  1.00  0.00    -0.203 F 
ATOM     78  F   UNL A   1      37.788  33.884  40.186  1.00  0.00    -0.200 F 
ATOM     79  C   UNL A   1      39.193  35.539  39.257  1.00  0.00     0.200 A 
ATOM     80  F   UNL A   1      40.590  37.170  38.275  1.00  0.00    -0.200 F 
ATOM     81  F   UNL A   1      38.987  36.331  40.317  1.00  0.00    -0.200 F 
ENDBRANCH  47  71
BRANCH  59  82
ATOM     82  C   UNL A   1      44.097  28.843  35.367  1.00  0.00     0.064 A 
ATOM     83  C   UNL A   1      43.963  27.753  36.238  1.00  0.00     0.173 A 
ATOM     84  C   UNL A   1      45.385  29.356  35.148  1.00  0.00     0.173 A 
ATOM     85  F   UNL A   1      42.751  27.236  36.491  1.00  0.00    -0.203 F 
ATOM     86  C   UNL A   1      45.072  27.212  36.882  1.00  0.00     0.198 A 
ATOM     87  C   UNL A   1      46.495  28.795  35.772  1.00  0.00     0.198 A 
ATOM     88  F   UNL A   1      45.568  30.394  34.319  1.00  0.00    -0.203 F 
ATOM     89  F   UNL A   1      44.915  26.197  37.745  1.00  0.00    -0.200 F 
ATOM     90  C   UNL A   1      46.336  27.727  36.643  1.00  0.00     0.200 A 
ATOM     91  F   UNL A   1      47.718  29.287  35.531  1.00  0.00    -0.200 F 
ATOM     92  F   UNL A   1      47.404  27.199  37.259  1.00  0.00    -0.200 F 
ENDBRANCH  59  82
ENDBRANCH  33  34
ENDBRANCH  25  28
ENDBRANCH  23  24
ENDBRANCH  22  23
ENDBRANCH   1  22
TORSDOF 14
ENDMDL
MODEL 2
REMARK VINA RESULT:     -12.2      0.856      7.391
REMARK SMILES CC(C)(CC(=O)NCCCNC(=O)c1ccc(-c2c3nc(c(-c4c(F)c(F)c(F)c(F)c4F)c4ccc([nH]4)c(-c4c(F)c(F)c(F)c(F)c4F)c4nc(c(-c5c(F)c(F)c(F)c(F)c5F)c5ccc2[nH]5)C=C4)C=C3)cc1)Cc1nc([C@@]2(C)CCCO2)no1
REMARK SMILES IDX 8 1 7 2 5 3 6 4 4 6 2 7 1 8 3 9 77 10 78 11 79 12 88 13
REMARK SMILES IDX 80 14 87 15 81 16 82 17 83 18 86 19 84 20 85 21 9 22 10 23
REMARK SMILES IDX 11 24 12 25 13 27 14 28 15 29 76 30 16 31 75 32 17 33 18 34
REMARK SMILES IDX 19 35 69 36 20 37 74 38 68 39 70 40 21 41 73 42 67 43 66 44
REMARK SMILES IDX 22 46 54 47 34 48 53 49 35 50 38 51 52 52 71 53 36 54 37 55
REMARK SMILES IDX 51 57 72 58 39 59 23 60 24 61 32 62 25 63 26 64 30 65 33 66
REMARK SMILES IDX 27 67 28 68 31 69 29 70 55 71 56 72 64 73 57 74 58 75 62 76
REMARK SMILES IDX 65 77 59 78 60 79 63 80 61 81 40 82 41 83 49 84 42 85 43 86
REMARK SMILES IDX 47 87 50 88 44 89 45 90 48 91 46 92
REMARK H PARENT 7 5 11 26 70 45 38 56
REMARK Flexibility Score: inf
ROOT
ATOM      1  C   UNL A   1      31.565  30.803  26.644  1.00  0.00     0.117 C 
ENDROOT
BRANCH   1   2
ATOM      2  N   UNL A   1      32.906  30.330  26.941  1.00  0.00    -0.356 N 
ATOM      3  C   UNL A   1      33.407  29.082  27.110  1.00  0.00     0.220 C 
ATOM      4  O   UNL A   1      34.618  28.969  27.313  1.00  0.00    -0.275 OA
ATOM      5  H   UNL A   1      33.573  31.048  27.036  1.00  0.00     0.163 HD
BRANCH   3   6
ATOM      6  C   UNL A   1      32.528  27.854  27.035  1.00  0.00     0.107 C 
BRANCH   6   7
ATOM      7  C   UNL A   1      32.642  26.923  25.793  1.00  0.00    -0.018 C 
ATOM      8  C   UNL A   1      33.669  25.795  26.008  1.00  0.00     0.012 C 
ATOM      9  C   UNL A   1      31.268  26.193  25.694  1.00  0.00     0.012 C 
BRANCH   7  10
ATOM     10  C   UNL A   1      32.849  27.652  24.432  1.00  0.00     0.107 C 
BRANCH  10  11
ATOM     11  C   UNL A   1      31.665  28.042  23.610  1.00  0.00     0.227 A 
ATOM     12  N   UNL A   1      30.751  28.949  23.876  1.00  0.00    -0.193 NA
ATOM     13  O   UNL A   1      31.418  27.371  22.451  1.00  0.00    -0.339 OA
ATOM     14  C   UNL A   1      29.903  28.850  22.794  1.00  0.00     0.203 A 
ATOM     15  N   UNL A   1      30.269  27.924  21.893  1.00  0.00    -0.059 NA
BRANCH  14  16
ATOM     16  C   UNL A   1      28.678  29.715  22.628  1.00  0.00     0.128 C 
ATOM     17  C   UNL A   1      27.409  28.957  23.047  1.00  0.00     0.051 C 
ATOM     18  C   UNL A   1      28.811  31.036  23.400  1.00  0.00     0.046 C 
ATOM     19  O   UNL A   1      28.461  30.100  21.237  1.00  0.00    -0.367 OA
ATOM     20  C   UNL A   1      28.015  32.007  22.561  1.00  0.00     0.032 C 
ATOM     21  C   UNL A   1      28.312  31.523  21.162  1.00  0.00     0.161 C 
ENDBRANCH  14  16
ENDBRANCH  10  11
ENDBRANCH   7  10
ENDBRANCH   6   7
ENDBRANCH   3   6
ENDBRANCH   1   2
BRANCH   1  22
ATOM     22  C   UNL A   1      31.389  32.298  26.899  1.00  0.00     0.042 C 
BRANCH  22  23
ATOM     23  C   UNL A   1      32.683  33.103  26.933  1.00  0.00     0.118 C 
BRANCH  23  24
ATOM     24  N   UNL A   1      32.528  34.358  27.649  1.00  0.00    -0.352 N 
ATOM     25  C   UNL A   1      33.120  34.792  28.808  1.00  0.00     0.251 C 
ATOM     26  H   UNL A   1      31.902  34.996  27.238  1.00  0.00     0.163 HD
ATOM     27  O   UNL A   1      32.685  35.807  29.356  1.00  0.00    -0.269 OA
BRANCH  25  28
ATOM     28  C   UNL A   1      34.255  34.067  29.429  1.00  0.00     0.039 A 
ATOM     29  C   UNL A   1      35.555  34.401  29.030  1.00  0.00     0.014 A 
ATOM     30  C   UNL A   1      34.068  33.018  30.335  1.00  0.00     0.014 A 
ATOM     31  C   UNL A   1      36.655  33.720  29.562  1.00  0.00     0.010 A 
ATOM     32  C   UNL A   1      35.168  32.388  30.921  1.00  0.00     0.010 A 
ATOM     33  C   UNL A   1      36.474  32.720  30.529  1.00  0.00    -0.014 A 
BRANCH  33  34
ATOM     34  C   UNL A   1      37.639  32.003  31.118  1.00  0.00     0.031 A 
ATOM     35  C   UNL A   1      38.135  32.357  32.494  1.00  0.00     0.074 A 
ATOM     36  C   UNL A   1      38.280  31.061  30.399  1.00  0.00     0.049 A 
ATOM     37  N   UNL A   1      39.160  31.878  33.155  1.00  0.00    -0.248 NA
ATOM     38  C   UNL A   1      37.395  33.402  33.220  1.00  0.00     0.031 C 
ATOM     39  C   UNL A   1      37.933  30.655  29.037  1.00  0.00     0.029 A 
ATOM     40  N   UNL A   1      39.369  30.282  30.710  1.00  0.00    -0.354 N 
ATOM     41  C   UNL A   1      39.202  32.578  34.355  1.00  0.00     0.074 A 
ATOM     42  C   UNL A   1      38.120  33.537  34.321  1.00  0.00     0.031 C 
ATOM     43  C   UNL A   1      38.785  29.698  28.632  1.00  0.00     0.029 A 
ATOM     44  C   UNL A   1      39.757  29.444  29.692  1.00  0.00     0.049 A 
ATOM     45  H   UNL A   1      39.828  30.320  31.580  1.00  0.00     0.167 HD
ATOM     46  C   UNL A   1      40.054  32.421  35.396  1.00  0.00     0.037 A 
ATOM     47  C   UNL A   1      40.787  28.579  29.614  1.00  0.00     0.037 A 
ATOM     48  C   UNL A   1      41.102  31.435  35.452  1.00  0.00     0.049 A 
ATOM     49  C   UNL A   1      41.703  28.411  30.797  1.00  0.00     0.074 A 
ATOM     50  C   UNL A   1      41.953  31.143  36.504  1.00  0.00     0.029 A 
ATOM     51  N   UNL A   1      41.441  30.584  34.413  1.00  0.00    -0.354 N 
ATOM     52  N   UNL A   1      41.675  29.019  31.958  1.00  0.00    -0.248 NA
ATOM     53  C   UNL A   1      42.789  27.430  30.662  1.00  0.00     0.031 C 
ATOM     54  C   UNL A   1      42.837  30.143  36.087  1.00  0.00     0.029 A 
ATOM     55  C   UNL A   1      42.507  29.782  34.791  1.00  0.00     0.049 A 
ATOM     56  H   UNL A   1      40.992  30.553  33.538  1.00  0.00     0.167 HD
ATOM     57  C   UNL A   1      42.719  28.478  32.697  1.00  0.00     0.074 A 
ATOM     58  C   UNL A   1      43.351  27.480  31.861  1.00  0.00     0.031 C 
ATOM     59  C   UNL A   1      43.119  28.784  33.954  1.00  0.00     0.037 A 
BRANCH  46  60
ATOM     60  C   UNL A   1      39.893  33.331  36.579  1.00  0.00     0.064 A 
ATOM     61  C   UNL A   1      40.586  34.546  36.670  1.00  0.00     0.173 A 
ATOM     62  C   UNL A   1      38.972  33.019  37.591  1.00  0.00     0.173 A 
ATOM     63  F   UNL A   1      41.481  34.885  35.731  1.00  0.00    -0.203 F 
ATOM     64  C   UNL A   1      40.374  35.411  37.741  1.00  0.00     0.198 A 
ATOM     65  C   UNL A   1      38.745  33.899  38.647  1.00  0.00     0.198 A 
ATOM     66  F   UNL A   1      38.277  31.873  37.545  1.00  0.00    -0.203 F 
ATOM     67  F   UNL A   1      41.068  36.555  37.823  1.00  0.00    -0.200 F 
ATOM     68  C   UNL A   1      39.448  35.092  38.722  1.00  0.00     0.200 A 
ATOM     69  F   UNL A   1      37.839  33.595  39.587  1.00  0.00    -0.200 F 
ATOM     70  F   UNL A   1      39.232  35.934  39.742  1.00  0.00    -0.200 F 
ENDBRANCH  46  60
BRANCH  47  71
ATOM     71  C   UNL A   1      41.011  27.796  28.371  1.00  0.00     0.064 A 
ATOM     72  C   UNL A   1      40.409  26.544  28.187  1.00  0.00     0.173 A 
ATOM     73  C   UNL A   1      41.853  28.271  27.356  1.00  0.00     0.173 A 
ATOM     74  F   UNL A   1      39.613  26.037  29.141  1.00  0.00    -0.203 F 
ATOM     75  C   UNL A   1      40.662  25.783  27.047  1.00  0.00     0.198 A 
ATOM     76  C   UNL A   1      42.084  27.523  26.203  1.00  0.00     0.198 A 
ATOM     77  F   UNL A   1      42.452  29.464  27.482  1.00  0.00    -0.203 F 
ATOM     78  F   UNL A   1      40.118  24.565  26.922  1.00  0.00    -0.200 F 
ATOM     79  C   UNL A   1      41.496  26.275  26.054  1.00  0.00     0.200 A 
ATOM     80  F   UNL A   1      42.880  28.007  25.240  1.00  0.00    -0.200 F 
ATOM     81  F   UNL A   1      41.743  25.543  24.959  1.00  0.00    -0.200 F 
ENDBRANCH  47  71
BRANCH  59  82
ATOM     82  C   UNL A   1      44.275  28.012  34.517  1.00  0.00     0.064 A 
ATOM     83  C   UNL A   1      44.088  26.790  35.180  1.00  0.00     0.173 A 
ATOM     84  C   UNL A   1      45.589  28.478  34.354  1.00  0.00     0.173 A 
ATOM     85  F   UNL A   1      42.851  26.309  35.373  1.00  0.00    -0.203 F 
ATOM     86  C   UNL A   1      45.173  26.074  35.679  1.00  0.00     0.198 A 
ATOM     87  C   UNL A   1      46.673  27.746  34.831  1.00  0.00     0.198 A 
ATOM     88  F   UNL A   1      45.822  29.638  33.723  1.00  0.00    -0.203 F 
ATOM     89  F   UNL A   1      44.968  24.930  36.347  1.00  0.00    -0.200 F 
ATOM     90  C   UNL A   1      46.463  26.548  35.498  1.00  0.00     0.200 A 
ATOM     91  F   UNL A   1      47.920  28.200  34.644  1.00  0.00    -0.200 F 
ATOM     92  F   UNL A   1      47.507  25.853  35.973  1.00  0.00    -0.200 F 
ENDBRANCH  59  82
ENDBRANCH  33  34
ENDBRANCH  25  28
ENDBRANCH  23  24
ENDBRANCH  22  23
ENDBRANCH   1  22
TORSDOF 14
ENDMDL
MODEL 3
REMARK VINA RESULT:     -12.0      6.575     11.845
REMARK SMILES CC(C)(CC(=O)NCCCNC(=O)c1ccc(-c2c3nc(c(-c4c(F)c(F)c(F)c(F)c4F)c4ccc([nH]4)c(-c4c(F)c(F)c(F)c(F)c4F)c4nc(c(-c5c(F)c(F)c(F)c(F)c5F)c5ccc2[nH]5)C=C4)C=C3)cc1)Cc1nc([C@@]2(C)CCCO2)no1
REMARK SMILES IDX 8 1 7 2 5 3 6 4 4 6 2 7 1 8 3 9 77 10 78 11 79 12 88 13
REMARK SMILES IDX 80 14 87 15 81 16 82 17 83 18 86 19 84 20 85 21 9 22 10 23
REMARK SMILES IDX 11 24 12 25 13 27 14 28 15 29 76 30 16 31 75 32 17 33 18 34
REMARK SMILES IDX 19 35 69 36 20 37 74 38 68 39 70 40 21 41 73 42 67 43 66 44
REMARK SMILES IDX 22 46 54 47 34 48 53 49 35 50 38 51 52 52 71 53 36 54 37 55
REMARK SMILES IDX 51 57 72 58 39 59 23 60 24 61 32 62 25 63 26 64 30 65 33 66
REMARK SMILES IDX 27 67 28 68 31 69 29 70 55 71 56 72 64 73 57 74 58 75 62 76
REMARK SMILES IDX 65 77 59 78 60 79 63 80 61 81 40 82 41 83 49 84 42 85 43 86
REMARK SMILES IDX 47 87 50 88 44 89 45 90 48 91 46 92
REMARK H PARENT 7 5 11 26 70 45 38 56
REMARK Flexibility Score: inf
ROOT
ATOM      1  C   UNL A   1      37.312  20.648  24.630  1.00  0.00     0.117 C 
ENDROOT
BRANCH   1   2
ATOM      2  N   UNL A   1      37.779  21.979  24.977  1.00  0.00    -0.356 N 
ATOM      3  C   UNL A   1      37.154  23.034  25.555  1.00  0.00     0.220 C 
ATOM      4  O   UNL A   1      37.819  24.048  25.778  1.00  0.00    -0.275 OA
ATOM      5  H   UNL A   1      38.724  22.144  24.752  1.00  0.00     0.163 HD
BRANCH   3   6
ATOM      6  C   UNL A   1      35.692  22.980  25.940  1.00  0.00     0.107 C 
BRANCH   6   7
ATOM      7  C   UNL A   1      34.659  23.759  25.075  1.00  0.00    -0.018 C 
ATOM      8  C   UNL A   1      34.676  25.271  25.375  1.00  0.00     0.012 C 
ATOM      9  C   UNL A   1      35.172  23.642  23.608  1.00  0.00     0.012 C 
BRANCH   7  10
ATOM     10  C   UNL A   1      33.213  23.178  25.081  1.00  0.00     0.107 C 
BRANCH  10  11
ATOM     11  C   UNL A   1      32.942  21.853  24.448  1.00  0.00     0.227 A 
ATOM     12  N   UNL A   1      33.320  20.662  24.857  1.00  0.00    -0.193 NA
ATOM     13  O   UNL A   1      32.268  21.814  23.265  1.00  0.00    -0.339 OA
ATOM     14  C   UNL A   1      32.818  19.833  23.878  1.00  0.00     0.203 A 
ATOM     15  N   UNL A   1      32.158  20.475  22.900  1.00  0.00    -0.059 NA
BRANCH  14  16
ATOM     16  C   UNL A   1      32.983  18.334  23.905  1.00  0.00     0.128 C 
ATOM     17  C   UNL A   1      32.589  17.712  22.556  1.00  0.00     0.051 C 
ATOM     18  C   UNL A   1      34.411  17.931  24.301  1.00  0.00     0.046 C 
ATOM     19  O   UNL A   1      32.115  17.702  24.894  1.00  0.00    -0.367 OA
ATOM     20  C   UNL A   1      34.212  16.619  25.021  1.00  0.00     0.032 C 
ATOM     21  C   UNL A   1      32.904  16.854  25.737  1.00  0.00     0.161 C 
ENDBRANCH  14  16
ENDBRANCH  10  11
ENDBRANCH   7  10
ENDBRANCH   6   7
ENDBRANCH   3   6
ENDBRANCH   1   2
BRANCH   1  22
ATOM     22  C   UNL A   1      38.279  19.546  25.055  1.00  0.00     0.042 C 
BRANCH  22  23
ATOM     23  C   UNL A   1      39.310  19.960  26.099  1.00  0.00     0.118 C 
BRANCH  23  24
ATOM     24  N   UNL A   1      40.476  19.093  26.092  1.00  0.00    -0.352 N 
ATOM     25  C   UNL A   1      41.810  19.408  26.124  1.00  0.00     0.251 C 
ATOM     26  H   UNL A   1      40.277  18.130  26.059  1.00  0.00     0.163 HD
ATOM     27  O   UNL A   1      42.638  18.524  25.894  1.00  0.00    -0.269 OA
BRANCH  25  28
ATOM     28  C   UNL A   1      42.285  20.785  26.410  1.00  0.00     0.039 A 
ATOM     29  C   UNL A   1      42.542  21.637  25.329  1.00  0.00     0.014 A 
ATOM     30  C   UNL A   1      42.555  21.229  27.708  1.00  0.00     0.014 A 
ATOM     31  C   UNL A   1      43.024  22.931  25.548  1.00  0.00     0.010 A 
ATOM     32  C   UNL A   1      42.967  22.545  27.932  1.00  0.00     0.010 A 
ATOM     33  C   UNL A   1      43.222  23.406  26.854  1.00  0.00    -0.014 A 
BRANCH  33  34
ATOM     34  C   UNL A   1      43.716  24.789  27.099  1.00  0.00     0.031 A 
ATOM     35  C   UNL A   1      42.778  25.856  27.598  1.00  0.00     0.074 A 
ATOM     36  C   UNL A   1      45.000  25.101  26.833  1.00  0.00     0.049 A 
ATOM     37  N   UNL A   1      43.011  27.125  27.826  1.00  0.00    -0.248 NA
ATOM     38  C   UNL A   1      41.387  25.450  27.858  1.00  0.00     0.031 C 
ATOM     39  C   UNL A   1      46.002  24.177  26.301  1.00  0.00     0.029 A 
ATOM     40  N   UNL A   1      45.680  26.288  26.961  1.00  0.00    -0.354 N 
ATOM     41  C   UNL A   1      41.798  27.670  28.229  1.00  0.00     0.074 A 
ATOM     42  C   UNL A   1      40.821  26.603  28.185  1.00  0.00     0.031 C 
ATOM     43  C   UNL A   1      47.168  24.827  26.156  1.00  0.00     0.029 A 
ATOM     44  C   UNL A   1      46.990  26.220  26.554  1.00  0.00     0.049 A 
ATOM     45  H   UNL A   1      45.267  27.111  27.311  1.00  0.00     0.167 HD
ATOM     46  C   UNL A   1      41.528  28.939  28.617  1.00  0.00     0.037 A 
ATOM     47  C   UNL A   1      47.940  27.175  26.495  1.00  0.00     0.037 A 
ATOM     48  C   UNL A   1      42.506  29.990  28.708  1.00  0.00     0.049 A 
ATOM     49  C   UNL A   1      47.614  28.571  26.955  1.00  0.00     0.074 A 
ATOM     50  C   UNL A   1      42.341  31.281  29.179  1.00  0.00     0.029 A 
ATOM     51  N   UNL A   1      43.830  29.872  28.317  1.00  0.00    -0.354 N 
ATOM     52  N   UNL A   1      46.484  29.049  27.416  1.00  0.00    -0.248 NA
ATOM     53  C   UNL A   1      48.700  29.560  26.895  1.00  0.00     0.031 C 
ATOM     54  C   UNL A   1      43.556  31.959  29.035  1.00  0.00     0.029 A 
ATOM     55  C   UNL A   1      44.489  31.076  28.515  1.00  0.00     0.049 A 
ATOM     56  H   UNL A   1      44.242  29.055  27.955  1.00  0.00     0.167 HD
ATOM     57  C   UNL A   1      46.729  30.381  27.723  1.00  0.00     0.074 A 
ATOM     58  C   UNL A   1      48.120  30.634  27.413  1.00  0.00     0.031 C 
ATOM     59  C   UNL A   1      45.876  31.311  28.214  1.00  0.00     0.037 A 
BRANCH  46  60
ATOM     60  C   UNL A   1      40.112  29.274  28.987  1.00  0.00     0.064 A 
ATOM     61  C   UNL A   1      39.127  29.481  28.011  1.00  0.00     0.173 A 
ATOM     62  C   UNL A   1      39.722  29.308  30.335  1.00  0.00     0.173 A 
ATOM     63  F   UNL A   1      39.452  29.465  26.710  1.00  0.00    -0.203 F 
ATOM     64  C   UNL A   1      37.804  29.723  28.371  1.00  0.00     0.198 A 
ATOM     65  C   UNL A   1      38.393  29.526  30.690  1.00  0.00     0.198 A 
ATOM     66  F   UNL A   1      40.625  29.107  31.306  1.00  0.00    -0.203 F 
ATOM     67  F   UNL A   1      36.883  29.946  27.423  1.00  0.00    -0.200 F 
ATOM     68  C   UNL A   1      37.436  29.736  29.708  1.00  0.00     0.200 A 
ATOM     69  F   UNL A   1      38.037  29.524  31.982  1.00  0.00    -0.200 F 
ATOM     70  F   UNL A   1      36.159  29.952  30.052  1.00  0.00    -0.200 F 
ENDBRANCH  46  60
BRANCH  47  71
ATOM     71  C   UNL A   1      49.295  26.848  25.983  1.00  0.00     0.064 A 
ATOM     72  C   UNL A   1      50.300  26.383  26.843  1.00  0.00     0.173 A 
ATOM     73  C   UNL A   1      49.622  27.020  24.631  1.00  0.00     0.173 A 
ATOM     74  F   UNL A   1      50.043  26.225  28.150  1.00  0.00    -0.203 F 
ATOM     75  C   UNL A   1      51.588  26.129  26.375  1.00  0.00     0.198 A 
ATOM     76  C   UNL A   1      50.902  26.738  24.157  1.00  0.00     0.198 A 
ATOM     77  F   UNL A   1      48.697  27.460  23.766  1.00  0.00    -0.203 F 
ATOM     78  F   UNL A   1      52.544  25.739  27.229  1.00  0.00    -0.200 F 
ATOM     79  C   UNL A   1      51.887  26.303  25.032  1.00  0.00     0.200 A 
ATOM     80  F   UNL A   1      51.184  26.896  22.857  1.00  0.00    -0.200 F 
ATOM     81  F   UNL A   1      53.126  26.062  24.582  1.00  0.00    -0.200 F 
ENDBRANCH  47  71
BRANCH  59  82
ATOM     82  C   UNL A   1      46.427  32.681  28.477  1.00  0.00     0.064 A 
ATOM     83  C   UNL A   1      46.379  33.691  27.505  1.00  0.00     0.173 A 
ATOM     84  C   UNL A   1      46.968  33.001  29.732  1.00  0.00     0.173 A 
ATOM     85  F   UNL A   1      45.885  33.431  26.286  1.00  0.00    -0.203 F 
ATOM     86  C   UNL A   1      46.876  34.964  27.772  1.00  0.00     0.198 A 
ATOM     87  C   UNL A   1      47.438  34.282  30.004  1.00  0.00     0.198 A 
ATOM     88  F   UNL A   1      47.030  32.072  30.698  1.00  0.00    -0.203 F 
ATOM     89  F   UNL A   1      46.860  35.901  26.813  1.00  0.00    -0.200 F 
ATOM     90  C   UNL A   1      47.397  35.260  29.022  1.00  0.00     0.200 A 
ATOM     91  F   UNL A   1      47.931  34.571  31.217  1.00  0.00    -0.200 F 
ATOM     92  F   UNL A   1      47.868  36.490  29.279  1.00  0.00    -0.200 F 
ENDBRANCH  59  82
ENDBRANCH  33  34
ENDBRANCH  25  28
ENDBRANCH  23  24
ENDBRANCH  22  23
ENDBRANCH   1  22
TORSDOF 14
ENDMDL
