MODEL 1
REMARK VINA RESULT:     -11.6      0.000      0.000
REMARK SMILES CC(C)Oc1ccc([C@H](O)[C@H](F)C(=O)NCCCNC(=O)c2ccc(-c3c4nc(c(-c5c(F)c(F)c(F)c(F)c5F)c5ccc([nH]5)c(-c5c(F)c(F)c(F)c(F)c5F)c5nc(c(-c6c(F)c(F)c(F)c(F)c6F)c6ccc3[nH]6)C=C5)C=C4)cc2)cc1
REMARK SMILES IDX 16 1 15 2 13 3 14 4 11 6 12 7 9 8 8 9 5 10 6 11 86 12 7 13
REMARK SMILES IDX 85 14 4 15 2 16 1 17 3 18 10 19 17 21 18 22 19 23 20 24
REMARK SMILES IDX 21 26 22 27 23 28 84 29 24 30 83 31 25 32 26 33 27 34 77 35
REMARK SMILES IDX 28 36 82 37 76 38 78 39 29 40 81 41 75 42 74 43 30 45 62 46
REMARK SMILES IDX 42 47 61 48 43 49 46 50 60 51 79 52 44 53 45 54 59 56 80 57
REMARK SMILES IDX 47 58 31 59 32 60 40 61 33 62 34 63 38 64 41 65 35 66 36 67
REMARK SMILES IDX 39 68 37 69 63 70 64 71 72 72 65 73 66 74 70 75 73 76 67 77
REMARK SMILES IDX 68 78 71 79 69 80 48 81 49 82 57 83 50 84 51 85 55 86 58 87
REMARK SMILES IDX 52 88 53 89 56 90 54 91
REMARK H PARENT 15 5 10 20 19 25 78 44 46 55
REMARK Flexibility Score: inf
ROOT
ATOM      1  C   UNL A   1      31.725  30.685  26.000  1.00  0.00     0.117 C 
ENDROOT
BRANCH   1   2
ATOM      2  N   UNL A   1      31.405  29.668  26.985  1.00  0.00    -0.353 N 
ATOM      3  C   UNL A   1      31.879  28.390  27.050  1.00  0.00     0.257 C 
ATOM      4  O   UNL A   1      31.585  27.709  28.036  1.00  0.00    -0.272 OA
ATOM      5  H   UNL A   1      30.769  29.932  27.690  1.00  0.00     0.163 HD
BRANCH   3   6
ATOM      6  C   UNL A   1      32.789  27.851  25.956  1.00  0.00     0.288 C 
ATOM      7  F   UNL A   1      33.832  27.139  26.493  1.00  0.00    -0.234 F 
BRANCH   6   8
ATOM      8  C   UNL A   1      32.045  26.950  24.944  1.00  0.00     0.188 C 
BRANCH   8   9
ATOM      9  C   UNL A   1      31.130  27.702  23.999  1.00  0.00    -0.016 A 
ATOM     10  C   UNL A   1      29.430  29.133  22.288  1.00  0.00     0.119 A 
ATOM     11  C   UNL A   1      28.905  28.155  23.128  1.00  0.00     0.047 A 
ATOM     12  C   UNL A   1      30.777  29.462  22.364  1.00  0.00     0.047 A 
ATOM     13  C   UNL A   1      29.749  27.444  23.982  1.00  0.00     0.010 A 
ATOM     14  C   UNL A   1      31.625  28.741  23.200  1.00  0.00     0.010 A 
BRANCH  10  15
ATOM     15  O   UNL A   1      28.561  29.811  21.485  1.00  0.00    -0.491 OA
BRANCH  15  16
ATOM     16  C   UNL A   1      28.444  31.230  21.713  1.00  0.00     0.167 C 
ATOM     17  C   UNL A   1      27.967  32.006  20.487  1.00  0.00     0.052 C 
ATOM     18  C   UNL A   1      27.658  31.592  22.973  1.00  0.00     0.052 C 
ENDBRANCH  15  16
ENDBRANCH  10  15
ENDBRANCH   8   9
BRANCH   8  19
ATOM     19  O   UNL A   1      31.342  25.865  25.564  1.00  0.00    -0.385 OA
ATOM     20  H   UNL A   1      30.888  25.343  24.884  1.00  0.00     0.211 HD
ENDBRANCH   8  19
ENDBRANCH   6   8
ENDBRANCH   3   6
ENDBRANCH   1   2
BRANCH   1  21
ATOM     21  C   UNL A   1      31.470  32.085  26.515  1.00  0.00     0.042 C 
BRANCH  21  22
ATOM     22  C   UNL A   1      32.652  32.680  27.255  1.00  0.00     0.118 C 
BRANCH  22  23
ATOM     23  N   UNL A   1      32.448  34.074  27.622  1.00  0.00    -0.352 N 
ATOM     24  C   UNL A   1      33.048  34.817  28.606  1.00  0.00     0.251 C 
ATOM     25  H   UNL A   1      31.778  34.556  27.083  1.00  0.00     0.163 HD
ATOM     26  O   UNL A   1      32.620  35.937  28.877  1.00  0.00    -0.269 OA
BRANCH  24  27
ATOM     27  C   UNL A   1      34.193  34.264  29.356  1.00  0.00     0.039 A 
ATOM     28  C   UNL A   1      33.945  33.527  30.518  1.00  0.00     0.014 A 
ATOM     29  C   UNL A   1      35.505  34.466  28.923  1.00  0.00     0.014 A 
ATOM     30  C   UNL A   1      35.012  32.952  31.209  1.00  0.00     0.010 A 
ATOM     31  C   UNL A   1      36.552  33.797  29.545  1.00  0.00     0.010 A 
ATOM     32  C   UNL A   1      36.322  33.055  30.710  1.00  0.00    -0.014 A 
BRANCH  32  33
ATOM     33  C   UNL A   1      37.463  32.422  31.417  1.00  0.00     0.031 A 
ATOM     34  C   UNL A   1      38.199  31.274  30.779  1.00  0.00     0.074 A 
ATOM     35  C   UNL A   1      37.806  32.848  32.649  1.00  0.00     0.049 A 
ATOM     36  N   UNL A   1      39.199  30.570  31.247  1.00  0.00    -0.248 NA
ATOM     37  C   UNL A   1      37.731  30.835  29.453  1.00  0.00     0.031 C 
ATOM     38  C   UNL A   1      37.125  33.906  33.398  1.00  0.00     0.029 A 
ATOM     39  N   UNL A   1      38.809  32.438  33.490  1.00  0.00    -0.354 N 
ATOM     40  C   UNL A   1      39.461  29.601  30.287  1.00  0.00     0.074 A 
ATOM     41  C   UNL A   1      38.481  29.765  29.237  1.00  0.00     0.031 C 
ATOM     42  C   UNL A   1      37.748  34.081  34.576  1.00  0.00     0.029 A 
ATOM     43  C   UNL A   1      38.845  33.124  34.680  1.00  0.00     0.049 A 
ATOM     44  H   UNL A   1      39.444  31.721  33.262  1.00  0.00     0.167 HD
ATOM     45  C   UNL A   1      40.447  28.674  30.270  1.00  0.00     0.037 A 
ATOM     46  C   UNL A   1      39.668  32.991  35.737  1.00  0.00     0.037 A 
ATOM     47  C   UNL A   1      41.445  28.540  31.299  1.00  0.00     0.049 A 
ATOM     48  C   UNL A   1      40.775  31.971  35.674  1.00  0.00     0.074 A 
ATOM     49  C   UNL A   1      42.533  27.686  31.337  1.00  0.00     0.029 A 
ATOM     50  N   UNL A   1      41.474  29.280  32.470  1.00  0.00    -0.354 N 
ATOM     51  N   UNL A   1      41.068  31.121  34.721  1.00  0.00    -0.248 NA
ATOM     52  C   UNL A   1      41.680  31.907  36.830  1.00  0.00     0.031 C 
ATOM     53  C   UNL A   1      43.186  27.867  32.560  1.00  0.00     0.029 A 
ATOM     54  C   UNL A   1      42.547  28.884  33.251  1.00  0.00     0.049 A 
ATOM     55  H   UNL A   1      40.827  29.983  32.712  1.00  0.00     0.167 HD
ATOM     56  C   UNL A   1      42.206  30.448  35.144  1.00  0.00     0.074 A 
ATOM     57  C   UNL A   1      42.563  31.006  36.432  1.00  0.00     0.031 C 
ATOM     58  C   UNL A   1      42.896  29.458  34.526  1.00  0.00     0.037 A 
BRANCH  45  59
ATOM     59  C   UNL A   1      40.506  27.730  29.102  1.00  0.00     0.064 A 
ATOM     60  C   UNL A   1      39.701  26.583  29.036  1.00  0.00     0.173 A 
ATOM     61  C   UNL A   1      41.336  28.012  28.005  1.00  0.00     0.173 A 
ATOM     62  F   UNL A   1      38.901  26.258  30.062  1.00  0.00    -0.203 F 
ATOM     63  C   UNL A   1      39.741  25.741  27.926  1.00  0.00     0.198 A 
ATOM     64  C   UNL A   1      41.347  27.187  26.884  1.00  0.00     0.198 A 
ATOM     65  F   UNL A   1      42.123  29.097  28.015  1.00  0.00    -0.203 F 
ATOM     66  F   UNL A   1      38.995  24.628  27.905  1.00  0.00    -0.200 F 
ATOM     67  C   UNL A   1      40.554  26.051  26.847  1.00  0.00     0.200 A 
ATOM     68  F   UNL A   1      42.123  27.496  25.836  1.00  0.00    -0.200 F 
ATOM     69  F   UNL A   1      40.577  25.250  25.773  1.00  0.00    -0.200 F 
ENDBRANCH  45  59
BRANCH  46  70
ATOM     70  C   UNL A   1      39.493  33.851  36.938  1.00  0.00     0.064 A 
ATOM     71  C   UNL A   1      38.765  33.404  38.051  1.00  0.00     0.173 A 
ATOM     72  C   UNL A   1      40.021  35.149  36.985  1.00  0.00     0.173 A 
ATOM     73  F   UNL A   1      38.226  32.176  38.049  1.00  0.00    -0.203 F 
ATOM     74  C   UNL A   1      38.538  34.236  39.145  1.00  0.00     0.198 A 
ATOM     75  C   UNL A   1      39.824  35.967  38.095  1.00  0.00     0.198 A 
ATOM     76  F   UNL A   1      40.733  35.623  35.953  1.00  0.00    -0.203 F 
ATOM     77  F   UNL A   1      37.781  33.807  40.165  1.00  0.00    -0.200 F 
ATOM     78  C   UNL A   1      39.071  35.517  39.168  1.00  0.00     0.200 A 
ATOM     79  F   UNL A   1      40.356  37.197  38.120  1.00  0.00    -0.200 F 
ATOM     80  F   UNL A   1      38.847  36.319  40.218  1.00  0.00    -0.200 F 
ENDBRANCH  46  70
BRANCH  58  81
ATOM     81  C   UNL A   1      44.138  28.956  35.207  1.00  0.00     0.064 A 
ATOM     82  C   UNL A   1      44.106  27.889  36.117  1.00  0.00     0.173 A 
ATOM     83  C   UNL A   1      45.382  29.546  34.931  1.00  0.00     0.173 A 
ATOM     84  F   UNL A   1      42.942  27.296  36.424  1.00  0.00    -0.203 F 
ATOM     85  C   UNL A   1      45.265  27.464  36.761  1.00  0.00     0.198 A 
ATOM     86  C   UNL A   1      46.543  29.092  35.547  1.00  0.00     0.198 A 
ATOM     87  F   UNL A   1      45.471  30.561  34.059  1.00  0.00    -0.203 F 
ATOM     88  F   UNL A   1      45.199  26.491  37.680  1.00  0.00    -0.200 F 
ATOM     89  C   UNL A   1      46.483  28.062  36.471  1.00  0.00     0.200 A 
ATOM     90  F   UNL A   1      47.722  29.658  35.250  1.00  0.00    -0.200 F 
ATOM     91  F   UNL A   1      47.596  27.650  37.093  1.00  0.00    -0.200 F 
ENDBRANCH  58  81
ENDBRANCH  32  33
ENDBRANCH  24  27
ENDBRANCH  22  23
ENDBRANCH  21  22
ENDBRANCH   1  21
TORSDOF 15
ENDMDL
MODEL 2
REMARK VINA RESULT:     -11.6      0.789      7.646
REMARK SMILES CC(C)Oc1ccc([C@H](O)[C@H](F)C(=O)NCCCNC(=O)c2ccc(-c3c4nc(c(-c5c(F)c(F)c(F)c(F)c5F)c5ccc([nH]5)c(-c5c(F)c(F)c(F)c(F)c5F)c5nc(c(-c6c(F)c(F)c(F)c(F)c6F)c6ccc3[nH]6)C=C5)C=C4)cc2)cc1
REMARK SMILES IDX 16 1 15 2 13 3 14 4 11 6 12 7 9 8 8 9 5 10 6 11 86 12 7 13
REMARK SMILES IDX 85 14 4 15 2 16 1 17 3 18 10 19 17 21 18 22 19 23 20 24
REMARK SMILES IDX 21 26 22 27 23 28 84 29 24 30 83 31 25 32 26 33 27 34 77 35
REMARK SMILES IDX 28 36 82 37 76 38 78 39 29 40 81 41 75 42 74 43 30 45 62 46
REMARK SMILES IDX 42 47 61 48 43 49 46 50 60 51 79 52 44 53 45 54 59 56 80 57
REMARK SMILES IDX 47 58 31 59 32 60 40 61 33 62 34 63 38 64 41 65 35 66 36 67
REMARK SMILES IDX 39 68 37 69 63 70 64 71 72 72 65 73 66 74 70 75 73 76 67 77
REMARK SMILES IDX 68 78 71 79 69 80 48 81 49 82 57 83 50 84 51 85 55 86 58 87
REMARK SMILES IDX 52 88 53 89 56 90 54 91
REMARK H PARENT 15 5 10 20 19 25 78 44 46 55
REMARK Flexibility Score: inf
ROOT
ATOM      1  C   UNL A   1      31.680  30.602  25.986  1.00  0.00     0.117 C 
ENDROOT
BRANCH   1   2
ATOM      2  N   UNL A   1      31.404  29.595  26.995  1.00  0.00    -0.353 N 
ATOM      3  C   UNL A   1      31.882  28.318  27.052  1.00  0.00     0.257 C 
ATOM      4  O   UNL A   1      31.633  27.647  28.056  1.00  0.00    -0.272 OA
ATOM      5  H   UNL A   1      30.801  29.866  27.724  1.00  0.00     0.163 HD
BRANCH   3   6
ATOM      6  C   UNL A   1      32.745  27.769  25.924  1.00  0.00     0.288 C 
ATOM      7  F   UNL A   1      33.793  27.036  26.421  1.00  0.00    -0.234 F 
BRANCH   6   8
ATOM      8  C   UNL A   1      31.949  26.885  24.935  1.00  0.00     0.188 C 
BRANCH   8   9
ATOM      9  C   UNL A   1      31.069  27.663  23.978  1.00  0.00    -0.016 A 
ATOM     10  C   UNL A   1      29.435  29.144  22.244  1.00  0.00     0.119 A 
ATOM     11  C   UNL A   1      28.863  28.231  23.126  1.00  0.00     0.047 A 
ATOM     12  C   UNL A   1      30.802  29.385  22.288  1.00  0.00     0.047 A 
ATOM     13  C   UNL A   1      29.674  27.496  23.992  1.00  0.00     0.010 A 
ATOM     14  C   UNL A   1      31.616  28.640  23.135  1.00  0.00     0.010 A 
BRANCH  10  15
ATOM     15  O   UNL A   1      28.598  29.849  21.431  1.00  0.00    -0.491 OA
BRANCH  15  16
ATOM     16  C   UNL A   1      28.472  31.259  21.702  1.00  0.00     0.167 C 
ATOM     17  C   UNL A   1      28.022  32.074  20.491  1.00  0.00     0.052 C 
ATOM     18  C   UNL A   1      27.655  31.579  22.954  1.00  0.00     0.052 C 
ENDBRANCH  15  16
ENDBRANCH  10  15
ENDBRANCH   8   9
BRANCH   8  19
ATOM     19  O   UNL A   1      31.195  25.851  25.581  1.00  0.00    -0.385 OA
ATOM     20  H   UNL A   1      30.249  26.058  25.525  1.00  0.00     0.211 HD
ENDBRANCH   8  19
ENDBRANCH   6   8
ENDBRANCH   3   6
ENDBRANCH   1   2
BRANCH   1  21
ATOM     21  C   UNL A   1      31.495  32.009  26.512  1.00  0.00     0.042 C 
BRANCH  21  22
ATOM     22  C   UNL A   1      32.745  32.582  27.152  1.00  0.00     0.118 C 
BRANCH  22  23
ATOM     23  N   UNL A   1      32.564  33.947  27.625  1.00  0.00    -0.352 N 
ATOM     24  C   UNL A   1      33.206  34.615  28.637  1.00  0.00     0.251 C 
ATOM     25  H   UNL A   1      31.879  34.469  27.148  1.00  0.00     0.163 HD
ATOM     26  O   UNL A   1      32.796  35.714  29.003  1.00  0.00    -0.269 OA
BRANCH  24  27
ATOM     27  C   UNL A   1      34.373  34.004  29.303  1.00  0.00     0.039 A 
ATOM     28  C   UNL A   1      34.162  33.174  30.407  1.00  0.00     0.014 A 
ATOM     29  C   UNL A   1      35.671  34.244  28.847  1.00  0.00     0.014 A 
ATOM     30  C   UNL A   1      35.249  32.546  31.014  1.00  0.00     0.010 A 
ATOM     31  C   UNL A   1      36.737  33.528  29.378  1.00  0.00     0.010 A 
ATOM     32  C   UNL A   1      36.543  32.692  30.485  1.00  0.00    -0.014 A 
BRANCH  32  33
ATOM     33  C   UNL A   1      37.705  32.005  31.101  1.00  0.00     0.031 A 
ATOM     34  C   UNL A   1      38.160  32.391  32.483  1.00  0.00     0.074 A 
ATOM     35  C   UNL A   1      38.378  31.071  30.400  1.00  0.00     0.049 A 
ATOM     36  N   UNL A   1      39.169  31.933  33.180  1.00  0.00    -0.248 NA
ATOM     37  C   UNL A   1      37.402  33.455  33.163  1.00  0.00     0.031 C 
ATOM     38  C   UNL A   1      38.075  30.660  29.028  1.00  0.00     0.029 A 
ATOM     39  N   UNL A   1      39.462  30.303  30.745  1.00  0.00    -0.354 N 
ATOM     40  C   UNL A   1      39.176  32.664  34.362  1.00  0.00     0.074 A 
ATOM     41  C   UNL A   1      38.111  33.636  34.267  1.00  0.00     0.031 C 
ATOM     42  C   UNL A   1      38.934  29.696  28.658  1.00  0.00     0.029 A 
ATOM     43  C   UNL A   1      39.870  29.448  29.750  1.00  0.00     0.049 A 
ATOM     44  H   UNL A   1      39.904  30.359  31.623  1.00  0.00     0.167 HD
ATOM     45  C   UNL A   1      39.981  32.520  35.440  1.00  0.00     0.037 A 
ATOM     46  C   UNL A   1      40.887  28.567  29.723  1.00  0.00     0.037 A 
ATOM     47  C   UNL A   1      41.015  31.524  35.545  1.00  0.00     0.049 A 
ATOM     48  C   UNL A   1      41.746  28.407  30.950  1.00  0.00     0.074 A 
ATOM     49  C   UNL A   1      41.834  31.243  36.625  1.00  0.00     0.029 A 
ATOM     50  N   UNL A   1      41.372  30.647  34.533  1.00  0.00    -0.354 N 
ATOM     51  N   UNL A   1      41.686  29.043  32.094  1.00  0.00    -0.248 NA
ATOM     52  C   UNL A   1      42.806  27.391  30.886  1.00  0.00     0.031 C 
ATOM     53  C   UNL A   1      42.726  30.237  36.246  1.00  0.00     0.029 A 
ATOM     54  C   UNL A   1      42.417  29.841  34.954  1.00  0.00     0.049 A 
ATOM     55  H   UNL A   1      40.947  30.604  33.645  1.00  0.00     0.167 HD
ATOM     56  C   UNL A   1      42.670  28.482  32.896  1.00  0.00     0.074 A 
ATOM     57  C   UNL A   1      43.299  27.439  32.113  1.00  0.00     0.031 C 
ATOM     58  C   UNL A   1      43.025  28.799  34.167  1.00  0.00     0.037 A 
BRANCH  45  59
ATOM     59  C   UNL A   1      39.780  33.455  36.599  1.00  0.00     0.064 A 
ATOM     60  C   UNL A   1      40.439  34.691  36.676  1.00  0.00     0.173 A 
ATOM     61  C   UNL A   1      38.868  33.134  37.617  1.00  0.00     0.173 A 
ATOM     62  F   UNL A   1      41.331  35.042  35.738  1.00  0.00    -0.203 F 
ATOM     63  C   UNL A   1      40.208  35.562  37.739  1.00  0.00     0.198 A 
ATOM     64  C   UNL A   1      38.615  34.022  38.659  1.00  0.00     0.198 A 
ATOM     65  F   UNL A   1      38.210  31.965  37.591  1.00  0.00    -0.203 F 
ATOM     66  F   UNL A   1      40.881  36.718  37.813  1.00  0.00    -0.200 F 
ATOM     67  C   UNL A   1      39.288  35.231  38.722  1.00  0.00     0.200 A 
ATOM     68  F   UNL A   1      37.715  33.707  39.600  1.00  0.00    -0.200 F 
ATOM     69  F   UNL A   1      39.054  36.078  39.734  1.00  0.00    -0.200 F 
ENDBRANCH  45  59
BRANCH  46  70
ATOM     70  C   UNL A   1      41.144  27.754  28.503  1.00  0.00     0.064 A 
ATOM     71  C   UNL A   1      42.063  28.175  27.531  1.00  0.00     0.173 A 
ATOM     72  C   UNL A   1      40.452  26.557  28.269  1.00  0.00     0.173 A 
ATOM     73  F   UNL A   1      42.739  29.321  27.699  1.00  0.00    -0.203 F 
ATOM     74  C   UNL A   1      42.249  27.452  26.354  1.00  0.00     0.198 A 
ATOM     75  C   UNL A   1      40.666  25.816  27.109  1.00  0.00     0.198 A 
ATOM     76  F   UNL A   1      39.570  26.104  29.170  1.00  0.00    -0.203 F 
ATOM     77  F   UNL A   1      43.082  27.914  25.411  1.00  0.00    -0.200 F 
ATOM     78  C   UNL A   1      41.553  26.271  26.145  1.00  0.00     0.200 A 
ATOM     79  F   UNL A   1      40.004  24.667  26.920  1.00  0.00    -0.200 F 
ATOM     80  F   UNL A   1      41.728  25.580  25.011  1.00  0.00    -0.200 F 
ENDBRANCH  46  70
BRANCH  58  81
ATOM     81  C   UNL A   1      44.103  27.971  34.806  1.00  0.00     0.064 A 
ATOM     82  C   UNL A   1      45.455  28.338  34.748  1.00  0.00     0.173 A 
ATOM     83  C   UNL A   1      43.772  26.797  35.502  1.00  0.00     0.173 A 
ATOM     84  F   UNL A   1      45.827  29.445  34.087  1.00  0.00    -0.203 F 
ATOM     85  C   UNL A   1      46.440  27.537  35.320  1.00  0.00     0.198 A 
ATOM     86  C   UNL A   1      44.755  26.021  36.107  1.00  0.00     0.198 A 
ATOM     87  F   UNL A   1      42.492  26.406  35.601  1.00  0.00    -0.203 F 
ATOM     88  F   UNL A   1      47.731  27.870  35.189  1.00  0.00    -0.200 F 
ATOM     89  C   UNL A   1      46.088  26.382  36.003  1.00  0.00     0.200 A 
ATOM     90  F   UNL A   1      44.410  24.916  36.784  1.00  0.00    -0.200 F 
ATOM     91  F   UNL A   1      47.037  25.613  36.553  1.00  0.00    -0.200 F 
ENDBRANCH  58  81
ENDBRANCH  32  33
ENDBRANCH  24  27
ENDBRANCH  22  23
ENDBRANCH  21  22
ENDBRANCH   1  21
TORSDOF 15
ENDMDL
MODEL 3
REMARK VINA RESULT:     -11.6      6.616     11.801
REMARK SMILES CC(C)Oc1ccc([C@H](O)[C@H](F)C(=O)NCCCNC(=O)c2ccc(-c3c4nc(c(-c5c(F)c(F)c(F)c(F)c5F)c5ccc([nH]5)c(-c5c(F)c(F)c(F)c(F)c5F)c5nc(c(-c6c(F)c(F)c(F)c(F)c6F)c6ccc3[nH]6)C=C5)C=C4)cc2)cc1
REMARK SMILES IDX 16 1 15 2 13 3 14 4 11 6 12 7 9 8 8 9 5 10 6 11 86 12 7 13
REMARK SMILES IDX 85 14 4 15 2 16 1 17 3 18 10 19 17 21 18 22 19 23 20 24
REMARK SMILES IDX 21 26 22 27 23 28 84 29 24 30 83 31 25 32 26 33 27 34 77 35
REMARK SMILES IDX 28 36 82 37 76 38 78 39 29 40 81 41 75 42 74 43 30 45 62 46
REMARK SMILES IDX 42 47 61 48 43 49 46 50 60 51 79 52 44 53 45 54 59 56 80 57
REMARK SMILES IDX 47 58 31 59 32 60 40 61 33 62 34 63 38 64 41 65 35 66 36 67
REMARK SMILES IDX 39 68 37 69 63 70 64 71 72 72 65 73 66 74 70 75 73 76 67 77
REMARK SMILES IDX 68 78 71 79 69 80 48 81 49 82 57 83 50 84 51 85 55 86 58 87
REMARK SMILES IDX 52 88 53 89 56 90 54 91
REMARK H PARENT 15 5 10 20 19 25 78 44 46 55
REMARK Flexibility Score: inf
ROOT
ATOM      1  C   UNL A   1      37.049  20.568  25.032  1.00  0.00     0.117 C 
ENDROOT
BRANCH   1   2
ATOM      2  N   UNL A   1      37.049  21.455  23.884  1.00  0.00    -0.353 N 
ATOM      3  C   UNL A   1      36.434  22.667  23.765  1.00  0.00     0.257 C 
ATOM      4  O   UNL A   1      36.651  23.334  22.750  1.00  0.00    -0.272 OA
ATOM      5  H   UNL A   1      37.554  21.145  23.097  1.00  0.00     0.163 HD
BRANCH   3   6
ATOM      6  C   UNL A   1      35.550  23.194  24.886  1.00  0.00     0.288 C 
ATOM      7  F   UNL A   1      35.813  24.518  25.137  1.00  0.00    -0.234 F 
BRANCH   6   8
ATOM      8  C   UNL A   1      34.041  23.038  24.587  1.00  0.00     0.188 C 
BRANCH   8   9
ATOM      9  C   UNL A   1      33.549  21.606  24.610  1.00  0.00    -0.016 A 
ATOM     10  C   UNL A   1      32.587  18.971  24.667  1.00  0.00     0.119 A 
ATOM     11  C   UNL A   1      33.164  19.524  25.807  1.00  0.00     0.047 A 
ATOM     12  C   UNL A   1      32.405  19.754  23.534  1.00  0.00     0.047 A 
ATOM     13  C   UNL A   1      33.640  20.836  25.781  1.00  0.00     0.010 A 
ATOM     14  C   UNL A   1      32.897  21.055  23.499  1.00  0.00     0.010 A 
BRANCH  10  15
ATOM     15  O   UNL A   1      32.121  17.692  24.749  1.00  0.00    -0.491 OA
BRANCH  15  16
ATOM     16  C   UNL A   1      33.110  16.655  24.900  1.00  0.00     0.167 C 
ATOM     17  C   UNL A   1      32.530  15.326  25.379  1.00  0.00     0.052 C 
ATOM     18  C   UNL A   1      34.023  16.486  23.686  1.00  0.00     0.052 C 
ENDBRANCH  15  16
ENDBRANCH  10  15
ENDBRANCH   8   9
BRANCH   8  19
ATOM     19  O   UNL A   1      33.636  23.687  23.374  1.00  0.00    -0.385 OA
ATOM     20  H   UNL A   1      32.675  23.822  23.385  1.00  0.00     0.211 HD
ENDBRANCH   8  19
ENDBRANCH   6   8
ENDBRANCH   3   6
ENDBRANCH   1   2
BRANCH   1  21
ATOM     21  C   UNL A   1      38.199  19.585  25.001  1.00  0.00     0.042 C 
BRANCH  21  22
ATOM     22  C   UNL A   1      39.294  19.906  26.000  1.00  0.00     0.118 C 
BRANCH  22  23
ATOM     23  N   UNL A   1      40.380  18.936  25.982  1.00  0.00    -0.352 N 
ATOM     24  C   UNL A   1      41.735  19.138  26.039  1.00  0.00     0.251 C 
ATOM     25  H   UNL A   1      40.099  17.993  25.919  1.00  0.00     0.163 HD
ATOM     26  O   UNL A   1      42.504  18.201  25.838  1.00  0.00    -0.269 OA
BRANCH  24  27
ATOM     27  C   UNL A   1      42.271  20.486  26.317  1.00  0.00     0.039 A 
ATOM     28  C   UNL A   1      42.641  21.299  25.243  1.00  0.00     0.014 A 
ATOM     29  C   UNL A   1      42.410  20.951  27.626  1.00  0.00     0.014 A 
ATOM     30  C   UNL A   1      43.098  22.594  25.485  1.00  0.00     0.010 A 
ATOM     31  C   UNL A   1      42.753  22.277  27.859  1.00  0.00     0.010 A 
ATOM     32  C   UNL A   1      43.127  23.106  26.794  1.00  0.00    -0.014 A 
BRANCH  32  33
ATOM     33  C   UNL A   1      43.582  24.492  27.066  1.00  0.00     0.031 A 
ATOM     34  C   UNL A   1      42.606  25.515  27.584  1.00  0.00     0.074 A 
ATOM     35  C   UNL A   1      44.856  24.841  26.803  1.00  0.00     0.049 A 
ATOM     36  N   UNL A   1      42.800  26.782  27.853  1.00  0.00    -0.248 NA
ATOM     37  C   UNL A   1      41.219  25.067  27.798  1.00  0.00     0.031 C 
ATOM     38  C   UNL A   1      45.877  23.958  26.236  1.00  0.00     0.029 A 
ATOM     39  N   UNL A   1      45.509  26.036  26.972  1.00  0.00    -0.354 N 
ATOM     40  C   UNL A   1      41.563  27.279  28.245  1.00  0.00     0.074 A 
ATOM     41  C   UNL A   1      40.611  26.198  28.124  1.00  0.00     0.031 C 
ATOM     42  C   UNL A   1      47.033  24.632  26.131  1.00  0.00     0.029 A 
ATOM     43  C   UNL A   1      46.827  26.003  26.586  1.00  0.00     0.049 A 
ATOM     44  H   UNL A   1      45.074  26.841  27.336  1.00  0.00     0.167 HD
ATOM     45  C   UNL A   1      41.254  28.518  28.692  1.00  0.00     0.037 A 
ATOM     46  C   UNL A   1      47.761  26.973  26.594  1.00  0.00     0.037 A 
ATOM     47  C   UNL A   1      42.213  29.580  28.848  1.00  0.00     0.049 A 
ATOM     48  C   UNL A   1      47.395  28.334  27.127  1.00  0.00     0.074 A 
ATOM     49  C   UNL A   1      42.017  30.848  29.367  1.00  0.00     0.029 A 
ATOM     50  N   UNL A   1      43.548  29.497  28.486  1.00  0.00    -0.354 N 
ATOM     51  N   UNL A   1      46.243  28.766  27.578  1.00  0.00    -0.248 NA
ATOM     52  C   UNL A   1      48.466  29.338  27.167  1.00  0.00     0.031 C 
ATOM     53  C   UNL A   1      43.220  31.552  29.263  1.00  0.00     0.029 A 
ATOM     54  C   UNL A   1      44.183  30.701  28.746  1.00  0.00     0.049 A 
ATOM     55  H   UNL A   1      43.981  28.701  28.099  1.00  0.00     0.167 HD
ATOM     56  C   UNL A   1      46.459  30.074  27.989  1.00  0.00     0.074 A 
ATOM     57  C   UNL A   1      47.859  30.358  27.751  1.00  0.00     0.031 C 
ATOM     58  C   UNL A   1      45.580  30.964  28.515  1.00  0.00     0.037 A 
BRANCH  45  59
ATOM     59  C   UNL A   1      39.822  28.801  29.050  1.00  0.00     0.064 A 
ATOM     60  C   UNL A   1      39.339  28.638  30.357  1.00  0.00     0.173 A 
ATOM     61  C   UNL A   1      38.936  29.300  28.082  1.00  0.00     0.173 A 
ATOM     62  F   UNL A   1      40.139  28.151  31.317  1.00  0.00    -0.203 F 
ATOM     63  C   UNL A   1      38.018  28.944  30.677  1.00  0.00     0.198 A 
ATOM     64  C   UNL A   1      37.627  29.638  28.413  1.00  0.00     0.198 A 
ATOM     65  F   UNL A   1      39.347  29.477  26.817  1.00  0.00    -0.203 F 
ATOM     66  F   UNL A   1      37.569  28.739  31.922  1.00  0.00    -0.200 F 
ATOM     67  C   UNL A   1      37.168  29.455  29.708  1.00  0.00     0.200 A 
ATOM     68  F   UNL A   1      36.811  30.144  27.479  1.00  0.00    -0.200 F 
ATOM     69  F   UNL A   1      35.903  29.766  30.023  1.00  0.00    -0.200 F 
ENDBRANCH  45  59
BRANCH  46  70
ATOM     70  C   UNL A   1      49.136  26.695  26.100  1.00  0.00     0.064 A 
ATOM     71  C   UNL A   1      50.126  26.187  26.953  1.00  0.00     0.173 A 
ATOM     72  C   UNL A   1      49.499  26.963  24.771  1.00  0.00     0.173 A 
ATOM     73  F   UNL A   1      49.835  25.929  28.237  1.00  0.00    -0.203 F 
ATOM     74  C   UNL A   1      51.433  25.997  26.510  1.00  0.00     0.198 A 
ATOM     75  C   UNL A   1      50.797  26.738  24.319  1.00  0.00     0.198 A 
ATOM     76  F   UNL A   1      48.590  27.441  23.910  1.00  0.00    -0.203 F 
ATOM     77  F   UNL A   1      52.375  25.575  27.366  1.00  0.00    -0.200 F 
ATOM     78  C   UNL A   1      51.767  26.269  25.192  1.00  0.00     0.200 A 
ATOM     79  F   UNL A   1      51.111  26.987  23.040  1.00  0.00    -0.200 F 
ATOM     80  F   UNL A   1      53.026  26.092  24.767  1.00  0.00    -0.200 F 
ENDBRANCH  46  70
BRANCH  58  81
ATOM     81  C   UNL A   1      46.121  32.305  28.922  1.00  0.00     0.064 A 
ATOM     82  C   UNL A   1      46.627  32.544  30.208  1.00  0.00     0.173 A 
ATOM     83  C   UNL A   1      46.145  33.365  28.001  1.00  0.00     0.173 A 
ATOM     84  F   UNL A   1      46.618  31.568  31.130  1.00  0.00    -0.203 F 
ATOM     85  C   UNL A   1      47.092  33.804  30.572  1.00  0.00     0.198 A 
ATOM     86  C   UNL A   1      46.648  34.612  28.356  1.00  0.00     0.198 A 
ATOM     87  F   UNL A   1      45.687  33.188  26.752  1.00  0.00    -0.203 F 
ATOM     88  F   UNL A   1      47.503  34.028  31.827  1.00  0.00    -0.200 F 
ATOM     89  C   UNL A   1      47.107  34.835  29.644  1.00  0.00     0.200 A 
ATOM     90  F   UNL A   1      46.681  35.601  27.452  1.00  0.00    -0.200 F 
ATOM     91  F   UNL A   1      47.556  36.048  29.996  1.00  0.00    -0.200 F 
ENDBRANCH  58  81
ENDBRANCH  32  33
ENDBRANCH  24  27
ENDBRANCH  22  23
ENDBRANCH  21  22
ENDBRANCH   1  21
TORSDOF 15
ENDMDL
