MODEL 1
REMARK VINA RESULT:     -13.1      0.000      0.000
REMARK SMILES O=C(NCCCNC(=O)c1ccc(-c2c3nc(c(-c4c(F)c(F)c(F)c(F)c4F)c4ccc([nH]4)c(-c4c(F)c(F)c(F)c(F)c4F)c4nc(c(-c5c(F)c(F)c(F)c(F)c5F)c5ccc2[nH]5)C=C4)C=C3)cc1)C1=NN(c2ccc([N+](=O)[O-])cc2)[C@H](c2ccccc2)C1
REMARK SMILES IDX 5 1 4 2 3 3 1 4 2 5 73 7 74 8 92 9 75 10 85 11 76 12 77 13
REMARK SMILES IDX 84 14 78 15 83 16 79 17 80 18 81 19 82 20 86 21 87 22 91 23
REMARK SMILES IDX 88 24 90 25 89 26 6 27 7 28 8 29 9 31 10 32 11 33 72 34
REMARK SMILES IDX 12 35 71 36 13 37 14 38 15 39 65 40 16 41 70 42 64 43 66 44
REMARK SMILES IDX 17 45 69 46 63 47 62 48 18 50 50 51 30 52 49 53 31 54 34 55
REMARK SMILES IDX 48 56 67 57 32 58 33 59 47 61 68 62 35 63 19 64 20 65 28 66
REMARK SMILES IDX 21 67 22 68 26 69 29 70 23 71 24 72 27 73 25 74 51 75 52 76
REMARK SMILES IDX 60 77 53 78 54 79 58 80 61 81 55 82 56 83 59 84 57 85 36 86
REMARK SMILES IDX 37 87 45 88 38 89 39 90 43 91 46 92 40 93 41 94 44 95 42 96
REMARK H PARENT 3 6 7 30 66 49 34 60
REMARK Flexibility Score: inf
ROOT
ATOM      1  C   UNL A   1      33.459  28.691  23.475  1.00  0.00     0.042 C 
ENDROOT
BRANCH   1   2
ATOM      2  C   UNL A   1      32.370  27.678  23.153  1.00  0.00     0.118 C 
BRANCH   2   3
ATOM      3  N   UNL A   1      32.479  27.137  21.803  1.00  0.00    -0.351 N 
ATOM      4  O   UNL A   1      32.910  25.528  20.248  1.00  0.00    -0.268 OA
ATOM      5  C   UNL A   1      32.851  25.869  21.424  1.00  0.00     0.267 C 
ATOM      6  H   UNL A   1      32.259  27.758  21.071  1.00  0.00     0.163 HD
BRANCH   5   7
ATOM      7  C   UNL A   1      33.254  24.882  22.481  1.00  0.00     0.128 C 
ATOM      8  N   UNL A   1      34.490  24.636  22.772  1.00  0.00    -0.171 NA
ATOM      9  C   UNL A   1      32.221  24.154  23.270  1.00  0.00     0.096 C 
ATOM     10  N   UNL A   1      34.479  23.561  23.598  1.00  0.00    -0.257 N 
ATOM     11  C   UNL A   1      33.126  23.181  24.049  1.00  0.00     0.144 C 
BRANCH  10  12
ATOM     12  C   UNL A   1      35.652  23.265  24.276  1.00  0.00     0.061 A 
ATOM     13  C   UNL A   1      36.425  22.145  23.928  1.00  0.00     0.035 A 
ATOM     14  C   UNL A   1      36.049  24.026  25.385  1.00  0.00     0.035 A 
ATOM     15  C   UNL A   1      37.582  21.813  24.640  1.00  0.00     0.088 A 
ATOM     16  C   UNL A   1      37.202  23.711  26.107  1.00  0.00     0.088 A 
ATOM     17  C   UNL A   1      37.968  22.604  25.728  1.00  0.00     0.269 A 
BRANCH  17  18
ATOM     18  N   UNL A   1      39.179  22.266  26.483  1.00  0.00     0.062 N 
ATOM     19  O   UNL A   1      39.578  21.093  26.439  1.00  0.00    -0.258 OA
ATOM     20  O   UNL A   1      39.737  23.175  27.114  1.00  0.00    -0.258 OA
ENDBRANCH  17  18
ENDBRANCH  10  12
BRANCH  11  21
ATOM     21  C   UNL A   1      32.838  21.694  23.874  1.00  0.00    -0.023 A 
ATOM     22  C   UNL A   1      32.394  21.113  22.676  1.00  0.00     0.006 A 
ATOM     23  C   UNL A   1      33.035  20.840  24.977  1.00  0.00     0.006 A 
ATOM     24  C   UNL A   1      32.146  19.738  22.590  1.00  0.00     0.000 A 
ATOM     25  C   UNL A   1      32.827  19.463  24.879  1.00  0.00     0.000 A 
ATOM     26  C   UNL A   1      32.374  18.913  23.686  1.00  0.00     0.000 A 
ENDBRANCH  11  21
ENDBRANCH   5   7
ENDBRANCH   2   3
ENDBRANCH   1   2
BRANCH   1  27
ATOM     27  C   UNL A   1      33.712  28.901  24.961  1.00  0.00     0.118 C 
BRANCH  27  28
ATOM     28  N   UNL A   1      33.029  30.068  25.496  1.00  0.00    -0.352 N 
ATOM     29  C   UNL A   1      33.286  30.830  26.608  1.00  0.00     0.251 C 
ATOM     30  H   UNL A   1      32.248  30.361  24.972  1.00  0.00     0.163 HD
ATOM     31  O   UNL A   1      32.479  31.696  26.936  1.00  0.00    -0.269 OA
BRANCH  29  32
ATOM     32  C   UNL A   1      34.499  30.615  27.432  1.00  0.00     0.039 A 
ATOM     33  C   UNL A   1      34.674  29.363  28.032  1.00  0.00     0.014 A 
ATOM     34  C   UNL A   1      35.434  31.627  27.663  1.00  0.00     0.014 A 
ATOM     35  C   UNL A   1      35.808  29.112  28.808  1.00  0.00     0.010 A 
ATOM     36  C   UNL A   1      36.605  31.351  28.370  1.00  0.00     0.010 A 
ATOM     37  C   UNL A   1      36.801  30.093  28.956  1.00  0.00    -0.014 A 
BRANCH  37  38
ATOM     38  C   UNL A   1      38.047  29.801  29.712  1.00  0.00     0.031 A 
ATOM     39  C   UNL A   1      38.255  30.352  31.096  1.00  0.00     0.074 A 
ATOM     40  C   UNL A   1      39.015  29.066  29.131  1.00  0.00     0.049 A 
ATOM     41  N   UNL A   1      39.277  30.202  31.901  1.00  0.00    -0.248 NA
ATOM     42  C   UNL A   1      37.187  31.207  31.640  1.00  0.00     0.031 C 
ATOM     43  C   UNL A   1      38.965  28.529  27.769  1.00  0.00     0.029 A 
ATOM     44  N   UNL A   1      40.231  28.645  29.609  1.00  0.00    -0.354 N 
ATOM     45  C   UNL A   1      38.983  30.949  33.034  1.00  0.00     0.074 A 
ATOM     46  C   UNL A   1      37.709  31.593  32.794  1.00  0.00     0.031 C 
ATOM     47  C   UNL A   1      40.085  27.828  27.532  1.00  0.00     0.029 A 
ATOM     48  C   UNL A   1      40.943  27.888  28.711  1.00  0.00     0.049 A 
ATOM     49  H   UNL A   1      40.561  28.866  30.510  1.00  0.00     0.167 HD
ATOM     50  C   UNL A   1      39.697  31.068  34.179  1.00  0.00     0.037 A 
ATOM     51  C   UNL A   1      42.150  27.303  28.827  1.00  0.00     0.037 A 
ATOM     52  C   UNL A   1      40.947  30.399  34.431  1.00  0.00     0.049 A 
ATOM     53  C   UNL A   1      42.906  27.423  30.121  1.00  0.00     0.074 A 
ATOM     54  C   UNL A   1      41.706  30.396  35.588  1.00  0.00     0.029 A 
ATOM     55  N   UNL A   1      41.624  29.616  33.508  1.00  0.00    -0.354 N 
ATOM     56  N   UNL A   1      42.575  28.062  31.217  1.00  0.00    -0.248 NA
ATOM     57  C   UNL A   1      44.198  26.728  30.199  1.00  0.00     0.031 C 
ATOM     58  C   UNL A   1      42.864  29.645  35.352  1.00  0.00     0.029 A 
ATOM     59  C   UNL A   1      42.802  29.142  34.064  1.00  0.00     0.049 A 
ATOM     60  H   UNL A   1      41.313  29.425  32.593  1.00  0.00     0.167 HD
ATOM     61  C   UNL A   1      43.603  27.830  32.119  1.00  0.00     0.074 A 
ATOM     62  C   UNL A   1      44.559  26.971  31.451  1.00  0.00     0.031 C 
ATOM     63  C   UNL A   1      43.746  28.290  33.386  1.00  0.00     0.037 A 
BRANCH  50  64
ATOM     64  C   UNL A   1      39.140  31.949  35.260  1.00  0.00     0.064 A 
ATOM     65  C   UNL A   1      38.374  31.426  36.312  1.00  0.00     0.173 A 
ATOM     66  C   UNL A   1      39.421  33.323  35.273  1.00  0.00     0.173 A 
ATOM     67  F   UNL A   1      38.069  30.120  36.341  1.00  0.00    -0.203 F 
ATOM     68  C   UNL A   1      37.891  32.250  37.325  1.00  0.00     0.198 A 
ATOM     69  C   UNL A   1      38.960  34.140  36.303  1.00  0.00     0.198 A 
ATOM     70  F   UNL A   1      40.155  33.873  34.294  1.00  0.00    -0.203 F 
ATOM     71  F   UNL A   1      37.126  31.735  38.298  1.00  0.00    -0.200 F 
ATOM     72  C   UNL A   1      38.191  33.604  37.324  1.00  0.00     0.200 A 
ATOM     73  F   UNL A   1      39.261  35.446  36.307  1.00  0.00    -0.200 F 
ATOM     74  F   UNL A   1      37.735  34.393  38.306  1.00  0.00    -0.200 F 
ENDBRANCH  50  64
BRANCH  51  75
ATOM     75  C   UNL A   1      42.707  26.522  27.691  1.00  0.00     0.064 A 
ATOM     76  C   UNL A   1      42.519  25.136  27.610  1.00  0.00     0.173 A 
ATOM     77  C   UNL A   1      43.442  27.142  26.672  1.00  0.00     0.173 A 
ATOM     78  F   UNL A   1      41.840  24.494  28.574  1.00  0.00    -0.203 F 
ATOM     79  C   UNL A   1      43.066  24.395  26.565  1.00  0.00     0.198 A 
ATOM     80  C   UNL A   1      43.965  26.406  25.612  1.00  0.00     0.198 A 
ATOM     81  F   UNL A   1      43.644  28.468  26.701  1.00  0.00    -0.203 F 
ATOM     82  F   UNL A   1      42.914  23.064  26.538  1.00  0.00    -0.200 F 
ATOM     83  C   UNL A   1      43.784  25.031  25.563  1.00  0.00     0.200 A 
ATOM     84  F   UNL A   1      44.646  27.026  24.639  1.00  0.00    -0.200 F 
ATOM     85  F   UNL A   1      44.309  24.320  24.557  1.00  0.00    -0.200 F 
ENDBRANCH  51  75
BRANCH  63  86
ATOM     86  C   UNL A   1      44.971  27.857  34.136  1.00  0.00     0.064 A 
ATOM     87  C   UNL A   1      46.153  28.612  34.112  1.00  0.00     0.173 A 
ATOM     88  C   UNL A   1      44.959  26.681  34.902  1.00  0.00     0.173 A 
ATOM     89  F   UNL A   1      46.221  29.735  33.381  1.00  0.00    -0.203 F 
ATOM     90  C   UNL A   1      47.288  28.188  34.798  1.00  0.00     0.198 A 
ATOM     91  C   UNL A   1      46.085  26.276  35.612  1.00  0.00     0.198 A 
ATOM     92  F   UNL A   1      43.851  25.927  34.965  1.00  0.00    -0.203 F 
ATOM     93  F   UNL A   1      48.422  28.896  34.714  1.00  0.00    -0.200 F 
ATOM     94  C   UNL A   1      47.251  27.024  35.551  1.00  0.00     0.200 A 
ATOM     95  F   UNL A   1      46.045  25.158  36.349  1.00  0.00    -0.200 F 
ATOM     96  F   UNL A   1      48.344  26.618  36.212  1.00  0.00    -0.200 F 
ENDBRANCH  63  86
ENDBRANCH  37  38
ENDBRANCH  29  32
ENDBRANCH  27  28
ENDBRANCH   1  27
TORSDOF 13
ENDMDL
MODEL 2
REMARK VINA RESULT:     -13.1      3.997      9.357
REMARK SMILES O=C(NCCCNC(=O)c1ccc(-c2c3nc(c(-c4c(F)c(F)c(F)c(F)c4F)c4ccc([nH]4)c(-c4c(F)c(F)c(F)c(F)c4F)c4nc(c(-c5c(F)c(F)c(F)c(F)c5F)c5ccc2[nH]5)C=C4)C=C3)cc1)C1=NN(c2ccc([N+](=O)[O-])cc2)[C@H](c2ccccc2)C1
REMARK SMILES IDX 5 1 4 2 3 3 1 4 2 5 73 7 74 8 92 9 75 10 85 11 76 12 77 13
REMARK SMILES IDX 84 14 78 15 83 16 79 17 80 18 81 19 82 20 86 21 87 22 91 23
REMARK SMILES IDX 88 24 90 25 89 26 6 27 7 28 8 29 9 31 10 32 11 33 72 34
REMARK SMILES IDX 12 35 71 36 13 37 14 38 15 39 65 40 16 41 70 42 64 43 66 44
REMARK SMILES IDX 17 45 69 46 63 47 62 48 18 50 50 51 30 52 49 53 31 54 34 55
REMARK SMILES IDX 48 56 67 57 32 58 33 59 47 61 68 62 35 63 19 64 20 65 28 66
REMARK SMILES IDX 21 67 22 68 26 69 29 70 23 71 24 72 27 73 25 74 51 75 52 76
REMARK SMILES IDX 60 77 53 78 54 79 58 80 61 81 55 82 56 83 59 84 57 85 36 86
REMARK SMILES IDX 37 87 45 88 38 89 39 90 43 91 46 92 40 93 41 94 44 95 42 96
REMARK H PARENT 3 6 7 30 66 49 34 60
REMARK Flexibility Score: inf
ROOT
ATOM      1  C   UNL A   1      36.248  23.691  24.574  1.00  0.00     0.042 C 
ENDROOT
BRANCH   1   2
ATOM      2  C   UNL A   1      34.824  24.188  24.371  1.00  0.00     0.118 C 
BRANCH   2   3
ATOM      3  N   UNL A   1      33.826  23.143  24.561  1.00  0.00    -0.351 N 
ATOM      4  O   UNL A   1      31.748  22.324  25.014  1.00  0.00    -0.268 OA
ATOM      5  C   UNL A   1      32.495  23.285  24.876  1.00  0.00     0.267 C 
ATOM      6  H   UNL A   1      34.145  22.218  24.449  1.00  0.00     0.163 HD
BRANCH   5   7
ATOM      7  C   UNL A   1      31.947  24.663  25.115  1.00  0.00     0.128 C 
ATOM      8  N   UNL A   1      31.417  25.375  24.175  1.00  0.00    -0.171 NA
ATOM      9  C   UNL A   1      31.971  25.262  26.479  1.00  0.00     0.096 C 
ATOM     10  N   UNL A   1      31.236  26.615  24.694  1.00  0.00    -0.257 N 
ATOM     11  C   UNL A   1      31.482  26.684  26.148  1.00  0.00     0.144 C 
BRANCH  10  12
ATOM     12  C   UNL A   1      30.430  27.493  23.984  1.00  0.00     0.061 A 
ATOM     13  C   UNL A   1      30.931  28.721  23.523  1.00  0.00     0.035 A 
ATOM     14  C   UNL A   1      29.070  27.215  23.788  1.00  0.00     0.035 A 
ATOM     15  C   UNL A   1      30.110  29.632  22.850  1.00  0.00     0.088 A 
ATOM     16  C   UNL A   1      28.235  28.112  23.118  1.00  0.00     0.088 A 
ATOM     17  C   UNL A   1      28.762  29.319  22.647  1.00  0.00     0.269 A 
BRANCH  17  18
ATOM     18  N   UNL A   1      27.890  30.267  21.944  1.00  0.00     0.062 N 
ATOM     19  O   UNL A   1      27.169  31.005  22.629  1.00  0.00    -0.258 OA
ATOM     20  O   UNL A   1      27.934  30.278  20.705  1.00  0.00    -0.258 OA
ENDBRANCH  17  18
ENDBRANCH  10  12
BRANCH  11  21
ATOM     21  C   UNL A   1      32.407  27.831  26.539  1.00  0.00    -0.023 A 
ATOM     22  C   UNL A   1      33.808  27.760  26.503  1.00  0.00     0.006 A 
ATOM     23  C   UNL A   1      31.827  29.045  26.957  1.00  0.00     0.006 A 
ATOM     24  C   UNL A   1      34.596  28.854  26.882  1.00  0.00     0.000 A 
ATOM     25  C   UNL A   1      32.612  30.150  27.294  1.00  0.00     0.000 A 
ATOM     26  C   UNL A   1      33.998  30.051  27.264  1.00  0.00     0.000 A 
ENDBRANCH  11  21
ENDBRANCH   5   7
ENDBRANCH   2   3
ENDBRANCH   1   2
BRANCH   1  27
ATOM     27  C   UNL A   1      36.594  23.324  26.009  1.00  0.00     0.118 C 
BRANCH  27  28
ATOM     28  N   UNL A   1      37.772  22.477  26.113  1.00  0.00    -0.352 N 
ATOM     29  C   UNL A   1      39.064  22.772  26.469  1.00  0.00     0.251 C 
ATOM     30  H   UNL A   1      37.616  21.530  25.890  1.00  0.00     0.163 HD
ATOM     31  O   UNL A   1      39.927  21.906  26.351  1.00  0.00    -0.269 OA
BRANCH  29  32
ATOM     32  C   UNL A   1      39.444  24.115  26.967  1.00  0.00     0.039 A 
ATOM     33  C   UNL A   1      39.160  24.428  28.300  1.00  0.00     0.014 A 
ATOM     34  C   UNL A   1      40.027  25.080  26.141  1.00  0.00     0.014 A 
ATOM     35  C   UNL A   1      39.511  25.679  28.815  1.00  0.00     0.010 A 
ATOM     36  C   UNL A   1      40.450  26.297  26.677  1.00  0.00     0.010 A 
ATOM     37  C   UNL A   1      40.191  26.611  28.017  1.00  0.00    -0.014 A 
BRANCH  37  38
ATOM     38  C   UNL A   1      40.639  27.910  28.586  1.00  0.00     0.031 A 
ATOM     39  C   UNL A   1      42.085  28.141  28.932  1.00  0.00     0.074 A 
ATOM     40  C   UNL A   1      39.729  28.873  28.828  1.00  0.00     0.049 A 
ATOM     41  N   UNL A   1      42.653  29.207  29.437  1.00  0.00    -0.248 NA
ATOM     42  C   UNL A   1      43.010  27.019  28.709  1.00  0.00     0.031 C 
ATOM     43  C   UNL A   1      38.288  28.751  28.600  1.00  0.00     0.029 A 
ATOM     44  N   UNL A   1      39.879  30.145  29.323  1.00  0.00    -0.354 N 
ATOM     45  C   UNL A   1      43.993  28.882  29.602  1.00  0.00     0.074 A 
ATOM     46  C   UNL A   1      44.145  27.502  29.191  1.00  0.00     0.031 C 
ATOM     47  C   UNL A   1      37.691  29.908  28.926  1.00  0.00     0.029 A 
ATOM     48  C   UNL A   1      38.700  30.844  29.413  1.00  0.00     0.049 A 
ATOM     49  H   UNL A   1      40.750  30.520  29.589  1.00  0.00     0.167 HD
ATOM     50  C   UNL A   1      45.008  29.668  30.033  1.00  0.00     0.037 A 
ATOM     51  C   UNL A   1      38.459  32.099  29.835  1.00  0.00     0.037 A 
ATOM     52  C   UNL A   1      44.864  31.051  30.409  1.00  0.00     0.049 A 
ATOM     53  C   UNL A   1      39.610  32.961  30.277  1.00  0.00     0.074 A 
ATOM     54  C   UNL A   1      45.846  31.950  30.785  1.00  0.00     0.029 A 
ATOM     55  N   UNL A   1      43.657  31.733  30.459  1.00  0.00    -0.354 N 
ATOM     56  N   UNL A   1      40.885  32.667  30.345  1.00  0.00    -0.248 NA
ATOM     57  C   UNL A   1      39.288  34.334  30.687  1.00  0.00     0.031 C 
ATOM     58  C   UNL A   1      45.229  33.166  31.103  1.00  0.00     0.029 A 
ATOM     59  C   UNL A   1      43.869  33.037  30.880  1.00  0.00     0.049 A 
ATOM     60  H   UNL A   1      42.780  31.348  30.229  1.00  0.00     0.167 HD
ATOM     61  C   UNL A   1      41.520  33.821  30.783  1.00  0.00     0.074 A 
ATOM     62  C   UNL A   1      40.490  34.828  30.943  1.00  0.00     0.031 C 
ATOM     63  C   UNL A   1      42.835  34.028  31.037  1.00  0.00     0.037 A 
BRANCH  50  64
ATOM     64  C   UNL A   1      46.378  29.057  30.115  1.00  0.00     0.064 A 
ATOM     65  C   UNL A   1      47.257  29.076  29.022  1.00  0.00     0.173 A 
ATOM     66  C   UNL A   1      46.835  28.493  31.315  1.00  0.00     0.173 A 
ATOM     67  F   UNL A   1      46.865  29.594  27.848  1.00  0.00    -0.203 F 
ATOM     68  C   UNL A   1      48.536  28.534  29.122  1.00  0.00     0.198 A 
ATOM     69  C   UNL A   1      48.125  27.978  31.420  1.00  0.00     0.198 A 
ATOM     70  F   UNL A   1      46.036  28.455  32.393  1.00  0.00    -0.203 F 
ATOM     71  F   UNL A   1      49.344  28.527  28.052  1.00  0.00    -0.200 F 
ATOM     72  C   UNL A   1      48.971  27.992  30.322  1.00  0.00     0.200 A 
ATOM     73  F   UNL A   1      48.549  27.466  32.584  1.00  0.00    -0.200 F 
ATOM     74  F   UNL A   1      50.206  27.482  30.419  1.00  0.00    -0.200 F 
ENDBRANCH  50  64
BRANCH  51  75
ATOM     75  C   UNL A   1      37.071  32.629  29.831  1.00  0.00     0.064 A 
ATOM     76  C   UNL A   1      36.556  33.292  28.709  1.00  0.00     0.173 A 
ATOM     77  C   UNL A   1      36.236  32.491  30.948  1.00  0.00     0.173 A 
ATOM     78  F   UNL A   1      37.325  33.467  27.624  1.00  0.00    -0.203 F 
ATOM     79  C   UNL A   1      35.267  33.818  28.713  1.00  0.00     0.198 A 
ATOM     80  C   UNL A   1      34.936  32.992  30.941  1.00  0.00     0.198 A 
ATOM     81  F   UNL A   1      36.680  31.859  32.045  1.00  0.00    -0.203 F 
ATOM     82  F   UNL A   1      34.817  34.490  27.644  1.00  0.00    -0.200 F 
ATOM     83  C   UNL A   1      34.455  33.663  29.826  1.00  0.00     0.200 A 
ATOM     84  F   UNL A   1      34.151  32.828  32.014  1.00  0.00    -0.200 F 
ATOM     85  F   UNL A   1      33.214  34.168  29.829  1.00  0.00    -0.200 F 
ENDBRANCH  51  75
BRANCH  63  86
ATOM     86  C   UNL A   1      43.236  35.400  31.493  1.00  0.00     0.064 A 
ATOM     87  C   UNL A   1      43.645  36.386  30.583  1.00  0.00     0.173 A 
ATOM     88  C   UNL A   1      43.195  35.738  32.854  1.00  0.00     0.173 A 
ATOM     89  F   UNL A   1      43.716  36.107  29.273  1.00  0.00    -0.203 F 
ATOM     90  C   UNL A   1      44.031  37.650  31.022  1.00  0.00     0.198 A 
ATOM     91  C   UNL A   1      43.551  37.012  33.287  1.00  0.00     0.198 A 
ATOM     92  F   UNL A   1      42.803  34.834  33.764  1.00  0.00    -0.203 F 
ATOM     93  F   UNL A   1      44.472  38.557  30.141  1.00  0.00    -0.200 F 
ATOM     94  C   UNL A   1      43.979  37.963  32.373  1.00  0.00     0.200 A 
ATOM     95  F   UNL A   1      43.489  37.317  34.590  1.00  0.00    -0.200 F 
ATOM     96  F   UNL A   1      44.350  39.180  32.794  1.00  0.00    -0.200 F 
ENDBRANCH  63  86
ENDBRANCH  37  38
ENDBRANCH  29  32
ENDBRANCH  27  28
ENDBRANCH   1  27
TORSDOF 13
ENDMDL
MODEL 3
REMARK VINA RESULT:     -13.1      3.954      9.349
REMARK SMILES O=C(NCCCNC(=O)c1ccc(-c2c3nc(c(-c4c(F)c(F)c(F)c(F)c4F)c4ccc([nH]4)c(-c4c(F)c(F)c(F)c(F)c4F)c4nc(c(-c5c(F)c(F)c(F)c(F)c5F)c5ccc2[nH]5)C=C4)C=C3)cc1)C1=NN(c2ccc([N+](=O)[O-])cc2)[C@H](c2ccccc2)C1
REMARK SMILES IDX 5 1 4 2 3 3 1 4 2 5 73 7 74 8 92 9 75 10 85 11 76 12 77 13
REMARK SMILES IDX 84 14 78 15 83 16 79 17 80 18 81 19 82 20 86 21 87 22 91 23
REMARK SMILES IDX 88 24 90 25 89 26 6 27 7 28 8 29 9 31 10 32 11 33 72 34
REMARK SMILES IDX 12 35 71 36 13 37 14 38 15 39 65 40 16 41 70 42 64 43 66 44
REMARK SMILES IDX 17 45 69 46 63 47 62 48 18 50 50 51 30 52 49 53 31 54 34 55
REMARK SMILES IDX 48 56 67 57 32 58 33 59 47 61 68 62 35 63 19 64 20 65 28 66
REMARK SMILES IDX 21 67 22 68 26 69 29 70 23 71 24 72 27 73 25 74 51 75 52 76
REMARK SMILES IDX 60 77 53 78 54 79 58 80 61 81 55 82 56 83 59 84 57 85 36 86
REMARK SMILES IDX 37 87 45 88 38 89 39 90 43 91 46 92 40 93 41 94 44 95 42 96
REMARK H PARENT 3 6 7 30 66 49 34 60
REMARK Flexibility Score: inf
ROOT
ATOM      1  C   UNL A   1      36.279  23.714  24.627  1.00  0.00     0.042 C 
ENDROOT
BRANCH   1   2
ATOM      2  C   UNL A   1      34.867  24.266  24.491  1.00  0.00     0.118 C 
BRANCH   2   3
ATOM      3  N   UNL A   1      33.842  23.236  24.604  1.00  0.00    -0.351 N 
ATOM      4  O   UNL A   1      31.726  22.449  24.911  1.00  0.00    -0.268 OA
ATOM      5  C   UNL A   1      32.496  23.399  24.833  1.00  0.00     0.267 C 
ATOM      6  H   UNL A   1      34.152  22.307  24.505  1.00  0.00     0.163 HD
BRANCH   5   7
ATOM      7  C   UNL A   1      31.956  24.783  25.049  1.00  0.00     0.128 C 
ATOM      8  N   UNL A   1      31.458  25.495  24.091  1.00  0.00    -0.171 NA
ATOM      9  C   UNL A   1      31.951  25.390  26.409  1.00  0.00     0.096 C 
ATOM     10  N   UNL A   1      31.277  26.740  24.597  1.00  0.00    -0.257 N 
ATOM     11  C   UNL A   1      31.485  26.815  26.057  1.00  0.00     0.144 C 
BRANCH  10  12
ATOM     12  C   UNL A   1      30.499  27.622  23.861  1.00  0.00     0.061 A 
ATOM     13  C   UNL A   1      31.067  28.753  23.255  1.00  0.00     0.035 A 
ATOM     14  C   UNL A   1      29.109  27.452  23.781  1.00  0.00     0.035 A 
ATOM     15  C   UNL A   1      30.280  29.672  22.554  1.00  0.00     0.088 A 
ATOM     16  C   UNL A   1      28.307  28.359  23.084  1.00  0.00     0.088 A 
ATOM     17  C   UNL A   1      28.899  29.467  22.469  1.00  0.00     0.269 A 
BRANCH  17  18
ATOM     18  N   UNL A   1      28.062  30.424  21.737  1.00  0.00     0.062 N 
ATOM     19  O   UNL A   1      27.549  31.351  22.379  1.00  0.00    -0.258 OA
ATOM     20  O   UNL A   1      27.925  30.253  20.517  1.00  0.00    -0.258 OA
ENDBRANCH  17  18
ENDBRANCH  10  12
BRANCH  11  21
ATOM     21  C   UNL A   1      32.412  27.955  26.465  1.00  0.00    -0.023 A 
ATOM     22  C   UNL A   1      33.813  27.873  26.456  1.00  0.00     0.006 A 
ATOM     23  C   UNL A   1      31.833  29.174  26.872  1.00  0.00     0.006 A 
ATOM     24  C   UNL A   1      34.601  28.962  26.849  1.00  0.00     0.000 A 
ATOM     25  C   UNL A   1      32.620  30.272  27.224  1.00  0.00     0.000 A 
ATOM     26  C   UNL A   1      34.006  30.163  27.220  1.00  0.00     0.000 A 
ENDBRANCH  11  21
ENDBRANCH   5   7
ENDBRANCH   2   3
ENDBRANCH   1   2
BRANCH   1  27
ATOM     27  C   UNL A   1      36.637  23.222  26.022  1.00  0.00     0.118 C 
BRANCH  27  28
ATOM     28  N   UNL A   1      37.842  22.408  26.048  1.00  0.00    -0.352 N 
ATOM     29  C   UNL A   1      39.140  22.732  26.353  1.00  0.00     0.251 C 
ATOM     30  H   UNL A   1      37.703  21.464  25.805  1.00  0.00     0.163 HD
ATOM     31  O   UNL A   1      40.021  21.895  26.172  1.00  0.00    -0.269 OA
BRANCH  29  32
ATOM     32  C   UNL A   1      39.505  24.071  26.870  1.00  0.00     0.039 A 
ATOM     33  C   UNL A   1      39.240  24.353  28.215  1.00  0.00     0.014 A 
ATOM     34  C   UNL A   1      40.054  25.064  26.054  1.00  0.00     0.014 A 
ATOM     35  C   UNL A   1      39.577  25.599  28.749  1.00  0.00     0.010 A 
ATOM     36  C   UNL A   1      40.465  26.277  26.606  1.00  0.00     0.010 A 
ATOM     37  C   UNL A   1      40.225  26.560  27.957  1.00  0.00    -0.014 A 
BRANCH  37  38
ATOM     38  C   UNL A   1      40.659  27.855  28.544  1.00  0.00     0.031 A 
ATOM     39  C   UNL A   1      42.098  28.087  28.916  1.00  0.00     0.074 A 
ATOM     40  C   UNL A   1      39.743  28.814  28.779  1.00  0.00     0.049 A 
ATOM     41  N   UNL A   1      42.655  29.152  29.439  1.00  0.00    -0.248 NA
ATOM     42  C   UNL A   1      43.031  26.970  28.699  1.00  0.00     0.031 C 
ATOM     43  C   UNL A   1      38.305  28.689  28.526  1.00  0.00     0.029 A 
ATOM     44  N   UNL A   1      39.880  30.082  29.287  1.00  0.00    -0.354 N 
ATOM     45  C   UNL A   1      43.993  28.829  29.623  1.00  0.00     0.074 A 
ATOM     46  C   UNL A   1      44.156  27.453  29.204  1.00  0.00     0.031 C 
ATOM     47  C   UNL A   1      37.700  29.842  28.851  1.00  0.00     0.029 A 
ATOM     48  C   UNL A   1      38.698  30.776  29.362  1.00  0.00     0.049 A 
ATOM     49  H   UNL A   1      40.746  30.458  29.570  1.00  0.00     0.167 HD
ATOM     50  C   UNL A   1      44.999  29.614  30.077  1.00  0.00     0.037 A 
ATOM     51  C   UNL A   1      38.447  32.028  29.791  1.00  0.00     0.037 A 
ATOM     52  C   UNL A   1      44.844  30.994  30.461  1.00  0.00     0.049 A 
ATOM     53  C   UNL A   1      39.587  32.889  30.258  1.00  0.00     0.074 A 
ATOM     54  C   UNL A   1      45.816  31.893  30.861  1.00  0.00     0.029 A 
ATOM     55  N   UNL A   1      43.635  31.672  30.497  1.00  0.00    -0.354 N 
ATOM     56  N   UNL A   1      40.862  32.599  30.344  1.00  0.00    -0.248 NA
ATOM     57  C   UNL A   1      39.253  34.258  30.674  1.00  0.00     0.031 C 
ATOM     58  C   UNL A   1      45.191  33.105  31.178  1.00  0.00     0.029 A 
ATOM     59  C   UNL A   1      43.835  32.973  30.932  1.00  0.00     0.049 A 
ATOM     60  H   UNL A   1      42.763  31.287  30.250  1.00  0.00     0.167 HD
ATOM     61  C   UNL A   1      41.485  33.751  30.803  1.00  0.00     0.074 A 
ATOM     62  C   UNL A   1      40.450  34.754  30.953  1.00  0.00     0.031 C 
ATOM     63  C   UNL A   1      42.796  33.960  31.079  1.00  0.00     0.037 A 
BRANCH  50  64
ATOM     64  C   UNL A   1      46.369  29.007  30.177  1.00  0.00     0.064 A 
ATOM     65  C   UNL A   1      46.810  28.378  31.351  1.00  0.00     0.173 A 
ATOM     66  C   UNL A   1      47.229  29.006  29.069  1.00  0.00     0.173 A 
ATOM     67  F   UNL A   1      46.029  28.360  32.442  1.00  0.00    -0.203 F 
ATOM     68  C   UNL A   1      48.071  27.791  31.419  1.00  0.00     0.198 A 
ATOM     69  C   UNL A   1      48.478  28.392  29.132  1.00  0.00     0.198 A 
ATOM     70  F   UNL A   1      46.854  29.588  27.920  1.00  0.00    -0.203 F 
ATOM     71  F   UNL A   1      48.487  27.233  32.564  1.00  0.00    -0.200 F 
ATOM     72  C   UNL A   1      48.900  27.792  30.308  1.00  0.00     0.200 A 
ATOM     73  F   UNL A   1      49.274  28.383  28.053  1.00  0.00    -0.200 F 
ATOM     74  F   UNL A   1      50.108  27.216  30.372  1.00  0.00    -0.200 F 
ENDBRANCH  50  64
BRANCH  51  75
ATOM     75  C   UNL A   1      37.057  32.553  29.768  1.00  0.00     0.064 A 
ATOM     76  C   UNL A   1      36.568  33.249  28.654  1.00  0.00     0.173 A 
ATOM     77  C   UNL A   1      36.195  32.379  30.859  1.00  0.00     0.173 A 
ATOM     78  F   UNL A   1      37.363  33.458  27.594  1.00  0.00    -0.203 F 
ATOM     79  C   UNL A   1      35.276  33.770  28.641  1.00  0.00     0.198 A 
ATOM     80  C   UNL A   1      34.894  32.876  30.835  1.00  0.00     0.198 A 
ATOM     81  F   UNL A   1      36.613  31.715  31.947  1.00  0.00    -0.203 F 
ATOM     82  F   UNL A   1      34.851  34.474  27.583  1.00  0.00    -0.200 F 
ATOM     83  C   UNL A   1      34.438  33.579  29.729  1.00  0.00     0.200 A 
ATOM     84  F   UNL A   1      34.083  32.678  31.882  1.00  0.00    -0.200 F 
ATOM     85  F   UNL A   1      33.196  34.080  29.716  1.00  0.00    -0.200 F 
ENDBRANCH  51  75
BRANCH  63  86
ATOM     86  C   UNL A   1      43.184  35.329  31.553  1.00  0.00     0.064 A 
ATOM     87  C   UNL A   1      43.126  35.682  32.910  1.00  0.00     0.173 A 
ATOM     88  C   UNL A   1      43.636  36.297  30.642  1.00  0.00     0.173 A 
ATOM     89  F   UNL A   1      42.685  34.798  33.818  1.00  0.00    -0.203 F 
ATOM     90  C   UNL A   1      43.472  36.962  33.333  1.00  0.00     0.198 A 
ATOM     91  C   UNL A   1      44.012  37.566  31.072  1.00  0.00     0.198 A 
ATOM     92  F   UNL A   1      43.719  36.008  29.334  1.00  0.00    -0.203 F 
ATOM     93  F   UNL A   1      43.354  37.293  34.625  1.00  0.00    -0.200 F 
ATOM     94  C   UNL A   1      43.920  37.901  32.415  1.00  0.00     0.200 A 
ATOM     95  F   UNL A   1      44.455  38.468  30.186  1.00  0.00    -0.200 F 
ATOM     96  F   UNL A   1      44.254  39.133  32.823  1.00  0.00    -0.200 F 
ENDBRANCH  63  86
ENDBRANCH  37  38
ENDBRANCH  29  32
ENDBRANCH  27  28
ENDBRANCH   1  27
TORSDOF 13
ENDMDL
