MODEL 1
REMARK VINA RESULT:     -11.5      0.000      0.000
REMARK SMILES C[C@H]([NH2+]CCc1ccccc1)[C@@H](C)C(=O)NCCCNC(=O)c1ccc(-c2c3nc(c(-c4c(F)c(F)c(F)c(F)c4F)c4ccc([nH]4)c(-c4c(F)c(F)c(F)c(F)c4F)c4nc(c(-c5c(F)c(F)c(F)c(F)c5F)c5ccc2[nH]5)C=C4)C=C3)cc1
REMARK SMILES IDX 14 1 15 2 16 3 12 5 13 6 2 7 1 8 3 9 4 12 5 13 6 14 7 15
REMARK SMILES IDX 11 16 8 17 10 18 9 19 17 20 18 21 19 22 20 23 21 24 22 26
REMARK SMILES IDX 23 27 24 28 85 29 25 30 84 31 26 32 27 33 28 34 78 35 29 36
REMARK SMILES IDX 83 37 77 38 79 39 30 40 82 41 76 42 75 43 31 45 63 46 43 47
REMARK SMILES IDX 62 48 44 49 47 50 61 51 80 52 45 53 46 54 60 56 81 57 48 58
REMARK SMILES IDX 32 59 33 60 41 61 34 62 35 63 39 64 42 65 36 66 37 67 40 68
REMARK SMILES IDX 38 69 64 70 65 71 73 72 66 73 67 74 71 75 74 76 68 77 69 78
REMARK SMILES IDX 72 79 70 80 49 81 50 82 58 83 51 84 52 85 56 86 59 87 53 88
REMARK SMILES IDX 54 89 57 90 55 91
REMARK H PARENT 16 4 3 10 3 11 20 25 79 44 47 55
REMARK Flexibility Score: inf
ROOT
ATOM      1  C   UNL A   1      33.413  29.059  26.174  1.00  0.00     0.228 C 
ATOM      2  O   UNL A   1      34.555  28.878  26.607  1.00  0.00    -0.275 OA
ATOM      3  N   UNL A   1      32.851  30.274  26.409  1.00  0.00    -0.356 N 
ATOM      4  H   UNL A   1      33.436  30.902  26.889  1.00  0.00     0.163 HD
ENDROOT
BRANCH   1   5
ATOM      5  C   UNL A   1      32.696  27.951  25.407  1.00  0.00     0.133 C 
ATOM      6  C   UNL A   1      32.443  26.758  26.339  1.00  0.00     0.024 C 
BRANCH   5   7
ATOM      7  C   UNL A   1      33.366  27.642  24.036  1.00  0.00     0.191 C 
ATOM      8  C   UNL A   1      33.630  28.953  23.271  1.00  0.00     0.076 C 
BRANCH   7   9
ATOM      9  N   UNL A   1      32.632  26.602  23.294  1.00  0.00    -0.343 N 
ATOM     10  H   UNL A   1      32.268  25.942  23.980  1.00  0.00     0.346 HD
ATOM     11  H   UNL A   1      33.320  26.232  22.637  1.00  0.00     0.346 HD
BRANCH   9  12
ATOM     12  C   UNL A   1      31.511  27.010  22.449  1.00  0.00     0.265 C 
BRANCH  12  13
ATOM     13  C   UNL A   1      30.175  26.936  23.219  1.00  0.00     0.097 C 
BRANCH  13  14
ATOM     14  C   UNL A   1      29.357  28.204  23.122  1.00  0.00    -0.042 A 
ATOM     15  C   UNL A   1      29.978  29.459  23.103  1.00  0.00     0.004 A 
ATOM     16  C   UNL A   1      27.955  28.138  23.126  1.00  0.00     0.004 A 
ATOM     17  C   UNL A   1      29.213  30.625  23.108  1.00  0.00     0.000 A 
ATOM     18  C   UNL A   1      27.193  29.306  23.128  1.00  0.00     0.000 A 
ATOM     19  C   UNL A   1      27.821  30.549  23.123  1.00  0.00     0.000 A 
ENDBRANCH  13  14
ENDBRANCH  12  13
ENDBRANCH   9  12
ENDBRANCH   7   9
ENDBRANCH   5   7
ENDBRANCH   1   5
BRANCH   3  20
ATOM     20  C   UNL A   1      31.544  30.813  26.080  1.00  0.00     0.117 C 
BRANCH  20  21
ATOM     21  C   UNL A   1      31.387  32.265  26.520  1.00  0.00     0.042 C 
BRANCH  21  22
ATOM     22  C   UNL A   1      32.604  32.835  27.237  1.00  0.00     0.118 C 
BRANCH  22  23
ATOM     23  N   UNL A   1      32.422  34.225  27.634  1.00  0.00    -0.352 N 
ATOM     24  C   UNL A   1      33.031  34.956  28.622  1.00  0.00     0.251 C 
ATOM     25  H   UNL A   1      31.754  34.720  27.108  1.00  0.00     0.163 HD
ATOM     26  O   UNL A   1      32.584  36.063  28.919  1.00  0.00    -0.269 OA
BRANCH  24  27
ATOM     27  C   UNL A   1      34.204  34.425  29.348  1.00  0.00     0.039 A 
ATOM     28  C   UNL A   1      34.008  33.817  30.593  1.00  0.00     0.014 A 
ATOM     29  C   UNL A   1      35.498  34.554  28.835  1.00  0.00     0.014 A 
ATOM     30  C   UNL A   1      35.095  33.278  31.285  1.00  0.00     0.010 A 
ATOM     31  C   UNL A   1      36.569  33.946  29.487  1.00  0.00     0.010 A 
ATOM     32  C   UNL A   1      36.379  33.304  30.719  1.00  0.00    -0.014 A 
BRANCH  32  33
ATOM     33  C   UNL A   1      37.535  32.661  31.397  1.00  0.00     0.031 A 
ATOM     34  C   UNL A   1      38.239  31.496  30.756  1.00  0.00     0.074 A 
ATOM     35  C   UNL A   1      37.896  33.073  32.629  1.00  0.00     0.049 A 
ATOM     36  N   UNL A   1      39.201  30.746  31.232  1.00  0.00    -0.248 NA
ATOM     37  C   UNL A   1      37.783  31.103  29.413  1.00  0.00     0.031 C 
ATOM     38  C   UNL A   1      37.252  34.151  33.383  1.00  0.00     0.029 A 
ATOM     39  N   UNL A   1      38.879  32.620  33.474  1.00  0.00    -0.354 N 
ATOM     40  C   UNL A   1      39.444  29.781  30.263  1.00  0.00     0.074 A 
ATOM     41  C   UNL A   1      38.506  30.015  29.187  1.00  0.00     0.031 C 
ATOM     42  C   UNL A   1      37.861  34.281  34.572  1.00  0.00     0.029 A 
ATOM     43  C   UNL A   1      38.912  33.274  34.683  1.00  0.00     0.049 A 
ATOM     44  H   UNL A   1      39.501  31.895  33.237  1.00  0.00     0.167 HD
ATOM     45  C   UNL A   1      40.378  28.800  30.266  1.00  0.00     0.037 A 
ATOM     46  C   UNL A   1      39.690  33.074  35.763  1.00  0.00     0.037 A 
ATOM     47  C   UNL A   1      41.343  28.603  31.316  1.00  0.00     0.049 A 
ATOM     48  C   UNL A   1      40.738  31.995  35.723  1.00  0.00     0.074 A 
ATOM     49  C   UNL A   1      42.392  27.702  31.362  1.00  0.00     0.029 A 
ATOM     50  N   UNL A   1      41.374  29.316  32.504  1.00  0.00    -0.354 N 
ATOM     51  N   UNL A   1      41.018  31.148  34.762  1.00  0.00    -0.248 NA
ATOM     52  C   UNL A   1      41.586  31.848  36.915  1.00  0.00     0.031 C 
ATOM     53  C   UNL A   1      43.029  27.836  32.599  1.00  0.00     0.029 A 
ATOM     54  C   UNL A   1      42.410  28.855  33.302  1.00  0.00     0.049 A 
ATOM     55  H   UNL A   1      40.755  30.042  32.745  1.00  0.00     0.167 HD
ATOM     56  C   UNL A   1      42.086  30.390  35.221  1.00  0.00     0.074 A 
ATOM     57  C   UNL A   1      42.417  30.887  36.539  1.00  0.00     0.031 C 
ATOM     58  C   UNL A   1      42.733  29.369  34.607  1.00  0.00     0.037 A 
BRANCH  45  59
ATOM     59  C   UNL A   1      40.418  27.861  29.097  1.00  0.00     0.064 A 
ATOM     60  C   UNL A   1      39.653  26.686  29.068  1.00  0.00     0.173 A 
ATOM     61  C   UNL A   1      41.171  28.183  27.957  1.00  0.00     0.173 A 
ATOM     62  F   UNL A   1      38.924  26.329  30.135  1.00  0.00    -0.203 F 
ATOM     63  C   UNL A   1      39.654  25.859  27.947  1.00  0.00     0.198 A 
ATOM     64  C   UNL A   1      41.147  27.369  26.828  1.00  0.00     0.198 A 
ATOM     65  F   UNL A   1      41.915  29.299  27.931  1.00  0.00    -0.203 F 
ATOM     66  F   UNL A   1      38.940  24.724  27.954  1.00  0.00    -0.200 F 
ATOM     67  C   UNL A   1      40.391  26.206  26.825  1.00  0.00     0.200 A 
ATOM     68  F   UNL A   1      41.849  27.713  25.739  1.00  0.00    -0.200 F 
ATOM     69  F   UNL A   1      40.375  25.419  25.741  1.00  0.00    -0.200 F 
ENDBRANCH  45  59
BRANCH  46  70
ATOM     70  C   UNL A   1      39.512  33.912  36.979  1.00  0.00     0.064 A 
ATOM     71  C   UNL A   1      38.742  33.461  38.060  1.00  0.00     0.173 A 
ATOM     72  C   UNL A   1      40.084  35.189  37.072  1.00  0.00     0.173 A 
ATOM     73  F   UNL A   1      38.158  32.255  38.009  1.00  0.00    -0.203 F 
ATOM     74  C   UNL A   1      38.526  34.268  39.176  1.00  0.00     0.198 A 
ATOM     75  C   UNL A   1      39.893  35.982  38.201  1.00  0.00     0.198 A 
ATOM     76  F   UNL A   1      40.834  35.665  36.066  1.00  0.00    -0.203 F 
ATOM     77  F   UNL A   1      37.740  33.836  40.170  1.00  0.00    -0.200 F 
ATOM     78  C   UNL A   1      39.105  35.527  39.247  1.00  0.00     0.200 A 
ATOM     79  F   UNL A   1      40.466  37.191  38.272  1.00  0.00    -0.200 F 
ATOM     80  F   UNL A   1      38.894  36.304  40.318  1.00  0.00    -0.200 F 
ENDBRANCH  46  70
BRANCH  58  81
ATOM     81  C   UNL A   1      43.885  28.745  35.338  1.00  0.00     0.064 A 
ATOM     82  C   UNL A   1      45.203  29.180  35.143  1.00  0.00     0.173 A 
ATOM     83  C   UNL A   1      43.661  27.727  36.277  1.00  0.00     0.173 A 
ATOM     84  F   UNL A   1      45.471  30.139  34.244  1.00  0.00    -0.203 F 
ATOM     85  C   UNL A   1      46.258  28.601  35.842  1.00  0.00     0.198 A 
ATOM     86  C   UNL A   1      44.714  27.172  36.997  1.00  0.00     0.198 A 
ATOM     87  F   UNL A   1      42.416  27.280  36.507  1.00  0.00    -0.203 F 
ATOM     88  F   UNL A   1      47.515  29.000  35.606  1.00  0.00    -0.200 F 
ATOM     89  C   UNL A   1      46.012  27.604  36.774  1.00  0.00     0.200 A 
ATOM     90  F   UNL A   1      44.472  26.218  37.908  1.00  0.00    -0.200 F 
ATOM     91  F   UNL A   1      47.028  27.054  37.453  1.00  0.00    -0.200 F 
ENDBRANCH  58  81
ENDBRANCH  32  33
ENDBRANCH  24  27
ENDBRANCH  22  23
ENDBRANCH  21  22
ENDBRANCH  20  21
ENDBRANCH   3  20
TORSDOF 15
ENDMDL
MODEL 2
REMARK VINA RESULT:     -11.3      6.472     11.551
REMARK SMILES C[C@H]([NH2+]CCc1ccccc1)[C@@H](C)C(=O)NCCCNC(=O)c1ccc(-c2c3nc(c(-c4c(F)c(F)c(F)c(F)c4F)c4ccc([nH]4)c(-c4c(F)c(F)c(F)c(F)c4F)c4nc(c(-c5c(F)c(F)c(F)c(F)c5F)c5ccc2[nH]5)C=C4)C=C3)cc1
REMARK SMILES IDX 14 1 15 2 16 3 12 5 13 6 2 7 1 8 3 9 4 12 5 13 6 14 7 15
REMARK SMILES IDX 11 16 8 17 10 18 9 19 17 20 18 21 19 22 20 23 21 24 22 26
REMARK SMILES IDX 23 27 24 28 85 29 25 30 84 31 26 32 27 33 28 34 78 35 29 36
REMARK SMILES IDX 83 37 77 38 79 39 30 40 82 41 76 42 75 43 31 45 63 46 43 47
REMARK SMILES IDX 62 48 44 49 47 50 61 51 80 52 45 53 46 54 60 56 81 57 48 58
REMARK SMILES IDX 32 59 33 60 41 61 34 62 35 63 39 64 42 65 36 66 37 67 40 68
REMARK SMILES IDX 38 69 64 70 65 71 73 72 66 73 67 74 71 75 74 76 68 77 69 78
REMARK SMILES IDX 72 79 70 80 49 81 50 82 58 83 51 84 52 85 56 86 59 87 53 88
REMARK SMILES IDX 54 89 57 90 55 91
REMARK H PARENT 16 4 3 10 3 11 20 25 79 44 47 55
REMARK Flexibility Score: inf
ROOT
ATOM      1  C   UNL A   1      35.414  22.439  25.903  1.00  0.00     0.228 C 
ATOM      2  O   UNL A   1      35.072  22.755  27.047  1.00  0.00    -0.275 OA
ATOM      3  N   UNL A   1      36.272  21.392  25.783  1.00  0.00    -0.356 N 
ATOM      4  H   UNL A   1      36.515  20.971  26.639  1.00  0.00     0.163 HD
ENDROOT
BRANCH   1   5
ATOM      5  C   UNL A   1      34.874  23.207  24.699  1.00  0.00     0.133 C 
ATOM      6  C   UNL A   1      34.831  24.707  25.019  1.00  0.00     0.024 C 
BRANCH   5   7
ATOM      7  C   UNL A   1      33.575  22.575  24.120  1.00  0.00     0.191 C 
ATOM      8  C   UNL A   1      32.885  23.568  23.165  1.00  0.00     0.076 C 
BRANCH   7   9
ATOM      9  N   UNL A   1      32.724  22.010  25.182  1.00  0.00    -0.343 N 
ATOM     10  H   UNL A   1      31.896  22.600  25.250  1.00  0.00     0.346 HD
ATOM     11  H   UNL A   1      33.330  21.991  26.003  1.00  0.00     0.346 HD
BRANCH   9  12
ATOM     12  C   UNL A   1      32.262  20.630  25.043  1.00  0.00     0.265 C 
BRANCH  12  13
ATOM     13  C   UNL A   1      33.181  19.826  24.099  1.00  0.00     0.097 C 
BRANCH  13  14
ATOM     14  C   UNL A   1      33.465  18.424  24.592  1.00  0.00    -0.042 A 
ATOM     15  C   UNL A   1      34.662  17.776  24.260  1.00  0.00     0.004 A 
ATOM     16  C   UNL A   1      32.494  17.727  25.326  1.00  0.00     0.004 A 
ATOM     17  C   UNL A   1      34.875  16.451  24.640  1.00  0.00     0.000 A 
ATOM     18  C   UNL A   1      32.712  16.403  25.708  1.00  0.00     0.000 A 
ATOM     19  C   UNL A   1      33.900  15.764  25.361  1.00  0.00     0.000 A 
ENDBRANCH  13  14
ENDBRANCH  12  13
ENDBRANCH   9  12
ENDBRANCH   7   9
ENDBRANCH   5   7
ENDBRANCH   1   5
BRANCH   3  20
ATOM     20  C   UNL A   1      36.893  20.780  24.623  1.00  0.00     0.117 C 
BRANCH  20  21
ATOM     21  C   UNL A   1      37.891  19.692  25.004  1.00  0.00     0.042 C 
BRANCH  21  22
ATOM     22  C   UNL A   1      39.098  20.197  25.786  1.00  0.00     0.118 C 
BRANCH  22  23
ATOM     23  N   UNL A   1      40.150  19.196  25.901  1.00  0.00    -0.352 N 
ATOM     24  C   UNL A   1      41.494  19.341  26.134  1.00  0.00     0.251 C 
ATOM     25  H   UNL A   1      39.848  18.266  25.796  1.00  0.00     0.163 HD
ATOM     26  O   UNL A   1      42.240  18.373  25.995  1.00  0.00    -0.269 OA
BRANCH  24  27
ATOM     27  C   UNL A   1      42.062  20.648  26.530  1.00  0.00     0.039 A 
ATOM     28  C   UNL A   1      42.513  21.517  25.532  1.00  0.00     0.014 A 
ATOM     29  C   UNL A   1      42.190  21.008  27.875  1.00  0.00     0.014 A 
ATOM     30  C   UNL A   1      43.023  22.770  25.877  1.00  0.00     0.010 A 
ATOM     31  C   UNL A   1      42.624  22.287  28.214  1.00  0.00     0.010 A 
ATOM     32  C   UNL A   1      43.047  23.182  27.219  1.00  0.00    -0.014 A 
BRANCH  32  33
ATOM     33  C   UNL A   1      43.505  24.542  27.602  1.00  0.00     0.031 A 
ATOM     34  C   UNL A   1      42.505  25.601  27.979  1.00  0.00     0.074 A 
ATOM     35  C   UNL A   1      44.816  24.848  27.528  1.00  0.00     0.049 A 
ATOM     36  N   UNL A   1      42.702  26.868  28.250  1.00  0.00    -0.248 NA
ATOM     37  C   UNL A   1      41.092  25.192  28.032  1.00  0.00     0.031 C 
ATOM     38  C   UNL A   1      45.877  23.926  27.116  1.00  0.00     0.029 A 
ATOM     39  N   UNL A   1      45.478  26.025  27.775  1.00  0.00    -0.354 N 
ATOM     40  C   UNL A   1      41.443  27.407  28.475  1.00  0.00     0.074 A 
ATOM     41  C   UNL A   1      40.483  26.344  28.276  1.00  0.00     0.031 C 
ATOM     42  C   UNL A   1      47.055  24.569  27.148  1.00  0.00     0.029 A 
ATOM     43  C   UNL A   1      46.831  25.956  27.544  1.00  0.00     0.049 A 
ATOM     44  H   UNL A   1      45.027  26.842  28.090  1.00  0.00     0.167 HD
ATOM     45  C   UNL A   1      41.119  28.672  28.835  1.00  0.00     0.037 A 
ATOM     46  C   UNL A   1      47.781  26.907  27.627  1.00  0.00     0.037 A 
ATOM     47  C   UNL A   1      42.081  29.715  29.083  1.00  0.00     0.049 A 
ATOM     48  C   UNL A   1      47.394  28.296  28.057  1.00  0.00     0.074 A 
ATOM     49  C   UNL A   1      41.857  30.999  29.549  1.00  0.00     0.029 A 
ATOM     50  N   UNL A   1      43.447  29.593  28.883  1.00  0.00    -0.354 N 
ATOM     51  N   UNL A   1      46.209  28.769  28.358  1.00  0.00    -0.248 NA
ATOM     52  C   UNL A   1      48.477  29.283  28.169  1.00  0.00     0.031 C 
ATOM     53  C   UNL A   1      43.082  31.671  29.584  1.00  0.00     0.029 A 
ATOM     54  C   UNL A   1      44.076  30.790  29.190  1.00  0.00     0.049 A 
ATOM     55  H   UNL A   1      43.903  28.779  28.570  1.00  0.00     0.167 HD
ATOM     56  C   UNL A   1      46.407  30.095  28.718  1.00  0.00     0.074 A 
ATOM     57  C   UNL A   1      47.828  30.347  28.618  1.00  0.00     0.031 C 
ATOM     58  C   UNL A   1      45.493  31.021  29.095  1.00  0.00     0.037 A 
BRANCH  45  59
ATOM     59  C   UNL A   1      39.667  29.011  28.994  1.00  0.00     0.064 A 
ATOM     60  C   UNL A   1      38.877  29.402  27.903  1.00  0.00     0.173 A 
ATOM     61  C   UNL A   1      39.040  28.867  30.241  1.00  0.00     0.173 A 
ATOM     62  F   UNL A   1      39.430  29.563  26.692  1.00  0.00    -0.203 F 
ATOM     63  C   UNL A   1      37.515  29.650  28.058  1.00  0.00     0.198 A 
ATOM     64  C   UNL A   1      37.673  29.089  30.387  1.00  0.00     0.198 A 
ATOM     65  F   UNL A   1      39.749  28.490  31.315  1.00  0.00    -0.203 F 
ATOM     66  F   UNL A   1      36.785  30.053  27.008  1.00  0.00    -0.200 F 
ATOM     67  C   UNL A   1      36.912  29.483  29.296  1.00  0.00     0.200 A 
ATOM     68  F   UNL A   1      37.089  28.914  31.581  1.00  0.00    -0.200 F 
ATOM     69  F   UNL A   1      35.598  29.705  29.439  1.00  0.00    -0.200 F 
ENDBRANCH  45  59
BRANCH  46  70
ATOM     70  C   UNL A   1      49.194  26.583  27.296  1.00  0.00     0.064 A 
ATOM     71  C   UNL A   1      50.114  26.255  28.301  1.00  0.00     0.173 A 
ATOM     72  C   UNL A   1      49.658  26.620  25.973  1.00  0.00     0.173 A 
ATOM     73  F   UNL A   1      49.723  26.227  29.583  1.00  0.00    -0.203 F 
ATOM     74  C   UNL A   1      51.453  26.008  27.999  1.00  0.00     0.198 A 
ATOM     75  C   UNL A   1      50.989  26.342  25.669  1.00  0.00     0.198 A 
ATOM     76  F   UNL A   1      48.817  26.922  24.973  1.00  0.00    -0.203 F 
ATOM     77  F   UNL A   1      52.323  25.755  28.985  1.00  0.00    -0.200 F 
ATOM     78  C   UNL A   1      51.888  26.048  26.683  1.00  0.00     0.200 A 
ATOM     79  F   UNL A   1      51.402  26.367  24.394  1.00  0.00    -0.200 F 
ATOM     80  F   UNL A   1      53.175  25.814  26.393  1.00  0.00    -0.200 F 
ENDBRANCH  46  70
BRANCH  58  81
ATOM     81  C   UNL A   1      46.004  32.384  29.459  1.00  0.00     0.064 A 
ATOM     82  C   UNL A   1      46.426  32.688  30.762  1.00  0.00     0.173 A 
ATOM     83  C   UNL A   1      46.113  33.386  28.483  1.00  0.00     0.173 A 
ATOM     84  F   UNL A   1      46.328  31.769  31.734  1.00  0.00    -0.203 F 
ATOM     85  C   UNL A   1      46.914  33.952  31.078  1.00  0.00     0.198 A 
ATOM     86  C   UNL A   1      46.629  34.639  28.796  1.00  0.00     0.198 A 
ATOM     87  F   UNL A   1      45.729  33.144  27.220  1.00  0.00    -0.203 F 
ATOM     88  F   UNL A   1      47.268  34.235  32.339  1.00  0.00    -0.200 F 
ATOM     89  C   UNL A   1      47.023  34.924  30.095  1.00  0.00     0.200 A 
ATOM     90  F   UNL A   1      46.747  35.571  27.840  1.00  0.00    -0.200 F 
ATOM     91  F   UNL A   1      47.501  36.137  30.400  1.00  0.00    -0.200 F 
ENDBRANCH  58  81
ENDBRANCH  32  33
ENDBRANCH  24  27
ENDBRANCH  22  23
ENDBRANCH  21  22
ENDBRANCH  20  21
ENDBRANCH   3  20
TORSDOF 15
ENDMDL
MODEL 3
REMARK VINA RESULT:     -11.3      3.878     10.260
REMARK SMILES C[C@H]([NH2+]CCc1ccccc1)[C@@H](C)C(=O)NCCCNC(=O)c1ccc(-c2c3nc(c(-c4c(F)c(F)c(F)c(F)c4F)c4ccc([nH]4)c(-c4c(F)c(F)c(F)c(F)c4F)c4nc(c(-c5c(F)c(F)c(F)c(F)c5F)c5ccc2[nH]5)C=C4)C=C3)cc1
REMARK SMILES IDX 14 1 15 2 16 3 12 5 13 6 2 7 1 8 3 9 4 12 5 13 6 14 7 15
REMARK SMILES IDX 11 16 8 17 10 18 9 19 17 20 18 21 19 22 20 23 21 24 22 26
REMARK SMILES IDX 23 27 24 28 85 29 25 30 84 31 26 32 27 33 28 34 78 35 29 36
REMARK SMILES IDX 83 37 77 38 79 39 30 40 82 41 76 42 75 43 31 45 63 46 43 47
REMARK SMILES IDX 62 48 44 49 47 50 61 51 80 52 45 53 46 54 60 56 81 57 48 58
REMARK SMILES IDX 32 59 33 60 41 61 34 62 35 63 39 64 42 65 36 66 37 67 40 68
REMARK SMILES IDX 38 69 64 70 65 71 73 72 66 73 67 74 71 75 74 76 68 77 69 78
REMARK SMILES IDX 72 79 70 80 49 81 50 82 58 83 51 84 52 85 56 86 59 87 53 88
REMARK SMILES IDX 54 89 57 90 55 91
REMARK H PARENT 16 4 3 10 3 11 20 25 79 44 47 55
REMARK Flexibility Score: inf
ROOT
ATOM      1  C   UNL A   1      34.411  34.267  31.638  1.00  0.00     0.228 C 
ATOM      2  O   UNL A   1      33.858  34.208  32.740  1.00  0.00    -0.275 OA
ATOM      3  N   UNL A   1      33.718  34.865  30.633  1.00  0.00    -0.356 N 
ATOM      4  H   UNL A   1      32.839  35.216  30.903  1.00  0.00     0.163 HD
ENDROOT
BRANCH   1   5
ATOM      5  C   UNL A   1      35.812  33.691  31.447  1.00  0.00     0.133 C 
ATOM      6  C   UNL A   1      35.717  32.188  31.154  1.00  0.00     0.024 C 
BRANCH   5   7
ATOM      7  C   UNL A   1      36.796  34.126  32.572  1.00  0.00     0.191 C 
ATOM      8  C   UNL A   1      38.118  34.619  31.954  1.00  0.00     0.076 C 
BRANCH   7   9
ATOM      9  N   UNL A   1      36.920  33.094  33.616  1.00  0.00    -0.343 N 
ATOM     10  H   UNL A   1      36.384  32.285  33.304  1.00  0.00     0.346 HD
ATOM     11  H   UNL A   1      36.587  33.554  34.464  1.00  0.00     0.346 HD
BRANCH   9  12
ATOM     12  C   UNL A   1      38.257  32.618  33.968  1.00  0.00     0.265 C 
BRANCH  12  13
ATOM     13  C   UNL A   1      38.190  31.278  34.731  1.00  0.00     0.097 C 
BRANCH  13  14
ATOM     14  C   UNL A   1      38.652  30.096  33.908  1.00  0.00    -0.042 A 
ATOM     15  C   UNL A   1      37.736  29.331  33.175  1.00  0.00     0.004 A 
ATOM     16  C   UNL A   1      40.000  29.708  33.932  1.00  0.00     0.004 A 
ATOM     17  C   UNL A   1      38.157  28.189  32.494  1.00  0.00     0.000 A 
ATOM     18  C   UNL A   1      40.418  28.567  33.247  1.00  0.00     0.000 A 
ATOM     19  C   UNL A   1      39.496  27.805  32.533  1.00  0.00     0.000 A 
ENDBRANCH  13  14
ENDBRANCH  12  13
ENDBRANCH   9  12
ENDBRANCH   7   9
ENDBRANCH   5   7
ENDBRANCH   1   5
BRANCH   3  20
ATOM     20  C   UNL A   1      34.038  35.079  29.233  1.00  0.00     0.117 C 
BRANCH  20  21
ATOM     21  C   UNL A   1      33.420  34.019  28.327  1.00  0.00     0.042 C 
BRANCH  21  22
ATOM     22  C   UNL A   1      34.341  32.845  28.020  1.00  0.00     0.118 C 
BRANCH  22  23
ATOM     23  N   UNL A   1      33.611  31.642  27.642  1.00  0.00    -0.352 N 
ATOM     24  C   UNL A   1      34.048  30.354  27.469  1.00  0.00     0.251 C 
ATOM     25  H   UNL A   1      32.649  31.776  27.485  1.00  0.00     0.163 HD
ATOM     26  O   UNL A   1      33.300  29.526  26.952  1.00  0.00    -0.269 OA
BRANCH  24  27
ATOM     27  C   UNL A   1      35.410  29.950  27.878  1.00  0.00     0.039 A 
ATOM     28  C   UNL A   1      36.456  30.082  26.958  1.00  0.00     0.014 A 
ATOM     29  C   UNL A   1      35.661  29.407  29.141  1.00  0.00     0.014 A 
ATOM     30  C   UNL A   1      37.758  29.739  27.329  1.00  0.00     0.010 A 
ATOM     31  C   UNL A   1      36.969  29.141  29.537  1.00  0.00     0.010 A 
ATOM     32  C   UNL A   1      38.032  29.302  28.635  1.00  0.00    -0.014 A 
BRANCH  32  33
ATOM     33  C   UNL A   1      39.421  29.014  29.078  1.00  0.00     0.031 A 
ATOM     34  C   UNL A   1      40.190  30.033  29.874  1.00  0.00     0.074 A 
ATOM     35  C   UNL A   1      40.018  27.869  28.691  1.00  0.00     0.049 A 
ATOM     36  N   UNL A   1      41.439  30.005  30.268  1.00  0.00    -0.248 NA
ATOM     37  C   UNL A   1      39.471  31.260  30.253  1.00  0.00     0.031 C 
ATOM     38  C   UNL A   1      39.398  26.828  27.867  1.00  0.00     0.029 A 
ATOM     39  N   UNL A   1      41.286  27.396  28.921  1.00  0.00    -0.354 N 
ATOM     40  C   UNL A   1      41.660  31.215  30.912  1.00  0.00     0.074 A 
ATOM     41  C   UNL A   1      40.431  31.972  30.827  1.00  0.00     0.031 C 
ATOM     42  C   UNL A   1      40.283  25.839  27.669  1.00  0.00     0.029 A 
ATOM     43  C   UNL A   1      41.542  26.188  28.317  1.00  0.00     0.049 A 
ATOM     44  H   UNL A   1      41.949  27.876  29.468  1.00  0.00     0.167 HD
ATOM     45  C   UNL A   1      42.783  31.646  31.535  1.00  0.00     0.037 A 
ATOM     46  C   UNL A   1      42.671  25.455  28.277  1.00  0.00     0.037 A 
ATOM     47  C   UNL A   1      43.988  30.867  31.662  1.00  0.00     0.049 A 
ATOM     48  C   UNL A   1      43.893  25.947  29.003  1.00  0.00     0.074 A 
ATOM     49  C   UNL A   1      45.142  31.177  32.360  1.00  0.00     0.029 A 
ATOM     50  N   UNL A   1      44.194  29.629  31.075  1.00  0.00    -0.354 N 
ATOM     51  N   UNL A   1      44.060  27.052  29.688  1.00  0.00    -0.248 NA
ATOM     52  C   UNL A   1      45.084  25.086  28.959  1.00  0.00     0.031 C 
ATOM     53  C   UNL A   1      46.065  30.147  32.157  1.00  0.00     0.029 A 
ATOM     54  C   UNL A   1      45.469  29.173  31.374  1.00  0.00     0.049 A 
ATOM     55  H   UNL A   1      43.534  29.144  30.529  1.00  0.00     0.167 HD
ATOM     56  C   UNL A   1      45.359  27.007  30.176  1.00  0.00     0.074 A 
ATOM     57  C   UNL A   1      45.931  25.756  29.725  1.00  0.00     0.031 C 
ATOM     58  C   UNL A   1      46.019  27.920  30.927  1.00  0.00     0.037 A 
BRANCH  45  59
ATOM     59  C   UNL A   1      42.773  33.018  32.139  1.00  0.00     0.064 A 
ATOM     60  C   UNL A   1      43.120  34.155  31.394  1.00  0.00     0.173 A 
ATOM     61  C   UNL A   1      42.332  33.207  33.458  1.00  0.00     0.173 A 
ATOM     62  F   UNL A   1      43.556  34.027  30.132  1.00  0.00    -0.203 F 
ATOM     63  C   UNL A   1      43.042  35.428  31.954  1.00  0.00     0.198 A 
ATOM     64  C   UNL A   1      42.229  34.483  34.005  1.00  0.00     0.198 A 
ATOM     65  F   UNL A   1      41.982  32.153  34.211  1.00  0.00    -0.203 F 
ATOM     66  F   UNL A   1      43.410  36.498  31.233  1.00  0.00    -0.200 F 
ATOM     67  C   UNL A   1      42.587  35.592  33.253  1.00  0.00     0.200 A 
ATOM     68  F   UNL A   1      41.776  34.641  35.256  1.00  0.00    -0.200 F 
ATOM     69  F   UNL A   1      42.495  36.820  33.783  1.00  0.00    -0.200 F 
ENDBRANCH  45  59
BRANCH  46  70
ATOM     70  C   UNL A   1      42.703  24.173  27.522  1.00  0.00     0.064 A 
ATOM     71  C   UNL A   1      43.086  24.138  26.174  1.00  0.00     0.173 A 
ATOM     72  C   UNL A   1      42.326  22.965  28.125  1.00  0.00     0.173 A 
ATOM     73  F   UNL A   1      43.434  25.272  25.548  1.00  0.00    -0.203 F 
ATOM     74  C   UNL A   1      43.061  22.948  25.450  1.00  0.00     0.198 A 
ATOM     75  C   UNL A   1      42.332  21.770  27.409  1.00  0.00     0.198 A 
ATOM     76  F   UNL A   1      41.957  22.943  29.415  1.00  0.00    -0.203 F 
ATOM     77  F   UNL A   1      43.376  22.953  24.148  1.00  0.00    -0.200 F 
ATOM     78  C   UNL A   1      42.687  21.764  26.069  1.00  0.00     0.200 A 
ATOM     79  F   UNL A   1      41.985  20.626  28.014  1.00  0.00    -0.200 F 
ATOM     80  F   UNL A   1      42.660  20.621  25.370  1.00  0.00    -0.200 F 
ENDBRANCH  46  70
BRANCH  58  81
ATOM     81  C   UNL A   1      47.424  27.589  31.338  1.00  0.00     0.064 A 
ATOM     82  C   UNL A   1      47.699  26.893  32.524  1.00  0.00     0.173 A 
ATOM     83  C   UNL A   1      48.505  27.934  30.513  1.00  0.00     0.173 A 
ATOM     84  F   UNL A   1      46.700  26.554  33.354  1.00  0.00    -0.203 F 
ATOM     85  C   UNL A   1      49.006  26.578  32.881  1.00  0.00     0.198 A 
ATOM     86  C   UNL A   1      49.808  27.591  30.859  1.00  0.00     0.198 A 
ATOM     87  F   UNL A   1      48.295  28.595  29.364  1.00  0.00    -0.203 F 
ATOM     88  F   UNL A   1      49.249  25.953  34.042  1.00  0.00    -0.200 F 
ATOM     89  C   UNL A   1      50.059  26.919  32.046  1.00  0.00     0.200 A 
ATOM     90  F   UNL A   1      50.822  27.909  30.042  1.00  0.00    -0.200 F 
ATOM     91  F   UNL A   1      51.316  26.607  32.387  1.00  0.00    -0.200 F 
ENDBRANCH  58  81
ENDBRANCH  32  33
ENDBRANCH  24  27
ENDBRANCH  22  23
ENDBRANCH  21  22
ENDBRANCH  20  21
ENDBRANCH   3  20
TORSDOF 15
ENDMDL
