MODEL 1
REMARK VINA RESULT:     -13.3      0.000      0.000
REMARK SMILES C[C@@H](C(=O)NCCCNC(=O)c1ccc(-c2c3nc(c(-c4c(F)c(F)c(F)c(F)c4F)c4ccc([nH]4)c(-c4c(F)c(F)c(F)c(F)c4F)c4nc(c(-c5c(F)c(F)c(F)c(F)c5F)c5ccc2[nH]5)C=C4)C=C3)cc1)c1ccc(-c2ccn(C(F)F)c(=O)c2)cc1
REMARK SMILES IDX 6 1 5 2 3 3 4 4 2 6 1 7 75 8 76 9 90 10 77 11 89 12 78 13
REMARK SMILES IDX 79 14 80 15 88 16 81 17 86 18 82 19 87 20 83 21 84 22 85 23
REMARK SMILES IDX 7 24 8 25 9 26 10 27 11 29 12 30 13 31 74 32 14 33 73 34
REMARK SMILES IDX 15 35 16 36 17 37 67 38 18 39 72 40 66 41 68 42 19 43 71 44
REMARK SMILES IDX 65 45 64 46 20 48 52 49 32 50 51 51 33 52 36 53 50 54 69 55
REMARK SMILES IDX 34 56 35 57 49 59 70 60 37 61 21 62 22 63 30 64 23 65 24 66
REMARK SMILES IDX 28 67 31 68 25 69 26 70 29 71 27 72 53 73 54 74 62 75 55 76
REMARK SMILES IDX 56 77 60 78 63 79 57 80 58 81 61 82 59 83 38 84 39 85 47 86
REMARK SMILES IDX 40 87 41 88 45 89 48 90 42 91 43 92 46 93 44 94
REMARK H PARENT 5 5 9 28 68 47 36 58
REMARK Flexibility Score: inf
ROOT
ATOM      1  C   UNL A   1      31.330  30.679  26.557  1.00  0.00     0.117 C 
ENDROOT
BRANCH   1   2
ATOM      2  N   UNL A   1      31.852  30.078  25.343  1.00  0.00    -0.356 N 
ATOM      3  C   UNL A   1      32.753  29.067  25.162  1.00  0.00     0.227 C 
ATOM      4  O   UNL A   1      33.113  28.860  24.001  1.00  0.00    -0.274 OA
ATOM      5  H   UNL A   1      31.496  30.463  24.509  1.00  0.00     0.163 HD
BRANCH   3   6
ATOM      6  C   UNL A   1      33.248  28.237  26.362  1.00  0.00     0.105 C 
ATOM      7  C   UNL A   1      34.593  28.791  26.851  1.00  0.00     0.023 C 
BRANCH   6   8
ATOM      8  C   UNL A   1      33.290  26.731  26.062  1.00  0.00    -0.036 A 
ATOM      9  C   UNL A   1      32.133  25.947  26.238  1.00  0.00     0.005 A 
ATOM     10  C   UNL A   1      34.452  26.083  25.620  1.00  0.00     0.005 A 
ATOM     11  C   UNL A   1      32.132  24.576  25.941  1.00  0.00     0.009 A 
ATOM     12  C   UNL A   1      34.456  24.716  25.336  1.00  0.00     0.009 A 
ATOM     13  C   UNL A   1      33.295  23.954  25.481  1.00  0.00    -0.018 A 
BRANCH  13  14
ATOM     14  C   UNL A   1      33.342  22.531  25.103  1.00  0.00    -0.011 A 
ATOM     15  C   UNL A   1      32.146  21.751  24.854  1.00  0.00     0.027 A 
ATOM     16  C   UNL A   1      34.537  21.914  25.116  1.00  0.00     0.080 A 
ATOM     17  C   UNL A   1      32.219  20.424  24.702  1.00  0.00     0.095 A 
ATOM     18  C   UNL A   1      34.636  20.441  24.919  1.00  0.00     0.255 A 
ATOM     19  N   UNL A   1      33.435  19.770  24.749  1.00  0.00    -0.258 N 
ATOM     20  O   UNL A   1      35.748  19.918  24.947  1.00  0.00    -0.269 OA
BRANCH  19  21
ATOM     21  C   UNL A   1      33.497  18.334  24.651  1.00  0.00     0.451 C 
ATOM     22  F   UNL A   1      32.267  17.777  24.757  1.00  0.00    -0.185 F 
ATOM     23  F   UNL A   1      34.031  17.953  23.463  1.00  0.00    -0.185 F 
ENDBRANCH  19  21
ENDBRANCH  13  14
ENDBRANCH   6   8
ENDBRANCH   3   6
ENDBRANCH   1   2
BRANCH   1  24
ATOM     24  C   UNL A   1      31.395  32.207  26.502  1.00  0.00     0.042 C 
BRANCH  24  25
ATOM     25  C   UNL A   1      32.554  32.819  27.287  1.00  0.00     0.118 C 
BRANCH  25  26
ATOM     26  N   UNL A   1      32.328  34.216  27.625  1.00  0.00    -0.352 N 
ATOM     27  C   UNL A   1      32.952  35.018  28.547  1.00  0.00     0.251 C 
ATOM     28  H   UNL A   1      31.614  34.656  27.111  1.00  0.00     0.163 HD
ATOM     29  O   UNL A   1      32.478  36.125  28.806  1.00  0.00    -0.269 OA
BRANCH  27  30
ATOM     30  C   UNL A   1      34.166  34.561  29.259  1.00  0.00     0.039 A 
ATOM     31  C   UNL A   1      34.028  34.027  30.544  1.00  0.00     0.014 A 
ATOM     32  C   UNL A   1      35.436  34.674  28.686  1.00  0.00     0.014 A 
ATOM     33  C   UNL A   1      35.144  33.522  31.214  1.00  0.00     0.010 A 
ATOM     34  C   UNL A   1      36.541  34.114  29.327  1.00  0.00     0.010 A 
ATOM     35  C   UNL A   1      36.403  33.512  30.589  1.00  0.00    -0.014 A 
BRANCH  35  36
ATOM     36  C   UNL A   1      37.561  32.814  31.205  1.00  0.00     0.031 A 
ATOM     37  C   UNL A   1      38.197  31.630  30.532  1.00  0.00     0.074 A 
ATOM     38  C   UNL A   1      37.984  33.202  32.425  1.00  0.00     0.049 A 
ATOM     39  N   UNL A   1      39.149  30.845  30.970  1.00  0.00    -0.248 NA
ATOM     40  C   UNL A   1      37.686  31.268  29.200  1.00  0.00     0.031 C 
ATOM     41  C   UNL A   1      37.418  34.308  33.202  1.00  0.00     0.029 A 
ATOM     42  N   UNL A   1      38.970  32.700  33.239  1.00  0.00    -0.354 N 
ATOM     43  C   UNL A   1      39.341  29.891  29.980  1.00  0.00     0.074 A 
ATOM     44  C   UNL A   1      38.386  30.175  28.929  1.00  0.00     0.031 C 
ATOM     45  C   UNL A   1      38.067  34.404  34.372  1.00  0.00     0.029 A 
ATOM     46  C   UNL A   1      39.062  33.340  34.452  1.00  0.00     0.049 A 
ATOM     47  H   UNL A   1      39.554  31.953  32.978  1.00  0.00     0.167 HD
ATOM     48  C   UNL A   1      40.242  28.881  29.948  1.00  0.00     0.037 A 
ATOM     49  C   UNL A   1      39.842  33.083  35.521  1.00  0.00     0.037 A 
ATOM     50  C   UNL A   1      41.212  28.622  30.981  1.00  0.00     0.049 A 
ATOM     51  C   UNL A   1      40.814  31.936  35.462  1.00  0.00     0.074 A 
ATOM     52  C   UNL A   1      42.230  27.683  30.990  1.00  0.00     0.029 A 
ATOM     53  N   UNL A   1      41.277  29.292  32.192  1.00  0.00    -0.354 N 
ATOM     54  N   UNL A   1      41.051  31.102  34.479  1.00  0.00    -0.248 NA
ATOM     55  C   UNL A   1      41.625  31.691  36.662  1.00  0.00     0.031 C 
ATOM     56  C   UNL A   1      42.872  27.744  32.229  1.00  0.00     0.029 A 
ATOM     57  C   UNL A   1      42.290  28.757  32.973  1.00  0.00     0.049 A 
ATOM     58  H   UNL A   1      40.693  30.039  32.459  1.00  0.00     0.167 HD
ATOM     59  C   UNL A   1      42.046  30.250  34.934  1.00  0.00     0.074 A 
ATOM     60  C   UNL A   1      42.390  30.682  36.272  1.00  0.00     0.031 C 
ATOM     61  C   UNL A   1      42.620  29.196  34.303  1.00  0.00     0.037 A 
BRANCH  48  62
ATOM     62  C   UNL A   1      40.241  27.966  28.760  1.00  0.00     0.064 A 
ATOM     63  C   UNL A   1      40.954  28.276  27.592  1.00  0.00     0.173 A 
ATOM     64  C   UNL A   1      39.607  26.715  28.830  1.00  0.00     0.173 A 
ATOM     65  F   UNL A   1      41.572  29.461  27.473  1.00  0.00    -0.203 F 
ATOM     66  C   UNL A   1      41.024  27.371  26.535  1.00  0.00     0.198 A 
ATOM     67  C   UNL A   1      39.702  25.804  27.783  1.00  0.00     0.198 A 
ATOM     68  F   UNL A   1      38.921  26.367  29.929  1.00  0.00    -0.203 F 
ATOM     69  F   UNL A   1      41.694  27.697  25.421  1.00  0.00    -0.200 F 
ATOM     70  C   UNL A   1      40.409  26.132  26.636  1.00  0.00     0.200 A 
ATOM     71  F   UNL A   1      39.120  24.601  27.888  1.00  0.00    -0.200 F 
ATOM     72  F   UNL A   1      40.499  25.254  25.628  1.00  0.00    -0.200 F 
ENDBRANCH  48  62
BRANCH  49  73
ATOM     73  C   UNL A   1      39.724  33.909  36.753  1.00  0.00     0.064 A 
ATOM     74  C   UNL A   1      38.901  33.509  37.814  1.00  0.00     0.173 A 
ATOM     75  C   UNL A   1      40.396  35.133  36.876  1.00  0.00     0.173 A 
ATOM     76  F   UNL A   1      38.218  32.357  37.735  1.00  0.00    -0.203 F 
ATOM     77  C   UNL A   1      38.729  34.317  38.936  1.00  0.00     0.198 A 
ATOM     78  C   UNL A   1      40.251  35.925  38.013  1.00  0.00     0.198 A 
ATOM     79  F   UNL A   1      41.200  35.563  35.891  1.00  0.00    -0.203 F 
ATOM     80  F   UNL A   1      37.886  33.940  39.908  1.00  0.00    -0.200 F 
ATOM     81  C   UNL A   1      39.407  35.523  39.036  1.00  0.00     0.200 A 
ATOM     82  F   UNL A   1      40.919  37.082  38.112  1.00  0.00    -0.200 F 
ATOM     83  F   UNL A   1      39.237  36.302  40.113  1.00  0.00    -0.200 F 
ENDBRANCH  49  73
BRANCH  61  84
ATOM     84  C   UNL A   1      43.687  28.447  35.047  1.00  0.00     0.064 A 
ATOM     85  C   UNL A   1      43.382  27.313  35.816  1.00  0.00     0.173 A 
ATOM     86  C   UNL A   1      45.030  28.838  34.959  1.00  0.00     0.173 A 
ATOM     87  F   UNL A   1      42.108  26.910  35.947  1.00  0.00    -0.203 F 
ATOM     88  C   UNL A   1      44.381  26.614  36.486  1.00  0.00     0.198 A 
ATOM     89  C   UNL A   1      46.030  28.117  35.605  1.00  0.00     0.198 A 
ATOM     90  F   UNL A   1      45.376  29.912  34.232  1.00  0.00    -0.203 F 
ATOM     91  F   UNL A   1      44.060  25.561  37.253  1.00  0.00    -0.200 F 
ATOM     92  C   UNL A   1      45.705  27.011  36.374  1.00  0.00     0.200 A 
ATOM     93  F   UNL A   1      47.311  28.495  35.484  1.00  0.00    -0.200 F 
ATOM     94  F   UNL A   1      46.666  26.329  37.012  1.00  0.00    -0.200 F 
ENDBRANCH  61  84
ENDBRANCH  35  36
ENDBRANCH  27  30
ENDBRANCH  25  26
ENDBRANCH  24  25
ENDBRANCH   1  24
TORSDOF 13
ENDMDL
MODEL 2
REMARK VINA RESULT:     -13.2      0.937      1.628
REMARK SMILES C[C@@H](C(=O)NCCCNC(=O)c1ccc(-c2c3nc(c(-c4c(F)c(F)c(F)c(F)c4F)c4ccc([nH]4)c(-c4c(F)c(F)c(F)c(F)c4F)c4nc(c(-c5c(F)c(F)c(F)c(F)c5F)c5ccc2[nH]5)C=C4)C=C3)cc1)c1ccc(-c2ccn(C(F)F)c(=O)c2)cc1
REMARK SMILES IDX 6 1 5 2 3 3 4 4 2 6 1 7 75 8 76 9 90 10 77 11 89 12 78 13
REMARK SMILES IDX 79 14 80 15 88 16 81 17 86 18 82 19 87 20 83 21 84 22 85 23
REMARK SMILES IDX 7 24 8 25 9 26 10 27 11 29 12 30 13 31 74 32 14 33 73 34
REMARK SMILES IDX 15 35 16 36 17 37 67 38 18 39 72 40 66 41 68 42 19 43 71 44
REMARK SMILES IDX 65 45 64 46 20 48 52 49 32 50 51 51 33 52 36 53 50 54 69 55
REMARK SMILES IDX 34 56 35 57 49 59 70 60 37 61 21 62 22 63 30 64 23 65 24 66
REMARK SMILES IDX 28 67 31 68 25 69 26 70 29 71 27 72 53 73 54 74 62 75 55 76
REMARK SMILES IDX 56 77 60 78 63 79 57 80 58 81 61 82 59 83 38 84 39 85 47 86
REMARK SMILES IDX 40 87 41 88 45 89 48 90 42 91 43 92 46 93 44 94
REMARK H PARENT 5 5 9 28 68 47 36 58
REMARK Flexibility Score: inf
ROOT
ATOM      1  C   UNL A   1      31.915  30.524  25.900  1.00  0.00     0.117 C 
ENDROOT
BRANCH   1   2
ATOM      2  N   UNL A   1      31.773  29.429  26.842  1.00  0.00    -0.356 N 
ATOM      3  C   UNL A   1      31.645  28.084  26.637  1.00  0.00     0.227 C 
ATOM      4  O   UNL A   1      31.402  27.401  27.634  1.00  0.00    -0.274 OA
ATOM      5  H   UNL A   1      31.770  29.700  27.789  1.00  0.00     0.163 HD
BRANCH   3   6
ATOM      6  C   UNL A   1      31.827  27.488  25.227  1.00  0.00     0.105 C 
ATOM      7  C   UNL A   1      30.568  27.750  24.391  1.00  0.00     0.023 C 
BRANCH   6   8
ATOM      8  C   UNL A   1      32.231  26.006  25.261  1.00  0.00    -0.036 A 
ATOM      9  C   UNL A   1      31.252  25.006  25.099  1.00  0.00     0.005 A 
ATOM     10  C   UNL A   1      33.556  25.591  25.459  1.00  0.00     0.005 A 
ATOM     11  C   UNL A   1      31.596  23.646  25.092  1.00  0.00     0.009 A 
ATOM     12  C   UNL A   1      33.897  24.238  25.466  1.00  0.00     0.009 A 
ATOM     13  C   UNL A   1      32.925  23.255  25.269  1.00  0.00    -0.018 A 
BRANCH  13  14
ATOM     14  C   UNL A   1      33.355  21.847  25.220  1.00  0.00    -0.011 A 
ATOM     15  C   UNL A   1      34.752  21.459  25.238  1.00  0.00     0.027 A 
ATOM     16  C   UNL A   1      32.415  20.906  25.026  1.00  0.00     0.080 A 
ATOM     17  C   UNL A   1      35.108  20.191  24.999  1.00  0.00     0.095 A 
ATOM     18  C   UNL A   1      32.795  19.485  24.789  1.00  0.00     0.255 A 
ATOM     19  N   UNL A   1      34.156  19.219  24.762  1.00  0.00    -0.258 N 
ATOM     20  O   UNL A   1      31.903  18.661  24.608  1.00  0.00    -0.269 OA
BRANCH  19  21
ATOM     21  C   UNL A   1      34.551  17.872  24.442  1.00  0.00     0.451 C 
ATOM     22  F   UNL A   1      34.262  17.563  23.155  1.00  0.00    -0.185 F 
ATOM     23  F   UNL A   1      35.885  17.703  24.625  1.00  0.00    -0.185 F 
ENDBRANCH  19  21
ENDBRANCH  13  14
ENDBRANCH   6   8
ENDBRANCH   3   6
ENDBRANCH   1   2
BRANCH   1  24
ATOM     24  C   UNL A   1      31.555  31.867  26.541  1.00  0.00     0.042 C 
BRANCH  24  25
ATOM     25  C   UNL A   1      32.697  32.525  27.315  1.00  0.00     0.118 C 
BRANCH  25  26
ATOM     26  N   UNL A   1      32.440  33.926  27.611  1.00  0.00    -0.352 N 
ATOM     27  C   UNL A   1      33.023  34.759  28.533  1.00  0.00     0.251 C 
ATOM     28  H   UNL A   1      31.736  34.343  27.064  1.00  0.00     0.163 HD
ATOM     29  O   UNL A   1      32.525  35.864  28.751  1.00  0.00    -0.269 OA
BRANCH  27  30
ATOM     30  C   UNL A   1      34.219  34.337  29.294  1.00  0.00     0.039 A 
ATOM     31  C   UNL A   1      34.043  33.774  30.562  1.00  0.00     0.014 A 
ATOM     32  C   UNL A   1      35.509  34.510  28.784  1.00  0.00     0.014 A 
ATOM     33  C   UNL A   1      35.146  33.301  31.276  1.00  0.00     0.010 A 
ATOM     34  C   UNL A   1      36.604  33.981  29.467  1.00  0.00     0.010 A 
ATOM     35  C   UNL A   1      36.432  33.352  30.710  1.00  0.00    -0.014 A 
BRANCH  35  36
ATOM     36  C   UNL A   1      37.587  32.688  31.369  1.00  0.00     0.031 A 
ATOM     37  C   UNL A   1      38.270  31.512  30.730  1.00  0.00     0.074 A 
ATOM     38  C   UNL A   1      37.965  33.101  32.597  1.00  0.00     0.049 A 
ATOM     39  N   UNL A   1      39.227  30.755  31.205  1.00  0.00    -0.248 NA
ATOM     40  C   UNL A   1      37.808  31.123  29.389  1.00  0.00     0.031 C 
ATOM     41  C   UNL A   1      37.350  34.202  33.342  1.00  0.00     0.029 A 
ATOM     42  N   UNL A   1      38.938  32.632  33.445  1.00  0.00    -0.354 N 
ATOM     43  C   UNL A   1      39.471  29.794  30.233  1.00  0.00     0.074 A 
ATOM     44  C   UNL A   1      38.541  30.043  29.151  1.00  0.00     0.031 C 
ATOM     45  C   UNL A   1      37.962  34.327  34.530  1.00  0.00     0.029 A 
ATOM     46  C   UNL A   1      38.979  33.287  34.653  1.00  0.00     0.049 A 
ATOM     47  H   UNL A   1      39.547  31.896  33.210  1.00  0.00     0.167 HD
ATOM     48  C   UNL A   1      40.396  28.805  30.241  1.00  0.00     0.037 A 
ATOM     49  C   UNL A   1      39.732  33.061  35.747  1.00  0.00     0.037 A 
ATOM     50  C   UNL A   1      41.340  28.581  31.305  1.00  0.00     0.049 A 
ATOM     51  C   UNL A   1      40.732  31.937  35.731  1.00  0.00     0.074 A 
ATOM     52  C   UNL A   1      42.378  27.666  31.355  1.00  0.00     0.029 A 
ATOM     53  N   UNL A   1      41.353  29.267  32.509  1.00  0.00    -0.354 N 
ATOM     54  N   UNL A   1      41.017  31.098  34.766  1.00  0.00    -0.248 NA
ATOM     55  C   UNL A   1      41.513  31.726  36.958  1.00  0.00     0.031 C 
ATOM     56  C   UNL A   1      42.982  27.758  32.612  1.00  0.00     0.029 A 
ATOM     57  C   UNL A   1      42.354  28.765  33.326  1.00  0.00     0.049 A 
ATOM     58  H   UNL A   1      40.744  30.003  32.749  1.00  0.00     0.167 HD
ATOM     59  C   UNL A   1      42.018  30.274  35.261  1.00  0.00     0.074 A 
ATOM     60  C   UNL A   1      42.312  30.731  36.602  1.00  0.00     0.031 C 
ATOM     61  C   UNL A   1      42.635  29.227  34.660  1.00  0.00     0.037 A 
BRANCH  48  62
ATOM     62  C   UNL A   1      40.451  27.876  29.064  1.00  0.00     0.064 A 
ATOM     63  C   UNL A   1      39.669  26.713  29.008  1.00  0.00     0.173 A 
ATOM     64  C   UNL A   1      41.215  28.210  27.935  1.00  0.00     0.173 A 
ATOM     65  F   UNL A   1      38.926  26.348  30.063  1.00  0.00    -0.203 F 
ATOM     66  C   UNL A   1      39.657  25.914  27.867  1.00  0.00     0.198 A 
ATOM     67  C   UNL A   1      41.181  27.423  26.788  1.00  0.00     0.198 A 
ATOM     68  F   UNL A   1      41.973  29.317  27.935  1.00  0.00    -0.203 F 
ATOM     69  F   UNL A   1      38.918  24.796  27.843  1.00  0.00    -0.200 F 
ATOM     70  C   UNL A   1      40.403  26.276  26.755  1.00  0.00     0.200 A 
ATOM     71  F   UNL A   1      41.889  27.782  25.708  1.00  0.00    -0.200 F 
ATOM     72  F   UNL A   1      40.370  25.518  25.649  1.00  0.00    -0.200 F 
ENDBRANCH  48  62
BRANCH  49  73
ATOM     73  C   UNL A   1      39.558  33.899  36.964  1.00  0.00     0.064 A 
ATOM     74  C   UNL A   1      38.757  33.466  38.030  1.00  0.00     0.173 A 
ATOM     75  C   UNL A   1      40.154  35.164  37.069  1.00  0.00     0.173 A 
ATOM     76  F   UNL A   1      38.146  32.273  37.967  1.00  0.00    -0.203 F 
ATOM     77  C   UNL A   1      38.531  34.281  39.137  1.00  0.00     0.198 A 
ATOM     78  C   UNL A   1      39.955  35.964  38.192  1.00  0.00     0.198 A 
ATOM     79  F   UNL A   1      40.933  35.626  36.079  1.00  0.00    -0.203 F 
ATOM     80  F   UNL A   1      37.709  33.868  40.113  1.00  0.00    -0.200 F 
ATOM     81  C   UNL A   1      39.133  35.528  39.219  1.00  0.00     0.200 A 
ATOM     82  F   UNL A   1      40.550  37.161  38.274  1.00  0.00    -0.200 F 
ATOM     83  F   UNL A   1      38.911  36.312  40.283  1.00  0.00    -0.200 F 
ENDBRANCH  49  73
BRANCH  61  84
ATOM     84  C   UNL A   1      43.696  28.512  35.444  1.00  0.00     0.064 A 
ATOM     85  C   UNL A   1      43.375  27.462  36.318  1.00  0.00     0.173 A 
ATOM     86  C   UNL A   1      45.048  28.850  35.292  1.00  0.00     0.173 A 
ATOM     87  F   UNL A   1      42.093  27.114  36.513  1.00  0.00    -0.203 F 
ATOM     88  C   UNL A   1      44.369  26.792  37.026  1.00  0.00     0.198 A 
ATOM     89  C   UNL A   1      46.041  28.156  35.977  1.00  0.00     0.198 A 
ATOM     90  F   UNL A   1      45.409  29.843  34.465  1.00  0.00    -0.203 F 
ATOM     91  F   UNL A   1      44.035  25.823  37.890  1.00  0.00    -0.200 F 
ATOM     92  C   UNL A   1      45.701  27.134  36.849  1.00  0.00     0.200 A 
ATOM     93  F   UNL A   1      47.329  28.479  35.795  1.00  0.00    -0.200 F 
ATOM     94  F   UNL A   1      46.657  26.480  37.524  1.00  0.00    -0.200 F 
ENDBRANCH  61  84
ENDBRANCH  35  36
ENDBRANCH  27  30
ENDBRANCH  25  26
ENDBRANCH  24  25
ENDBRANCH   1  24
TORSDOF 13
ENDMDL
MODEL 3
REMARK VINA RESULT:     -13.0      5.816     11.504
REMARK SMILES C[C@@H](C(=O)NCCCNC(=O)c1ccc(-c2c3nc(c(-c4c(F)c(F)c(F)c(F)c4F)c4ccc([nH]4)c(-c4c(F)c(F)c(F)c(F)c4F)c4nc(c(-c5c(F)c(F)c(F)c(F)c5F)c5ccc2[nH]5)C=C4)C=C3)cc1)c1ccc(-c2ccn(C(F)F)c(=O)c2)cc1
REMARK SMILES IDX 6 1 5 2 3 3 4 4 2 6 1 7 75 8 76 9 90 10 77 11 89 12 78 13
REMARK SMILES IDX 79 14 80 15 88 16 81 17 86 18 82 19 87 20 83 21 84 22 85 23
REMARK SMILES IDX 7 24 8 25 9 26 10 27 11 29 12 30 13 31 74 32 14 33 73 34
REMARK SMILES IDX 15 35 16 36 17 37 67 38 18 39 72 40 66 41 68 42 19 43 71 44
REMARK SMILES IDX 65 45 64 46 20 48 52 49 32 50 51 51 33 52 36 53 50 54 69 55
REMARK SMILES IDX 34 56 35 57 49 59 70 60 37 61 21 62 22 63 30 64 23 65 24 66
REMARK SMILES IDX 28 67 31 68 25 69 26 70 29 71 27 72 53 73 54 74 62 75 55 76
REMARK SMILES IDX 56 77 60 78 63 79 57 80 58 81 61 82 59 83 38 84 39 85 47 86
REMARK SMILES IDX 40 87 41 88 45 89 48 90 42 91 43 92 46 93 44 94
REMARK H PARENT 5 5 9 28 68 47 36 58
REMARK Flexibility Score: inf
ROOT
ATOM      1  C   UNL A   1      36.825  20.731  25.126  1.00  0.00     0.117 C 
ENDROOT
BRANCH   1   2
ATOM      2  N   UNL A   1      36.865  21.778  24.121  1.00  0.00    -0.356 N 
ATOM      3  C   UNL A   1      35.891  22.625  23.673  1.00  0.00     0.227 C 
ATOM      4  O   UNL A   1      36.183  23.327  22.702  1.00  0.00    -0.274 OA
ATOM      5  H   UNL A   1      37.742  21.899  23.690  1.00  0.00     0.163 HD
BRANCH   3   6
ATOM      6  C   UNL A   1      34.525  22.690  24.384  1.00  0.00     0.105 C 
ATOM      7  C   UNL A   1      33.663  21.497  23.952  1.00  0.00     0.023 C 
BRANCH   6   8
ATOM      8  C   UNL A   1      33.823  24.043  24.190  1.00  0.00    -0.036 A 
ATOM      9  C   UNL A   1      32.834  24.187  23.198  1.00  0.00     0.005 A 
ATOM     10  C   UNL A   1      34.134  25.170  24.965  1.00  0.00     0.005 A 
ATOM     11  C   UNL A   1      32.153  25.400  23.019  1.00  0.00     0.009 A 
ATOM     12  C   UNL A   1      33.466  26.382  24.780  1.00  0.00     0.009 A 
ATOM     13  C   UNL A   1      32.463  26.504  23.817  1.00  0.00    -0.018 A 
BRANCH  13  14
ATOM     14  C   UNL A   1      31.748  27.788  23.713  1.00  0.00    -0.011 A 
ATOM     15  C   UNL A   1      31.801  28.796  24.754  1.00  0.00     0.027 A 
ATOM     16  C   UNL A   1      30.919  27.968  22.669  1.00  0.00     0.080 A 
ATOM     17  C   UNL A   1      30.992  29.860  24.713  1.00  0.00     0.095 A 
ATOM     18  C   UNL A   1      30.034  29.163  22.594  1.00  0.00     0.255 A 
ATOM     19  N   UNL A   1      30.109  30.041  23.665  1.00  0.00    -0.258 N 
ATOM     20  O   UNL A   1      29.287  29.281  21.626  1.00  0.00    -0.269 OA
BRANCH  19  21
ATOM     21  C   UNL A   1      29.196  31.154  23.662  1.00  0.00     0.451 C 
ATOM     22  F   UNL A   1      27.921  30.750  23.874  1.00  0.00    -0.185 F 
ATOM     23  F   UNL A   1      29.521  32.048  24.630  1.00  0.00    -0.185 F 
ENDBRANCH  19  21
ENDBRANCH  13  14
ENDBRANCH   6   8
ENDBRANCH   3   6
ENDBRANCH   1   2
BRANCH   1  24
ATOM     24  C   UNL A   1      38.020  19.782  24.998  1.00  0.00     0.042 C 
BRANCH  24  25
ATOM     25  C   UNL A   1      39.194  20.117  25.916  1.00  0.00     0.118 C 
BRANCH  25  26
ATOM     26  N   UNL A   1      40.221  19.087  25.913  1.00  0.00    -0.352 N 
ATOM     27  C   UNL A   1      41.584  19.192  26.035  1.00  0.00     0.251 C 
ATOM     28  H   UNL A   1      39.886  18.168  25.806  1.00  0.00     0.163 HD
ATOM     29  O   UNL A   1      42.289  18.206  25.817  1.00  0.00    -0.269 OA
BRANCH  27  30
ATOM     30  C   UNL A   1      42.221  20.478  26.393  1.00  0.00     0.039 A 
ATOM     31  C   UNL A   1      42.742  21.275  25.369  1.00  0.00     0.014 A 
ATOM     32  C   UNL A   1      42.331  20.895  27.722  1.00  0.00     0.014 A 
ATOM     33  C   UNL A   1      43.287  22.526  25.666  1.00  0.00     0.010 A 
ATOM     34  C   UNL A   1      42.816  22.171  28.014  1.00  0.00     0.010 A 
ATOM     35  C   UNL A   1      43.279  23.008  26.986  1.00  0.00    -0.014 A 
BRANCH  35  36
ATOM     36  C   UNL A   1      43.680  24.406  27.296  1.00  0.00     0.031 A 
ATOM     37  C   UNL A   1      42.667  25.417  27.752  1.00  0.00     0.074 A 
ATOM     38  C   UNL A   1      44.957  24.782  27.079  1.00  0.00     0.049 A 
ATOM     39  N   UNL A   1      42.821  26.698  27.974  1.00  0.00    -0.248 NA
ATOM     40  C   UNL A   1      41.295  24.932  27.972  1.00  0.00     0.031 C 
ATOM     41  C   UNL A   1      46.024  23.904  26.594  1.00  0.00     0.029 A 
ATOM     42  N   UNL A   1      45.571  26.003  27.216  1.00  0.00    -0.354 N 
ATOM     43  C   UNL A   1      41.570  27.174  28.342  1.00  0.00     0.074 A 
ATOM     44  C   UNL A   1      40.657  26.052  28.286  1.00  0.00     0.031 C 
ATOM     45  C   UNL A   1      47.159  24.611  26.478  1.00  0.00     0.029 A 
ATOM     46  C   UNL A   1      46.892  26.000  26.835  1.00  0.00     0.049 A 
ATOM     47  H   UNL A   1      45.109  26.803  27.553  1.00  0.00     0.167 HD
ATOM     48  C   UNL A   1      41.222  28.431  28.706  1.00  0.00     0.037 A 
ATOM     49  C   UNL A   1      47.783  27.008  26.756  1.00  0.00     0.037 A 
ATOM     50  C   UNL A   1      42.140  29.538  28.792  1.00  0.00     0.049 A 
ATOM     51  C   UNL A   1      47.355  28.398  27.143  1.00  0.00     0.074 A 
ATOM     52  C   UNL A   1      41.897  30.823  29.247  1.00  0.00     0.029 A 
ATOM     53  N   UNL A   1      43.469  29.497  28.402  1.00  0.00    -0.354 N 
ATOM     54  N   UNL A   1      46.193  28.813  27.583  1.00  0.00    -0.248 NA
ATOM     55  C   UNL A   1      48.363  29.461  27.021  1.00  0.00     0.031 C 
ATOM     56  C   UNL A   1      43.063  31.575  29.077  1.00  0.00     0.029 A 
ATOM     57  C   UNL A   1      44.047  30.746  28.565  1.00  0.00     0.049 A 
ATOM     58  H   UNL A   1      43.935  28.698  28.061  1.00  0.00     0.167 HD
ATOM     59  C   UNL A   1      46.334  30.176  27.805  1.00  0.00     0.074 A 
ATOM     60  C   UNL A   1      47.703  30.514  27.479  1.00  0.00     0.031 C 
ATOM     61  C   UNL A   1      45.410  31.069  28.234  1.00  0.00     0.037 A 
BRANCH  48  62
ATOM     62  C   UNL A   1      39.787  28.699  29.050  1.00  0.00     0.064 A 
ATOM     63  C   UNL A   1      39.310  28.576  30.363  1.00  0.00     0.173 A 
ATOM     64  C   UNL A   1      38.905  29.187  28.073  1.00  0.00     0.173 A 
ATOM     65  F   UNL A   1      40.111  28.108  31.331  1.00  0.00    -0.203 F 
ATOM     66  C   UNL A   1      37.999  28.923  30.683  1.00  0.00     0.198 A 
ATOM     67  C   UNL A   1      37.604  29.558  28.403  1.00  0.00     0.198 A 
ATOM     68  F   UNL A   1      39.315  29.333  26.804  1.00  0.00    -0.203 F 
ATOM     69  F   UNL A   1      37.558  28.779  31.941  1.00  0.00    -0.200 F 
ATOM     70  C   UNL A   1      37.152  29.425  29.707  1.00  0.00     0.200 A 
ATOM     71  F   UNL A   1      36.792  30.057  27.461  1.00  0.00    -0.200 F 
ATOM     72  F   UNL A   1      35.900  29.782  30.023  1.00  0.00    -0.200 F 
ENDBRANCH  48  62
BRANCH  49  73
ATOM     73  C   UNL A   1      49.165  26.753  26.268  1.00  0.00     0.064 A 
ATOM     74  C   UNL A   1      50.189  26.394  27.155  1.00  0.00     0.173 A 
ATOM     75  C   UNL A   1      49.499  26.902  24.914  1.00  0.00     0.173 A 
ATOM     76  F   UNL A   1      49.926  26.262  28.464  1.00  0.00    -0.203 F 
ATOM     77  C   UNL A   1      51.500  26.229  26.713  1.00  0.00     0.198 A 
ATOM     78  C   UNL A   1      50.803  26.703  24.467  1.00  0.00     0.198 A 
ATOM     79  F   UNL A   1      48.556  27.241  24.021  1.00  0.00    -0.203 F 
ATOM     80  F   UNL A   1      52.471  25.949  27.593  1.00  0.00    -0.200 F 
ATOM     81  C   UNL A   1      51.805  26.380  25.368  1.00  0.00     0.200 A 
ATOM     82  F   UNL A   1      51.090  26.835  23.165  1.00  0.00    -0.200 F 
ATOM     83  F   UNL A   1      53.067  26.225  24.944  1.00  0.00    -0.200 F 
ENDBRANCH  49  73
BRANCH  61  84
ATOM     84  C   UNL A   1      45.852  32.496  28.387  1.00  0.00     0.064 A 
ATOM     85  C   UNL A   1      46.436  32.956  29.576  1.00  0.00     0.173 A 
ATOM     86  C   UNL A   1      45.729  33.401  27.323  1.00  0.00     0.173 A 
ATOM     87  F   UNL A   1      46.558  32.134  30.631  1.00  0.00    -0.203 F 
ATOM     88  C   UNL A   1      46.860  34.276  29.701  1.00  0.00     0.198 A 
ATOM     89  C   UNL A   1      46.183  34.711  27.440  1.00  0.00     0.198 A 
ATOM     90  F   UNL A   1      45.182  33.009  26.161  1.00  0.00    -0.203 F 
ATOM     91  F   UNL A   1      47.373  34.706  30.863  1.00  0.00    -0.200 F 
ATOM     92  C   UNL A   1      46.741  35.150  28.631  1.00  0.00     0.200 A 
ATOM     93  F   UNL A   1      46.079  35.550  26.400  1.00  0.00    -0.200 F 
ATOM     94  F   UNL A   1      47.159  36.417  28.750  1.00  0.00    -0.200 F 
ENDBRANCH  61  84
ENDBRANCH  35  36
ENDBRANCH  27  30
ENDBRANCH  25  26
ENDBRANCH  24  25
ENDBRANCH   1  24
TORSDOF 13
ENDMDL
