MODEL 1
REMARK VINA RESULT:     -14.3      0.000      0.000
REMARK SMILES O=C(NCCCNC(=O)c1nnn(-c2ccc(C(F)(F)F)cc2)c1-c1cccc(Cl)c1)c1ccc(-c2c3nc(c(-c4c(F)c(F)c(F)c(F)c4F)c4ccc([nH]4)c(-c4c(F)c(F)c(F)c(F)c4F)c4nc(c(-c5c(F)c(F)c(F)c(F)c5F)c5ccc2[nH]5)C=C4)C=C3)cc1
REMARK SMILES IDX 5 1 4 2 3 3 1 4 2 5 32 7 33 8 94 9 34 10 93 11 35 12 36 13
REMARK SMILES IDX 37 14 87 15 38 16 92 17 86 18 88 19 39 20 91 21 85 22 84 23
REMARK SMILES IDX 40 25 72 26 52 27 71 28 53 29 56 30 70 31 89 32 54 33 55 34
REMARK SMILES IDX 69 36 90 37 57 38 41 39 42 40 50 41 43 42 44 43 48 44 51 45
REMARK SMILES IDX 45 46 46 47 49 48 47 49 73 50 74 51 82 52 75 53 76 54 80 55
REMARK SMILES IDX 83 56 77 57 78 58 81 59 79 60 58 61 59 62 67 63 60 64 61 65
REMARK SMILES IDX 65 66 68 67 62 68 63 69 66 70 64 71 6 72 7 73 8 74 9 76
REMARK SMILES IDX 10 77 11 78 24 79 12 80 13 81 25 82 26 83 31 84 27 85 29 86
REMARK SMILES IDX 28 87 30 88 14 89 15 90 23 91 16 92 22 93 17 94 18 95 19 96
REMARK SMILES IDX 20 97 21 98
REMARK H PARENT 3 6 88 24 56 35 7 75
REMARK Flexibility Score: inf
ROOT
ATOM      1  C   UNL A   1      32.829  28.642  27.272  1.00  0.00     0.042 C 
ENDROOT
BRANCH   1   2
ATOM      2  C   UNL A   1      33.469  29.964  26.855  1.00  0.00     0.118 C 
BRANCH   2   3
ATOM      3  N   UNL A   1      33.706  30.902  27.935  1.00  0.00    -0.352 N 
ATOM      4  O   UNL A   1      34.652  32.396  29.250  1.00  0.00    -0.269 OA
ATOM      5  C   UNL A   1      34.818  31.382  28.568  1.00  0.00     0.251 C 
ATOM      6  H   UNL A   1      32.873  31.281  28.296  1.00  0.00     0.163 HD
BRANCH   5   7
ATOM      7  C   UNL A   1      36.166  30.747  28.565  1.00  0.00     0.039 A 
ATOM      8  C   UNL A   1      36.446  29.419  28.248  1.00  0.00     0.014 A 
ATOM      9  C   UNL A   1      37.224  31.562  29.017  1.00  0.00     0.014 A 
ATOM     10  C   UNL A   1      37.717  28.890  28.477  1.00  0.00     0.010 A 
ATOM     11  C   UNL A   1      38.497  31.047  29.231  1.00  0.00     0.010 A 
ATOM     12  C   UNL A   1      38.733  29.696  29.002  1.00  0.00    -0.014 A 
BRANCH  12  13
ATOM     13  C   UNL A   1      40.073  29.127  29.147  1.00  0.00     0.031 A 
ATOM     14  C   UNL A   1      40.536  28.977  30.560  1.00  0.00     0.074 A 
ATOM     15  C   UNL A   1      40.788  28.617  28.123  1.00  0.00     0.049 A 
ATOM     16  N   UNL A   1      41.606  29.450  31.112  1.00  0.00    -0.248 NA
ATOM     17  C   UNL A   1      39.642  28.277  31.496  1.00  0.00     0.031 C 
ATOM     18  C   UNL A   1      40.353  28.410  26.739  1.00  0.00     0.029 A 
ATOM     19  N   UNL A   1      42.041  28.071  28.133  1.00  0.00    -0.354 N 
ATOM     20  C   UNL A   1      41.605  28.978  32.426  1.00  0.00     0.074 A 
ATOM     21  C   UNL A   1      40.317  28.376  32.641  1.00  0.00     0.031 C 
ATOM     22  C   UNL A   1      41.234  27.599  26.110  1.00  0.00     0.029 A 
ATOM     23  C   UNL A   1      42.353  27.330  26.999  1.00  0.00     0.049 A 
ATOM     24  H   UNL A   1      42.670  28.193  28.882  1.00  0.00     0.167 HD
ATOM     25  C   UNL A   1      42.747  28.936  33.168  1.00  0.00     0.037 A 
ATOM     26  C   UNL A   1      43.418  26.506  26.828  1.00  0.00     0.037 A 
ATOM     27  C   UNL A   1      43.731  29.855  32.657  1.00  0.00     0.049 A 
ATOM     28  C   UNL A   1      44.437  26.865  27.841  1.00  0.00     0.074 A 
ATOM     29  C   UNL A   1      43.787  31.223  32.473  1.00  0.00     0.029 A 
ATOM     30  N   UNL A   1      44.784  29.351  31.938  1.00  0.00    -0.354 N 
ATOM     31  N   UNL A   1      45.120  27.974  27.835  1.00  0.00    -0.248 NA
ATOM     32  C   UNL A   1      44.403  26.156  29.112  1.00  0.00     0.031 C 
ATOM     33  C   UNL A   1      44.540  31.405  31.275  1.00  0.00     0.029 A 
ATOM     34  C   UNL A   1      44.936  30.143  30.834  1.00  0.00     0.049 A 
ATOM     35  H   UNL A   1      45.329  28.564  32.173  1.00  0.00     0.167 HD
ATOM     36  C   UNL A   1      45.222  28.326  29.170  1.00  0.00     0.074 A 
ATOM     37  C   UNL A   1      44.852  27.125  29.913  1.00  0.00     0.031 C 
ATOM     38  C   UNL A   1      45.322  29.635  29.542  1.00  0.00     0.037 A 
BRANCH  25  39
ATOM     39  C   UNL A   1      43.121  27.793  34.093  1.00  0.00     0.064 A 
ATOM     40  C   UNL A   1      43.419  26.533  33.529  1.00  0.00     0.173 A 
ATOM     41  C   UNL A   1      42.871  27.783  35.483  1.00  0.00     0.173 A 
ATOM     42  F   UNL A   1      43.694  26.416  32.220  1.00  0.00    -0.203 F 
ATOM     43  C   UNL A   1      43.329  25.349  34.266  1.00  0.00     0.198 A 
ATOM     44  C   UNL A   1      42.832  26.603  36.226  1.00  0.00     0.198 A 
ATOM     45  F   UNL A   1      42.551  28.887  36.164  1.00  0.00    -0.203 F 
ATOM     46  F   UNL A   1      43.464  24.169  33.646  1.00  0.00    -0.200 F 
ATOM     47  C   UNL A   1      43.016  25.384  35.611  1.00  0.00     0.200 A 
ATOM     48  F   UNL A   1      42.524  26.657  37.529  1.00  0.00    -0.200 F 
ATOM     49  F   UNL A   1      42.845  24.250  36.301  1.00  0.00    -0.200 F 
ENDBRANCH  25  39
BRANCH  26  50
ATOM     50  C   UNL A   1      43.503  25.244  26.051  1.00  0.00     0.064 A 
ATOM     51  C   UNL A   1      44.576  24.995  25.177  1.00  0.00     0.173 A 
ATOM     52  C   UNL A   1      42.687  24.141  26.368  1.00  0.00     0.173 A 
ATOM     53  F   UNL A   1      45.432  25.976  24.861  1.00  0.00    -0.203 F 
ATOM     54  C   UNL A   1      44.829  23.713  24.672  1.00  0.00     0.198 A 
ATOM     55  C   UNL A   1      42.936  22.867  25.858  1.00  0.00     0.198 A 
ATOM     56  F   UNL A   1      41.692  24.257  27.259  1.00  0.00    -0.203 F 
ATOM     57  F   UNL A   1      45.898  23.501  23.893  1.00  0.00    -0.200 F 
ATOM     58  C   UNL A   1      44.014  22.649  25.021  1.00  0.00     0.200 A 
ATOM     59  F   UNL A   1      42.162  21.839  26.235  1.00  0.00    -0.200 F 
ATOM     60  F   UNL A   1      44.291  21.411  24.588  1.00  0.00    -0.200 F 
ENDBRANCH  26  50
BRANCH  38  61
ATOM     61  C   UNL A   1      45.613  30.646  28.473  1.00  0.00     0.064 A 
ATOM     62  C   UNL A   1      44.629  31.235  27.659  1.00  0.00     0.173 A 
ATOM     63  C   UNL A   1      46.920  31.140  28.368  1.00  0.00     0.173 A 
ATOM     64  F   UNL A   1      43.339  30.891  27.775  1.00  0.00    -0.203 F 
ATOM     65  C   UNL A   1      44.953  32.240  26.750  1.00  0.00     0.198 A 
ATOM     66  C   UNL A   1      47.232  32.170  27.485  1.00  0.00     0.198 A 
ATOM     67  F   UNL A   1      47.888  30.655  29.161  1.00  0.00    -0.203 F 
ATOM     68  F   UNL A   1      43.999  32.779  25.977  1.00  0.00    -0.200 F 
ATOM     69  C   UNL A   1      46.253  32.711  26.670  1.00  0.00     0.200 A 
ATOM     70  F   UNL A   1      48.481  32.658  27.449  1.00  0.00    -0.200 F 
ATOM     71  F   UNL A   1      46.555  33.709  25.828  1.00  0.00    -0.200 F 
ENDBRANCH  38  61
ENDBRANCH  12  13
ENDBRANCH   5   7
ENDBRANCH   2   3
ENDBRANCH   1   2
BRANCH   1  72
ATOM     72  C   UNL A   1      33.089  27.464  26.343  1.00  0.00     0.118 C 
BRANCH  72  73
ATOM     73  N   UNL A   1      33.612  27.831  25.042  1.00  0.00    -0.351 N 
ATOM     74  C   UNL A   1      33.532  27.141  23.852  1.00  0.00     0.274 C 
ATOM     75  H   UNL A   1      34.089  28.691  25.004  1.00  0.00     0.163 HD
ATOM     76  O   UNL A   1      34.103  27.621  22.868  1.00  0.00    -0.267 OA
BRANCH  74  77
ATOM     77  C   UNL A   1      32.798  25.887  23.776  1.00  0.00     0.178 A 
ATOM     78  N   UNL A   1      31.462  25.849  23.455  1.00  0.00    -0.124 NA
ATOM     79  C   UNL A   1      33.257  24.587  23.953  1.00  0.00     0.108 A 
ATOM     80  N   UNL A   1      31.091  24.580  23.346  1.00  0.00    -0.061 NA
ATOM     81  N   UNL A   1      32.113  23.813  23.778  1.00  0.00    -0.212 N 
BRANCH  79  82
ATOM     82  C   UNL A   1      34.609  24.041  24.078  1.00  0.00     0.004 A 
ATOM     83  C   UNL A   1      35.130  23.250  23.034  1.00  0.00     0.010 A 
ATOM     84  C   UNL A   1      35.407  24.316  25.188  1.00  0.00     0.031 A 
ATOM     85  C   UNL A   1      36.425  22.742  23.097  1.00  0.00     0.002 A 
ATOM     86  C   UNL A   1      36.704  23.799  25.247  1.00  0.00     0.041 A 
ATOM     87  C   UNL A   1      37.214  23.019  24.209  1.00  0.00     0.020 A 
ATOM     88  Cl  UNL A   1      37.688  24.132  26.618  1.00  0.00    -0.084 Cl
ENDBRANCH  79  82
BRANCH  81  89
ATOM     89  C   UNL A   1      32.029  22.404  23.861  1.00  0.00     0.067 A 
ATOM     90  C   UNL A   1      31.976  21.646  22.690  1.00  0.00     0.029 A 
ATOM     91  C   UNL A   1      32.183  21.785  25.109  1.00  0.00     0.029 A 
ATOM     92  C   UNL A   1      32.218  20.270  22.766  1.00  0.00     0.015 A 
ATOM     93  C   UNL A   1      32.392  20.411  25.179  1.00  0.00     0.015 A 
ATOM     94  C   UNL A   1      32.459  19.647  24.005  1.00  0.00     0.056 A 
BRANCH  94  95
ATOM     95  C   UNL A   1      32.838  18.186  24.067  1.00  0.00     0.416 C 
ATOM     96  F   UNL A   1      32.663  17.546  22.880  1.00  0.00    -0.166 F 
ATOM     97  F   UNL A   1      34.146  18.011  24.402  1.00  0.00    -0.166 F 
ATOM     98  F   UNL A   1      32.124  17.478  24.986  1.00  0.00    -0.166 F 
ENDBRANCH  94  95
ENDBRANCH  81  89
ENDBRANCH  74  77
ENDBRANCH  72  73
ENDBRANCH   1  72
TORSDOF 13
ENDMDL
MODEL 2
REMARK VINA RESULT:     -14.3      3.929      8.630
REMARK SMILES O=C(NCCCNC(=O)c1nnn(-c2ccc(C(F)(F)F)cc2)c1-c1cccc(Cl)c1)c1ccc(-c2c3nc(c(-c4c(F)c(F)c(F)c(F)c4F)c4ccc([nH]4)c(-c4c(F)c(F)c(F)c(F)c4F)c4nc(c(-c5c(F)c(F)c(F)c(F)c5F)c5ccc2[nH]5)C=C4)C=C3)cc1
REMARK SMILES IDX 5 1 4 2 3 3 1 4 2 5 32 7 33 8 94 9 34 10 93 11 35 12 36 13
REMARK SMILES IDX 37 14 87 15 38 16 92 17 86 18 88 19 39 20 91 21 85 22 84 23
REMARK SMILES IDX 40 25 72 26 52 27 71 28 53 29 56 30 70 31 89 32 54 33 55 34
REMARK SMILES IDX 69 36 90 37 57 38 41 39 42 40 50 41 43 42 44 43 48 44 51 45
REMARK SMILES IDX 45 46 46 47 49 48 47 49 73 50 74 51 82 52 75 53 76 54 80 55
REMARK SMILES IDX 83 56 77 57 78 58 81 59 79 60 58 61 59 62 67 63 60 64 61 65
REMARK SMILES IDX 65 66 68 67 62 68 63 69 66 70 64 71 6 72 7 73 8 74 9 76
REMARK SMILES IDX 10 77 11 78 24 79 12 80 13 81 25 82 26 83 31 84 27 85 29 86
REMARK SMILES IDX 28 87 30 88 14 89 15 90 23 91 16 92 22 93 17 94 18 95 19 96
REMARK SMILES IDX 20 97 21 98
REMARK H PARENT 3 6 88 24 56 35 7 75
REMARK Flexibility Score: inf
ROOT
ATOM      1  C   UNL A   1      36.788  22.821  24.622  1.00  0.00     0.042 C 
ENDROOT
BRANCH   1   2
ATOM      2  C   UNL A   1      37.206  21.862  25.735  1.00  0.00     0.118 C 
BRANCH   2   3
ATOM      3  N   UNL A   1      38.602  21.472  25.722  1.00  0.00    -0.352 N 
ATOM      4  O   UNL A   1      40.697  21.143  26.319  1.00  0.00    -0.269 OA
ATOM      5  C   UNL A   1      39.732  21.910  26.354  1.00  0.00     0.251 C 
ATOM      6  H   UNL A   1      38.777  20.716  25.116  1.00  0.00     0.163 HD
BRANCH   5   7
ATOM      7  C   UNL A   1      39.911  23.242  26.998  1.00  0.00     0.039 A 
ATOM      8  C   UNL A   1      39.140  24.378  26.759  1.00  0.00     0.014 A 
ATOM      9  C   UNL A   1      41.026  23.359  27.853  1.00  0.00     0.014 A 
ATOM     10  C   UNL A   1      39.530  25.617  27.268  1.00  0.00     0.010 A 
ATOM     11  C   UNL A   1      41.410  24.587  28.378  1.00  0.00     0.010 A 
ATOM     12  C   UNL A   1      40.686  25.727  28.049  1.00  0.00    -0.014 A 
BRANCH  12  13
ATOM     13  C   UNL A   1      41.013  27.027  28.636  1.00  0.00     0.031 A 
ATOM     14  C   UNL A   1      42.233  27.676  28.067  1.00  0.00     0.074 A 
ATOM     15  C   UNL A   1      40.211  27.687  29.498  1.00  0.00     0.049 A 
ATOM     16  N   UNL A   1      43.291  28.088  28.688  1.00  0.00    -0.248 NA
ATOM     17  C   UNL A   1      42.313  27.805  26.604  1.00  0.00     0.031 C 
ATOM     18  C   UNL A   1      38.852  27.330  29.912  1.00  0.00     0.029 A 
ATOM     19  N   UNL A   1      40.411  28.891  30.112  1.00  0.00    -0.354 N 
ATOM     20  C   UNL A   1      44.107  28.672  27.718  1.00  0.00     0.074 A 
ATOM     21  C   UNL A   1      43.517  28.354  26.445  1.00  0.00     0.031 C 
ATOM     22  C   UNL A   1      38.279  28.390  30.526  1.00  0.00     0.029 A 
ATOM     23  C   UNL A   1      39.263  29.451  30.660  1.00  0.00     0.049 A 
ATOM     24  H   UNL A   1      41.294  29.324  30.162  1.00  0.00     0.167 HD
ATOM     25  C   UNL A   1      45.092  29.552  28.052  1.00  0.00     0.037 A 
ATOM     26  C   UNL A   1      39.115  30.717  31.129  1.00  0.00     0.037 A 
ATOM     27  C   UNL A   1      45.489  29.387  29.427  1.00  0.00     0.049 A 
ATOM     28  C   UNL A   1      40.466  31.262  31.397  1.00  0.00     0.074 A 
ATOM     29  C   UNL A   1      46.026  28.354  30.171  1.00  0.00     0.029 A 
ATOM     30  N   UNL A   1      45.056  30.308  30.346  1.00  0.00    -0.354 N 
ATOM     31  N   UNL A   1      41.247  30.851  32.356  1.00  0.00    -0.248 NA
ATOM     32  C   UNL A   1      41.122  31.998  30.326  1.00  0.00     0.031 C 
ATOM     33  C   UNL A   1      45.435  28.484  31.463  1.00  0.00     0.029 A 
ATOM     34  C   UNL A   1      44.617  29.612  31.439  1.00  0.00     0.049 A 
ATOM     35  H   UNL A   1      45.060  31.287  30.239  1.00  0.00     0.167 HD
ATOM     36  C   UNL A   1      42.517  30.880  31.804  1.00  0.00     0.074 A 
ATOM     37  C   UNL A   1      42.392  31.685  30.593  1.00  0.00     0.031 C 
ATOM     38  C   UNL A   1      43.483  30.017  32.231  1.00  0.00     0.037 A 
BRANCH  25  39
ATOM     39  C   UNL A   1      45.411  30.813  27.271  1.00  0.00     0.064 A 
ATOM     40  C   UNL A   1      46.757  31.085  26.944  1.00  0.00     0.173 A 
ATOM     41  C   UNL A   1      44.528  31.906  27.135  1.00  0.00     0.173 A 
ATOM     42  F   UNL A   1      47.689  30.121  27.016  1.00  0.00    -0.203 F 
ATOM     43  C   UNL A   1      47.203  32.376  26.648  1.00  0.00     0.198 A 
ATOM     44  C   UNL A   1      44.970  33.184  26.789  1.00  0.00     0.198 A 
ATOM     45  F   UNL A   1      43.227  31.821  27.427  1.00  0.00    -0.203 F 
ATOM     46  F   UNL A   1      48.515  32.609  26.503  1.00  0.00    -0.200 F 
ATOM     47  C   UNL A   1      46.311  33.429  26.590  1.00  0.00     0.200 A 
ATOM     48  F   UNL A   1      44.089  34.193  26.741  1.00  0.00    -0.200 F 
ATOM     49  F   UNL A   1      46.744  34.680  26.392  1.00  0.00    -0.200 F 
ENDBRANCH  25  39
BRANCH  26  50
ATOM     50  C   UNL A   1      37.917  31.592  31.086  1.00  0.00     0.064 A 
ATOM     51  C   UNL A   1      37.383  32.040  29.866  1.00  0.00     0.173 A 
ATOM     52  C   UNL A   1      37.106  31.766  32.224  1.00  0.00     0.173 A 
ATOM     53  F   UNL A   1      38.066  31.868  28.726  1.00  0.00    -0.203 F 
ATOM     54  C   UNL A   1      36.104  32.607  29.788  1.00  0.00     0.198 A 
ATOM     55  C   UNL A   1      35.836  32.339  32.146  1.00  0.00     0.198 A 
ATOM     56  F   UNL A   1      37.488  31.294  33.419  1.00  0.00    -0.203 F 
ATOM     57  F   UNL A   1      35.603  32.965  28.597  1.00  0.00    -0.200 F 
ATOM     58  C   UNL A   1      35.329  32.747  30.927  1.00  0.00     0.200 A 
ATOM     59  F   UNL A   1      35.081  32.432  33.250  1.00  0.00    -0.200 F 
ATOM     60  F   UNL A   1      34.082  33.233  30.844  1.00  0.00    -0.200 F 
ENDBRANCH  26  50
BRANCH  38  61
ATOM     61  C   UNL A   1      43.228  29.249  33.494  1.00  0.00     0.064 A 
ATOM     62  C   UNL A   1      43.606  29.693  34.774  1.00  0.00     0.173 A 
ATOM     63  C   UNL A   1      42.448  28.088  33.416  1.00  0.00     0.173 A 
ATOM     64  F   UNL A   1      44.263  30.848  34.939  1.00  0.00    -0.203 F 
ATOM     65  C   UNL A   1      43.253  28.978  35.917  1.00  0.00     0.198 A 
ATOM     66  C   UNL A   1      42.066  27.398  34.562  1.00  0.00     0.198 A 
ATOM     67  F   UNL A   1      42.012  27.650  32.225  1.00  0.00    -0.203 F 
ATOM     68  F   UNL A   1      43.633  29.416  37.126  1.00  0.00    -0.200 F 
ATOM     69  C   UNL A   1      42.478  27.836  35.809  1.00  0.00     0.200 A 
ATOM     70  F   UNL A   1      41.272  26.323  34.457  1.00  0.00    -0.200 F 
ATOM     71  F   UNL A   1      42.101  27.174  36.912  1.00  0.00    -0.200 F 
ENDBRANCH  38  61
ENDBRANCH  12  13
ENDBRANCH   5   7
ENDBRANCH   2   3
ENDBRANCH   1   2
BRANCH   1  72
ATOM     72  C   UNL A   1      35.487  23.574  24.857  1.00  0.00     0.118 C 
BRANCH  72  73
ATOM     73  N   UNL A   1      34.806  23.223  26.088  1.00  0.00    -0.351 N 
ATOM     74  C   UNL A   1      33.475  23.372  26.413  1.00  0.00     0.274 C 
ATOM     75  H   UNL A   1      35.372  22.825  26.788  1.00  0.00     0.163 HD
ATOM     76  O   UNL A   1      33.120  23.051  27.551  1.00  0.00    -0.267 OA
BRANCH  74  77
ATOM     77  C   UNL A   1      32.533  23.895  25.434  1.00  0.00     0.178 A 
ATOM     78  N   UNL A   1      31.878  23.072  24.548  1.00  0.00    -0.124 NA
ATOM     79  C   UNL A   1      32.104  25.202  25.236  1.00  0.00     0.108 A 
ATOM     80  N   UNL A   1      31.005  23.799  23.864  1.00  0.00    -0.061 NA
ATOM     81  N   UNL A   1      31.226  25.096  24.162  1.00  0.00    -0.212 N 
BRANCH  79  82
ATOM     82  C   UNL A   1      32.294  26.418  26.028  1.00  0.00     0.004 A 
ATOM     83  C   UNL A   1      31.227  26.899  26.815  1.00  0.00     0.010 A 
ATOM     84  C   UNL A   1      33.516  27.090  26.052  1.00  0.00     0.031 A 
ATOM     85  C   UNL A   1      31.377  28.031  27.610  1.00  0.00     0.002 A 
ATOM     86  C   UNL A   1      33.658  28.229  26.849  1.00  0.00     0.041 A 
ATOM     87  C   UNL A   1      32.599  28.698  27.627  1.00  0.00     0.020 A 
ATOM     88  Cl  UNL A   1      35.162  29.063  26.876  1.00  0.00    -0.084 Cl
ENDBRANCH  79  82
BRANCH  81  89
ATOM     89  C   UNL A   1      30.511  26.152  23.551  1.00  0.00     0.067 A 
ATOM     90  C   UNL A   1      29.157  26.327  23.842  1.00  0.00     0.029 A 
ATOM     91  C   UNL A   1      31.214  27.111  22.809  1.00  0.00     0.029 A 
ATOM     92  C   UNL A   1      28.545  27.538  23.501  1.00  0.00     0.015 A 
ATOM     93  C   UNL A   1      30.590  28.300  22.447  1.00  0.00     0.015 A 
ATOM     94  C   UNL A   1      29.263  28.546  22.830  1.00  0.00     0.056 A 
BRANCH  94  95
ATOM     95  C   UNL A   1      28.633  29.894  22.573  1.00  0.00     0.416 C 
ATOM     96  F   UNL A   1      29.132  30.871  23.376  1.00  0.00    -0.166 F 
ATOM     97  F   UNL A   1      28.833  30.317  21.294  1.00  0.00    -0.166 F 
ATOM     98  F   UNL A   1      27.283  29.906  22.758  1.00  0.00    -0.166 F 
ENDBRANCH  94  95
ENDBRANCH  81  89
ENDBRANCH  74  77
ENDBRANCH  72  73
ENDBRANCH   1  72
TORSDOF 13
ENDMDL
MODEL 3
REMARK VINA RESULT:     -13.4      1.783      2.601
REMARK SMILES O=C(NCCCNC(=O)c1nnn(-c2ccc(C(F)(F)F)cc2)c1-c1cccc(Cl)c1)c1ccc(-c2c3nc(c(-c4c(F)c(F)c(F)c(F)c4F)c4ccc([nH]4)c(-c4c(F)c(F)c(F)c(F)c4F)c4nc(c(-c5c(F)c(F)c(F)c(F)c5F)c5ccc2[nH]5)C=C4)C=C3)cc1
REMARK SMILES IDX 5 1 4 2 3 3 1 4 2 5 32 7 33 8 94 9 34 10 93 11 35 12 36 13
REMARK SMILES IDX 37 14 87 15 38 16 92 17 86 18 88 19 39 20 91 21 85 22 84 23
REMARK SMILES IDX 40 25 72 26 52 27 71 28 53 29 56 30 70 31 89 32 54 33 55 34
REMARK SMILES IDX 69 36 90 37 57 38 41 39 42 40 50 41 43 42 44 43 48 44 51 45
REMARK SMILES IDX 45 46 46 47 49 48 47 49 73 50 74 51 82 52 75 53 76 54 80 55
REMARK SMILES IDX 83 56 77 57 78 58 81 59 79 60 58 61 59 62 67 63 60 64 61 65
REMARK SMILES IDX 65 66 68 67 62 68 63 69 66 70 64 71 6 72 7 73 8 74 9 76
REMARK SMILES IDX 10 77 11 78 24 79 12 80 13 81 25 82 26 83 31 84 27 85 29 86
REMARK SMILES IDX 28 87 30 88 14 89 15 90 23 91 16 92 22 93 17 94 18 95 19 96
REMARK SMILES IDX 20 97 21 98
REMARK H PARENT 3 6 88 24 56 35 7 75
REMARK Flexibility Score: inf
ROOT
ATOM      1  C   UNL A   1      32.030  29.259  26.882  1.00  0.00     0.042 C 
ENDROOT
BRANCH   1   2
ATOM      2  C   UNL A   1      33.458  29.800  26.901  1.00  0.00     0.118 C 
BRANCH   2   3
ATOM      3  N   UNL A   1      33.725  30.802  27.915  1.00  0.00    -0.352 N 
ATOM      4  O   UNL A   1      34.705  32.373  29.109  1.00  0.00    -0.269 OA
ATOM      5  C   UNL A   1      34.854  31.320  28.485  1.00  0.00     0.251 C 
ATOM      6  H   UNL A   1      32.901  31.201  28.277  1.00  0.00     0.163 HD
BRANCH   5   7
ATOM      7  C   UNL A   1      36.203  30.687  28.482  1.00  0.00     0.039 A 
ATOM      8  C   UNL A   1      36.487  29.365  28.143  1.00  0.00     0.014 A 
ATOM      9  C   UNL A   1      37.256  31.496  28.955  1.00  0.00     0.014 A 
ATOM     10  C   UNL A   1      37.757  28.834  28.373  1.00  0.00     0.010 A 
ATOM     11  C   UNL A   1      38.528  30.978  29.169  1.00  0.00     0.010 A 
ATOM     12  C   UNL A   1      38.768  29.632  28.919  1.00  0.00    -0.014 A 
BRANCH  12  13
ATOM     13  C   UNL A   1      40.108  29.063  29.063  1.00  0.00     0.031 A 
ATOM     14  C   UNL A   1      40.569  28.909  30.476  1.00  0.00     0.074 A 
ATOM     15  C   UNL A   1      40.823  28.554  28.039  1.00  0.00     0.049 A 
ATOM     16  N   UNL A   1      41.639  29.381  31.031  1.00  0.00    -0.248 NA
ATOM     17  C   UNL A   1      39.674  28.208  31.410  1.00  0.00     0.031 C 
ATOM     18  C   UNL A   1      40.390  28.351  26.654  1.00  0.00     0.029 A 
ATOM     19  N   UNL A   1      42.076  28.008  28.049  1.00  0.00    -0.354 N 
ATOM     20  C   UNL A   1      41.637  28.906  32.343  1.00  0.00     0.074 A 
ATOM     21  C   UNL A   1      40.348  28.303  32.556  1.00  0.00     0.031 C 
ATOM     22  C   UNL A   1      41.271  27.541  26.024  1.00  0.00     0.029 A 
ATOM     23  C   UNL A   1      42.389  27.270  26.913  1.00  0.00     0.049 A 
ATOM     24  H   UNL A   1      42.705  28.128  28.798  1.00  0.00     0.167 HD
ATOM     25  C   UNL A   1      42.778  28.861  33.086  1.00  0.00     0.037 A 
ATOM     26  C   UNL A   1      43.454  26.446  26.741  1.00  0.00     0.037 A 
ATOM     27  C   UNL A   1      43.763  29.782  32.578  1.00  0.00     0.049 A 
ATOM     28  C   UNL A   1      44.472  26.803  27.757  1.00  0.00     0.074 A 
ATOM     29  C   UNL A   1      43.819  31.150  32.397  1.00  0.00     0.029 A 
ATOM     30  N   UNL A   1      44.816  29.279  31.859  1.00  0.00    -0.354 N 
ATOM     31  N   UNL A   1      45.155  27.912  27.753  1.00  0.00    -0.248 NA
ATOM     32  C   UNL A   1      44.437  26.091  29.026  1.00  0.00     0.031 C 
ATOM     33  C   UNL A   1      44.573  31.335  31.201  1.00  0.00     0.029 A 
ATOM     34  C   UNL A   1      44.969  30.074  30.757  1.00  0.00     0.049 A 
ATOM     35  H   UNL A   1      45.361  28.492  32.092  1.00  0.00     0.167 HD
ATOM     36  C   UNL A   1      45.256  28.261  29.090  1.00  0.00     0.074 A 
ATOM     37  C   UNL A   1      44.886  27.058  29.829  1.00  0.00     0.031 C 
ATOM     38  C   UNL A   1      45.357  29.569  29.464  1.00  0.00     0.037 A 
BRANCH  25  39
ATOM     39  C   UNL A   1      43.151  27.716  34.010  1.00  0.00     0.064 A 
ATOM     40  C   UNL A   1      43.378  27.994  35.375  1.00  0.00     0.173 A 
ATOM     41  C   UNL A   1      43.621  26.461  33.566  1.00  0.00     0.173 A 
ATOM     42  F   UNL A   1      42.961  29.148  35.920  1.00  0.00    -0.203 F 
ATOM     43  C   UNL A   1      44.139  27.149  36.188  1.00  0.00     0.198 A 
ATOM     44  C   UNL A   1      44.337  25.597  34.396  1.00  0.00     0.198 A 
ATOM     45  F   UNL A   1      43.507  26.056  32.298  1.00  0.00    -0.203 F 
ATOM     46  F   UNL A   1      44.461  27.535  37.430  1.00  0.00    -0.200 F 
ATOM     47  C   UNL A   1      44.635  25.960  35.691  1.00  0.00     0.200 A 
ATOM     48  F   UNL A   1      44.813  24.449  33.894  1.00  0.00    -0.200 F 
ATOM     49  F   UNL A   1      45.435  25.189  36.438  1.00  0.00    -0.200 F 
ENDBRANCH  25  39
BRANCH  26  50
ATOM     50  C   UNL A   1      43.540  25.186  25.961  1.00  0.00     0.064 A 
ATOM     51  C   UNL A   1      44.639  24.915  25.128  1.00  0.00     0.173 A 
ATOM     52  C   UNL A   1      42.686  24.101  26.242  1.00  0.00     0.173 A 
ATOM     53  F   UNL A   1      45.529  25.878  24.851  1.00  0.00    -0.203 F 
ATOM     54  C   UNL A   1      44.881  23.631  24.626  1.00  0.00     0.198 A 
ATOM     55  C   UNL A   1      42.925  22.823  25.734  1.00  0.00     0.198 A 
ATOM     56  F   UNL A   1      41.661  24.236  27.094  1.00  0.00    -0.203 F 
ATOM     57  F   UNL A   1      45.975  23.397  23.888  1.00  0.00    -0.200 F 
ATOM     58  C   UNL A   1      44.029  22.584  24.938  1.00  0.00     0.200 A 
ATOM     59  F   UNL A   1      42.114  21.812  26.076  1.00  0.00    -0.200 F 
ATOM     60  F   UNL A   1      44.294  21.342  24.509  1.00  0.00    -0.200 F 
ENDBRANCH  26  50
BRANCH  38  61
ATOM     61  C   UNL A   1      45.648  30.582  28.398  1.00  0.00     0.064 A 
ATOM     62  C   UNL A   1      44.668  31.157  27.570  1.00  0.00     0.173 A 
ATOM     63  C   UNL A   1      46.950  31.093  28.309  1.00  0.00     0.173 A 
ATOM     64  F   UNL A   1      43.381  30.796  27.669  1.00  0.00    -0.203 F 
ATOM     65  C   UNL A   1      44.991  32.165  26.664  1.00  0.00     0.198 A 
ATOM     66  C   UNL A   1      47.261  32.125  27.430  1.00  0.00     0.198 A 
ATOM     67  F   UNL A   1      47.914  30.621  29.116  1.00  0.00    -0.203 F 
ATOM     68  F   UNL A   1      44.040  32.691  25.878  1.00  0.00    -0.200 F 
ATOM     69  C   UNL A   1      46.286  32.653  26.601  1.00  0.00     0.200 A 
ATOM     70  F   UNL A   1      48.503  32.630  27.410  1.00  0.00    -0.200 F 
ATOM     71  F   UNL A   1      46.586  33.653  25.761  1.00  0.00    -0.200 F 
ENDBRANCH  38  61
ENDBRANCH  12  13
ENDBRANCH   5   7
ENDBRANCH   2   3
ENDBRANCH   1   2
BRANCH   1  72
ATOM     72  C   UNL A   1      31.894  27.756  27.078  1.00  0.00     0.118 C 
BRANCH  72  73
ATOM     73  N   UNL A   1      30.649  27.199  26.590  1.00  0.00    -0.351 N 
ATOM     74  C   UNL A   1      30.377  25.909  26.188  1.00  0.00     0.274 C 
ATOM     75  H   UNL A   1      29.894  27.829  26.537  1.00  0.00     0.163 HD
ATOM     76  O   UNL A   1      29.248  25.667  25.752  1.00  0.00    -0.267 OA
BRANCH  74  77
ATOM     77  C   UNL A   1      31.401  24.879  26.279  1.00  0.00     0.178 A 
ATOM     78  N   UNL A   1      31.414  23.958  27.300  1.00  0.00    -0.124 NA
ATOM     79  C   UNL A   1      32.455  24.607  25.413  1.00  0.00     0.108 A 
ATOM     80  N   UNL A   1      32.379  23.080  27.064  1.00  0.00    -0.061 NA
ATOM     81  N   UNL A   1      33.101  23.533  26.018  1.00  0.00    -0.212 N 
BRANCH  79  82
ATOM     82  C   UNL A   1      32.772  25.113  24.077  1.00  0.00     0.004 A 
ATOM     83  C   UNL A   1      32.462  24.322  22.952  1.00  0.00     0.010 A 
ATOM     84  C   UNL A   1      33.337  26.374  23.889  1.00  0.00     0.031 A 
ATOM     85  C   UNL A   1      32.713  24.781  21.662  1.00  0.00     0.002 A 
ATOM     86  C   UNL A   1      33.591  26.826  22.592  1.00  0.00     0.041 A 
ATOM     87  C   UNL A   1      33.281  26.039  21.483  1.00  0.00     0.020 A 
ATOM     88  Cl  UNL A   1      34.295  28.378  22.358  1.00  0.00    -0.084 Cl
ENDBRANCH  79  82
BRANCH  81  89
ATOM     89  C   UNL A   1      34.255  22.869  25.542  1.00  0.00     0.067 A 
ATOM     90  C   UNL A   1      35.519  23.324  25.922  1.00  0.00     0.029 A 
ATOM     91  C   UNL A   1      34.109  21.659  24.849  1.00  0.00     0.029 A 
ATOM     92  C   UNL A   1      36.624  22.490  25.722  1.00  0.00     0.015 A 
ATOM     93  C   UNL A   1      35.218  20.849  24.627  1.00  0.00     0.015 A 
ATOM     94  C   UNL A   1      36.479  21.235  25.103  1.00  0.00     0.056 A 
BRANCH  94  95
ATOM     95  C   UNL A   1      37.654  20.291  25.000  1.00  0.00     0.416 C 
ATOM     96  F   UNL A   1      37.345  19.021  25.375  1.00  0.00    -0.166 F 
ATOM     97  F   UNL A   1      38.130  20.204  23.727  1.00  0.00    -0.166 F 
ATOM     98  F   UNL A   1      38.717  20.662  25.766  1.00  0.00    -0.166 F 
ENDBRANCH  94  95
ENDBRANCH  81  89
ENDBRANCH  74  77
ENDBRANCH  72  73
ENDBRANCH   1  72
TORSDOF 13
ENDMDL
