MODEL 1
REMARK VINA RESULT:     -11.9      0.000      0.000
REMARK SMILES NS(=O)(=O)CCNC(=O)N1[C@@H]2CC[C@H]1C[C@H](CC(=O)NCCCNC(=O)c1ccc(-c3c4nc(c(-c5c(F)c(F)c(F)c(F)c5F)c5ccc([nH]5)c(-c5c(F)c(F)c(F)c(F)c5F)c5nc(c(-c6c(F)c(F)c(F)c(F)c6F)c6ccc3[nH]6)C=C5)C=C4)cc1)C2
REMARK SMILES IDX 18 1 19 2 20 3 17 5 16 6 10 7 11 8 14 9 12 10 90 11 13 12
REMARK SMILES IDX 15 13 8 14 7 15 9 17 6 18 5 19 2 20 3 21 4 22 1 23 21 26
REMARK SMILES IDX 22 27 23 28 24 29 25 30 26 32 27 33 28 34 89 35 29 36 88 37
REMARK SMILES IDX 30 38 31 39 32 40 82 41 33 42 87 43 81 44 83 45 34 46 86 47
REMARK SMILES IDX 80 48 79 49 35 51 67 52 47 53 66 54 48 55 51 56 65 57 84 58
REMARK SMILES IDX 49 59 50 60 64 62 85 63 52 64 36 65 37 66 45 67 38 68 39 69
REMARK SMILES IDX 43 70 46 71 40 72 41 73 44 74 42 75 68 76 69 77 77 78 70 79
REMARK SMILES IDX 71 80 75 81 78 82 72 83 73 84 76 85 74 86 53 87 54 88 62 89
REMARK SMILES IDX 55 90 56 91 60 92 63 93 57 94 58 95 61 96 59 97
REMARK H PARENT 20 4 7 16 1 24 1 25 24 31 83 50 51 61
REMARK Flexibility Score: inf
ROOT
ATOM      1  C   UNL A   1      31.515  23.852  26.614  1.00  0.00     0.220 C 
ATOM      2  O   UNL A   1      30.994  23.128  27.466  1.00  0.00    -0.275 OA
ATOM      3  N   UNL A   1      31.468  25.203  26.827  1.00  0.00    -0.356 N 
ATOM      4  H   UNL A   1      30.996  25.457  27.653  1.00  0.00     0.163 HD
ENDROOT
BRANCH   1   5
ATOM      5  C   UNL A   1      32.155  23.238  25.372  1.00  0.00     0.103 C 
BRANCH   5   6
ATOM      6  C   UNL A   1      33.684  23.476  25.275  1.00  0.00     0.002 C 
ATOM      7  N   UNL A   1      35.859  21.581  25.177  1.00  0.00    -0.319 N 
ATOM      8  C   UNL A   1      35.766  22.521  24.070  1.00  0.00     0.087 C 
ATOM      9  C   UNL A   1      35.797  22.391  26.374  1.00  0.00     0.087 C 
ATOM     10  C   UNL A   1      36.640  23.699  24.530  1.00  0.00     0.027 C 
ATOM     11  C   UNL A   1      34.274  22.909  23.954  1.00  0.00     0.029 C 
ATOM     12  C   UNL A   1      36.715  23.566  26.055  1.00  0.00     0.027 C 
ATOM     13  C   UNL A   1      34.358  22.872  26.513  1.00  0.00     0.029 C 
BRANCH   7  14
ATOM     14  C   UNL A   1      36.159  20.270  25.002  1.00  0.00     0.317 C 
ATOM     15  N   UNL A   1      35.200  19.318  25.001  1.00  0.00    -0.337 N 
ATOM     16  H   UNL A   1      35.513  18.434  25.303  1.00  0.00     0.165 HD
ATOM     17  O   UNL A   1      37.314  19.886  24.811  1.00  0.00    -0.249 OA
BRANCH  15  18
ATOM     18  C   UNL A   1      33.789  19.352  24.640  1.00  0.00     0.135 C 
BRANCH  18  19
ATOM     19  C   UNL A   1      33.045  18.087  25.046  1.00  0.00     0.175 C 
BRANCH  19  20
ATOM     20  S   UNL A   1      33.834  16.600  24.458  1.00  0.00     0.210 S 
ATOM     21  O   UNL A   1      32.904  15.503  24.555  1.00  0.00    -0.213 OA
ATOM     22  O   UNL A   1      35.172  16.520  25.001  1.00  0.00    -0.213 OA
BRANCH  20  23
ATOM     23  N   UNL A   1      34.020  16.892  22.820  1.00  0.00    -0.229 NA
ATOM     24  H   UNL A   1      34.053  17.897  22.655  1.00  0.00     0.137 HD
ATOM     25  H   UNL A   1      33.233  16.489  22.312  1.00  0.00     0.137 HD
ENDBRANCH  20  23
ENDBRANCH  19  20
ENDBRANCH  18  19
ENDBRANCH  15  18
ENDBRANCH   7  14
ENDBRANCH   5   6
ENDBRANCH   1   5
BRANCH   3  26
ATOM     26  C   UNL A   1      31.979  26.338  26.068  1.00  0.00     0.117 C 
BRANCH  26  27
ATOM     27  C   UNL A   1      32.310  27.546  26.954  1.00  0.00     0.042 C 
BRANCH  27  28
ATOM     28  C   UNL A   1      33.646  28.211  26.677  1.00  0.00     0.118 C 
BRANCH  28  29
ATOM     29  N   UNL A   1      33.588  29.636  26.948  1.00  0.00    -0.352 N 
ATOM     30  C   UNL A   1      34.428  30.437  27.687  1.00  0.00     0.251 C 
ATOM     31  H   UNL A   1      32.826  30.104  26.538  1.00  0.00     0.163 HD
ATOM     32  O   UNL A   1      34.040  31.555  28.017  1.00  0.00    -0.269 OA
BRANCH  30  33
ATOM     33  C   UNL A   1      35.784  29.987  28.093  1.00  0.00     0.039 A 
ATOM     34  C   UNL A   1      35.981  29.517  29.397  1.00  0.00     0.014 A 
ATOM     35  C   UNL A   1      36.882  30.099  27.238  1.00  0.00     0.014 A 
ATOM     36  C   UNL A   1      37.258  29.130  29.825  1.00  0.00     0.010 A 
ATOM     37  C   UNL A   1      38.130  29.619  27.628  1.00  0.00     0.010 A 
ATOM     38  C   UNL A   1      38.341  29.153  28.934  1.00  0.00    -0.014 A 
BRANCH  38  39
ATOM     39  C   UNL A   1      39.713  28.749  29.346  1.00  0.00     0.031 A 
ATOM     40  C   UNL A   1      40.551  29.684  30.179  1.00  0.00     0.074 A 
ATOM     41  C   UNL A   1      40.241  27.591  28.906  1.00  0.00     0.049 A 
ATOM     42  N   UNL A   1      41.812  29.590  30.524  1.00  0.00    -0.248 NA
ATOM     43  C   UNL A   1      39.891  30.908  30.661  1.00  0.00     0.031 C 
ATOM     44  C   UNL A   1      39.550  26.610  28.068  1.00  0.00     0.029 A 
ATOM     45  N   UNL A   1      41.492  27.050  29.085  1.00  0.00    -0.354 N 
ATOM     46  C   UNL A   1      42.098  30.752  31.231  1.00  0.00     0.074 A 
ATOM     47  C   UNL A   1      40.898  31.560  31.220  1.00  0.00     0.031 C 
ATOM     48  C   UNL A   1      40.378  25.585  27.816  1.00  0.00     0.029 A 
ATOM     49  C   UNL A   1      41.674  25.856  28.431  1.00  0.00     0.049 A 
ATOM     50  H   UNL A   1      42.191  27.478  29.631  1.00  0.00     0.167 HD
ATOM     51  C   UNL A   1      43.249  31.105  31.853  1.00  0.00     0.037 A 
ATOM     52  C   UNL A   1      42.767  25.076  28.322  1.00  0.00     0.037 A 
ATOM     53  C   UNL A   1      44.430  30.282  31.890  1.00  0.00     0.049 A 
ATOM     54  C   UNL A   1      44.041  25.492  29.009  1.00  0.00     0.074 A 
ATOM     55  C   UNL A   1      45.624  30.515  32.549  1.00  0.00     0.029 A 
ATOM     56  N   UNL A   1      44.565  29.066  31.235  1.00  0.00    -0.354 N 
ATOM     57  N   UNL A   1      44.282  26.564  29.726  1.00  0.00    -0.248 NA
ATOM     58  C   UNL A   1      45.194  24.589  28.878  1.00  0.00     0.031 C 
ATOM     59  C   UNL A   1      46.502  29.472  32.243  1.00  0.00     0.029 A 
ATOM     60  C   UNL A   1      45.833  28.553  31.450  1.00  0.00     0.049 A 
ATOM     61  H   UNL A   1      43.863  28.632  30.698  1.00  0.00     0.167 HD
ATOM     62  C   UNL A   1      45.597  26.449  30.157  1.00  0.00     0.074 A 
ATOM     63  C   UNL A   1      46.102  25.200  29.627  1.00  0.00     0.031 C 
ATOM     64  C   UNL A   1      46.318  27.299  30.928  1.00  0.00     0.037 A 
BRANCH  51  65
ATOM     65  C   UNL A   1      43.292  32.444  32.536  1.00  0.00     0.064 A 
ATOM     66  C   UNL A   1      43.721  33.603  31.870  1.00  0.00     0.173 A 
ATOM     67  C   UNL A   1      42.873  32.575  33.868  1.00  0.00     0.173 A 
ATOM     68  F   UNL A   1      44.141  33.535  30.597  1.00  0.00    -0.203 F 
ATOM     69  C   UNL A   1      43.771  34.831  32.525  1.00  0.00     0.198 A 
ATOM     70  C   UNL A   1      42.888  33.813  34.509  1.00  0.00     0.198 A 
ATOM     71  F   UNL A   1      42.442  31.504  34.552  1.00  0.00    -0.203 F 
ATOM     72  F   UNL A   1      44.247  35.910  31.888  1.00  0.00    -0.200 F 
ATOM     73  C   UNL A   1      43.348  34.937  33.842  1.00  0.00     0.200 A 
ATOM     74  F   UNL A   1      42.461  33.915  35.776  1.00  0.00    -0.200 F 
ATOM     75  F   UNL A   1      43.392  36.120  34.469  1.00  0.00    -0.200 F 
ENDBRANCH  51  65
BRANCH  52  76
ATOM     76  C   UNL A   1      42.698  23.813  27.541  1.00  0.00     0.064 A 
ATOM     77  C   UNL A   1      42.246  22.624  28.130  1.00  0.00     0.173 A 
ATOM     78  C   UNL A   1      43.066  23.770  26.187  1.00  0.00     0.173 A 
ATOM     79  F   UNL A   1      41.903  22.609  29.426  1.00  0.00    -0.203 F 
ATOM     80  C   UNL A   1      42.181  21.438  27.401  1.00  0.00     0.198 A 
ATOM     81  C   UNL A   1      42.972  22.590  25.452  1.00  0.00     0.198 A 
ATOM     82  F   UNL A   1      43.500  24.881  25.573  1.00  0.00    -0.203 F 
ATOM     83  F   UNL A   1      41.786  20.307  28.002  1.00  0.00    -0.200 F 
ATOM     84  C   UNL A   1      42.537  21.423  26.061  1.00  0.00     0.200 A 
ATOM     85  F   UNL A   1      43.299  22.586  24.152  1.00  0.00    -0.200 F 
ATOM     86  F   UNL A   1      42.464  20.285  25.358  1.00  0.00    -0.200 F 
ENDBRANCH  52  76
BRANCH  64  87
ATOM     87  C   UNL A   1      47.717  26.895  31.294  1.00  0.00     0.064 A 
ATOM     88  C   UNL A   1      47.982  26.011  32.349  1.00  0.00     0.173 A 
ATOM     89  C   UNL A   1      48.803  27.345  30.525  1.00  0.00     0.173 A 
ATOM     90  F   UNL A   1      46.981  25.562  33.121  1.00  0.00    -0.203 F 
ATOM     91  C   UNL A   1      49.284  25.602  32.629  1.00  0.00     0.198 A 
ATOM     92  C   UNL A   1      50.098  26.910  30.789  1.00  0.00     0.198 A 
ATOM     93  F   UNL A   1      48.603  28.187  29.500  1.00  0.00    -0.203 F 
ATOM     94  F   UNL A   1      49.518  24.784  33.665  1.00  0.00    -0.200 F 
ATOM     95  C   UNL A   1      50.339  26.042  31.843  1.00  0.00     0.200 A 
ATOM     96  F   UNL A   1      51.113  27.322  30.016  1.00  0.00    -0.200 F 
ATOM     97  F   UNL A   1      51.587  25.632  32.104  1.00  0.00    -0.200 F 
ENDBRANCH  64  87
ENDBRANCH  38  39
ENDBRANCH  30  33
ENDBRANCH  28  29
ENDBRANCH  27  28
ENDBRANCH  26  27
ENDBRANCH   3  26
TORSDOF 16
ENDMDL
MODEL 2
REMARK VINA RESULT:     -11.7      4.234      9.199
REMARK SMILES NS(=O)(=O)CCNC(=O)N1[C@@H]2CC[C@H]1C[C@H](CC(=O)NCCCNC(=O)c1ccc(-c3c4nc(c(-c5c(F)c(F)c(F)c(F)c5F)c5ccc([nH]5)c(-c5c(F)c(F)c(F)c(F)c5F)c5nc(c(-c6c(F)c(F)c(F)c(F)c6F)c6ccc3[nH]6)C=C5)C=C4)cc1)C2
REMARK SMILES IDX 18 1 19 2 20 3 17 5 16 6 10 7 11 8 14 9 12 10 90 11 13 12
REMARK SMILES IDX 15 13 8 14 7 15 9 17 6 18 5 19 2 20 3 21 4 22 1 23 21 26
REMARK SMILES IDX 22 27 23 28 24 29 25 30 26 32 27 33 28 34 89 35 29 36 88 37
REMARK SMILES IDX 30 38 31 39 32 40 82 41 33 42 87 43 81 44 83 45 34 46 86 47
REMARK SMILES IDX 80 48 79 49 35 51 67 52 47 53 66 54 48 55 51 56 65 57 84 58
REMARK SMILES IDX 49 59 50 60 64 62 85 63 52 64 36 65 37 66 45 67 38 68 39 69
REMARK SMILES IDX 43 70 46 71 40 72 41 73 44 74 42 75 68 76 69 77 77 78 70 79
REMARK SMILES IDX 71 80 75 81 78 82 72 83 73 84 76 85 74 86 53 87 54 88 62 89
REMARK SMILES IDX 55 90 56 91 60 92 63 93 57 94 58 95 61 96 59 97
REMARK H PARENT 20 4 7 16 1 24 1 25 24 31 83 50 51 61
REMARK Flexibility Score: inf
ROOT
ATOM      1  C   UNL A   1      34.049  29.337  27.081  1.00  0.00     0.220 C 
ATOM      2  O   UNL A   1      35.056  29.242  27.787  1.00  0.00    -0.275 OA
ATOM      3  N   UNL A   1      33.064  30.184  27.507  1.00  0.00    -0.356 N 
ATOM      4  H   UNL A   1      33.265  30.627  28.362  1.00  0.00     0.163 HD
ENDROOT
BRANCH   1   5
ATOM      5  C   UNL A   1      33.926  28.509  25.803  1.00  0.00     0.103 C 
BRANCH   5   6
ATOM      6  C   UNL A   1      33.594  27.016  26.056  1.00  0.00     0.002 C 
ATOM      7  N   UNL A   1      31.686  25.288  24.752  1.00  0.00    -0.319 N 
ATOM      8  C   UNL A   1      33.074  24.850  24.738  1.00  0.00     0.087 C 
ATOM      9  C   UNL A   1      31.394  25.599  26.134  1.00  0.00     0.087 C 
ATOM     10  C   UNL A   1      33.186  23.987  26.006  1.00  0.00     0.027 C 
ATOM     11  C   UNL A   1      33.934  26.132  24.825  1.00  0.00     0.029 C 
ATOM     12  C   UNL A   1      32.025  24.440  26.899  1.00  0.00     0.027 C 
ATOM     13  C   UNL A   1      32.119  26.899  26.461  1.00  0.00     0.029 C 
BRANCH   7  14
ATOM     14  C   UNL A   1      30.872  25.176  23.672  1.00  0.00     0.317 C 
ATOM     15  N   UNL A   1      30.443  26.263  22.993  1.00  0.00    -0.337 N 
ATOM     16  H   UNL A   1      29.571  26.140  22.552  1.00  0.00     0.165 HD
ATOM     17  O   UNL A   1      30.506  24.081  23.243  1.00  0.00    -0.249 OA
BRANCH  15  18
ATOM     18  C   UNL A   1      31.024  27.584  22.793  1.00  0.00     0.135 C 
BRANCH  18  19
ATOM     19  C   UNL A   1      30.318  28.668  23.595  1.00  0.00     0.175 C 
BRANCH  19  20
ATOM     20  S   UNL A   1      29.417  29.813  22.568  1.00  0.00     0.210 S 
ATOM     21  O   UNL A   1      29.237  31.049  23.286  1.00  0.00    -0.213 OA
ATOM     22  O   UNL A   1      28.311  29.126  21.939  1.00  0.00    -0.213 OA
BRANCH  20  23
ATOM     23  N   UNL A   1      30.501  30.157  21.341  1.00  0.00    -0.229 NA
ATOM     24  H   UNL A   1      31.300  30.662  21.724  1.00  0.00     0.137 HD
ATOM     25  H   UNL A   1      30.043  30.732  20.634  1.00  0.00     0.137 HD
ENDBRANCH  20  23
ENDBRANCH  19  20
ENDBRANCH  18  19
ENDBRANCH  15  18
ENDBRANCH   7  14
ENDBRANCH   5   6
ENDBRANCH   1   5
BRANCH   3  26
ATOM     26  C   UNL A   1      31.772  30.558  26.939  1.00  0.00     0.117 C 
BRANCH  26  27
ATOM     27  C   UNL A   1      31.534  32.074  26.950  1.00  0.00     0.042 C 
BRANCH  27  28
ATOM     28  C   UNL A   1      32.787  32.930  26.918  1.00  0.00     0.118 C 
BRANCH  28  29
ATOM     29  N   UNL A   1      32.585  34.181  27.625  1.00  0.00    -0.352 N 
ATOM     30  C   UNL A   1      33.143  34.644  28.795  1.00  0.00     0.251 C 
ATOM     31  H   UNL A   1      31.946  34.797  27.200  1.00  0.00     0.163 HD
ATOM     32  O   UNL A   1      32.623  35.603  29.358  1.00  0.00    -0.269 OA
BRANCH  30  33
ATOM     33  C   UNL A   1      34.351  34.016  29.388  1.00  0.00     0.039 A 
ATOM     34  C   UNL A   1      34.191  32.969  30.304  1.00  0.00     0.014 A 
ATOM     35  C   UNL A   1      35.634  34.498  29.124  1.00  0.00     0.014 A 
ATOM     36  C   UNL A   1      35.309  32.388  30.917  1.00  0.00     0.010 A 
ATOM     37  C   UNL A   1      36.751  33.854  29.654  1.00  0.00     0.010 A 
ATOM     38  C   UNL A   1      36.603  32.809  30.577  1.00  0.00    -0.014 A 
BRANCH  38  39
ATOM     39  C   UNL A   1      37.818  32.219  31.203  1.00  0.00     0.031 A 
ATOM     40  C   UNL A   1      38.605  31.167  30.465  1.00  0.00     0.074 A 
ATOM     41  C   UNL A   1      38.168  32.558  32.458  1.00  0.00     0.049 A 
ATOM     42  N   UNL A   1      39.603  30.427  30.882  1.00  0.00    -0.248 NA
ATOM     43  C   UNL A   1      38.191  30.884  29.081  1.00  0.00     0.031 C 
ATOM     44  C   UNL A   1      37.475  33.539  33.294  1.00  0.00     0.029 A 
ATOM     45  N   UNL A   1      39.184  32.098  33.261  1.00  0.00    -0.354 N 
ATOM     46  C   UNL A   1      39.909  29.575  29.827  1.00  0.00     0.074 A 
ATOM     47  C   UNL A   1      38.959  29.851  28.772  1.00  0.00     0.031 C 
ATOM     48  C   UNL A   1      38.091  33.617  34.484  1.00  0.00     0.029 A 
ATOM     49  C   UNL A   1      39.191  32.658  34.516  1.00  0.00     0.049 A 
ATOM     50  H   UNL A   1      39.845  31.432  32.965  1.00  0.00     0.167 HD
ATOM     51  C   UNL A   1      40.906  28.662  29.736  1.00  0.00     0.037 A 
ATOM     52  C   UNL A   1      39.981  32.412  35.579  1.00  0.00     0.037 A 
ATOM     53  C   UNL A   1      41.870  28.415  30.777  1.00  0.00     0.049 A 
ATOM     54  C   UNL A   1      41.074  31.383  35.463  1.00  0.00     0.074 A 
ATOM     55  C   UNL A   1      42.959  27.562  30.759  1.00  0.00     0.029 A 
ATOM     56  N   UNL A   1      41.857  29.022  32.025  1.00  0.00    -0.354 N 
ATOM     57  N   UNL A   1      41.393  30.626  34.439  1.00  0.00    -0.248 NA
ATOM     58  C   UNL A   1      41.922  31.175  36.646  1.00  0.00     0.031 C 
ATOM     59  C   UNL A   1      43.567  27.606  32.017  1.00  0.00     0.029 A 
ATOM     60  C   UNL A   1      42.901  28.539  32.795  1.00  0.00     0.049 A 
ATOM     61  H   UNL A   1      41.202  29.697  32.319  1.00  0.00     0.167 HD
ATOM     62  C   UNL A   1      42.493  29.882  34.842  1.00  0.00     0.074 A 
ATOM     63  C   UNL A   1      42.793  30.280  36.201  1.00  0.00     0.031 C 
ATOM     64  C   UNL A   1      43.197  28.956  34.144  1.00  0.00     0.037 A 
BRANCH  51  65
ATOM     65  C   UNL A   1      40.998  27.853  28.473  1.00  0.00     0.064 A 
ATOM     66  C   UNL A   1      41.766  28.275  27.376  1.00  0.00     0.173 A 
ATOM     67  C   UNL A   1      40.330  26.623  28.366  1.00  0.00     0.173 A 
ATOM     68  F   UNL A   1      42.419  29.446  27.418  1.00  0.00    -0.203 F 
ATOM     69  C   UNL A   1      41.824  27.519  26.207  1.00  0.00     0.198 A 
ATOM     70  C   UNL A   1      40.422  25.852  27.210  1.00  0.00     0.198 A 
ATOM     71  F   UNL A   1      39.590  26.164  29.387  1.00  0.00    -0.203 F 
ATOM     72  F   UNL A   1      42.511  27.976  25.150  1.00  0.00    -0.200 F 
ATOM     73  C   UNL A   1      41.159  26.306  26.127  1.00  0.00     0.200 A 
ATOM     74  F   UNL A   1      39.792  24.670  27.142  1.00  0.00    -0.200 F 
ATOM     75  F   UNL A   1      41.220  25.577  25.004  1.00  0.00    -0.200 F 
ENDBRANCH  51  65
BRANCH  52  76
ATOM     76  C   UNL A   1      39.773  33.166  36.843  1.00  0.00     0.064 A 
ATOM     77  C   UNL A   1      40.514  34.323  37.123  1.00  0.00     0.173 A 
ATOM     78  C   UNL A   1      38.821  32.759  37.790  1.00  0.00     0.173 A 
ATOM     79  F   UNL A   1      41.450  34.741  36.260  1.00  0.00    -0.203 F 
ATOM     80  C   UNL A   1      40.323  35.032  38.307  1.00  0.00     0.198 A 
ATOM     81  C   UNL A   1      38.609  33.486  38.959  1.00  0.00     0.198 A 
ATOM     82  F   UNL A   1      38.080  31.662  37.569  1.00  0.00    -0.203 F 
ATOM     83  F   UNL A   1      41.076  36.110  38.568  1.00  0.00    -0.200 F 
ATOM     84  C   UNL A   1      39.366  34.618  39.221  1.00  0.00     0.200 A 
ATOM     85  F   UNL A   1      37.671  33.091  39.830  1.00  0.00    -0.200 F 
ATOM     86  F   UNL A   1      39.176  35.306  40.354  1.00  0.00    -0.200 F 
ENDBRANCH  52  76
BRANCH  64  87
ATOM     87  C   UNL A   1      44.391  28.338  34.811  1.00  0.00     0.064 A 
ATOM     88  C   UNL A   1      45.656  28.938  34.769  1.00  0.00     0.173 A 
ATOM     89  C   UNL A   1      44.246  27.161  35.565  1.00  0.00     0.173 A 
ATOM     90  F   UNL A   1      45.851  30.055  34.052  1.00  0.00    -0.203 F 
ATOM     91  C   UNL A   1      46.736  28.378  35.448  1.00  0.00     0.198 A 
ATOM     92  C   UNL A   1      45.320  26.622  36.267  1.00  0.00     0.198 A 
ATOM     93  F   UNL A   1      43.054  26.551  35.642  1.00  0.00    -0.203 F 
ATOM     94  F   UNL A   1      47.946  28.950  35.366  1.00  0.00    -0.200 F 
ATOM     95  C   UNL A   1      46.565  27.228  36.205  1.00  0.00     0.200 A 
ATOM     96  F   UNL A   1      45.146  25.521  37.012  1.00  0.00    -0.200 F 
ATOM     97  F   UNL A   1      47.601  26.702  36.872  1.00  0.00    -0.200 F 
ENDBRANCH  64  87
ENDBRANCH  38  39
ENDBRANCH  30  33
ENDBRANCH  28  29
ENDBRANCH  27  28
ENDBRANCH  26  27
ENDBRANCH   3  26
TORSDOF 16
ENDMDL
MODEL 3
REMARK VINA RESULT:     -11.6      3.566      8.826
REMARK SMILES NS(=O)(=O)CCNC(=O)N1[C@@H]2CC[C@H]1C[C@H](CC(=O)NCCCNC(=O)c1ccc(-c3c4nc(c(-c5c(F)c(F)c(F)c(F)c5F)c5ccc([nH]5)c(-c5c(F)c(F)c(F)c(F)c5F)c5nc(c(-c6c(F)c(F)c(F)c(F)c6F)c6ccc3[nH]6)C=C5)C=C4)cc1)C2
REMARK SMILES IDX 18 1 19 2 20 3 17 5 16 6 10 7 11 8 14 9 12 10 90 11 13 12
REMARK SMILES IDX 15 13 8 14 7 15 9 17 6 18 5 19 2 20 3 21 4 22 1 23 21 26
REMARK SMILES IDX 22 27 23 28 24 29 25 30 26 32 27 33 28 34 89 35 29 36 88 37
REMARK SMILES IDX 30 38 31 39 32 40 82 41 33 42 87 43 81 44 83 45 34 46 86 47
REMARK SMILES IDX 80 48 79 49 35 51 67 52 47 53 66 54 48 55 51 56 65 57 84 58
REMARK SMILES IDX 49 59 50 60 64 62 85 63 52 64 36 65 37 66 45 67 38 68 39 69
REMARK SMILES IDX 43 70 46 71 40 72 41 73 44 74 42 75 68 76 69 77 77 78 70 79
REMARK SMILES IDX 71 80 75 81 78 82 72 83 73 84 76 85 74 86 53 87 54 88 62 89
REMARK SMILES IDX 55 90 56 91 60 92 63 93 57 94 58 95 61 96 59 97
REMARK H PARENT 20 4 7 16 1 24 1 25 24 31 83 50 51 61
REMARK Flexibility Score: inf
ROOT
ATOM      1  C   UNL A   1      33.149  29.033  26.516  1.00  0.00     0.220 C 
ATOM      2  O   UNL A   1      34.366  28.838  26.550  1.00  0.00    -0.275 OA
ATOM      3  N   UNL A   1      32.726  30.306  26.247  1.00  0.00    -0.356 N 
ATOM      4  H   UNL A   1      33.460  30.949  26.123  1.00  0.00     0.163 HD
ENDROOT
BRANCH   1   5
ATOM      5  C   UNL A   1      32.180  27.886  26.791  1.00  0.00     0.103 C 
BRANCH   5   6
ATOM      6  C   UNL A   1      32.087  26.855  25.636  1.00  0.00     0.002 C 
ATOM      7  N   UNL A   1      31.892  23.977  25.721  1.00  0.00    -0.319 N 
ATOM      8  C   UNL A   1      30.829  24.680  25.017  1.00  0.00     0.087 C 
ATOM      9  C   UNL A   1      33.125  24.498  25.174  1.00  0.00     0.087 C 
ATOM     10  C   UNL A   1      31.340  24.734  23.568  1.00  0.00     0.027 C 
ATOM     11  C   UNL A   1      30.738  26.084  25.658  1.00  0.00     0.029 C 
ATOM     12  C   UNL A   1      32.856  24.540  23.673  1.00  0.00     0.027 C 
ATOM     13  C   UNL A   1      33.293  25.911  25.717  1.00  0.00     0.029 C 
BRANCH   7  14
ATOM     14  C   UNL A   1      31.654  22.922  26.540  1.00  0.00     0.317 C 
ATOM     15  N   UNL A   1      31.962  21.658  26.173  1.00  0.00    -0.337 N 
ATOM     16  H   UNL A   1      31.390  20.971  26.587  1.00  0.00     0.165 HD
ATOM     17  O   UNL A   1      31.169  23.065  27.663  1.00  0.00    -0.249 OA
BRANCH  15  18
ATOM     18  C   UNL A   1      32.979  21.119  25.280  1.00  0.00     0.135 C 
BRANCH  18  19
ATOM     19  C   UNL A   1      32.443  20.026  24.365  1.00  0.00     0.175 C 
BRANCH  19  20
ATOM     20  S   UNL A   1      32.887  18.387  24.912  1.00  0.00     0.210 S 
ATOM     21  O   UNL A   1      34.263  18.133  24.569  1.00  0.00    -0.213 OA
ATOM     22  O   UNL A   1      31.828  17.464  24.567  1.00  0.00    -0.213 OA
BRANCH  20  23
ATOM     23  N   UNL A   1      32.853  18.521  26.580  1.00  0.00    -0.229 NA
ATOM     24  H   UNL A   1      33.542  19.210  26.880  1.00  0.00     0.137 HD
ATOM     25  H   UNL A   1      33.072  17.617  26.997  1.00  0.00     0.137 HD
ENDBRANCH  20  23
ENDBRANCH  19  20
ENDBRANCH  18  19
ENDBRANCH  15  18
ENDBRANCH   7  14
ENDBRANCH   5   6
ENDBRANCH   1   5
BRANCH   3  26
ATOM     26  C   UNL A   1      31.398  30.894  26.112  1.00  0.00     0.117 C 
BRANCH  26  27
ATOM     27  C   UNL A   1      31.347  32.359  26.568  1.00  0.00     0.042 C 
BRANCH  27  28
ATOM     28  C   UNL A   1      32.658  32.927  27.080  1.00  0.00     0.118 C 
BRANCH  28  29
ATOM     29  N   UNL A   1      32.483  34.276  27.586  1.00  0.00    -0.352 N 
ATOM     30  C   UNL A   1      33.038  34.896  28.682  1.00  0.00     0.251 C 
ATOM     31  H   UNL A   1      31.868  34.837  27.061  1.00  0.00     0.163 HD
ATOM     32  O   UNL A   1      32.538  35.943  29.085  1.00  0.00    -0.269 OA
BRANCH  30  33
ATOM     33  C   UNL A   1      34.218  34.333  29.385  1.00  0.00     0.039 A 
ATOM     34  C   UNL A   1      35.499  34.603  28.886  1.00  0.00     0.014 A 
ATOM     35  C   UNL A   1      34.083  33.476  30.478  1.00  0.00     0.014 A 
ATOM     36  C   UNL A   1      36.629  34.048  29.499  1.00  0.00     0.010 A 
ATOM     37  C   UNL A   1      35.209  33.007  31.151  1.00  0.00     0.010 A 
ATOM     38  C   UNL A   1      36.496  33.264  30.655  1.00  0.00    -0.014 A 
BRANCH  38  39
ATOM     39  C   UNL A   1      37.670  32.657  31.339  1.00  0.00     0.031 A 
ATOM     40  C   UNL A   1      38.389  31.495  30.705  1.00  0.00     0.074 A 
ATOM     41  C   UNL A   1      38.040  33.084  32.562  1.00  0.00     0.049 A 
ATOM     42  N   UNL A   1      39.336  30.733  31.193  1.00  0.00    -0.248 NA
ATOM     43  C   UNL A   1      37.958  31.115  29.349  1.00  0.00     0.031 C 
ATOM     44  C   UNL A   1      37.410  34.179  33.301  1.00  0.00     0.029 A 
ATOM     45  N   UNL A   1      39.024  32.635  33.409  1.00  0.00    -0.354 N 
ATOM     46  C   UNL A   1      39.589  29.772  30.221  1.00  0.00     0.074 A 
ATOM     47  C   UNL A   1      38.659  30.011  29.139  1.00  0.00     0.031 C 
ATOM     48  C   UNL A   1      38.029  34.324  34.483  1.00  0.00     0.029 A 
ATOM     49  C   UNL A   1      39.066  33.303  34.608  1.00  0.00     0.049 A 
ATOM     50  H   UNL A   1      39.641  31.904  33.178  1.00  0.00     0.167 HD
ATOM     51  C   UNL A   1      40.525  28.793  30.219  1.00  0.00     0.037 A 
ATOM     52  C   UNL A   1      39.837  33.104  35.695  1.00  0.00     0.037 A 
ATOM     53  C   UNL A   1      41.470  28.580  31.283  1.00  0.00     0.049 A 
ATOM     54  C   UNL A   1      40.863  32.002  35.678  1.00  0.00     0.074 A 
ATOM     55  C   UNL A   1      42.502  27.661  31.350  1.00  0.00     0.029 A 
ATOM     56  N   UNL A   1      41.495  29.296  32.472  1.00  0.00    -0.354 N 
ATOM     57  N   UNL A   1      41.133  31.137  34.729  1.00  0.00    -0.248 NA
ATOM     58  C   UNL A   1      41.695  31.848  36.881  1.00  0.00     0.031 C 
ATOM     59  C   UNL A   1      43.111  27.779  32.602  1.00  0.00     0.029 A 
ATOM     60  C   UNL A   1      42.505  28.818  33.289  1.00  0.00     0.049 A 
ATOM     61  H   UNL A   1      40.885  30.034  32.700  1.00  0.00     0.167 HD
ATOM     62  C   UNL A   1      42.183  30.363  35.204  1.00  0.00     0.074 A 
ATOM     63  C   UNL A   1      42.507  30.862  36.524  1.00  0.00     0.031 C 
ATOM     64  C   UNL A   1      42.826  29.335  34.597  1.00  0.00     0.037 A 
BRANCH  51  65
ATOM     65  C   UNL A   1      40.566  27.868  29.033  1.00  0.00     0.064 A 
ATOM     66  C   UNL A   1      39.765  26.718  28.961  1.00  0.00     0.173 A 
ATOM     67  C   UNL A   1      41.401  28.151  27.942  1.00  0.00     0.173 A 
ATOM     68  F   UNL A   1      38.953  26.394  29.979  1.00  0.00    -0.203 F 
ATOM     69  C   UNL A   1      39.831  25.865  27.862  1.00  0.00     0.198 A 
ATOM     70  C   UNL A   1      41.437  27.315  26.827  1.00  0.00     0.198 A 
ATOM     71  F   UNL A   1      42.182  29.242  27.950  1.00  0.00    -0.203 F 
ATOM     72  F   UNL A   1      39.104  24.738  27.846  1.00  0.00    -0.200 F 
ATOM     73  C   UNL A   1      40.661  26.167  26.793  1.00  0.00     0.200 A 
ATOM     74  F   UNL A   1      42.227  27.620  25.788  1.00  0.00    -0.200 F 
ATOM     75  F   UNL A   1      40.721  25.348  25.734  1.00  0.00    -0.200 F 
ENDBRANCH  51  65
BRANCH  52  76
ATOM     76  C   UNL A   1      39.677  33.981  36.885  1.00  0.00     0.064 A 
ATOM     77  C   UNL A   1      38.872  33.593  37.964  1.00  0.00     0.173 A 
ATOM     78  C   UNL A   1      40.335  35.217  36.976  1.00  0.00     0.173 A 
ATOM     79  F   UNL A   1      38.205  32.430  37.916  1.00  0.00    -0.203 F 
ATOM     80  C   UNL A   1      38.718  34.412  39.081  1.00  0.00     0.198 A 
ATOM     81  C   UNL A   1      40.205  36.022  38.106  1.00  0.00     0.198 A 
ATOM     82  F   UNL A   1      41.123  35.634  35.973  1.00  0.00    -0.203 F 
ATOM     83  F   UNL A   1      37.908  34.034  40.080  1.00  0.00    -0.200 F 
ATOM     84  C   UNL A   1      39.390  35.623  39.154  1.00  0.00     0.200 A 
ATOM     85  F   UNL A   1      40.871  37.182  38.179  1.00  0.00    -0.200 F 
ATOM     86  F   UNL A   1      39.250  36.406  40.232  1.00  0.00    -0.200 F 
ENDBRANCH  52  76
BRANCH  64  87
ATOM     87  C   UNL A   1      43.978  28.705  35.324  1.00  0.00     0.064 A 
ATOM     88  C   UNL A   1      45.298  29.138  35.139  1.00  0.00     0.173 A 
ATOM     89  C   UNL A   1      43.744  27.700  36.277  1.00  0.00     0.173 A 
ATOM     90  F   UNL A   1      45.577  30.085  34.231  1.00  0.00    -0.203 F 
ATOM     91  C   UNL A   1      46.343  28.579  35.871  1.00  0.00     0.198 A 
ATOM     92  C   UNL A   1      44.786  27.167  37.029  1.00  0.00     0.198 A 
ATOM     93  F   UNL A   1      42.497  27.255  36.498  1.00  0.00    -0.203 F 
ATOM     94  F   UNL A   1      47.602  28.983  35.652  1.00  0.00    -0.200 F 
ATOM     95  C   UNL A   1      46.086  27.604  36.824  1.00  0.00     0.200 A 
ATOM     96  F   UNL A   1      44.531  26.237  37.961  1.00  0.00    -0.200 F 
ATOM     97  F   UNL A   1      47.091  27.082  37.540  1.00  0.00    -0.200 F 
ENDBRANCH  64  87
ENDBRANCH  38  39
ENDBRANCH  30  33
ENDBRANCH  28  29
ENDBRANCH  27  28
ENDBRANCH  26  27
ENDBRANCH   3  26
TORSDOF 16
ENDMDL
