MODEL 1
REMARK VINA RESULT:     -11.5      0.000      0.000
REMARK SMILES CNC(=O)[C@H]1CCCCN1C(=O)NCCOCC(=O)NCCCNC(=O)c1ccc(-c2c3nc(c(-c4c(F)c(F)c(F)c(F)c4F)c4ccc([nH]4)c(-c4c(F)c(F)c(F)c(F)c4F)c4nc(c(-c5c(F)c(F)c(F)c(F)c5F)c5ccc2[nH]5)C=C4)C=C3)cc1
REMARK SMILES IDX 18 1 19 2 20 3 17 5 16 6 15 7 14 8 13 9 11 10 12 11 10 13
REMARK SMILES IDX 5 14 6 15 7 16 9 17 8 18 3 19 1 20 2 21 4 23 21 24 22 25
REMARK SMILES IDX 23 26 24 27 25 28 26 30 27 31 28 32 89 33 29 34 88 35 30 36
REMARK SMILES IDX 31 37 32 38 82 39 33 40 87 41 81 42 83 43 34 44 86 45 80 46
REMARK SMILES IDX 79 47 35 49 67 50 47 51 66 52 48 53 51 54 65 55 84 56 49 57
REMARK SMILES IDX 50 58 64 60 85 61 52 62 36 63 37 64 45 65 38 66 39 67 43 68
REMARK SMILES IDX 46 69 40 70 41 71 44 72 42 73 68 74 69 75 77 76 70 77 71 78
REMARK SMILES IDX 75 79 78 80 72 81 73 82 76 83 74 84 53 85 54 86 62 87 55 88
REMARK SMILES IDX 56 89 60 90 63 91 57 92 58 93 61 94 59 95
REMARK H PARENT 20 4 13 12 2 22 24 29 83 48 51 59
REMARK Flexibility Score: inf
ROOT
ATOM      1  C   UNL A   1      30.577  29.470  23.852  1.00  0.00     0.245 C 
ATOM      2  O   UNL A   1      29.937  29.711  22.830  1.00  0.00    -0.272 OA
ATOM      3  N   UNL A   1      30.939  30.510  24.658  1.00  0.00    -0.354 N 
ATOM      4  H   UNL A   1      30.597  31.396  24.398  1.00  0.00     0.163 HD
ENDROOT
BRANCH   1   5
ATOM      5  C   UNL A   1      30.983  28.051  24.248  1.00  0.00     0.260 C 
BRANCH   5   6
ATOM      6  O   UNL A   1      30.241  27.017  23.619  1.00  0.00    -0.370 OA
BRANCH   6   7
ATOM      7  C   UNL A   1      29.534  26.154  24.521  1.00  0.00     0.182 C 
BRANCH   7   8
ATOM      8  C   UNL A   1      30.347  25.824  25.780  1.00  0.00     0.146 C 
BRANCH   8   9
ATOM      9  N   UNL A   1      30.403  24.401  26.068  1.00  0.00    -0.336 N 
ATOM     10  C   UNL A   1      31.214  23.366  25.806  1.00  0.00     0.318 C 
ATOM     11  O   UNL A   1      30.737  22.268  26.112  1.00  0.00    -0.249 OA
ATOM     12  H   UNL A   1      29.629  24.117  26.606  1.00  0.00     0.165 HD
BRANCH  10  13
ATOM     13  N   UNL A   1      32.461  23.482  25.262  1.00  0.00    -0.313 N 
ATOM     14  C   UNL A   1      33.485  24.139  26.109  1.00  0.00     0.176 C 
ATOM     15  C   UNL A   1      33.621  25.605  25.643  1.00  0.00     0.035 C 
ATOM     16  C   UNL A   1      33.887  25.713  24.135  1.00  0.00     0.004 C 
ATOM     17  C   UNL A   1      32.848  23.443  23.856  1.00  0.00     0.122 C 
ATOM     18  C   UNL A   1      32.906  24.869  23.315  1.00  0.00     0.022 C 
BRANCH  14  19
ATOM     19  C   UNL A   1      34.870  23.434  26.178  1.00  0.00     0.242 C 
ATOM     20  C   UNL A   1      34.023  21.448  27.503  1.00  0.00     0.142 C 
ATOM     21  N   UNL A   1      35.022  22.248  26.837  1.00  0.00    -0.357 N 
ATOM     22  H   UNL A   1      35.938  21.889  26.861  1.00  0.00     0.163 HD
ATOM     23  O   UNL A   1      35.900  23.980  25.771  1.00  0.00    -0.273 OA
ENDBRANCH  14  19
ENDBRANCH  10  13
ENDBRANCH   8   9
ENDBRANCH   7   8
ENDBRANCH   6   7
ENDBRANCH   5   6
ENDBRANCH   1   5
BRANCH   3  24
ATOM     24  C   UNL A   1      31.765  30.473  25.849  1.00  0.00     0.117 C 
BRANCH  24  25
ATOM     25  C   UNL A   1      31.474  31.646  26.776  1.00  0.00     0.042 C 
BRANCH  25  26
ATOM     26  C   UNL A   1      32.721  32.405  27.220  1.00  0.00     0.118 C 
BRANCH  26  27
ATOM     27  N   UNL A   1      32.459  33.812  27.491  1.00  0.00    -0.352 N 
ATOM     28  C   UNL A   1      33.014  34.654  28.426  1.00  0.00     0.251 C 
ATOM     29  H   UNL A   1      31.778  34.227  26.915  1.00  0.00     0.163 HD
ATOM     30  O   UNL A   1      32.525  35.756  28.629  1.00  0.00    -0.269 OA
BRANCH  28  31
ATOM     31  C   UNL A   1      34.193  34.214  29.201  1.00  0.00     0.039 A 
ATOM     32  C   UNL A   1      33.999  33.512  30.394  1.00  0.00     0.014 A 
ATOM     33  C   UNL A   1      35.485  34.495  28.751  1.00  0.00     0.014 A 
ATOM     34  C   UNL A   1      35.103  33.018  31.092  1.00  0.00     0.010 A 
ATOM     35  C   UNL A   1      36.576  33.933  29.401  1.00  0.00     0.010 A 
ATOM     36  C   UNL A   1      36.398  33.185  30.575  1.00  0.00    -0.014 A 
BRANCH  36  37
ATOM     37  C   UNL A   1      37.587  32.586  31.231  1.00  0.00     0.031 A 
ATOM     38  C   UNL A   1      38.312  31.450  30.567  1.00  0.00     0.074 A 
ATOM     39  C   UNL A   1      37.950  32.996  32.461  1.00  0.00     0.049 A 
ATOM     40  N   UNL A   1      39.268  30.688  31.036  1.00  0.00    -0.248 NA
ATOM     41  C   UNL A   1      37.882  31.103  29.203  1.00  0.00     0.031 C 
ATOM     42  C   UNL A   1      37.307  34.069  33.220  1.00  0.00     0.029 A 
ATOM     43  N   UNL A   1      38.934  32.540  33.303  1.00  0.00    -0.354 N 
ATOM     44  C   UNL A   1      39.538  29.765  30.035  1.00  0.00     0.074 A 
ATOM     45  C   UNL A   1      38.612  30.025  28.955  1.00  0.00     0.031 C 
ATOM     46  C   UNL A   1      37.920  34.198  34.408  1.00  0.00     0.029 A 
ATOM     47  C   UNL A   1      38.963  33.181  34.517  1.00  0.00     0.049 A 
ATOM     48  H   UNL A   1      39.562  31.821  33.059  1.00  0.00     0.167 HD
ATOM     49  C   UNL A   1      40.487  28.799  30.014  1.00  0.00     0.037 A 
ATOM     50  C   UNL A   1      39.727  32.960  35.604  1.00  0.00     0.037 A 
ATOM     51  C   UNL A   1      41.418  28.560  31.085  1.00  0.00     0.049 A 
ATOM     52  C   UNL A   1      40.749  31.856  35.569  1.00  0.00     0.074 A 
ATOM     53  C   UNL A   1      42.450  27.641  31.140  1.00  0.00     0.029 A 
ATOM     54  N   UNL A   1      41.426  29.243  32.293  1.00  0.00    -0.354 N 
ATOM     55  N   UNL A   1      41.035  31.023  34.598  1.00  0.00    -0.248 NA
ATOM     56  C   UNL A   1      41.557  31.658  36.782  1.00  0.00     0.031 C 
ATOM     57  C   UNL A   1      43.046  27.728  32.401  1.00  0.00     0.029 A 
ATOM     58  C   UNL A   1      42.428  28.747  33.109  1.00  0.00     0.049 A 
ATOM     59  H   UNL A   1      40.810  29.973  32.533  1.00  0.00     0.167 HD
ATOM     60  C   UNL A   1      42.077  30.233  35.063  1.00  0.00     0.074 A 
ATOM     61  C   UNL A   1      42.377  30.687  36.405  1.00  0.00     0.031 C 
ATOM     62  C   UNL A   1      42.729  29.227  34.434  1.00  0.00     0.037 A 
BRANCH  49  63
ATOM     63  C   UNL A   1      40.566  27.926  28.795  1.00  0.00     0.064 A 
ATOM     64  C   UNL A   1      39.841  26.729  28.697  1.00  0.00     0.173 A 
ATOM     65  C   UNL A   1      41.346  28.310  27.694  1.00  0.00     0.173 A 
ATOM     66  F   UNL A   1      39.088  26.308  29.725  1.00  0.00    -0.203 F 
ATOM     67  C   UNL A   1      39.919  25.934  27.556  1.00  0.00     0.198 A 
ATOM     68  C   UNL A   1      41.394  27.532  26.541  1.00  0.00     0.198 A 
ATOM     69  F   UNL A   1      42.054  29.449  27.730  1.00  0.00    -0.203 F 
ATOM     70  F   UNL A   1      39.259  24.768  27.508  1.00  0.00    -0.200 F 
ATOM     71  C   UNL A   1      40.687  26.340  26.476  1.00  0.00     0.200 A 
ATOM     72  F   UNL A   1      42.124  27.934  25.492  1.00  0.00    -0.200 F 
ATOM     73  F   UNL A   1      40.754  25.579  25.375  1.00  0.00    -0.200 F 
ENDBRANCH  49  63
BRANCH  50  74
ATOM     74  C   UNL A   1      39.561  33.806  36.817  1.00  0.00     0.064 A 
ATOM     75  C   UNL A   1      40.237  35.028  36.939  1.00  0.00     0.173 A 
ATOM     76  C   UNL A   1      38.734  33.411  37.879  1.00  0.00     0.173 A 
ATOM     77  F   UNL A   1      41.054  35.441  35.959  1.00  0.00    -0.203 F 
ATOM     78  C   UNL A   1      40.112  35.810  38.086  1.00  0.00     0.198 A 
ATOM     79  C   UNL A   1      38.585  34.208  39.011  1.00  0.00     0.198 A 
ATOM     80  F   UNL A   1      38.059  32.253  37.811  1.00  0.00    -0.203 F 
ATOM     81  F   UNL A   1      40.810  36.948  38.196  1.00  0.00    -0.200 F 
ATOM     82  C   UNL A   1      39.281  35.402  39.119  1.00  0.00     0.200 A 
ATOM     83  F   UNL A   1      37.768  33.819  40.000  1.00  0.00    -0.200 F 
ATOM     84  F   UNL A   1      39.159  36.155  40.220  1.00  0.00    -0.200 F 
ENDBRANCH  50  74
BRANCH  62  85
ATOM     85  C   UNL A   1      43.873  28.575  35.157  1.00  0.00     0.064 A 
ATOM     86  C   UNL A   1      43.702  27.408  35.913  1.00  0.00     0.173 A 
ATOM     87  C   UNL A   1      45.173  29.087  35.020  1.00  0.00     0.173 A 
ATOM     88  F   UNL A   1      42.478  26.888  36.087  1.00  0.00    -0.203 F 
ATOM     89  C   UNL A   1      44.790  26.781  36.515  1.00  0.00     0.198 A 
ATOM     90  C   UNL A   1      46.262  28.441  35.597  1.00  0.00     0.198 A 
ATOM     91  F   UNL A   1      45.390  30.199  34.301  1.00  0.00    -0.203 F 
ATOM     92  F   UNL A   1      44.601  25.684  37.261  1.00  0.00    -0.200 F 
ATOM     93  C   UNL A   1      46.070  27.291  36.346  1.00  0.00     0.200 A 
ATOM     94  F   UNL A   1      47.499  28.925  35.418  1.00  0.00    -0.200 F 
ATOM     95  F   UNL A   1      47.118  26.674  36.909  1.00  0.00    -0.200 F 
ENDBRANCH  62  85
ENDBRANCH  36  37
ENDBRANCH  28  31
ENDBRANCH  26  27
ENDBRANCH  25  26
ENDBRANCH  24  25
ENDBRANCH   3  24
TORSDOF 16
ENDMDL
MODEL 2
REMARK VINA RESULT:     -11.5      5.528     11.079
REMARK SMILES CNC(=O)[C@H]1CCCCN1C(=O)NCCOCC(=O)NCCCNC(=O)c1ccc(-c2c3nc(c(-c4c(F)c(F)c(F)c(F)c4F)c4ccc([nH]4)c(-c4c(F)c(F)c(F)c(F)c4F)c4nc(c(-c5c(F)c(F)c(F)c(F)c5F)c5ccc2[nH]5)C=C4)C=C3)cc1
REMARK SMILES IDX 18 1 19 2 20 3 17 5 16 6 15 7 14 8 13 9 11 10 12 11 10 13
REMARK SMILES IDX 5 14 6 15 7 16 9 17 8 18 3 19 1 20 2 21 4 23 21 24 22 25
REMARK SMILES IDX 23 26 24 27 25 28 26 30 27 31 28 32 89 33 29 34 88 35 30 36
REMARK SMILES IDX 31 37 32 38 82 39 33 40 87 41 81 42 83 43 34 44 86 45 80 46
REMARK SMILES IDX 79 47 35 49 67 50 47 51 66 52 48 53 51 54 65 55 84 56 49 57
REMARK SMILES IDX 50 58 64 60 85 61 52 62 36 63 37 64 45 65 38 66 39 67 43 68
REMARK SMILES IDX 46 69 40 70 41 71 44 72 42 73 68 74 69 75 77 76 70 77 71 78
REMARK SMILES IDX 75 79 78 80 72 81 73 82 76 83 74 84 53 85 54 86 62 87 55 88
REMARK SMILES IDX 56 89 60 90 63 91 57 92 58 93 61 94 59 95
REMARK H PARENT 20 4 13 12 2 22 24 29 83 48 51 59
REMARK Flexibility Score: inf
ROOT
ATOM      1  C   UNL A   1      34.275  20.543  25.001  1.00  0.00     0.245 C 
ATOM      2  O   UNL A   1      33.311  19.808  25.212  1.00  0.00    -0.272 OA
ATOM      3  N   UNL A   1      35.530  20.056  25.225  1.00  0.00    -0.354 N 
ATOM      4  H   UNL A   1      35.586  19.106  25.478  1.00  0.00     0.163 HD
ENDROOT
BRANCH   1   5
ATOM      5  C   UNL A   1      34.117  21.980  24.505  1.00  0.00     0.260 C 
BRANCH   5   6
ATOM      6  O   UNL A   1      32.779  22.380  24.247  1.00  0.00    -0.370 OA
BRANCH   6   7
ATOM      7  C   UNL A   1      32.412  22.379  22.860  1.00  0.00     0.182 C 
BRANCH   7   8
ATOM      8  C   UNL A   1      33.277  23.327  22.020  1.00  0.00     0.146 C 
BRANCH   8   9
ATOM      9  N   UNL A   1      32.565  24.516  21.584  1.00  0.00    -0.336 N 
ATOM     10  C   UNL A   1      32.176  25.688  22.106  1.00  0.00     0.318 C 
ATOM     11  O   UNL A   1      31.406  26.327  21.380  1.00  0.00    -0.249 OA
ATOM     12  H   UNL A   1      32.293  24.441  20.641  1.00  0.00     0.165 HD
BRANCH  10  13
ATOM     13  N   UNL A   1      32.582  26.165  23.319  1.00  0.00    -0.313 N 
ATOM     14  C   UNL A   1      31.716  25.832  24.476  1.00  0.00     0.176 C 
ATOM     15  C   UNL A   1      30.831  27.061  24.778  1.00  0.00     0.035 C 
ATOM     16  C   UNL A   1      31.658  28.342  24.958  1.00  0.00     0.004 C 
ATOM     17  C   UNL A   1      33.485  27.274  23.605  1.00  0.00     0.122 C 
ATOM     18  C   UNL A   1      32.664  28.543  23.820  1.00  0.00     0.022 C 
BRANCH  14  19
ATOM     19  C   UNL A   1      32.446  25.330  25.754  1.00  0.00     0.242 C 
ATOM     20  C   UNL A   1      30.561  23.799  26.476  1.00  0.00     0.142 C 
ATOM     21  N   UNL A   1      31.848  24.439  26.599  1.00  0.00    -0.357 N 
ATOM     22  H   UNL A   1      32.366  24.200  27.401  1.00  0.00     0.163 HD
ATOM     23  O   UNL A   1      33.518  25.816  26.126  1.00  0.00    -0.273 OA
ENDBRANCH  14  19
ENDBRANCH  10  13
ENDBRANCH   8   9
ENDBRANCH   7   8
ENDBRANCH   6   7
ENDBRANCH   5   6
ENDBRANCH   1   5
BRANCH   3  24
ATOM     24  C   UNL A   1      36.793  20.763  25.136  1.00  0.00     0.117 C 
BRANCH  24  25
ATOM     25  C   UNL A   1      37.968  19.806  24.984  1.00  0.00     0.042 C 
BRANCH  25  26
ATOM     26  C   UNL A   1      39.213  20.233  25.755  1.00  0.00     0.118 C 
BRANCH  26  27
ATOM     27  N   UNL A   1      40.188  19.158  25.893  1.00  0.00    -0.352 N 
ATOM     28  C   UNL A   1      41.547  19.214  26.094  1.00  0.00     0.251 C 
ATOM     29  H   UNL A   1      39.816  18.249  25.833  1.00  0.00     0.163 HD
ATOM     30  O   UNL A   1      42.226  18.202  25.991  1.00  0.00    -0.269 OA
BRANCH  28  31
ATOM     31  C   UNL A   1      42.189  20.506  26.415  1.00  0.00     0.039 A 
ATOM     32  C   UNL A   1      42.707  21.284  25.376  1.00  0.00     0.014 A 
ATOM     33  C   UNL A   1      42.280  20.945  27.737  1.00  0.00     0.014 A 
ATOM     34  C   UNL A   1      43.240  22.544  25.657  1.00  0.00     0.010 A 
ATOM     35  C   UNL A   1      42.735  22.230  28.005  1.00  0.00     0.010 A 
ATOM     36  C   UNL A   1      43.215  23.045  26.968  1.00  0.00    -0.014 A 
BRANCH  36  37
ATOM     37  C   UNL A   1      43.676  24.419  27.291  1.00  0.00     0.031 A 
ATOM     38  C   UNL A   1      42.686  25.444  27.771  1.00  0.00     0.074 A 
ATOM     39  C   UNL A   1      44.955  24.767  27.059  1.00  0.00     0.049 A 
ATOM     40  N   UNL A   1      42.849  26.729  27.957  1.00  0.00    -0.248 NA
ATOM     41  C   UNL A   1      41.324  24.963  28.048  1.00  0.00     0.031 C 
ATOM     42  C   UNL A   1      46.002  23.870  26.567  1.00  0.00     0.029 A 
ATOM     43  N   UNL A   1      45.589  25.979  27.181  1.00  0.00    -0.354 N 
ATOM     44  C   UNL A   1      41.608  27.211  28.353  1.00  0.00     0.074 A 
ATOM     45  C   UNL A   1      40.691  26.093  28.330  1.00  0.00     0.031 C 
ATOM     46  C   UNL A   1      47.148  24.557  26.442  1.00  0.00     0.029 A 
ATOM     47  C   UNL A   1      46.907  25.954  26.791  1.00  0.00     0.049 A 
ATOM     48  H   UNL A   1      45.143  26.790  27.518  1.00  0.00     0.167 HD
ATOM     49  C   UNL A   1      41.272  28.470  28.721  1.00  0.00     0.037 A 
ATOM     50  C   UNL A   1      47.810  26.949  26.703  1.00  0.00     0.037 A 
ATOM     51  C   UNL A   1      42.196  29.572  28.760  1.00  0.00     0.049 A 
ATOM     52  C   UNL A   1      47.401  28.347  27.082  1.00  0.00     0.074 A 
ATOM     53  C   UNL A   1      41.966  30.874  29.168  1.00  0.00     0.029 A 
ATOM     54  N   UNL A   1      43.527  29.502  28.374  1.00  0.00    -0.354 N 
ATOM     55  N   UNL A   1      46.240  28.783  27.508  1.00  0.00    -0.248 NA
ATOM     56  C   UNL A   1      48.426  29.395  26.968  1.00  0.00     0.031 C 
ATOM     57  C   UNL A   1      43.141  31.606  28.974  1.00  0.00     0.029 A 
ATOM     58  C   UNL A   1      44.123  30.745  28.508  1.00  0.00     0.049 A 
ATOM     59  H   UNL A   1      43.980  28.690  28.052  1.00  0.00     0.167 HD
ATOM     60  C   UNL A   1      46.405  30.139  27.750  1.00  0.00     0.074 A 
ATOM     61  C   UNL A   1      47.780  30.457  27.426  1.00  0.00     0.031 C 
ATOM     62  C   UNL A   1      45.500  31.039  28.205  1.00  0.00     0.037 A 
BRANCH  49  63
ATOM     63  C   UNL A   1      39.844  28.725  29.108  1.00  0.00     0.064 A 
ATOM     64  C   UNL A   1      39.399  28.574  30.431  1.00  0.00     0.173 A 
ATOM     65  C   UNL A   1      38.915  29.166  28.153  1.00  0.00     0.173 A 
ATOM     66  F   UNL A   1      40.243  28.145  31.382  1.00  0.00    -0.203 F 
ATOM     67  C   UNL A   1      38.073  28.823  30.775  1.00  0.00     0.198 A 
ATOM     68  C   UNL A   1      37.599  29.448  28.507  1.00  0.00     0.198 A 
ATOM     69  F   UNL A   1      39.287  29.335  26.875  1.00  0.00    -0.203 F 
ATOM     70  F   UNL A   1      37.661  28.619  32.035  1.00  0.00    -0.200 F 
ATOM     71  C   UNL A   1      37.177  29.268  29.816  1.00  0.00     0.200 A 
ATOM     72  F   UNL A   1      36.738  29.893  27.582  1.00  0.00    -0.200 F 
ATOM     73  F   UNL A   1      35.903  29.516  30.151  1.00  0.00    -0.200 F 
ENDBRANCH  49  63
BRANCH  50  74
ATOM     74  C   UNL A   1      49.195  26.659  26.243  1.00  0.00     0.064 A 
ATOM     75  C   UNL A   1      50.173  26.212  27.143  1.00  0.00     0.173 A 
ATOM     76  C   UNL A   1      49.574  26.830  24.903  1.00  0.00     0.173 A 
ATOM     77  F   UNL A   1      49.866  26.051  28.439  1.00  0.00    -0.203 F 
ATOM     78  C   UNL A   1      51.480  25.970  26.726  1.00  0.00     0.198 A 
ATOM     79  C   UNL A   1      50.873  26.557  24.481  1.00  0.00     0.198 A 
ATOM     80  F   UNL A   1      48.676  27.250  23.999  1.00  0.00    -0.203 F 
ATOM     81  F   UNL A   1      52.406  25.593  27.618  1.00  0.00    -0.200 F 
ATOM     82  C   UNL A   1      51.828  26.137  25.394  1.00  0.00     0.200 A 
ATOM     83  F   UNL A   1      51.201  26.704  23.189  1.00  0.00    -0.200 F 
ATOM     84  F   UNL A   1      53.084  25.902  24.993  1.00  0.00    -0.200 F 
ENDBRANCH  50  74
BRANCH  62  85
ATOM     85  C   UNL A   1      45.969  32.446  28.438  1.00  0.00     0.064 A 
ATOM     86  C   UNL A   1      46.523  32.849  29.661  1.00  0.00     0.173 A 
ATOM     87  C   UNL A   1      45.936  33.381  27.391  1.00  0.00     0.173 A 
ATOM     88  F   UNL A   1      46.563  31.998  30.698  1.00  0.00    -0.203 F 
ATOM     89  C   UNL A   1      47.018  34.140  29.831  1.00  0.00     0.198 A 
ATOM     90  C   UNL A   1      46.459  34.659  27.554  1.00  0.00     0.198 A 
ATOM     91  F   UNL A   1      45.421  33.042  26.199  1.00  0.00    -0.203 F 
ATOM     92  F   UNL A   1      47.513  34.515  31.019  1.00  0.00    -0.200 F 
ATOM     93  C   UNL A   1      46.997  35.039  28.774  1.00  0.00     0.200 A 
ATOM     94  F   UNL A   1      46.454  35.521  26.527  1.00  0.00    -0.200 F 
ATOM     95  F   UNL A   1      47.493  36.274  28.934  1.00  0.00    -0.200 F 
ENDBRANCH  62  85
ENDBRANCH  36  37
ENDBRANCH  28  31
ENDBRANCH  26  27
ENDBRANCH  25  26
ENDBRANCH  24  25
ENDBRANCH   3  24
TORSDOF 16
ENDMDL
MODEL 3
REMARK VINA RESULT:     -11.5      1.285      2.461
REMARK SMILES CNC(=O)[C@H]1CCCCN1C(=O)NCCOCC(=O)NCCCNC(=O)c1ccc(-c2c3nc(c(-c4c(F)c(F)c(F)c(F)c4F)c4ccc([nH]4)c(-c4c(F)c(F)c(F)c(F)c4F)c4nc(c(-c5c(F)c(F)c(F)c(F)c5F)c5ccc2[nH]5)C=C4)C=C3)cc1
REMARK SMILES IDX 18 1 19 2 20 3 17 5 16 6 15 7 14 8 13 9 11 10 12 11 10 13
REMARK SMILES IDX 5 14 6 15 7 16 9 17 8 18 3 19 1 20 2 21 4 23 21 24 22 25
REMARK SMILES IDX 23 26 24 27 25 28 26 30 27 31 28 32 89 33 29 34 88 35 30 36
REMARK SMILES IDX 31 37 32 38 82 39 33 40 87 41 81 42 83 43 34 44 86 45 80 46
REMARK SMILES IDX 79 47 35 49 67 50 47 51 66 52 48 53 51 54 65 55 84 56 49 57
REMARK SMILES IDX 50 58 64 60 85 61 52 62 36 63 37 64 45 65 38 66 39 67 43 68
REMARK SMILES IDX 46 69 40 70 41 71 44 72 42 73 68 74 69 75 77 76 70 77 71 78
REMARK SMILES IDX 75 79 78 80 72 81 73 82 76 83 74 84 53 85 54 86 62 87 55 88
REMARK SMILES IDX 56 89 60 90 63 91 57 92 58 93 61 94 59 95
REMARK H PARENT 20 4 13 12 2 22 24 29 83 48 51 59
REMARK Flexibility Score: inf
ROOT
ATOM      1  C   UNL A   1      32.144  28.523  27.272  1.00  0.00     0.245 C 
ATOM      2  O   UNL A   1      31.575  27.614  27.874  1.00  0.00    -0.272 OA
ATOM      3  N   UNL A   1      31.415  29.610  26.885  1.00  0.00    -0.354 N 
ATOM      4  H   UNL A   1      30.475  29.626  27.180  1.00  0.00     0.163 HD
ENDROOT
BRANCH   1   5
ATOM      5  C   UNL A   1      33.636  28.477  26.940  1.00  0.00     0.260 C 
BRANCH   5   6
ATOM      6  O   UNL A   1      33.938  28.181  25.585  1.00  0.00    -0.370 OA
BRANCH   6   7
ATOM      7  C   UNL A   1      33.236  27.049  25.049  1.00  0.00     0.182 C 
BRANCH   7   8
ATOM      8  C   UNL A   1      33.942  25.721  25.349  1.00  0.00     0.146 C 
BRANCH   8   9
ATOM      9  N   UNL A   1      34.332  24.997  24.150  1.00  0.00    -0.336 N 
ATOM     10  C   UNL A   1      34.011  23.851  23.534  1.00  0.00     0.318 C 
ATOM     11  O   UNL A   1      34.770  23.555  22.604  1.00  0.00    -0.249 OA
ATOM     12  H   UNL A   1      35.026  25.485  23.652  1.00  0.00     0.165 HD
BRANCH  10  13
ATOM     13  N   UNL A   1      32.946  23.066  23.871  1.00  0.00    -0.313 N 
ATOM     14  C   UNL A   1      33.148  22.145  25.015  1.00  0.00     0.176 C 
ATOM     15  C   UNL A   1      33.448  20.740  24.448  1.00  0.00     0.035 C 
ATOM     16  C   UNL A   1      32.380  20.276  23.448  1.00  0.00     0.004 C 
ATOM     17  C   UNL A   1      31.799  22.688  23.051  1.00  0.00     0.122 C 
ATOM     18  C   UNL A   1      32.081  21.342  22.389  1.00  0.00     0.022 C 
BRANCH  14  19
ATOM     19  C   UNL A   1      32.005  22.101  26.067  1.00  0.00     0.242 C 
ATOM     20  C   UNL A   1      33.549  22.364  28.058  1.00  0.00     0.142 C 
ATOM     21  N   UNL A   1      32.276  22.185  27.403  1.00  0.00    -0.357 N 
ATOM     22  H   UNL A   1      31.497  22.116  28.001  1.00  0.00     0.163 HD
ATOM     23  O   UNL A   1      30.838  21.847  25.752  1.00  0.00    -0.273 OA
ENDBRANCH  14  19
ENDBRANCH  10  13
ENDBRANCH   8   9
ENDBRANCH   7   8
ENDBRANCH   6   7
ENDBRANCH   5   6
ENDBRANCH   1   5
BRANCH   3  24
ATOM     24  C   UNL A   1      31.851  30.743  26.092  1.00  0.00     0.117 C 
BRANCH  24  25
ATOM     25  C   UNL A   1      31.518  32.067  26.767  1.00  0.00     0.042 C 
BRANCH  25  26
ATOM     26  C   UNL A   1      32.732  32.781  27.354  1.00  0.00     0.118 C 
BRANCH  26  27
ATOM     27  N   UNL A   1      32.464  34.176  27.678  1.00  0.00    -0.352 N 
ATOM     28  C   UNL A   1      33.026  34.988  28.635  1.00  0.00     0.251 C 
ATOM     29  H   UNL A   1      31.773  34.607  27.125  1.00  0.00     0.163 HD
ATOM     30  O   UNL A   1      32.532  36.080  28.883  1.00  0.00    -0.269 OA
BRANCH  28  31
ATOM     31  C   UNL A   1      34.218  34.530  29.379  1.00  0.00     0.039 A 
ATOM     32  C   UNL A   1      34.050  33.954  30.641  1.00  0.00     0.014 A 
ATOM     33  C   UNL A   1      35.494  34.669  28.832  1.00  0.00     0.014 A 
ATOM     34  C   UNL A   1      35.159  33.440  31.318  1.00  0.00     0.010 A 
ATOM     35  C   UNL A   1      36.582  34.085  29.468  1.00  0.00     0.010 A 
ATOM     36  C   UNL A   1      36.426  33.460  30.715  1.00  0.00    -0.014 A 
BRANCH  36  37
ATOM     37  C   UNL A   1      37.609  32.833  31.355  1.00  0.00     0.031 A 
ATOM     38  C   UNL A   1      38.291  31.673  30.686  1.00  0.00     0.074 A 
ATOM     39  C   UNL A   1      38.003  33.239  32.577  1.00  0.00     0.049 A 
ATOM     40  N   UNL A   1      39.233  30.888  31.145  1.00  0.00    -0.248 NA
ATOM     41  C   UNL A   1      37.830  31.331  29.332  1.00  0.00     0.031 C 
ATOM     42  C   UNL A   1      37.403  34.335  33.340  1.00  0.00     0.029 A 
ATOM     43  N   UNL A   1      38.989  32.761  33.405  1.00  0.00    -0.354 N 
ATOM     44  C   UNL A   1      39.461  29.952  30.145  1.00  0.00     0.074 A 
ATOM     45  C   UNL A   1      38.525  30.232  29.079  1.00  0.00     0.031 C 
ATOM     46  C   UNL A   1      38.039  34.453  34.516  1.00  0.00     0.029 A 
ATOM     47  C   UNL A   1      39.055  33.408  34.615  1.00  0.00     0.049 A 
ATOM     48  H   UNL A   1      39.592  32.024  33.155  1.00  0.00     0.167 HD
ATOM     49  C   UNL A   1      40.383  28.960  30.114  1.00  0.00     0.037 A 
ATOM     50  C   UNL A   1      39.830  33.172  35.690  1.00  0.00     0.037 A 
ATOM     51  C   UNL A   1      41.324  28.701  31.171  1.00  0.00     0.049 A 
ATOM     52  C   UNL A   1      40.821  32.040  35.646  1.00  0.00     0.074 A 
ATOM     53  C   UNL A   1      42.331  27.754  31.215  1.00  0.00     0.029 A 
ATOM     54  N   UNL A   1      41.371  29.391  32.374  1.00  0.00    -0.354 N 
ATOM     55  N   UNL A   1      41.068  31.193  34.674  1.00  0.00    -0.248 NA
ATOM     56  C   UNL A   1      41.643  31.826  36.846  1.00  0.00     0.031 C 
ATOM     57  C   UNL A   1      42.950  27.832  32.465  1.00  0.00     0.029 A 
ATOM     58  C   UNL A   1      42.372  28.872  33.178  1.00  0.00     0.049 A 
ATOM     59  H   UNL A   1      40.780  30.139  32.621  1.00  0.00     0.167 HD
ATOM     60  C   UNL A   1      42.095  30.378  35.128  1.00  0.00     0.074 A 
ATOM     61  C   UNL A   1      42.430  30.831  36.462  1.00  0.00     0.031 C 
ATOM     62  C   UNL A   1      42.709  29.350  34.494  1.00  0.00     0.037 A 
BRANCH  49  63
ATOM     63  C   UNL A   1      40.418  28.078  28.899  1.00  0.00     0.064 A 
ATOM     64  C   UNL A   1      41.174  28.413  27.766  1.00  0.00     0.173 A 
ATOM     65  C   UNL A   1      39.719  26.862  28.883  1.00  0.00     0.173 A 
ATOM     66  F   UNL A   1      41.853  29.569  27.724  1.00  0.00    -0.203 F 
ATOM     67  C   UNL A   1      41.203  27.579  26.651  1.00  0.00     0.198 A 
ATOM     68  C   UNL A   1      39.778  26.014  27.781  1.00  0.00     0.198 A 
ATOM     69  F   UNL A   1      38.986  26.488  29.943  1.00  0.00    -0.203 F 
ATOM     70  F   UNL A   1      41.889  27.947  25.559  1.00  0.00    -0.200 F 
ATOM     71  C   UNL A   1      40.512  26.378  26.662  1.00  0.00     0.200 A 
ATOM     72  F   UNL A   1      39.122  24.846  27.800  1.00  0.00    -0.200 F 
ATOM     73  F   UNL A   1      40.548  25.572  25.591  1.00  0.00    -0.200 F 
ENDBRANCH  49  63
BRANCH  50  74
ATOM     74  C   UNL A   1      39.708  34.029  36.900  1.00  0.00     0.064 A 
ATOM     75  C   UNL A   1      38.912  33.633  37.984  1.00  0.00     0.173 A 
ATOM     76  C   UNL A   1      40.375  35.260  36.998  1.00  0.00     0.173 A 
ATOM     77  F   UNL A   1      38.240  32.474  37.932  1.00  0.00    -0.203 F 
ATOM     78  C   UNL A   1      38.768  34.445  39.107  1.00  0.00     0.198 A 
ATOM     79  C   UNL A   1      40.255  36.056  38.134  1.00  0.00     0.198 A 
ATOM     80  F   UNL A   1      41.155  35.684  35.991  1.00  0.00    -0.203 F 
ATOM     81  F   UNL A   1      37.960  34.065  40.106  1.00  0.00    -0.200 F 
ATOM     82  C   UNL A   1      39.444  35.654  39.184  1.00  0.00     0.200 A 
ATOM     83  F   UNL A   1      40.923  37.216  38.211  1.00  0.00    -0.200 F 
ATOM     84  F   UNL A   1      39.307  36.433  40.265  1.00  0.00    -0.200 F 
ENDBRANCH  50  74
BRANCH  62  85
ATOM     85  C   UNL A   1      43.846  28.671  35.202  1.00  0.00     0.064 A 
ATOM     86  C   UNL A   1      43.640  27.579  36.056  1.00  0.00     0.173 A 
ATOM     87  C   UNL A   1      45.168  29.073  34.954  1.00  0.00     0.173 A 
ATOM     88  F   UNL A   1      42.395  27.166  36.337  1.00  0.00    -0.203 F 
ATOM     89  C   UNL A   1      44.716  26.920  36.645  1.00  0.00     0.198 A 
ATOM     90  C   UNL A   1      46.242  28.393  35.519  1.00  0.00     0.198 A 
ATOM     91  F   UNL A   1      45.418  30.110  34.140  1.00  0.00    -0.203 F 
ATOM     92  F   UNL A   1      44.496  25.899  37.484  1.00  0.00    -0.200 F 
ATOM     93  C   UNL A   1      46.015  27.320  36.366  1.00  0.00     0.200 A 
ATOM     94  F   UNL A   1      47.496  28.770  35.235  1.00  0.00    -0.200 F 
ATOM     95  F   UNL A   1      47.051  26.670  36.918  1.00  0.00    -0.200 F 
ENDBRANCH  62  85
ENDBRANCH  36  37
ENDBRANCH  28  31
ENDBRANCH  26  27
ENDBRANCH  25  26
ENDBRANCH  24  25
ENDBRANCH   3  24
TORSDOF 16
ENDMDL
