MODEL 1
REMARK VINA RESULT:     -11.7      0.000      0.000
REMARK SMILES CCCCCn1c(SCC(=O)NCCCNC(=O)c2ccc(-c3c4nc(c(-c5c(F)c(F)c(F)c(F)c5F)c5ccc([nH]5)c(-c5c(F)c(F)c(F)c(F)c5F)c5nc(c(-c6c(F)c(F)c(F)c(F)c6F)c6ccc3[nH]6)C=C5)C=C4)cc2)nc2ccccc2c1=O
REMARK SMILES IDX 10 1 11 2 12 3 9 5 8 6 7 7 6 8 89 9 82 10 88 11 90 12 83 13
REMARK SMILES IDX 87 14 84 15 86 16 85 17 5 18 4 19 3 20 2 21 1 22 13 23 14 24
REMARK SMILES IDX 15 25 16 26 17 27 18 29 19 30 20 31 81 32 21 33 80 34 22 35
REMARK SMILES IDX 23 36 24 37 74 38 25 39 79 40 73 41 75 42 26 43 78 44 72 45
REMARK SMILES IDX 71 46 27 48 59 49 39 50 58 51 40 52 43 53 57 54 76 55 41 56
REMARK SMILES IDX 42 57 56 59 77 60 44 61 28 62 29 63 37 64 30 65 31 66 35 67
REMARK SMILES IDX 38 68 32 69 33 70 36 71 34 72 60 73 61 74 69 75 62 76 63 77
REMARK SMILES IDX 67 78 70 79 64 80 65 81 68 82 66 83 45 84 46 85 54 86 47 87
REMARK SMILES IDX 48 88 52 89 55 90 49 91 50 92 53 93 51 94
REMARK H PARENT 12 4 16 28 75 47 43 58
REMARK Flexibility Score: inf
ROOT
ATOM      1  C   UNL A   1      37.145  23.319  25.741  1.00  0.00     0.230 C 
ATOM      2  O   UNL A   1      37.765  24.147  26.418  1.00  0.00    -0.274 OA
ATOM      3  N   UNL A   1      37.584  22.039  25.811  1.00  0.00    -0.355 N 
ATOM      4  H   UNL A   1      38.247  21.884  26.521  1.00  0.00     0.163 HD
ENDROOT
BRANCH   1   5
ATOM      5  C   UNL A   1      35.889  23.742  25.024  1.00  0.00     0.178 C 
BRANCH   5   6
ATOM      6  S   UNL A   1      34.341  23.435  25.854  1.00  0.00    -0.078 SA
BRANCH   6   7
ATOM      7  C   UNL A   1      33.402  24.883  25.719  1.00  0.00     0.171 A 
ATOM      8  N   UNL A   1      32.049  24.878  25.506  1.00  0.00    -0.287 N 
ATOM      9  C   UNL A   1      31.339  25.849  26.227  1.00  0.00     0.262 A 
ATOM     10  N   UNL A   1      34.092  25.956  25.942  1.00  0.00    -0.224 NA
ATOM     11  C   UNL A   1      32.061  27.096  26.556  1.00  0.00     0.066 A 
ATOM     12  O   UNL A   1      30.180  25.710  26.612  1.00  0.00    -0.269 OA
ATOM     13  C   UNL A   1      33.399  27.143  26.190  1.00  0.00     0.079 A 
ATOM     14  C   UNL A   1      31.441  28.194  27.158  1.00  0.00     0.016 A 
ATOM     15  C   UNL A   1      34.086  28.354  26.270  1.00  0.00     0.029 A 
ATOM     16  C   UNL A   1      32.152  29.389  27.291  1.00  0.00     0.001 A 
ATOM     17  C   UNL A   1      33.457  29.482  26.803  1.00  0.00     0.002 A 
BRANCH   8  18
ATOM     18  C   UNL A   1      31.230  23.830  24.877  1.00  0.00     0.128 C 
BRANCH  18  19
ATOM     19  C   UNL A   1      31.333  23.402  23.384  1.00  0.00     0.022 C 
BRANCH  19  20
ATOM     20  C   UNL A   1      32.312  22.386  22.774  1.00  0.00     0.002 C 
BRANCH  20  21
ATOM     21  C   UNL A   1      32.181  20.867  23.020  1.00  0.00    -0.003 C 
ATOM     22  C   UNL A   1      32.383  20.310  24.422  1.00  0.00     0.004 C 
ENDBRANCH  20  21
ENDBRANCH  19  20
ENDBRANCH  18  19
ENDBRANCH   8  18
ENDBRANCH   6   7
ENDBRANCH   5   6
ENDBRANCH   1   5
BRANCH   3  23
ATOM     23  C   UNL A   1      37.264  20.851  25.038  1.00  0.00     0.117 C 
BRANCH  23  24
ATOM     24  C   UNL A   1      38.337  19.766  25.120  1.00  0.00     0.042 C 
BRANCH  24  25
ATOM     25  C   UNL A   1      39.549  20.167  25.939  1.00  0.00     0.118 C 
BRANCH  25  26
ATOM     26  N   UNL A   1      40.524  19.088  26.006  1.00  0.00    -0.352 N 
ATOM     27  C   UNL A   1      41.891  19.191  26.109  1.00  0.00     0.251 C 
ATOM     28  H   UNL A   1      40.160  18.174  25.976  1.00  0.00     0.163 HD
ATOM     29  O   UNL A   1      42.615  18.238  25.880  1.00  0.00    -0.269 OA
BRANCH  27  30
ATOM     30  C   UNL A   1      42.454  20.505  26.475  1.00  0.00     0.039 A 
ATOM     31  C   UNL A   1      42.420  20.915  27.810  1.00  0.00     0.014 A 
ATOM     32  C   UNL A   1      42.927  21.357  25.477  1.00  0.00     0.014 A 
ATOM     33  C   UNL A   1      42.678  22.239  28.118  1.00  0.00     0.010 A 
ATOM     34  C   UNL A   1      43.315  22.655  25.817  1.00  0.00     0.010 A 
ATOM     35  C   UNL A   1      43.155  23.119  27.133  1.00  0.00    -0.014 A 
BRANCH  35  36
ATOM     36  C   UNL A   1      43.516  24.504  27.521  1.00  0.00     0.031 A 
ATOM     37  C   UNL A   1      44.946  24.965  27.513  1.00  0.00     0.074 A 
ATOM     38  C   UNL A   1      42.524  25.361  27.836  1.00  0.00     0.049 A 
ATOM     39  N   UNL A   1      45.436  26.130  27.859  1.00  0.00    -0.248 NA
ATOM     40  C   UNL A   1      45.962  23.998  27.071  1.00  0.00     0.031 C 
ATOM     41  C   UNL A   1      41.097  25.024  27.853  1.00  0.00     0.029 A 
ATOM     42  N   UNL A   1      42.552  26.689  28.170  1.00  0.00    -0.354 N 
ATOM     43  C   UNL A   1      46.812  26.027  27.698  1.00  0.00     0.074 A 
ATOM     44  C   UNL A   1      47.086  24.678  27.254  1.00  0.00     0.031 C 
ATOM     45  C   UNL A   1      40.385  26.128  28.109  1.00  0.00     0.029 A 
ATOM     46  C   UNL A   1      41.304  27.227  28.373  1.00  0.00     0.049 A 
ATOM     47  H   UNL A   1      43.384  27.207  28.257  1.00  0.00     0.167 HD
ATOM     48  C   UNL A   1      47.753  26.981  27.894  1.00  0.00     0.037 A 
ATOM     49  C   UNL A   1      40.938  28.462  28.760  1.00  0.00     0.037 A 
ATOM     50  C   UNL A   1      47.459  28.328  28.312  1.00  0.00     0.049 A 
ATOM     51  C   UNL A   1      42.007  29.478  29.028  1.00  0.00     0.074 A 
ATOM     52  C   UNL A   1      48.340  29.374  28.531  1.00  0.00     0.029 A 
ATOM     53  N   UNL A   1      46.186  28.819  28.570  1.00  0.00    -0.354 N 
ATOM     54  N   UNL A   1      43.305  29.366  28.887  1.00  0.00    -0.248 NA
ATOM     55  C   UNL A   1      41.565  30.786  29.524  1.00  0.00     0.031 C 
ATOM     56  C   UNL A   1      47.606  30.478  28.971  1.00  0.00     0.029 A 
ATOM     57  C   UNL A   1      46.261  30.144  28.968  1.00  0.00     0.049 A 
ATOM     58  H   UNL A   1      45.354  28.301  28.483  1.00  0.00     0.167 HD
ATOM     59  C   UNL A   1      43.836  30.592  29.259  1.00  0.00     0.074 A 
ATOM     60  C   UNL A   1      42.715  31.440  29.612  1.00  0.00     0.031 C 
ATOM     61  C   UNL A   1      45.134  30.976  29.309  1.00  0.00     0.037 A 
BRANCH  48  62
ATOM     62  C   UNL A   1      49.193  26.613  27.669  1.00  0.00     0.064 A 
ATOM     63  C   UNL A   1      50.060  26.342  28.737  1.00  0.00     0.173 A 
ATOM     64  C   UNL A   1      49.690  26.452  26.365  1.00  0.00     0.173 A 
ATOM     65  F   UNL A   1      49.641  26.489  30.002  1.00  0.00    -0.203 F 
ATOM     66  C   UNL A   1      51.374  25.938  28.510  1.00  0.00     0.198 A 
ATOM     67  C   UNL A   1      50.994  26.018  26.141  1.00  0.00     0.198 A 
ATOM     68  F   UNL A   1      48.902  26.691  25.307  1.00  0.00    -0.203 F 
ATOM     69  F   UNL A   1      52.194  25.716  29.546  1.00  0.00    -0.200 F 
ATOM     70  C   UNL A   1      51.836  25.765  27.213  1.00  0.00     0.200 A 
ATOM     71  F   UNL A   1      51.433  25.836  24.888  1.00  0.00    -0.200 F 
ATOM     72  F   UNL A   1      53.094  25.356  26.997  1.00  0.00    -0.200 F 
ENDBRANCH  48  62
BRANCH  49  73
ATOM     73  C   UNL A   1      39.496  28.782  28.917  1.00  0.00     0.064 A 
ATOM     74  C   UNL A   1      38.856  28.625  30.153  1.00  0.00     0.173 A 
ATOM     75  C   UNL A   1      38.739  29.295  27.850  1.00  0.00     0.173 A 
ATOM     76  F   UNL A   1      39.530  28.123  31.198  1.00  0.00    -0.203 F 
ATOM     77  C   UNL A   1      37.514  28.964  30.316  1.00  0.00     0.198 A 
ATOM     78  C   UNL A   1      37.408  29.666  28.023  1.00  0.00     0.198 A 
ATOM     79  F   UNL A   1      39.307  29.471  26.648  1.00  0.00    -0.203 F 
ATOM     80  F   UNL A   1      36.916  28.774  31.500  1.00  0.00    -0.200 F 
ATOM     81  C   UNL A   1      36.795  29.495  29.255  1.00  0.00     0.200 A 
ATOM     82  F   UNL A   1      36.726  30.199  27.001  1.00  0.00    -0.200 F 
ATOM     83  F   UNL A   1      35.510  29.839  29.417  1.00  0.00    -0.200 F 
ENDBRANCH  49  73
BRANCH  61  84
ATOM     84  C   UNL A   1      45.418  32.384  29.738  1.00  0.00     0.064 A 
ATOM     85  C   UNL A   1      45.641  32.711  31.084  1.00  0.00     0.173 A 
ATOM     86  C   UNL A   1      45.537  33.407  28.784  1.00  0.00     0.173 A 
ATOM     87  F   UNL A   1      45.522  31.773  32.035  1.00  0.00    -0.203 F 
ATOM     88  C   UNL A   1      45.955  34.013  31.460  1.00  0.00     0.198 A 
ATOM     89  C   UNL A   1      45.886  34.700  29.161  1.00  0.00     0.198 A 
ATOM     90  F   UNL A   1      45.341  33.144  27.483  1.00  0.00    -0.203 F 
ATOM     91  F   UNL A   1      46.123  34.312  32.755  1.00  0.00    -0.200 F 
ATOM     92  C   UNL A   1      46.089  35.004  30.498  1.00  0.00     0.200 A 
ATOM     93  F   UNL A   1      46.031  35.652  28.227  1.00  0.00    -0.200 F 
ATOM     94  F   UNL A   1      46.411  36.253  30.860  1.00  0.00    -0.200 F 
ENDBRANCH  61  84
ENDBRANCH  35  36
ENDBRANCH  27  30
ENDBRANCH  25  26
ENDBRANCH  24  25
ENDBRANCH  23  24
ENDBRANCH   3  23
TORSDOF 16
ENDMDL
MODEL 2
REMARK VINA RESULT:     -11.6      0.871      7.385
REMARK SMILES CCCCCn1c(SCC(=O)NCCCNC(=O)c2ccc(-c3c4nc(c(-c5c(F)c(F)c(F)c(F)c5F)c5ccc([nH]5)c(-c5c(F)c(F)c(F)c(F)c5F)c5nc(c(-c6c(F)c(F)c(F)c(F)c6F)c6ccc3[nH]6)C=C5)C=C4)cc2)nc2ccccc2c1=O
REMARK SMILES IDX 10 1 11 2 12 3 9 5 8 6 7 7 6 8 89 9 82 10 88 11 90 12 83 13
REMARK SMILES IDX 87 14 84 15 86 16 85 17 5 18 4 19 3 20 2 21 1 22 13 23 14 24
REMARK SMILES IDX 15 25 16 26 17 27 18 29 19 30 20 31 81 32 21 33 80 34 22 35
REMARK SMILES IDX 23 36 24 37 74 38 25 39 79 40 73 41 75 42 26 43 78 44 72 45
REMARK SMILES IDX 71 46 27 48 59 49 39 50 58 51 40 52 43 53 57 54 76 55 41 56
REMARK SMILES IDX 42 57 56 59 77 60 44 61 28 62 29 63 37 64 30 65 31 66 35 67
REMARK SMILES IDX 38 68 32 69 33 70 36 71 34 72 60 73 61 74 69 75 62 76 63 77
REMARK SMILES IDX 67 78 70 79 64 80 65 81 68 82 66 83 45 84 46 85 54 86 47 87
REMARK SMILES IDX 48 88 52 89 55 90 49 91 50 92 53 93 51 94
REMARK H PARENT 12 4 16 28 75 47 43 58
REMARK Flexibility Score: inf
ROOT
ATOM      1  C   UNL A   1      37.125  23.202  25.692  1.00  0.00     0.230 C 
ATOM      2  O   UNL A   1      37.739  24.043  26.358  1.00  0.00    -0.274 OA
ATOM      3  N   UNL A   1      37.595  21.932  25.751  1.00  0.00    -0.355 N 
ATOM      4  H   UNL A   1      38.275  21.792  26.449  1.00  0.00     0.163 HD
ENDROOT
BRANCH   1   5
ATOM      5  C   UNL A   1      35.846  23.597  25.001  1.00  0.00     0.178 C 
BRANCH   5   6
ATOM      6  S   UNL A   1      34.329  23.358  25.907  1.00  0.00    -0.078 SA
BRANCH   6   7
ATOM      7  C   UNL A   1      33.396  24.803  25.716  1.00  0.00     0.171 A 
ATOM      8  N   UNL A   1      32.049  24.794  25.466  1.00  0.00    -0.287 N 
ATOM      9  C   UNL A   1      31.321  25.780  26.147  1.00  0.00     0.262 A 
ATOM     10  N   UNL A   1      34.080  25.880  25.936  1.00  0.00    -0.224 NA
ATOM     11  C   UNL A   1      32.034  27.033  26.471  1.00  0.00     0.066 A 
ATOM     12  O   UNL A   1      30.152  25.649  26.503  1.00  0.00    -0.269 OA
ATOM     13  C   UNL A   1      33.383  27.072  26.141  1.00  0.00     0.079 A 
ATOM     14  C   UNL A   1      31.400  28.144  27.033  1.00  0.00     0.016 A 
ATOM     15  C   UNL A   1      34.069  28.283  26.216  1.00  0.00     0.029 A 
ATOM     16  C   UNL A   1      32.108  29.340  27.162  1.00  0.00     0.001 A 
ATOM     17  C   UNL A   1      33.426  29.423  26.708  1.00  0.00     0.002 A 
BRANCH   8  18
ATOM     18  C   UNL A   1      31.247  23.735  24.836  1.00  0.00     0.128 C 
BRANCH  18  19
ATOM     19  C   UNL A   1      31.439  23.227  23.377  1.00  0.00     0.022 C 
BRANCH  19  20
ATOM     20  C   UNL A   1      32.461  22.192  22.880  1.00  0.00     0.002 C 
BRANCH  20  21
ATOM     21  C   UNL A   1      32.366  20.697  23.253  1.00  0.00    -0.003 C 
ATOM     22  C   UNL A   1      32.539  20.269  24.703  1.00  0.00     0.004 C 
ENDBRANCH  20  21
ENDBRANCH  19  20
ENDBRANCH  18  19
ENDBRANCH   8  18
ENDBRANCH   6   7
ENDBRANCH   5   6
ENDBRANCH   1   5
BRANCH   3  23
ATOM     23  C   UNL A   1      37.287  20.738  24.983  1.00  0.00     0.117 C 
BRANCH  23  24
ATOM     24  C   UNL A   1      38.342  19.642  25.117  1.00  0.00     0.042 C 
BRANCH  24  25
ATOM     25  C   UNL A   1      39.504  20.018  26.017  1.00  0.00     0.118 C 
BRANCH  25  26
ATOM     26  N   UNL A   1      40.484  18.945  26.095  1.00  0.00    -0.352 N 
ATOM     27  C   UNL A   1      41.855  19.053  26.101  1.00  0.00     0.251 C 
ATOM     28  H   UNL A   1      40.121  18.031  26.152  1.00  0.00     0.163 HD
ATOM     29  O   UNL A   1      42.565  18.085  25.892  1.00  0.00    -0.269 OA
BRANCH  27  30
ATOM     30  C   UNL A   1      42.436  20.388  26.338  1.00  0.00     0.039 A 
ATOM     31  C   UNL A   1      42.417  20.922  27.629  1.00  0.00     0.014 A 
ATOM     32  C   UNL A   1      42.912  21.136  25.262  1.00  0.00     0.014 A 
ATOM     33  C   UNL A   1      42.693  22.266  27.809  1.00  0.00     0.010 A 
ATOM     34  C   UNL A   1      43.319  22.455  25.476  1.00  0.00     0.010 A 
ATOM     35  C   UNL A   1      43.174  23.043  26.743  1.00  0.00    -0.014 A 
BRANCH  35  36
ATOM     36  C   UNL A   1      43.556  24.454  26.996  1.00  0.00     0.031 A 
ATOM     37  C   UNL A   1      42.566  25.439  27.550  1.00  0.00     0.074 A 
ATOM     38  C   UNL A   1      44.831  24.824  26.763  1.00  0.00     0.049 A 
ATOM     39  N   UNL A   1      42.726  26.716  27.796  1.00  0.00    -0.248 NA
ATOM     40  C   UNL A   1      41.220  24.936  27.863  1.00  0.00     0.031 C 
ATOM     41  C   UNL A   1      45.881  23.941  26.247  1.00  0.00     0.029 A 
ATOM     42  N   UNL A   1      45.472  26.019  26.956  1.00  0.00    -0.354 N 
ATOM     43  C   UNL A   1      41.501  27.170  28.266  1.00  0.00     0.074 A 
ATOM     44  C   UNL A   1      40.596  26.042  28.245  1.00  0.00     0.031 C 
ATOM     45  C   UNL A   1      47.045  24.601  26.232  1.00  0.00     0.029 A 
ATOM     46  C   UNL A   1      46.808  25.980  26.639  1.00  0.00     0.049 A 
ATOM     47  H   UNL A   1      45.019  26.828  27.287  1.00  0.00     0.167 HD
ATOM     48  C   UNL A   1      41.174  28.414  28.688  1.00  0.00     0.037 A 
ATOM     49  C   UNL A   1      47.737  26.952  26.646  1.00  0.00     0.037 A 
ATOM     50  C   UNL A   1      42.096  29.520  28.727  1.00  0.00     0.049 A 
ATOM     51  C   UNL A   1      47.328  28.333  27.060  1.00  0.00     0.074 A 
ATOM     52  C   UNL A   1      41.866  30.820  29.146  1.00  0.00     0.029 A 
ATOM     53  N   UNL A   1      43.427  29.457  28.338  1.00  0.00    -0.354 N 
ATOM     54  N   UNL A   1      46.164  28.755  27.489  1.00  0.00    -0.248 NA
ATOM     55  C   UNL A   1      48.355  29.379  26.975  1.00  0.00     0.031 C 
ATOM     56  C   UNL A   1      43.041  31.553  28.959  1.00  0.00     0.029 A 
ATOM     57  C   UNL A   1      44.023  30.699  28.484  1.00  0.00     0.049 A 
ATOM     58  H   UNL A   1      43.880  28.648  28.006  1.00  0.00     0.167 HD
ATOM     59  C   UNL A   1      46.319  30.109  27.744  1.00  0.00     0.074 A 
ATOM     60  C   UNL A   1      47.699  30.434  27.439  1.00  0.00     0.031 C 
ATOM     61  C   UNL A   1      45.401  31.002  28.183  1.00  0.00     0.037 A 
BRANCH  48  62
ATOM     62  C   UNL A   1      39.760  28.661  29.137  1.00  0.00     0.064 A 
ATOM     63  C   UNL A   1      39.368  28.489  30.472  1.00  0.00     0.173 A 
ATOM     64  C   UNL A   1      38.804  29.153  28.232  1.00  0.00     0.173 A 
ATOM     65  F   UNL A   1      40.238  28.013  31.375  1.00  0.00    -0.203 F 
ATOM     66  C   UNL A   1      38.071  28.785  30.883  1.00  0.00     0.198 A 
ATOM     67  C   UNL A   1      37.517  29.477  28.653  1.00  0.00     0.198 A 
ATOM     68  F   UNL A   1      39.126  29.343  26.945  1.00  0.00    -0.203 F 
ATOM     69  F   UNL A   1      37.711  28.580  32.157  1.00  0.00    -0.200 F 
ATOM     70  C   UNL A   1      37.150  29.289  29.976  1.00  0.00     0.200 A 
ATOM     71  F   UNL A   1      36.634  29.980  27.778  1.00  0.00    -0.200 F 
ATOM     72  F   UNL A   1      35.908  29.594  30.379  1.00  0.00    -0.200 F 
ENDBRANCH  48  62
BRANCH  49  73
ATOM     73  C   UNL A   1      49.131  26.636  26.240  1.00  0.00     0.064 A 
ATOM     74  C   UNL A   1      49.551  26.817  24.916  1.00  0.00     0.173 A 
ATOM     75  C   UNL A   1      50.082  26.192  27.172  1.00  0.00     0.173 A 
ATOM     76  F   UNL A   1      48.676  27.223  23.984  1.00  0.00    -0.203 F 
ATOM     77  C   UNL A   1      50.869  26.562  24.539  1.00  0.00     0.198 A 
ATOM     78  C   UNL A   1      51.406  25.971  26.802  1.00  0.00     0.198 A 
ATOM     79  F   UNL A   1      49.733  26.010  28.454  1.00  0.00    -0.203 F 
ATOM     80  F   UNL A   1      51.238  26.712  23.260  1.00  0.00    -0.200 F 
ATOM     81  C   UNL A   1      51.797  26.151  25.484  1.00  0.00     0.200 A 
ATOM     82  F   UNL A   1      52.303  25.597  27.724  1.00  0.00    -0.200 F 
ATOM     83  F   UNL A   1      53.068  25.926  25.125  1.00  0.00    -0.200 F 
ENDBRANCH  49  73
BRANCH  61  84
ATOM     84  C   UNL A   1      45.858  32.416  28.388  1.00  0.00     0.064 A 
ATOM     85  C   UNL A   1      45.848  33.350  27.341  1.00  0.00     0.173 A 
ATOM     86  C   UNL A   1      46.247  32.859  29.661  1.00  0.00     0.173 A 
ATOM     87  F   UNL A   1      45.501  32.971  26.102  1.00  0.00    -0.203 F 
ATOM     88  C   UNL A   1      46.226  34.670  27.559  1.00  0.00     0.198 A 
ATOM     89  C   UNL A   1      46.591  34.188  29.883  1.00  0.00     0.198 A 
ATOM     90  F   UNL A   1      46.266  32.006  30.697  1.00  0.00    -0.203 F 
ATOM     91  F   UNL A   1      46.249  35.536  26.537  1.00  0.00    -0.200 F 
ATOM     92  C   UNL A   1      46.586  35.092  28.832  1.00  0.00     0.200 A 
ATOM     93  F   UNL A   1      46.921  34.597  31.116  1.00  0.00    -0.200 F 
ATOM     94  F   UNL A   1      46.931  36.370  29.043  1.00  0.00    -0.200 F 
ENDBRANCH  61  84
ENDBRANCH  35  36
ENDBRANCH  27  30
ENDBRANCH  25  26
ENDBRANCH  24  25
ENDBRANCH  23  24
ENDBRANCH   3  23
TORSDOF 16
ENDMDL
MODEL 3
REMARK VINA RESULT:     -11.5      5.575      9.841
REMARK SMILES CCCCCn1c(SCC(=O)NCCCNC(=O)c2ccc(-c3c4nc(c(-c5c(F)c(F)c(F)c(F)c5F)c5ccc([nH]5)c(-c5c(F)c(F)c(F)c(F)c5F)c5nc(c(-c6c(F)c(F)c(F)c(F)c6F)c6ccc3[nH]6)C=C5)C=C4)cc2)nc2ccccc2c1=O
REMARK SMILES IDX 10 1 11 2 12 3 9 5 8 6 7 7 6 8 89 9 82 10 88 11 90 12 83 13
REMARK SMILES IDX 87 14 84 15 86 16 85 17 5 18 4 19 3 20 2 21 1 22 13 23 14 24
REMARK SMILES IDX 15 25 16 26 17 27 18 29 19 30 20 31 81 32 21 33 80 34 22 35
REMARK SMILES IDX 23 36 24 37 74 38 25 39 79 40 73 41 75 42 26 43 78 44 72 45
REMARK SMILES IDX 71 46 27 48 59 49 39 50 58 51 40 52 43 53 57 54 76 55 41 56
REMARK SMILES IDX 42 57 56 59 77 60 44 61 28 62 29 63 37 64 30 65 31 66 35 67
REMARK SMILES IDX 38 68 32 69 33 70 36 71 34 72 60 73 61 74 69 75 62 76 63 77
REMARK SMILES IDX 67 78 70 79 64 80 65 81 68 82 66 83 45 84 46 85 54 86 47 87
REMARK SMILES IDX 48 88 52 89 55 90 49 91 50 92 53 93 51 94
REMARK H PARENT 12 4 16 28 75 47 43 58
REMARK Flexibility Score: inf
ROOT
ATOM      1  C   UNL A   1      33.830  29.054  26.937  1.00  0.00     0.230 C 
ATOM      2  O   UNL A   1      34.883  28.944  27.576  1.00  0.00    -0.274 OA
ATOM      3  N   UNL A   1      33.209  30.257  27.011  1.00  0.00    -0.355 N 
ATOM      4  H   UNL A   1      33.752  30.960  27.432  1.00  0.00     0.163 HD
ENDROOT
BRANCH   1   5
ATOM      5  C   UNL A   1      33.398  27.935  26.026  1.00  0.00     0.178 C 
BRANCH   5   6
ATOM      6  S   UNL A   1      33.633  28.179  24.275  1.00  0.00    -0.078 SA
BRANCH   6   7
ATOM      7  C   UNL A   1      32.096  27.926  23.522  1.00  0.00     0.171 A 
ATOM      8  N   UNL A   1      31.413  26.740  23.598  1.00  0.00    -0.287 N 
ATOM      9  C   UNL A   1      30.027  26.872  23.762  1.00  0.00     0.262 A 
ATOM     10  N   UNL A   1      31.618  28.997  22.972  1.00  0.00    -0.224 NA
ATOM     11  C   UNL A   1      29.400  28.084  23.195  1.00  0.00     0.066 A 
ATOM     12  O   UNL A   1      29.324  26.061  24.361  1.00  0.00    -0.269 OA
ATOM     13  C   UNL A   1      30.265  29.013  22.630  1.00  0.00     0.079 A 
ATOM     14  C   UNL A   1      28.018  28.284  23.174  1.00  0.00     0.016 A 
ATOM     15  C   UNL A   1      29.740  30.071  21.889  1.00  0.00     0.029 A 
ATOM     16  C   UNL A   1      27.497  29.379  22.481  1.00  0.00     0.001 A 
ATOM     17  C   UNL A   1      28.356  30.244  21.798  1.00  0.00     0.002 A 
BRANCH   8  18
ATOM     18  C   UNL A   1      31.954  25.392  23.829  1.00  0.00     0.128 C 
BRANCH  18  19
ATOM     19  C   UNL A   1      33.307  24.870  23.262  1.00  0.00     0.022 C 
BRANCH  19  20
ATOM     20  C   UNL A   1      34.571  24.511  24.058  1.00  0.00     0.002 C 
BRANCH  20  21
ATOM     21  C   UNL A   1      35.212  23.107  23.996  1.00  0.00    -0.003 C 
ATOM     22  C   UNL A   1      36.497  22.899  23.208  1.00  0.00     0.004 C 
ENDBRANCH  20  21
ENDBRANCH  19  20
ENDBRANCH  18  19
ENDBRANCH   8  18
ENDBRANCH   6   7
ENDBRANCH   5   6
ENDBRANCH   1   5
BRANCH   3  23
ATOM     23  C   UNL A   1      31.894  30.706  26.584  1.00  0.00     0.117 C 
BRANCH  23  24
ATOM     24  C   UNL A   1      31.665  32.201  26.801  1.00  0.00     0.042 C 
BRANCH  24  25
ATOM     25  C   UNL A   1      32.876  32.932  27.348  1.00  0.00     0.118 C 
BRANCH  25  26
ATOM     26  N   UNL A   1      32.570  34.326  27.632  1.00  0.00    -0.352 N 
ATOM     27  C   UNL A   1      33.012  35.089  28.688  1.00  0.00     0.251 C 
ATOM     28  H   UNL A   1      31.976  34.778  26.991  1.00  0.00     0.163 HD
ATOM     29  O   UNL A   1      32.476  36.146  28.971  1.00  0.00    -0.269 OA
BRANCH  27  30
ATOM     30  C   UNL A   1      34.139  34.567  29.486  1.00  0.00     0.039 A 
ATOM     31  C   UNL A   1      35.434  34.639  28.968  1.00  0.00     0.014 A 
ATOM     32  C   UNL A   1      33.889  33.930  30.701  1.00  0.00     0.014 A 
ATOM     33  C   UNL A   1      36.444  33.908  29.568  1.00  0.00     0.010 A 
ATOM     34  C   UNL A   1      34.942  33.307  31.372  1.00  0.00     0.010 A 
ATOM     35  C   UNL A   1      36.220  33.256  30.791  1.00  0.00    -0.014 A 
BRANCH  35  36
ATOM     36  C   UNL A   1      37.353  32.566  31.456  1.00  0.00     0.031 A 
ATOM     37  C   UNL A   1      38.116  31.477  30.759  1.00  0.00     0.074 A 
ATOM     38  C   UNL A   1      37.716  32.974  32.689  1.00  0.00     0.049 A 
ATOM     39  N   UNL A   1      39.107  30.749  31.211  1.00  0.00    -0.248 NA
ATOM     40  C   UNL A   1      37.717  31.151  29.382  1.00  0.00     0.031 C 
ATOM     41  C   UNL A   1      37.057  34.041  33.449  1.00  0.00     0.029 A 
ATOM     42  N   UNL A   1      38.737  32.571  33.507  1.00  0.00    -0.354 N 
ATOM     43  C   UNL A   1      39.431  29.868  30.187  1.00  0.00     0.074 A 
ATOM     44  C   UNL A   1      38.513  30.129  29.099  1.00  0.00     0.031 C 
ATOM     45  C   UNL A   1      37.731  34.255  34.585  1.00  0.00     0.029 A 
ATOM     46  C   UNL A   1      38.807  33.278  34.683  1.00  0.00     0.049 A 
ATOM     47  H   UNL A   1      39.361  31.845  33.275  1.00  0.00     0.167 HD
ATOM     48  C   UNL A   1      40.415  28.938  30.160  1.00  0.00     0.037 A 
ATOM     49  C   UNL A   1      39.626  33.137  35.740  1.00  0.00     0.037 A 
ATOM     50  C   UNL A   1      41.337  28.710  31.243  1.00  0.00     0.049 A 
ATOM     51  C   UNL A   1      40.666  32.057  35.705  1.00  0.00     0.074 A 
ATOM     52  C   UNL A   1      42.376  27.797  31.312  1.00  0.00     0.029 A 
ATOM     53  N   UNL A   1      41.335  29.404  32.446  1.00  0.00    -0.354 N 
ATOM     54  N   UNL A   1      40.954  31.221  34.737  1.00  0.00    -0.248 NA
ATOM     55  C   UNL A   1      41.484  31.889  36.911  1.00  0.00     0.031 C 
ATOM     56  C   UNL A   1      42.967  27.902  32.574  1.00  0.00     0.029 A 
ATOM     57  C   UNL A   1      42.339  28.923  33.271  1.00  0.00     0.049 A 
ATOM     58  H   UNL A   1      40.712  30.130  32.677  1.00  0.00     0.167 HD
ATOM     59  C   UNL A   1      41.997  30.438  35.209  1.00  0.00     0.074 A 
ATOM     60  C   UNL A   1      42.305  30.915  36.543  1.00  0.00     0.031 C 
ATOM     61  C   UNL A   1      42.636  29.415  34.594  1.00  0.00     0.037 A 
BRANCH  48  62
ATOM     62  C   UNL A   1      40.550  28.086  28.929  1.00  0.00     0.064 A 
ATOM     63  C   UNL A   1      39.852  26.879  28.787  1.00  0.00     0.173 A 
ATOM     64  C   UNL A   1      41.330  28.523  27.845  1.00  0.00     0.173 A 
ATOM     65  F   UNL A   1      39.101  26.410  29.795  1.00  0.00    -0.203 F 
ATOM     66  C   UNL A   1      39.937  26.134  27.613  1.00  0.00     0.198 A 
ATOM     67  C   UNL A   1      41.389  27.791  26.662  1.00  0.00     0.198 A 
ATOM     68  F   UNL A   1      42.014  29.673  27.924  1.00  0.00    -0.203 F 
ATOM     69  F   UNL A   1      39.286  24.967  27.513  1.00  0.00    -0.200 F 
ATOM     70  C   UNL A   1      40.697  26.595  26.548  1.00  0.00     0.200 A 
ATOM     71  F   UNL A   1      42.109  28.248  25.628  1.00  0.00    -0.200 F 
ATOM     72  F   UNL A   1      40.761  25.888  25.411  1.00  0.00    -0.200 F 
ENDBRANCH  48  62
BRANCH  49  73
ATOM     73  C   UNL A   1      39.477  34.042  36.908  1.00  0.00     0.064 A 
ATOM     74  C   UNL A   1      38.738  33.649  38.032  1.00  0.00     0.173 A 
ATOM     75  C   UNL A   1      40.106  35.297  36.947  1.00  0.00     0.173 A 
ATOM     76  F   UNL A   1      38.104  32.467  38.037  1.00  0.00    -0.203 F 
ATOM     77  C   UNL A   1      38.629  34.478  39.147  1.00  0.00     0.198 A 
ATOM     78  C   UNL A   1      40.026  36.109  38.076  1.00  0.00     0.198 A 
ATOM     79  F   UNL A   1      40.831  35.718  35.901  1.00  0.00    -0.203 F 
ATOM     80  F   UNL A   1      37.890  34.092  40.195  1.00  0.00    -0.200 F 
ATOM     81  C   UNL A   1      39.283  35.701  39.173  1.00  0.00     0.200 A 
ATOM     82  F   UNL A   1      40.678  37.279  38.103  1.00  0.00    -0.200 F 
ATOM     83  F   UNL A   1      39.195  36.488  40.253  1.00  0.00    -0.200 F 
ENDBRANCH  49  73
BRANCH  61  84
ATOM     84  C   UNL A   1      43.752  28.750  35.344  1.00  0.00     0.064 A 
ATOM     85  C   UNL A   1      45.083  29.172  35.206  1.00  0.00     0.173 A 
ATOM     86  C   UNL A   1      43.479  27.724  36.262  1.00  0.00     0.173 A 
ATOM     87  F   UNL A   1      45.396  30.138  34.329  1.00  0.00    -0.203 F 
ATOM     88  C   UNL A   1      46.100  28.580  35.947  1.00  0.00     0.198 A 
ATOM     89  C   UNL A   1      44.494  27.159  37.027  1.00  0.00     0.198 A 
ATOM     90  F   UNL A   1      42.221  27.290  36.436  1.00  0.00    -0.203 F 
ATOM     91  F   UNL A   1      47.370  28.971  35.770  1.00  0.00    -0.200 F 
ATOM     92  C   UNL A   1      45.804  27.583  36.865  1.00  0.00     0.200 A 
ATOM     93  F   UNL A   1      44.203  26.207  37.925  1.00  0.00    -0.200 F 
ATOM     94  F   UNL A   1      46.783  27.027  37.592  1.00  0.00    -0.200 F 
ENDBRANCH  61  84
ENDBRANCH  35  36
ENDBRANCH  27  30
ENDBRANCH  25  26
ENDBRANCH  24  25
ENDBRANCH  23  24
ENDBRANCH   3  23
TORSDOF 16
ENDMDL
