MODEL 1
REMARK VINA RESULT:     -12.3      0.000      0.000
REMARK SMILES COc1ccc(Br)c([C@H]2[NH2+][C@H](C(=O)NCCCNC(=O)c3ccc(-c4c5nc(c(-c6c(F)c(F)c(F)c(F)c6F)c6ccc([nH]6)c(-c6c(F)c(F)c(F)c(F)c6F)c6nc(c(-c7c(F)c(F)c(F)c(F)c7F)c7ccc4[nH]7)C=C6)C=C5)cc3)CS2)c1O
REMARK SMILES IDX 16 1 15 2 14 3 12 4 13 5 11 7 9 8 10 9 85 10 84 13 8 14 3 15
REMARK SMILES IDX 4 16 86 17 5 18 6 19 7 20 2 21 1 22 87 23 17 25 18 26 19 27
REMARK SMILES IDX 20 29 21 30 22 31 83 32 23 33 82 34 24 35 25 36 26 37 76 38
REMARK SMILES IDX 27 39 81 40 75 41 77 42 28 43 80 44 74 45 73 46 29 48 61 49
REMARK SMILES IDX 41 50 60 51 42 52 45 53 59 54 78 55 43 56 44 57 58 59 79 60
REMARK SMILES IDX 46 61 30 62 31 63 39 64 32 65 33 66 37 67 40 68 34 69 35 70
REMARK SMILES IDX 38 71 36 72 62 73 63 74 71 75 64 76 65 77 69 78 72 79 66 80
REMARK SMILES IDX 67 81 70 82 68 83 47 84 48 85 56 86 49 87 50 88 54 89 57 90
REMARK SMILES IDX 51 91 52 92 55 93 53 94
REMARK H PARENT 14 6 10 11 10 12 87 24 18 28 77 47 45 58
REMARK Flexibility Score: inf
ROOT
ATOM      1  C   UNL A   1      33.017  27.704  25.577  1.00  0.00     0.042 C 
ENDROOT
BRANCH   1   2
ATOM      2  C   UNL A   1      33.541  26.490  24.824  1.00  0.00     0.118 C 
BRANCH   2   3
ATOM      3  N   UNL A   1      33.742  26.785  23.421  1.00  0.00    -0.351 N 
ATOM      4  C   UNL A   1      33.258  26.202  22.292  1.00  0.00     0.279 C 
ATOM      5  O   UNL A   1      33.693  26.650  21.223  1.00  0.00    -0.268 OA
ATOM      6  H   UNL A   1      34.340  27.549  23.253  1.00  0.00     0.163 HD
BRANCH   4   7
ATOM      7  C   UNL A   1      32.201  25.082  22.280  1.00  0.00     0.283 C 
ATOM      8  C   UNL A   1      32.324  23.307  23.938  1.00  0.00     0.279 C 
ATOM      9  N   UNL A   1      32.760  23.746  22.607  1.00  0.00    -0.320 N 
ATOM     10  S   UNL A   1      30.650  23.994  24.118  1.00  0.00    -0.087 SA
ATOM     11  H   UNL A   1      32.441  23.071  21.911  1.00  0.00     0.348 HD
ATOM     12  H   UNL A   1      33.779  23.808  22.601  1.00  0.00     0.348 HD
ATOM     13  C   UNL A   1      30.931  25.408  23.044  1.00  0.00     0.151 C 
BRANCH   8  14
ATOM     14  C   UNL A   1      32.565  21.811  24.197  1.00  0.00     0.080 A 
ATOM     15  C   UNL A   1      32.522  19.435  23.512  1.00  0.00     0.161 A 
ATOM     16  C   UNL A   1      32.894  19.008  24.773  1.00  0.00     0.051 A 
ATOM     17  C   UNL A   1      32.300  20.799  23.249  1.00  0.00     0.169 A 
ATOM     18  C   UNL A   1      33.094  19.960  25.762  1.00  0.00     0.020 A 
ATOM     19  C   UNL A   1      32.939  21.334  25.486  1.00  0.00     0.032 A 
ATOM     20  Br  UNL A   1      33.182  22.450  27.018  1.00  0.00    -0.050 Br
BRANCH  15  21
ATOM     21  O   UNL A   1      32.278  18.482  22.555  1.00  0.00    -0.493 OA
ATOM     22  C   UNL A   1      33.059  17.304  22.794  1.00  0.00     0.278 C 
ENDBRANCH  15  21
BRANCH  17  23
ATOM     23  O   UNL A   1      31.722  21.089  22.043  1.00  0.00    -0.504 OA
ATOM     24  H   UNL A   1      30.917  20.675  21.798  1.00  0.00     0.293 HD
ENDBRANCH  17  23
ENDBRANCH   8  14
ENDBRANCH   4   7
ENDBRANCH   2   3
ENDBRANCH   1   2
BRANCH   1  25
ATOM     25  C   UNL A   1      33.731  28.992  25.206  1.00  0.00     0.118 C 
BRANCH  25  26
ATOM     26  N   UNL A   1      33.044  30.166  25.732  1.00  0.00    -0.352 N 
ATOM     27  C   UNL A   1      33.335  30.918  26.842  1.00  0.00     0.251 C 
ATOM     28  H   UNL A   1      32.260  30.461  25.216  1.00  0.00     0.163 HD
ATOM     29  O   UNL A   1      32.525  31.741  27.261  1.00  0.00    -0.269 OA
BRANCH  27  30
ATOM     30  C   UNL A   1      34.622  30.726  27.539  1.00  0.00     0.039 A 
ATOM     31  C   UNL A   1      35.530  31.786  27.608  1.00  0.00     0.014 A 
ATOM     32  C   UNL A   1      34.927  29.495  28.123  1.00  0.00     0.014 A 
ATOM     33  C   UNL A   1      36.723  31.628  28.317  1.00  0.00     0.010 A 
ATOM     34  C   UNL A   1      36.066  29.369  28.904  1.00  0.00     0.010 A 
ATOM     35  C   UNL A   1      36.983  30.428  28.997  1.00  0.00    -0.014 A 
BRANCH  35  36
ATOM     36  C   UNL A   1      38.222  30.214  29.781  1.00  0.00     0.031 A 
ATOM     37  C   UNL A   1      39.278  29.291  29.243  1.00  0.00     0.074 A 
ATOM     38  C   UNL A   1      38.343  30.745  31.012  1.00  0.00     0.049 A 
ATOM     39  N   UNL A   1      40.338  28.805  29.836  1.00  0.00    -0.248 NA
ATOM     40  C   UNL A   1      39.088  28.817  27.863  1.00  0.00     0.031 C 
ATOM     41  C   UNL A   1      37.370  31.630  31.651  1.00  0.00     0.029 A 
ATOM     42  N   UNL A   1      39.324  30.589  31.958  1.00  0.00    -0.354 N 
ATOM     43  C   UNL A   1      40.918  27.943  28.914  1.00  0.00     0.074 A 
ATOM     44  C   UNL A   1      40.064  27.931  27.746  1.00  0.00     0.031 C 
ATOM     45  C   UNL A   1      37.804  31.942  32.882  1.00  0.00     0.029 A 
ATOM     46  C   UNL A   1      39.057  31.236  33.138  1.00  0.00     0.049 A 
ATOM     47  H   UNL A   1      40.142  30.063  31.805  1.00  0.00     0.167 HD
ATOM     48  C   UNL A   1      42.068  27.237  29.028  1.00  0.00     0.037 A 
ATOM     49  C   UNL A   1      39.731  31.237  34.304  1.00  0.00     0.037 A 
ATOM     50  C   UNL A   1      42.919  27.278  30.187  1.00  0.00     0.049 A 
ATOM     51  C   UNL A   1      41.003  30.438  34.416  1.00  0.00     0.074 A 
ATOM     52  C   UNL A   1      44.138  26.656  30.383  1.00  0.00     0.029 A 
ATOM     53  N   UNL A   1      42.633  27.980  31.350  1.00  0.00    -0.354 N 
ATOM     54  N   UNL A   1      41.576  29.668  33.523  1.00  0.00    -0.248 NA
ATOM     55  C   UNL A   1      41.724  30.511  35.693  1.00  0.00     0.031 C 
ATOM     56  C   UNL A   1      44.560  26.930  31.687  1.00  0.00     0.029 A 
ATOM     57  C   UNL A   1      43.642  27.784  32.278  1.00  0.00     0.049 A 
ATOM     58  H   UNL A   1      41.833  28.535  31.493  1.00  0.00     0.167 HD
ATOM     59  C   UNL A   1      42.741  29.198  34.112  1.00  0.00     0.074 A 
ATOM     60  C   UNL A   1      42.792  29.765  35.443  1.00  0.00     0.031 C 
ATOM     61  C   UNL A   1      43.687  28.376  33.592  1.00  0.00     0.037 A 
BRANCH  48  62
ATOM     62  C   UNL A   1      42.453  26.349  27.878  1.00  0.00     0.064 A 
ATOM     63  C   UNL A   1      43.370  26.759  26.898  1.00  0.00     0.173 A 
ATOM     64  C   UNL A   1      41.897  25.066  27.756  1.00  0.00     0.173 A 
ATOM     65  F   UNL A   1      43.926  27.979  26.959  1.00  0.00    -0.203 F 
ATOM     66  C   UNL A   1      43.677  25.939  25.814  1.00  0.00     0.198 A 
ATOM     67  C   UNL A   1      42.237  24.233  26.693  1.00  0.00     0.198 A 
ATOM     68  F   UNL A   1      41.021  24.618  28.668  1.00  0.00    -0.203 F 
ATOM     69  F   UNL A   1      44.499  26.383  24.853  1.00  0.00    -0.200 F 
ATOM     70  C   UNL A   1      43.115  24.675  25.716  1.00  0.00     0.200 A 
ATOM     71  F   UNL A   1      41.706  23.006  26.609  1.00  0.00    -0.200 F 
ATOM     72  F   UNL A   1      43.412  23.888  24.673  1.00  0.00    -0.200 F 
ENDBRANCH  48  62
BRANCH  49  73
ATOM     73  C   UNL A   1      39.219  32.037  35.447  1.00  0.00     0.064 A 
ATOM     74  C   UNL A   1      38.434  31.442  36.445  1.00  0.00     0.173 A 
ATOM     75  C   UNL A   1      39.528  33.398  35.584  1.00  0.00     0.173 A 
ATOM     76  F   UNL A   1      38.097  30.148  36.350  1.00  0.00    -0.203 F 
ATOM     77  C   UNL A   1      37.969  32.182  37.530  1.00  0.00     0.198 A 
ATOM     78  C   UNL A   1      39.087  34.129  36.685  1.00  0.00     0.198 A 
ATOM     79  F   UNL A   1      40.282  34.012  34.661  1.00  0.00    -0.203 F 
ATOM     80  F   UNL A   1      37.192  31.597  38.452  1.00  0.00    -0.200 F 
ATOM     81  C   UNL A   1      38.302  33.522  37.654  1.00  0.00     0.200 A 
ATOM     82  F   UNL A   1      39.427  35.419  36.810  1.00  0.00    -0.200 F 
ATOM     83  F   UNL A   1      37.866  34.229  38.705  1.00  0.00    -0.200 F 
ENDBRANCH  49  73
BRANCH  61  84
ATOM     84  C   UNL A   1      44.899  28.087  34.430  1.00  0.00     0.064 A 
ATOM     85  C   UNL A   1      46.021  28.927  34.430  1.00  0.00     0.173 A 
ATOM     86  C   UNL A   1      44.893  26.995  35.314  1.00  0.00     0.173 A 
ATOM     87  F   UNL A   1      46.080  29.975  33.596  1.00  0.00    -0.203 F 
ATOM     88  C   UNL A   1      47.097  28.680  35.280  1.00  0.00     0.198 A 
ATOM     89  C   UNL A   1      45.956  26.770  36.183  1.00  0.00     0.198 A 
ATOM     90  F   UNL A   1      43.840  26.165  35.356  1.00  0.00    -0.203 F 
ATOM     91  F   UNL A   1      48.174  29.477  35.242  1.00  0.00    -0.200 F 
ATOM     92  C   UNL A   1      47.059  27.610  36.162  1.00  0.00     0.200 A 
ATOM     93  F   UNL A   1      45.908  25.747  37.047  1.00  0.00    -0.200 F 
ATOM     94  F   UNL A   1      48.086  27.389  36.994  1.00  0.00    -0.200 F 
ENDBRANCH  61  84
ENDBRANCH  35  36
ENDBRANCH  27  30
ENDBRANCH  25  26
ENDBRANCH   1  25
TORSDOF 13
ENDMDL
MODEL 2
REMARK VINA RESULT:     -12.2      1.671      2.225
REMARK SMILES COc1ccc(Br)c([C@H]2[NH2+][C@H](C(=O)NCCCNC(=O)c3ccc(-c4c5nc(c(-c6c(F)c(F)c(F)c(F)c6F)c6ccc([nH]6)c(-c6c(F)c(F)c(F)c(F)c6F)c6nc(c(-c7c(F)c(F)c(F)c(F)c7F)c7ccc4[nH]7)C=C6)C=C5)cc3)CS2)c1O
REMARK SMILES IDX 16 1 15 2 14 3 12 4 13 5 11 7 9 8 10 9 85 10 84 13 8 14 3 15
REMARK SMILES IDX 4 16 86 17 5 18 6 19 7 20 2 21 1 22 87 23 17 25 18 26 19 27
REMARK SMILES IDX 20 29 21 30 22 31 83 32 23 33 82 34 24 35 25 36 26 37 76 38
REMARK SMILES IDX 27 39 81 40 75 41 77 42 28 43 80 44 74 45 73 46 29 48 61 49
REMARK SMILES IDX 41 50 60 51 42 52 45 53 59 54 78 55 43 56 44 57 58 59 79 60
REMARK SMILES IDX 46 61 30 62 31 63 39 64 32 65 33 66 37 67 40 68 34 69 35 70
REMARK SMILES IDX 38 71 36 72 62 73 63 74 71 75 64 76 65 77 69 78 72 79 66 80
REMARK SMILES IDX 67 81 70 82 68 83 47 84 48 85 56 86 49 87 50 88 54 89 57 90
REMARK SMILES IDX 51 91 52 92 55 93 53 94
REMARK H PARENT 14 6 10 11 10 12 87 24 18 28 77 47 45 58
REMARK Flexibility Score: inf
ROOT
ATOM      1  C   UNL A   1      31.877  27.746  26.578  1.00  0.00     0.042 C 
ENDROOT
BRANCH   1   2
ATOM      2  C   UNL A   1      32.022  26.327  26.047  1.00  0.00     0.118 C 
BRANCH   2   3
ATOM      3  N   UNL A   1      30.981  25.463  26.560  1.00  0.00    -0.351 N 
ATOM      4  C   UNL A   1      30.959  24.131  26.835  1.00  0.00     0.279 C 
ATOM      5  O   UNL A   1      29.868  23.671  27.194  1.00  0.00    -0.268 OA
ATOM      6  H   UNL A   1      30.130  25.924  26.744  1.00  0.00     0.163 HD
BRANCH   4   7
ATOM      7  C   UNL A   1      32.194  23.213  26.766  1.00  0.00     0.283 C 
ATOM      8  C   UNL A   1      32.402  21.629  24.932  1.00  0.00     0.279 C 
ATOM      9  N   UNL A   1      31.878  21.843  26.286  1.00  0.00    -0.320 N 
ATOM     10  S   UNL A   1      33.935  22.607  24.877  1.00  0.00    -0.087 SA
ATOM     11  H   UNL A   1      32.299  21.163  26.919  1.00  0.00     0.348 HD
ATOM     12  H   UNL A   1      30.864  21.731  26.265  1.00  0.00     0.348 HD
ATOM     13  C   UNL A   1      33.398  23.830  26.080  1.00  0.00     0.151 C 
BRANCH   8  14
ATOM     14  C   UNL A   1      32.426  20.150  24.513  1.00  0.00     0.080 A 
ATOM     15  C   UNL A   1      32.793  17.748  24.977  1.00  0.00     0.161 A 
ATOM     16  C   UNL A   1      32.600  17.407  23.651  1.00  0.00     0.051 A 
ATOM     17  C   UNL A   1      32.771  19.095  25.385  1.00  0.00     0.169 A 
ATOM     18  C   UNL A   1      32.333  18.418  22.739  1.00  0.00     0.020 A 
ATOM     19  C   UNL A   1      32.243  19.762  23.155  1.00  0.00     0.032 A 
ATOM     20  Br  UNL A   1      31.953  20.986  21.716  1.00  0.00    -0.050 Br
BRANCH  15  21
ATOM     21  O   UNL A   1      33.106  16.747  25.862  1.00  0.00    -0.493 OA
ATOM     22  C   UNL A   1      34.163  15.924  25.351  1.00  0.00     0.278 C 
ENDBRANCH  15  21
BRANCH  17  23
ATOM     23  O   UNL A   1      33.193  19.339  26.664  1.00  0.00    -0.504 OA
ATOM     24  H   UNL A   1      33.398  20.214  26.931  1.00  0.00     0.293 HD
ENDBRANCH  17  23
ENDBRANCH   8  14
ENDBRANCH   4   7
ENDBRANCH   2   3
ENDBRANCH   1   2
BRANCH   1  25
ATOM     25  C   UNL A   1      32.999  28.668  26.133  1.00  0.00     0.118 C 
BRANCH  25  26
ATOM     26  N   UNL A   1      32.616  30.073  26.221  1.00  0.00    -0.352 N 
ATOM     27  C   UNL A   1      33.169  31.079  26.971  1.00  0.00     0.251 C 
ATOM     28  H   UNL A   1      31.850  30.336  25.661  1.00  0.00     0.163 HD
ATOM     29  O   UNL A   1      32.585  32.154  27.091  1.00  0.00    -0.269 OA
BRANCH  27  30
ATOM     30  C   UNL A   1      34.464  30.862  27.644  1.00  0.00     0.039 A 
ATOM     31  C   UNL A   1      35.383  31.913  27.721  1.00  0.00     0.014 A 
ATOM     32  C   UNL A   1      34.767  29.617  28.199  1.00  0.00     0.014 A 
ATOM     33  C   UNL A   1      36.584  31.729  28.409  1.00  0.00     0.010 A 
ATOM     34  C   UNL A   1      35.916  29.465  28.960  1.00  0.00     0.010 A 
ATOM     35  C   UNL A   1      36.844  30.514  29.060  1.00  0.00    -0.014 A 
BRANCH  35  36
ATOM     36  C   UNL A   1      38.092  30.274  29.822  1.00  0.00     0.031 A 
ATOM     37  C   UNL A   1      39.124  29.338  29.258  1.00  0.00     0.074 A 
ATOM     38  C   UNL A   1      38.243  30.793  31.054  1.00  0.00     0.049 A 
ATOM     39  N   UNL A   1      40.186  28.829  29.828  1.00  0.00    -0.248 NA
ATOM     40  C   UNL A   1      38.902  28.877  27.878  1.00  0.00     0.031 C 
ATOM     41  C   UNL A   1      37.296  31.688  31.717  1.00  0.00     0.029 A 
ATOM     42  N   UNL A   1      39.238  30.612  31.982  1.00  0.00    -0.354 N 
ATOM     43  C   UNL A   1      40.735  27.965  28.890  1.00  0.00     0.074 A 
ATOM     44  C   UNL A   1      39.861  27.977  27.737  1.00  0.00     0.031 C 
ATOM     45  C   UNL A   1      37.757  31.983  32.943  1.00  0.00     0.029 A 
ATOM     46  C   UNL A   1      39.001  31.255  33.171  1.00  0.00     0.049 A 
ATOM     47  H   UNL A   1      40.044  30.074  31.810  1.00  0.00     0.167 HD
ATOM     48  C   UNL A   1      41.875  27.240  28.979  1.00  0.00     0.037 A 
ATOM     49  C   UNL A   1      39.696  31.235  34.325  1.00  0.00     0.037 A 
ATOM     50  C   UNL A   1      42.747  27.258  30.123  1.00  0.00     0.049 A 
ATOM     51  C   UNL A   1      40.956  30.414  34.409  1.00  0.00     0.074 A 
ATOM     52  C   UNL A   1      43.959  26.613  30.294  1.00  0.00     0.029 A 
ATOM     53  N   UNL A   1      42.492  27.955  31.296  1.00  0.00    -0.354 N 
ATOM     54  N   UNL A   1      41.500  29.642  33.500  1.00  0.00    -0.248 NA
ATOM     55  C   UNL A   1      41.700  30.465  35.674  1.00  0.00     0.031 C 
ATOM     56  C   UNL A   1      44.407  26.870  31.592  1.00  0.00     0.029 A 
ATOM     57  C   UNL A   1      43.513  27.735  32.205  1.00  0.00     0.049 A 
ATOM     58  H   UNL A   1      41.704  28.521  31.457  1.00  0.00     0.167 HD
ATOM     59  C   UNL A   1      42.668  29.148  34.065  1.00  0.00     0.074 A 
ATOM     60  C   UNL A   1      42.751  29.704  35.400  1.00  0.00     0.031 C 
ATOM     61  C   UNL A   1      43.591  28.316  33.523  1.00  0.00     0.037 A 
BRANCH  48  62
ATOM     62  C   UNL A   1      42.225  26.355  27.816  1.00  0.00     0.064 A 
ATOM     63  C   UNL A   1      41.667  25.077  27.660  1.00  0.00     0.173 A 
ATOM     64  C   UNL A   1      43.134  26.794  26.840  1.00  0.00     0.173 A 
ATOM     65  F   UNL A   1      40.799  24.603  28.566  1.00  0.00    -0.203 F 
ATOM     66  C   UNL A   1      42.042  24.254  26.600  1.00  0.00     0.198 A 
ATOM     67  C   UNL A   1      43.476  25.984  25.760  1.00  0.00     0.198 A 
ATOM     68  F   UNL A   1      43.695  28.009  26.933  1.00  0.00    -0.203 F 
ATOM     69  F   UNL A   1      41.549  23.010  26.514  1.00  0.00    -0.200 F 
ATOM     70  C   UNL A   1      42.942  24.710  25.648  1.00  0.00     0.200 A 
ATOM     71  F   UNL A   1      44.333  26.433  24.833  1.00  0.00    -0.200 F 
ATOM     72  F   UNL A   1      43.301  23.917  24.630  1.00  0.00    -0.200 F 
ENDBRANCH  48  62
BRANCH  49  73
ATOM     73  C   UNL A   1      39.217  32.034  35.484  1.00  0.00     0.064 A 
ATOM     74  C   UNL A   1      38.402  31.455  36.467  1.00  0.00     0.173 A 
ATOM     75  C   UNL A   1      39.587  33.376  35.649  1.00  0.00     0.173 A 
ATOM     76  F   UNL A   1      38.007  30.180  36.344  1.00  0.00    -0.203 F 
ATOM     77  C   UNL A   1      37.967  32.193  37.566  1.00  0.00     0.198 A 
ATOM     78  C   UNL A   1      39.176  34.104  36.764  1.00  0.00     0.198 A 
ATOM     79  F   UNL A   1      40.372  33.974  34.741  1.00  0.00    -0.203 F 
ATOM     80  F   UNL A   1      37.161  31.626  38.473  1.00  0.00    -0.200 F 
ATOM     81  C   UNL A   1      38.360  33.514  37.718  1.00  0.00     0.200 A 
ATOM     82  F   UNL A   1      39.574  35.374  36.916  1.00  0.00    -0.200 F 
ATOM     83  F   UNL A   1      37.954  34.219  38.783  1.00  0.00    -0.200 F 
ENDBRANCH  49  73
BRANCH  61  84
ATOM     84  C   UNL A   1      44.812  28.000  34.338  1.00  0.00     0.064 A 
ATOM     85  C   UNL A   1      45.948  28.821  34.325  1.00  0.00     0.173 A 
ATOM     86  C   UNL A   1      44.804  26.901  35.213  1.00  0.00     0.173 A 
ATOM     87  F   UNL A   1      46.010  29.874  33.497  1.00  0.00    -0.203 F 
ATOM     88  C   UNL A   1      47.034  28.549  35.153  1.00  0.00     0.198 A 
ATOM     89  C   UNL A   1      45.877  26.651  36.061  1.00  0.00     0.198 A 
ATOM     90  F   UNL A   1      43.737  26.088  35.267  1.00  0.00    -0.203 F 
ATOM     91  F   UNL A   1      48.124  29.328  35.103  1.00  0.00    -0.200 F 
ATOM     92  C   UNL A   1      46.994  27.473  36.028  1.00  0.00     0.200 A 
ATOM     93  F   UNL A   1      45.827  25.622  36.918  1.00  0.00    -0.200 F 
ATOM     94  F   UNL A   1      48.031  27.229  36.840  1.00  0.00    -0.200 F 
ENDBRANCH  61  84
ENDBRANCH  35  36
ENDBRANCH  27  30
ENDBRANCH  25  26
ENDBRANCH   1  25
TORSDOF 13
ENDMDL
MODEL 3
REMARK VINA RESULT:     -12.2      2.381      3.613
REMARK SMILES COc1ccc(Br)c([C@H]2[NH2+][C@H](C(=O)NCCCNC(=O)c3ccc(-c4c5nc(c(-c6c(F)c(F)c(F)c(F)c6F)c6ccc([nH]6)c(-c6c(F)c(F)c(F)c(F)c6F)c6nc(c(-c7c(F)c(F)c(F)c(F)c7F)c7ccc4[nH]7)C=C6)C=C5)cc3)CS2)c1O
REMARK SMILES IDX 16 1 15 2 14 3 12 4 13 5 11 7 9 8 10 9 85 10 84 13 8 14 3 15
REMARK SMILES IDX 4 16 86 17 5 18 6 19 7 20 2 21 1 22 87 23 17 25 18 26 19 27
REMARK SMILES IDX 20 29 21 30 22 31 83 32 23 33 82 34 24 35 25 36 26 37 76 38
REMARK SMILES IDX 27 39 81 40 75 41 77 42 28 43 80 44 74 45 73 46 29 48 61 49
REMARK SMILES IDX 41 50 60 51 42 52 45 53 59 54 78 55 43 56 44 57 58 59 79 60
REMARK SMILES IDX 46 61 30 62 31 63 39 64 32 65 33 66 37 67 40 68 34 69 35 70
REMARK SMILES IDX 38 71 36 72 62 73 63 74 71 75 64 76 65 77 69 78 72 79 66 80
REMARK SMILES IDX 67 81 70 82 68 83 47 84 48 85 56 86 49 87 50 88 54 89 57 90
REMARK SMILES IDX 51 91 52 92 55 93 53 94
REMARK H PARENT 14 6 10 11 10 12 87 24 18 28 77 47 45 58
REMARK Flexibility Score: inf
ROOT
ATOM      1  C   UNL A   1      31.487  32.174  26.559  1.00  0.00     0.042 C 
ENDROOT
BRANCH   1   2
ATOM      2  C   UNL A   1      31.767  30.779  26.018  1.00  0.00     0.118 C 
BRANCH   2   3
ATOM      3  N   UNL A   1      31.572  29.769  27.036  1.00  0.00    -0.351 N 
ATOM      4  C   UNL A   1      31.835  28.435  27.054  1.00  0.00     0.279 C 
ATOM      5  O   UNL A   1      31.469  27.826  28.067  1.00  0.00    -0.268 OA
ATOM      6  H   UNL A   1      31.175  30.110  27.870  1.00  0.00     0.163 HD
BRANCH   4   7
ATOM      7  C   UNL A   1      32.577  27.684  25.933  1.00  0.00     0.283 C 
ATOM      8  C   UNL A   1      32.435  25.258  25.824  1.00  0.00     0.279 C 
ATOM      9  N   UNL A   1      33.171  26.399  26.383  1.00  0.00    -0.320 N 
ATOM     10  S   UNL A   1      31.887  25.830  24.186  1.00  0.00    -0.087 SA
ATOM     11  H   UNL A   1      34.142  26.353  26.076  1.00  0.00     0.348 HD
ATOM     12  H   UNL A   1      33.117  26.353  27.402  1.00  0.00     0.348 HD
ATOM     13  C   UNL A   1      31.804  27.569  24.634  1.00  0.00     0.151 C 
BRANCH   8  14
ATOM     14  C   UNL A   1      33.187  23.924  25.952  1.00  0.00     0.080 A 
ATOM     15  C   UNL A   1      35.238  22.545  25.830  1.00  0.00     0.161 A 
ATOM     16  C   UNL A   1      34.532  21.379  26.062  1.00  0.00     0.051 A 
ATOM     17  C   UNL A   1      34.572  23.779  25.714  1.00  0.00     0.169 A 
ATOM     18  C   UNL A   1      33.157  21.459  26.228  1.00  0.00     0.020 A 
ATOM     19  C   UNL A   1      32.493  22.701  26.179  1.00  0.00     0.032 A 
ATOM     20  Br  UNL A   1      30.595  22.557  26.348  1.00  0.00    -0.050 Br
BRANCH  15  21
ATOM     21  O   UNL A   1      36.590  22.450  25.618  1.00  0.00    -0.493 OA
ATOM     22  C   UNL A   1      36.869  21.774  24.385  1.00  0.00     0.278 C 
ENDBRANCH  15  21
BRANCH  17  23
ATOM     23  O   UNL A   1      35.329  24.827  25.265  1.00  0.00    -0.504 OA
ATOM     24  H   UNL A   1      36.066  25.121  25.764  1.00  0.00     0.293 HD
ENDBRANCH  17  23
ENDBRANCH   8  14
ENDBRANCH   4   7
ENDBRANCH   2   3
ENDBRANCH   1   2
BRANCH   1  25
ATOM     25  C   UNL A   1      32.680  32.790  27.268  1.00  0.00     0.118 C 
BRANCH  25  26
ATOM     26  N   UNL A   1      32.440  34.184  27.627  1.00  0.00    -0.352 N 
ATOM     27  C   UNL A   1      33.013  34.937  28.621  1.00  0.00     0.251 C 
ATOM     28  H   UNL A   1      31.770  34.651  27.077  1.00  0.00     0.163 HD
ATOM     29  O   UNL A   1      32.536  36.028  28.923  1.00  0.00    -0.269 OA
BRANCH  27  30
ATOM     30  C   UNL A   1      34.198  34.425  29.334  1.00  0.00     0.039 A 
ATOM     31  C   UNL A   1      34.029  33.718  30.528  1.00  0.00     0.014 A 
ATOM     32  C   UNL A   1      35.478  34.648  28.821  1.00  0.00     0.014 A 
ATOM     33  C   UNL A   1      35.144  33.180  31.175  1.00  0.00     0.010 A 
ATOM     34  C   UNL A   1      36.572  34.036  29.412  1.00  0.00     0.010 A 
ATOM     35  C   UNL A   1      36.419  33.309  30.604  1.00  0.00    -0.014 A 
BRANCH  35  36
ATOM     36  C   UNL A   1      37.633  32.741  31.238  1.00  0.00     0.031 A 
ATOM     37  C   UNL A   1      38.353  31.612  30.556  1.00  0.00     0.074 A 
ATOM     38  C   UNL A   1      38.010  33.150  32.462  1.00  0.00     0.049 A 
ATOM     39  N   UNL A   1      39.305  30.838  31.010  1.00  0.00    -0.248 NA
ATOM     40  C   UNL A   1      37.909  31.284  29.192  1.00  0.00     0.031 C 
ATOM     41  C   UNL A   1      37.369  34.214  33.234  1.00  0.00     0.029 A 
ATOM     42  N   UNL A   1      39.007  32.692  33.287  1.00  0.00    -0.354 N 
ATOM     43  C   UNL A   1      39.545  29.912  30.003  1.00  0.00     0.074 A 
ATOM     44  C   UNL A   1      38.605  30.188  28.938  1.00  0.00     0.031 C 
ATOM     45  C   UNL A   1      37.991  34.331  34.418  1.00  0.00     0.029 A 
ATOM     46  C   UNL A   1      39.037  33.316  34.510  1.00  0.00     0.049 A 
ATOM     47  H   UNL A   1      39.641  31.985  33.027  1.00  0.00     0.167 HD
ATOM     48  C   UNL A   1      40.478  28.932  29.964  1.00  0.00     0.037 A 
ATOM     49  C   UNL A   1      39.802  33.076  35.592  1.00  0.00     0.037 A 
ATOM     50  C   UNL A   1      41.423  28.686  31.021  1.00  0.00     0.049 A 
ATOM     51  C   UNL A   1      40.827  31.975  35.535  1.00  0.00     0.074 A 
ATOM     52  C   UNL A   1      42.452  27.763  31.060  1.00  0.00     0.029 A 
ATOM     53  N   UNL A   1      41.447  29.368  32.230  1.00  0.00    -0.354 N 
ATOM     54  N   UNL A   1      41.088  31.138  34.560  1.00  0.00    -0.248 NA
ATOM     55  C   UNL A   1      41.667  31.786  36.725  1.00  0.00     0.031 C 
ATOM     56  C   UNL A   1      43.059  27.844  32.316  1.00  0.00     0.029 A 
ATOM     57  C   UNL A   1      42.458  28.867  33.033  1.00  0.00     0.049 A 
ATOM     58  H   UNL A   1      40.837  30.098  32.479  1.00  0.00     0.167 HD
ATOM     59  C   UNL A   1      42.144  30.353  34.999  1.00  0.00     0.074 A 
ATOM     60  C   UNL A   1      42.475  30.809  36.333  1.00  0.00     0.031 C 
ATOM     61  C   UNL A   1      42.787  29.350  34.351  1.00  0.00     0.037 A 
BRANCH  48  62
ATOM     62  C   UNL A   1      40.502  28.045  28.752  1.00  0.00     0.064 A 
ATOM     63  C   UNL A   1      39.790  26.837  28.701  1.00  0.00     0.173 A 
ATOM     64  C   UNL A   1      41.249  28.410  27.621  1.00  0.00     0.173 A 
ATOM     65  F   UNL A   1      39.066  26.433  29.756  1.00  0.00    -0.203 F 
ATOM     66  C   UNL A   1      39.864  26.005  27.585  1.00  0.00     0.198 A 
ATOM     67  C   UNL A   1      41.289  27.596  26.492  1.00  0.00     0.198 A 
ATOM     68  F   UNL A   1      41.944  29.558  27.609  1.00  0.00    -0.203 F 
ATOM     69  F   UNL A   1      39.233  24.823  27.591  1.00  0.00    -0.200 F 
ATOM     70  C   UNL A   1      40.608  26.388  26.480  1.00  0.00     0.200 A 
ATOM     71  F   UNL A   1      41.995  27.976  25.418  1.00  0.00    -0.200 F 
ATOM     72  F   UNL A   1      40.678  25.588  25.408  1.00  0.00    -0.200 F 
ENDBRANCH  48  62
BRANCH  49  73
ATOM     73  C   UNL A   1      39.632  33.911  36.810  1.00  0.00     0.064 A 
ATOM     74  C   UNL A   1      40.256  35.161  36.916  1.00  0.00     0.173 A 
ATOM     75  C   UNL A   1      38.822  33.493  37.875  1.00  0.00     0.173 A 
ATOM     76  F   UNL A   1      41.056  35.596  35.931  1.00  0.00    -0.203 F 
ATOM     77  C   UNL A   1      40.084  35.958  38.046  1.00  0.00     0.198 A 
ATOM     78  C   UNL A   1      38.626  34.303  38.992  1.00  0.00     0.198 A 
ATOM     79  F   UNL A   1      38.195  32.309  37.820  1.00  0.00    -0.203 F 
ATOM     80  F   UNL A   1      40.719  37.134  38.136  1.00  0.00    -0.200 F 
ATOM     81  C   UNL A   1      39.263  35.533  39.079  1.00  0.00     0.200 A 
ATOM     82  F   UNL A   1      37.817  33.897  39.979  1.00  0.00    -0.200 F 
ATOM     83  F   UNL A   1      39.086  36.305  40.159  1.00  0.00    -0.200 F 
ENDBRANCH  49  73
BRANCH  61  84
ATOM     84  C   UNL A   1      43.961  28.712  35.039  1.00  0.00     0.064 A 
ATOM     85  C   UNL A   1      45.256  29.239  34.941  1.00  0.00     0.173 A 
ATOM     86  C   UNL A   1      43.761  27.606  35.880  1.00  0.00     0.173 A 
ATOM     87  F   UNL A   1      45.501  30.286  34.140  1.00  0.00    -0.203 F 
ATOM     88  C   UNL A   1      46.311  28.676  35.656  1.00  0.00     0.198 A 
ATOM     89  C   UNL A   1      44.811  27.066  36.617  1.00  0.00     0.198 A 
ATOM     90  F   UNL A   1      42.539  27.069  36.012  1.00  0.00    -0.203 F 
ATOM     91  F   UNL A   1      47.548  29.175  35.524  1.00  0.00    -0.200 F 
ATOM     92  C   UNL A   1      46.085  27.599  36.501  1.00  0.00     0.200 A 
ATOM     93  F   UNL A   1      44.586  26.038  37.446  1.00  0.00    -0.200 F 
ATOM     94  F   UNL A   1      47.098  27.075  37.205  1.00  0.00    -0.200 F 
ENDBRANCH  61  84
ENDBRANCH  35  36
ENDBRANCH  27  30
ENDBRANCH  25  26
ENDBRANCH   1  25
TORSDOF 13
ENDMDL
