MODEL 1
REMARK VINA RESULT:     -12.4      0.000      0.000
REMARK SMILES CC1=C(C(=O)OCC(C)C)[C@@H](c2ccc(C(=O)NCCCNC(=O)c3ccc(-c4c5nc(c(-c6c(F)c(F)c(F)c(F)c6F)c6ccc([nH]6)c(-c6c(F)c(F)c(F)c(F)c6F)c6nc(c(-c7c(F)c(F)c(F)c(F)c7F)c7ccc4[nH]7)C=C6)C=C5)cc3)cc2)c2c(n(C)c(=O)n(C)c2=O)N1
REMARK SMILES IDX 16 1 17 2 18 3 15 5 12 6 13 7 89 8 14 9 88 10 11 11 1 12
REMARK SMILES IDX 2 13 3 14 100 15 91 16 90 18 92 19 98 20 93 21 94 22 96 23
REMARK SMILES IDX 99 24 95 25 97 26 4 27 5 28 6 29 7 30 8 31 9 32 10 33 19 34
REMARK SMILES IDX 20 35 21 36 22 37 23 38 24 40 25 41 26 42 87 43 27 44 86 45
REMARK SMILES IDX 28 46 29 47 30 48 80 49 31 50 85 51 79 52 81 53 32 54 84 55
REMARK SMILES IDX 78 56 77 57 33 59 65 60 45 61 64 62 46 63 49 64 63 65 82 66
REMARK SMILES IDX 47 67 48 68 62 70 83 71 50 72 34 73 35 74 43 75 36 76 37 77
REMARK SMILES IDX 41 78 44 79 38 80 39 81 42 82 40 83 66 84 67 85 75 86 68 87
REMARK SMILES IDX 69 88 73 89 76 90 70 91 71 92 74 93 72 94 51 95 52 96 60 97
REMARK SMILES IDX 53 98 54 99 58 100 61 101 55 102 56 103 59 104 57 105
REMARK H PARENT 18 4 100 17 22 39 81 58 49 69
REMARK Flexibility Score: inf
ROOT
ATOM      1  C   UNL A   1      37.710  23.110  26.094  1.00  0.00     0.251 C 
ATOM      2  O   UNL A   1      38.338  23.824  26.879  1.00  0.00    -0.269 OA
ATOM      3  N   UNL A   1      38.205  21.855  25.863  1.00  0.00    -0.352 N 
ATOM      4  H   UNL A   1      39.030  21.656  26.361  1.00  0.00     0.163 HD
ENDROOT
BRANCH   1   5
ATOM      5  C   UNL A   1      36.443  23.624  25.500  1.00  0.00     0.039 A 
ATOM      6  C   UNL A   1      33.921  24.448  24.525  1.00  0.00    -0.035 A 
ATOM      7  C   UNL A   1      34.085  24.101  25.875  1.00  0.00     0.005 A 
ATOM      8  C   UNL A   1      35.045  24.442  23.691  1.00  0.00     0.005 A 
ATOM      9  C   UNL A   1      35.329  23.684  26.350  1.00  0.00     0.014 A 
ATOM     10  C   UNL A   1      36.295  24.061  24.182  1.00  0.00     0.014 A 
BRANCH   6  11
ATOM     11  C   UNL A   1      32.556  24.840  23.953  1.00  0.00     0.098 C 
ATOM     12  C   UNL A   1      32.367  25.535  20.100  1.00  0.00     0.065 C 
ATOM     13  C   UNL A   1      32.405  25.665  21.601  1.00  0.00     0.025 C 
ATOM     14  C   UNL A   1      32.538  24.619  22.447  1.00  0.00     0.068 C 
ATOM     15  N   UNL A   1      32.239  26.944  22.116  1.00  0.00    -0.344 N 
ATOM     16  C   UNL A   1      32.075  27.257  23.458  1.00  0.00     0.123 A 
ATOM     17  H   UNL A   1      32.237  27.691  21.475  1.00  0.00     0.168 HD
ATOM     18  C   UNL A   1      32.195  26.262  24.354  1.00  0.00     0.071 A 
ATOM     19  N   UNL A   1      31.792  28.542  23.899  1.00  0.00    -0.282 N 
ATOM     20  C   UNL A   1      31.965  26.519  25.789  1.00  0.00     0.262 A 
ATOM     21  C   UNL A   1      31.604  29.614  22.929  1.00  0.00     0.157 C 
ATOM     22  C   UNL A   1      31.693  28.879  25.249  1.00  0.00     0.332 A 
ATOM     23  N   UNL A   1      31.840  27.840  26.153  1.00  0.00    -0.263 N 
ATOM     24  O   UNL A   1      31.881  25.581  26.579  1.00  0.00    -0.269 OA
ATOM     25  O   UNL A   1      31.472  30.032  25.626  1.00  0.00    -0.247 OA
ATOM     26  C   UNL A   1      31.741  28.169  27.563  1.00  0.00     0.158 C 
BRANCH  14  27
ATOM     27  C   UNL A   1      32.620  23.194  22.038  1.00  0.00     0.336 C 
ATOM     28  O   UNL A   1      33.275  22.820  21.078  1.00  0.00    -0.246 OA
BRANCH  27  29
ATOM     29  O   UNL A   1      31.829  22.415  22.815  1.00  0.00    -0.462 OA
BRANCH  29  30
ATOM     30  C   UNL A   1      32.155  21.015  22.863  1.00  0.00     0.236 C 
BRANCH  30  31
ATOM     31  C   UNL A   1      32.516  20.593  24.295  1.00  0.00     0.021 C 
ATOM     32  C   UNL A   1      34.022  20.658  24.547  1.00  0.00     0.011 C 
ATOM     33  C   UNL A   1      31.777  21.465  25.307  1.00  0.00     0.011 C 
ENDBRANCH  30  31
ENDBRANCH  29  30
ENDBRANCH  27  29
ENDBRANCH  14  27
ENDBRANCH   6  11
ENDBRANCH   1   5
BRANCH   3  34
ATOM     34  C   UNL A   1      37.750  20.761  25.026  1.00  0.00     0.118 C 
BRANCH  34  35
ATOM     35  C   UNL A   1      38.713  19.579  25.115  1.00  0.00     0.042 C 
BRANCH  35  36
ATOM     36  C   UNL A   1      39.677  19.690  26.292  1.00  0.00     0.118 C 
BRANCH  36  37
ATOM     37  N   UNL A   1      40.877  18.890  26.081  1.00  0.00    -0.352 N 
ATOM     38  C   UNL A   1      42.168  19.288  25.857  1.00  0.00     0.251 C 
ATOM     39  H   UNL A   1      40.739  17.915  26.104  1.00  0.00     0.163 HD
ATOM     40  O   UNL A   1      42.993  18.483  25.434  1.00  0.00    -0.269 OA
BRANCH  38  41
ATOM     41  C   UNL A   1      42.574  20.683  26.124  1.00  0.00     0.039 A 
ATOM     42  C   UNL A   1      42.692  21.112  27.447  1.00  0.00     0.014 A 
ATOM     43  C   UNL A   1      42.792  21.577  25.071  1.00  0.00     0.014 A 
ATOM     44  C   UNL A   1      43.074  22.427  27.715  1.00  0.00     0.010 A 
ATOM     45  C   UNL A   1      43.246  22.863  25.337  1.00  0.00     0.010 A 
ATOM     46  C   UNL A   1      43.379  23.304  26.662  1.00  0.00    -0.014 A 
BRANCH  46  47
ATOM     47  C   UNL A   1      43.818  24.695  26.928  1.00  0.00     0.031 A 
ATOM     48  C   UNL A   1      42.835  25.705  27.450  1.00  0.00     0.074 A 
ATOM     49  C   UNL A   1      45.088  25.052  26.660  1.00  0.00     0.049 A 
ATOM     50  N   UNL A   1      43.014  26.976  27.702  1.00  0.00    -0.248 NA
ATOM     51  C   UNL A   1      41.465  25.229  27.703  1.00  0.00     0.031 C 
ATOM     52  C   UNL A   1      46.117  24.162  26.122  1.00  0.00     0.029 A 
ATOM     53  N   UNL A   1      45.729  26.256  26.804  1.00  0.00    -0.354 N 
ATOM     54  C   UNL A   1      41.784  27.448  28.141  1.00  0.00     0.074 A 
ATOM     55  C   UNL A   1      40.850  26.347  28.060  1.00  0.00     0.031 C 
ATOM     56  C   UNL A   1      47.271  24.840  26.015  1.00  0.00     0.029 A 
ATOM     57  C   UNL A   1      47.052  26.221  26.435  1.00  0.00     0.049 A 
ATOM     58  H   UNL A   1      45.285  27.067  27.140  1.00  0.00     0.167 HD
ATOM     59  C   UNL A   1      41.472  28.682  28.602  1.00  0.00     0.037 A 
ATOM     60  C   UNL A   1      47.981  27.196  26.436  1.00  0.00     0.037 A 
ATOM     61  C   UNL A   1      42.411  29.768  28.695  1.00  0.00     0.049 A 
ATOM     62  C   UNL A   1      47.597  28.570  26.915  1.00  0.00     0.074 A 
ATOM     63  C   UNL A   1      42.204  31.047  29.178  1.00  0.00     0.029 A 
ATOM     64  N   UNL A   1      43.739  29.699  28.296  1.00  0.00    -0.354 N 
ATOM     65  N   UNL A   1      46.445  28.993  27.375  1.00  0.00    -0.248 NA
ATOM     66  C   UNL A   1      48.643  29.602  26.876  1.00  0.00     0.031 C 
ATOM     67  C   UNL A   1      43.391  31.768  29.025  1.00  0.00     0.029 A 
ATOM     68  C   UNL A   1      44.356  30.923  28.502  1.00  0.00     0.049 A 
ATOM     69  H   UNL A   1      44.177  28.900  27.924  1.00  0.00     0.167 HD
ATOM     70  C   UNL A   1      46.631  30.327  27.706  1.00  0.00     0.074 A 
ATOM     71  C   UNL A   1      48.013  30.641  27.408  1.00  0.00     0.031 C 
ATOM     72  C   UNL A   1      45.737  31.213  28.208  1.00  0.00     0.037 A 
BRANCH  59  73
ATOM     73  C   UNL A   1      40.062  28.924  29.059  1.00  0.00     0.064 A 
ATOM     74  C   UNL A   1      39.063  29.333  28.163  1.00  0.00     0.173 A 
ATOM     75  C   UNL A   1      39.689  28.678  30.389  1.00  0.00     0.173 A 
ATOM     76  F   UNL A   1      39.369  29.593  26.883  1.00  0.00    -0.203 F 
ATOM     77  C   UNL A   1      37.747  29.505  28.585  1.00  0.00     0.198 A 
ATOM     78  C   UNL A   1      38.366  28.819  30.800  1.00  0.00     0.198 A 
ATOM     79  F   UNL A   1      40.603  28.280  31.286  1.00  0.00    -0.203 F 
ATOM     80  F   UNL A   1      36.818  29.934  27.719  1.00  0.00    -0.200 F 
ATOM     81  C   UNL A   1      37.398  29.238  29.900  1.00  0.00     0.200 A 
ATOM     82  F   UNL A   1      38.026  28.546  32.067  1.00  0.00    -0.200 F 
ATOM     83  F   UNL A   1      36.127  29.384  30.300  1.00  0.00    -0.200 F 
ENDBRANCH  59  73
BRANCH  60  84
ATOM     84  C   UNL A   1      49.371  26.891  26.006  1.00  0.00     0.064 A 
ATOM     85  C   UNL A   1      50.322  26.430  26.926  1.00  0.00     0.173 A 
ATOM     86  C   UNL A   1      49.774  27.032  24.669  1.00  0.00     0.173 A 
ATOM     87  F   UNL A   1      49.991  26.297  28.219  1.00  0.00    -0.203 F 
ATOM     88  C   UNL A   1      51.624  26.131  26.531  1.00  0.00     0.198 A 
ATOM     89  C   UNL A   1      51.069  26.706  24.268  1.00  0.00     0.198 A 
ATOM     90  F   UNL A   1      48.903  27.466  23.747  1.00  0.00    -0.203 F 
ATOM     91  F   UNL A   1      52.522  25.726  27.439  1.00  0.00    -0.200 F 
ATOM     92  C   UNL A   1      51.994  26.261  25.201  1.00  0.00     0.200 A 
ATOM     93  F   UNL A   1      51.417  26.817  22.980  1.00  0.00    -0.200 F 
ATOM     94  F   UNL A   1      53.243  25.962  24.818  1.00  0.00    -0.200 F 
ENDBRANCH  60  84
BRANCH  72  95
ATOM     95  C   UNL A   1      46.221  32.606  28.494  1.00  0.00     0.064 A 
ATOM     96  C   UNL A   1      46.129  33.625  27.536  1.00  0.00     0.173 A 
ATOM     97  C   UNL A   1      46.704  32.941  29.769  1.00  0.00     0.173 A 
ATOM     98  F   UNL A   1      45.685  33.352  26.299  1.00  0.00    -0.203 F 
ATOM     99  C   UNL A   1      46.516  34.928  27.839  1.00  0.00     0.198 A 
ATOM    100  C   UNL A   1      47.059  34.251  30.077  1.00  0.00     0.198 A 
ATOM    101  F   UNL A   1      46.802  32.005  30.723  1.00  0.00    -0.203 F 
ATOM    102  F   UNL A   1      46.453  35.878  26.897  1.00  0.00    -0.200 F 
ATOM    103  C   UNL A   1      46.969  35.241  29.111  1.00  0.00     0.200 A 
ATOM    104  F   UNL A   1      47.477  34.556  31.314  1.00  0.00    -0.200 F 
ATOM    105  F   UNL A   1      47.320  36.501  29.407  1.00  0.00    -0.200 F 
ENDBRANCH  72  95
ENDBRANCH  46  47
ENDBRANCH  38  41
ENDBRANCH  36  37
ENDBRANCH  35  36
ENDBRANCH  34  35
ENDBRANCH   3  34
TORSDOF 15
ENDMDL
MODEL 2
REMARK VINA RESULT:     -12.3      0.617      7.011
REMARK SMILES CC1=C(C(=O)OCC(C)C)[C@@H](c2ccc(C(=O)NCCCNC(=O)c3ccc(-c4c5nc(c(-c6c(F)c(F)c(F)c(F)c6F)c6ccc([nH]6)c(-c6c(F)c(F)c(F)c(F)c6F)c6nc(c(-c7c(F)c(F)c(F)c(F)c7F)c7ccc4[nH]7)C=C6)C=C5)cc3)cc2)c2c(n(C)c(=O)n(C)c2=O)N1
REMARK SMILES IDX 16 1 17 2 18 3 15 5 12 6 13 7 89 8 14 9 88 10 11 11 1 12
REMARK SMILES IDX 2 13 3 14 100 15 91 16 90 18 92 19 98 20 93 21 94 22 96 23
REMARK SMILES IDX 99 24 95 25 97 26 4 27 5 28 6 29 7 30 8 31 9 32 10 33 19 34
REMARK SMILES IDX 20 35 21 36 22 37 23 38 24 40 25 41 26 42 87 43 27 44 86 45
REMARK SMILES IDX 28 46 29 47 30 48 80 49 31 50 85 51 79 52 81 53 32 54 84 55
REMARK SMILES IDX 78 56 77 57 33 59 65 60 45 61 64 62 46 63 49 64 63 65 82 66
REMARK SMILES IDX 47 67 48 68 62 70 83 71 50 72 34 73 35 74 43 75 36 76 37 77
REMARK SMILES IDX 41 78 44 79 38 80 39 81 42 82 40 83 66 84 67 85 75 86 68 87
REMARK SMILES IDX 69 88 73 89 76 90 70 91 71 92 74 93 72 94 51 95 52 96 60 97
REMARK SMILES IDX 53 98 54 99 58 100 61 101 55 102 56 103 59 104 57 105
REMARK H PARENT 18 4 100 17 22 39 81 58 49 69
REMARK Flexibility Score: inf
ROOT
ATOM      1  C   UNL A   1      37.673  23.121  26.085  1.00  0.00     0.251 C 
ATOM      2  O   UNL A   1      38.299  23.861  26.848  1.00  0.00    -0.269 OA
ATOM      3  N   UNL A   1      38.165  21.856  25.903  1.00  0.00    -0.352 N 
ATOM      4  H   UNL A   1      38.986  21.672  26.414  1.00  0.00     0.163 HD
ENDROOT
BRANCH   1   5
ATOM      5  C   UNL A   1      36.414  23.618  25.463  1.00  0.00     0.039 A 
ATOM      6  C   UNL A   1      33.903  24.423  24.445  1.00  0.00    -0.035 A 
ATOM      7  C   UNL A   1      34.065  24.158  25.813  1.00  0.00     0.005 A 
ATOM      8  C   UNL A   1      35.023  24.346  23.610  1.00  0.00     0.005 A 
ATOM      9  C   UNL A   1      35.304  23.750  26.311  1.00  0.00     0.014 A 
ATOM     10  C   UNL A   1      36.268  23.975  24.121  1.00  0.00     0.014 A 
BRANCH   6  11
ATOM     11  C   UNL A   1      32.542  24.801  23.853  1.00  0.00     0.098 C 
ATOM     12  C   UNL A   1      32.397  25.467  19.993  1.00  0.00     0.065 C 
ATOM     13  C   UNL A   1      32.415  25.609  21.493  1.00  0.00     0.025 C 
ATOM     14  C   UNL A   1      32.544  24.570  22.348  1.00  0.00     0.068 C 
ATOM     15  N   UNL A   1      32.234  26.890  21.996  1.00  0.00    -0.344 N 
ATOM     16  C   UNL A   1      32.052  27.212  23.334  1.00  0.00     0.123 A 
ATOM     17  H   UNL A   1      32.236  27.632  21.350  1.00  0.00     0.168 HD
ATOM     18  C   UNL A   1      32.167  26.225  24.239  1.00  0.00     0.071 A 
ATOM     19  N   UNL A   1      31.755  28.499  23.762  1.00  0.00    -0.282 N 
ATOM     20  C   UNL A   1      31.917  26.490  25.669  1.00  0.00     0.262 A 
ATOM     21  C   UNL A   1      31.573  29.562  22.781  1.00  0.00     0.157 C 
ATOM     22  C   UNL A   1      31.637  28.845  25.108  1.00  0.00     0.332 A 
ATOM     23  N   UNL A   1      31.779  27.813  26.021  1.00  0.00    -0.263 N 
ATOM     24  O   UNL A   1      31.830  25.557  26.465  1.00  0.00    -0.269 OA
ATOM     25  O   UNL A   1      31.404  29.999  25.474  1.00  0.00    -0.247 OA
ATOM     26  C   UNL A   1      31.661  28.152  27.427  1.00  0.00     0.158 C 
BRANCH  14  27
ATOM     27  C   UNL A   1      32.641  23.142  21.952  1.00  0.00     0.336 C 
ATOM     28  O   UNL A   1      33.328  22.763  21.017  1.00  0.00    -0.246 OA
BRANCH  27  29
ATOM     29  O   UNL A   1      31.823  22.367  22.706  1.00  0.00    -0.462 OA
BRANCH  29  30
ATOM     30  C   UNL A   1      32.172  20.976  22.808  1.00  0.00     0.236 C 
BRANCH  30  31
ATOM     31  C   UNL A   1      32.496  20.604  24.262  1.00  0.00     0.021 C 
ATOM     32  C   UNL A   1      33.991  20.702  24.558  1.00  0.00     0.011 C 
ATOM     33  C   UNL A   1      31.711  21.495  25.223  1.00  0.00     0.011 C 
ENDBRANCH  30  31
ENDBRANCH  29  30
ENDBRANCH  27  29
ENDBRANCH  14  27
ENDBRANCH   6  11
ENDBRANCH   1   5
BRANCH   3  34
ATOM     34  C   UNL A   1      37.711  20.735  25.103  1.00  0.00     0.118 C 
BRANCH  34  35
ATOM     35  C   UNL A   1      38.749  19.615  25.109  1.00  0.00     0.042 C 
BRANCH  35  36
ATOM     36  C   UNL A   1      39.683  19.680  26.313  1.00  0.00     0.118 C 
BRANCH  36  37
ATOM     37  N   UNL A   1      40.934  18.974  26.064  1.00  0.00    -0.352 N 
ATOM     38  C   UNL A   1      42.197  19.468  25.874  1.00  0.00     0.251 C 
ATOM     39  H   UNL A   1      40.858  17.993  26.026  1.00  0.00     0.163 HD
ATOM     40  O   UNL A   1      43.074  18.745  25.410  1.00  0.00    -0.269 OA
BRANCH  38  41
ATOM     41  C   UNL A   1      42.510  20.867  26.229  1.00  0.00     0.039 A 
ATOM     42  C   UNL A   1      42.679  21.202  27.574  1.00  0.00     0.014 A 
ATOM     43  C   UNL A   1      42.589  21.853  25.241  1.00  0.00     0.014 A 
ATOM     44  C   UNL A   1      42.975  22.520  27.924  1.00  0.00     0.010 A 
ATOM     45  C   UNL A   1      42.960  23.149  25.583  1.00  0.00     0.010 A 
ATOM     46  C   UNL A   1      43.143  23.497  26.929  1.00  0.00    -0.014 A 
BRANCH  46  47
ATOM     47  C   UNL A   1      43.489  24.895  27.281  1.00  0.00     0.031 A 
ATOM     48  C   UNL A   1      44.890  25.396  27.070  1.00  0.00     0.074 A 
ATOM     49  C   UNL A   1      42.552  25.694  27.825  1.00  0.00     0.049 A 
ATOM     50  N   UNL A   1      45.400  26.567  27.355  1.00  0.00    -0.248 NA
ATOM     51  C   UNL A   1      45.852  24.450  26.481  1.00  0.00     0.031 C 
ATOM     52  C   UNL A   1      41.170  25.303  28.103  1.00  0.00     0.029 A 
ATOM     53  N   UNL A   1      42.620  26.999  28.242  1.00  0.00    -0.354 N 
ATOM     54  C   UNL A   1      46.735  26.497  26.981  1.00  0.00     0.074 A 
ATOM     55  C   UNL A   1      46.976  25.151  26.509  1.00  0.00     0.031 C 
ATOM     56  C   UNL A   1      40.510  26.355  28.610  1.00  0.00     0.029 A 
ATOM     57  C   UNL A   1      41.431  27.481  28.733  1.00  0.00     0.049 A 
ATOM     58  H   UNL A   1      43.441  27.539  28.193  1.00  0.00     0.167 HD
ATOM     59  C   UNL A   1      47.667  27.478  26.998  1.00  0.00     0.037 A 
ATOM     60  C   UNL A   1      41.123  28.695  29.228  1.00  0.00     0.037 A 
ATOM     61  C   UNL A   1      47.414  28.820  27.453  1.00  0.00     0.049 A 
ATOM     62  C   UNL A   1      42.188  29.756  29.274  1.00  0.00     0.074 A 
ATOM     63  C   UNL A   1      48.280  29.897  27.481  1.00  0.00     0.029 A 
ATOM     64  N   UNL A   1      46.201  29.266  27.959  1.00  0.00    -0.354 N 
ATOM     65  N   UNL A   1      43.435  29.695  28.871  1.00  0.00    -0.248 NA
ATOM     66  C   UNL A   1      41.805  31.057  29.842  1.00  0.00     0.031 C 
ATOM     67  C   UNL A   1      47.608  30.982  28.051  1.00  0.00     0.029 A 
ATOM     68  C   UNL A   1      46.305  30.599  28.324  1.00  0.00     0.049 A 
ATOM     69  H   UNL A   1      45.388  28.718  28.046  1.00  0.00     0.167 HD
ATOM     70  C   UNL A   1      43.977  30.950  29.110  1.00  0.00     0.074 A 
ATOM     71  C   UNL A   1      42.918  31.759  29.679  1.00  0.00     0.031 C 
ATOM     72  C   UNL A   1      45.237  31.391  28.880  1.00  0.00     0.037 A 
BRANCH  59  73
ATOM     73  C   UNL A   1      49.042  27.148  26.495  1.00  0.00     0.064 A 
ATOM     74  C   UNL A   1      50.032  26.642  27.351  1.00  0.00     0.173 A 
ATOM     75  C   UNL A   1      49.355  27.272  25.133  1.00  0.00     0.173 A 
ATOM     76  F   UNL A   1      49.788  26.515  28.665  1.00  0.00    -0.203 F 
ATOM     77  C   UNL A   1      51.289  26.290  26.867  1.00  0.00     0.198 A 
ATOM     78  C   UNL A   1      50.602  26.889  24.646  1.00  0.00     0.198 A 
ATOM     79  F   UNL A   1      48.445  27.746  24.270  1.00  0.00    -0.203 F 
ATOM     80  F   UNL A   1      52.230  25.845  27.710  1.00  0.00    -0.200 F 
ATOM     81  C   UNL A   1      51.569  26.403  25.514  1.00  0.00     0.200 A 
ATOM     82  F   UNL A   1      50.867  26.984  23.336  1.00  0.00    -0.200 F 
ATOM     83  F   UNL A   1      52.773  26.045  25.045  1.00  0.00    -0.200 F 
ENDBRANCH  59  73
BRANCH  60  84
ATOM     84  C   UNL A   1      39.735  28.977  29.680  1.00  0.00     0.064 A 
ATOM     85  C   UNL A   1      38.783  29.494  28.791  1.00  0.00     0.173 A 
ATOM     86  C   UNL A   1      39.323  28.718  30.996  1.00  0.00     0.173 A 
ATOM     87  F   UNL A   1      39.132  29.777  27.527  1.00  0.00    -0.203 F 
ATOM     88  C   UNL A   1      37.477  29.752  29.202  1.00  0.00     0.198 A 
ATOM     89  C   UNL A   1      38.009  28.949  31.399  1.00  0.00     0.198 A 
ATOM     90  F   UNL A   1      40.194  28.219  31.886  1.00  0.00    -0.203 F 
ATOM     91  F   UNL A   1      36.598  30.280  28.340  1.00  0.00    -0.200 F 
ATOM     92  C   UNL A   1      37.088  29.471  30.503  1.00  0.00     0.200 A 
ATOM     93  F   UNL A   1      37.634  28.660  32.652  1.00  0.00    -0.200 F 
ATOM     94  F   UNL A   1      35.829  29.707  30.895  1.00  0.00    -0.200 F 
ENDBRANCH  60  84
BRANCH  72  95
ATOM     95  C   UNL A   1      45.547  32.820  29.220  1.00  0.00     0.064 A 
ATOM     96  C   UNL A   1      45.312  33.859  28.309  1.00  0.00     0.173 A 
ATOM     97  C   UNL A   1      46.006  33.161  30.502  1.00  0.00     0.173 A 
ATOM     98  F   UNL A   1      44.884  33.583  27.066  1.00  0.00    -0.203 F 
ATOM     99  C   UNL A   1      45.537  35.186  28.663  1.00  0.00     0.198 A 
ATOM    100  C   UNL A   1      46.198  34.491  30.863  1.00  0.00     0.198 A 
ATOM    101  F   UNL A   1      46.237  32.206  31.415  1.00  0.00    -0.203 F 
ATOM    102  F   UNL A   1      45.339  36.159  27.763  1.00  0.00    -0.200 F 
ATOM    103  C   UNL A   1      45.969  35.502  29.942  1.00  0.00     0.200 A 
ATOM    104  F   UNL A   1      46.596  34.795  32.107  1.00  0.00    -0.200 F 
ATOM    105  F   UNL A   1      46.164  36.782  30.289  1.00  0.00    -0.200 F 
ENDBRANCH  72  95
ENDBRANCH  46  47
ENDBRANCH  38  41
ENDBRANCH  36  37
ENDBRANCH  35  36
ENDBRANCH  34  35
ENDBRANCH   3  34
TORSDOF 15
ENDMDL
MODEL 3
REMARK VINA RESULT:     -12.3      1.596      2.251
REMARK SMILES CC1=C(C(=O)OCC(C)C)[C@@H](c2ccc(C(=O)NCCCNC(=O)c3ccc(-c4c5nc(c(-c6c(F)c(F)c(F)c(F)c6F)c6ccc([nH]6)c(-c6c(F)c(F)c(F)c(F)c6F)c6nc(c(-c7c(F)c(F)c(F)c(F)c7F)c7ccc4[nH]7)C=C6)C=C5)cc3)cc2)c2c(n(C)c(=O)n(C)c2=O)N1
REMARK SMILES IDX 16 1 17 2 18 3 15 5 12 6 13 7 89 8 14 9 88 10 11 11 1 12
REMARK SMILES IDX 2 13 3 14 100 15 91 16 90 18 92 19 98 20 93 21 94 22 96 23
REMARK SMILES IDX 99 24 95 25 97 26 4 27 5 28 6 29 7 30 8 31 9 32 10 33 19 34
REMARK SMILES IDX 20 35 21 36 22 37 23 38 24 40 25 41 26 42 87 43 27 44 86 45
REMARK SMILES IDX 28 46 29 47 30 48 80 49 31 50 85 51 79 52 81 53 32 54 84 55
REMARK SMILES IDX 78 56 77 57 33 59 65 60 45 61 64 62 46 63 49 64 63 65 82 66
REMARK SMILES IDX 47 67 48 68 62 70 83 71 50 72 34 73 35 74 43 75 36 76 37 77
REMARK SMILES IDX 41 78 44 79 38 80 39 81 42 82 40 83 66 84 67 85 75 86 68 87
REMARK SMILES IDX 69 88 73 89 76 90 70 91 71 92 74 93 72 94 51 95 52 96 60 97
REMARK SMILES IDX 53 98 54 99 58 100 61 101 55 102 56 103 59 104 57 105
REMARK H PARENT 18 4 100 17 22 39 81 58 49 69
REMARK Flexibility Score: inf
ROOT
ATOM      1  C   UNL A   1      38.944  22.570  26.114  1.00  0.00     0.251 C 
ATOM      2  O   UNL A   1      39.540  23.569  26.521  1.00  0.00    -0.269 OA
ATOM      3  N   UNL A   1      39.658  21.404  26.048  1.00  0.00    -0.352 N 
ATOM      4  H   UNL A   1      40.594  21.494  26.340  1.00  0.00     0.163 HD
ENDROOT
BRANCH   1   5
ATOM      5  C   UNL A   1      37.496  22.676  25.778  1.00  0.00     0.039 A 
ATOM      6  C   UNL A   1      34.815  23.004  24.943  1.00  0.00    -0.035 A 
ATOM      7  C   UNL A   1      35.845  22.874  23.999  1.00  0.00     0.005 A 
ATOM      8  C   UNL A   1      35.135  22.901  26.302  1.00  0.00     0.005 A 
ATOM      9  C   UNL A   1      37.169  22.722  24.415  1.00  0.00     0.014 A 
ATOM     10  C   UNL A   1      36.457  22.711  26.710  1.00  0.00     0.014 A 
BRANCH   6  11
ATOM     11  C   UNL A   1      33.362  23.245  24.524  1.00  0.00     0.098 C 
ATOM     12  C   UNL A   1      31.932  20.978  21.664  1.00  0.00     0.065 C 
ATOM     13  C   UNL A   1      32.479  22.124  22.474  1.00  0.00     0.025 C 
ATOM     14  C   UNL A   1      32.827  22.031  23.777  1.00  0.00     0.068 C 
ATOM     15  N   UNL A   1      32.571  23.350  21.828  1.00  0.00    -0.344 N 
ATOM     16  C   UNL A   1      32.886  24.559  22.433  1.00  0.00     0.123 A 
ATOM     17  H   UNL A   1      32.398  23.362  20.859  1.00  0.00     0.168 HD
ATOM     18  C   UNL A   1      33.242  24.538  23.730  1.00  0.00     0.071 A 
ATOM     19  N   UNL A   1      32.844  25.770  21.757  1.00  0.00    -0.282 N 
ATOM     20  C   UNL A   1      33.522  25.796  24.448  1.00  0.00     0.262 A 
ATOM     21  C   UNL A   1      32.405  25.806  20.368  1.00  0.00     0.157 C 
ATOM     22  C   UNL A   1      33.224  26.979  22.339  1.00  0.00     0.332 A 
ATOM     23  N   UNL A   1      33.605  26.928  23.670  1.00  0.00    -0.263 N 
ATOM     24  O   UNL A   1      33.654  25.795  25.670  1.00  0.00    -0.269 OA
ATOM     25  O   UNL A   1      33.210  28.044  21.715  1.00  0.00    -0.247 OA
ATOM     26  C   UNL A   1      34.004  28.175  24.294  1.00  0.00     0.158 C 
BRANCH  14  27
ATOM     27  C   UNL A   1      32.683  20.814  24.615  1.00  0.00     0.336 C 
ATOM     28  O   UNL A   1      31.756  20.656  25.393  1.00  0.00    -0.246 OA
BRANCH  27  29
ATOM     29  O   UNL A   1      33.736  19.976  24.448  1.00  0.00    -0.462 OA
BRANCH  29  30
ATOM     30  C   UNL A   1      33.586  18.645  24.973  1.00  0.00     0.236 C 
BRANCH  30  31
ATOM     31  C   UNL A   1      33.959  17.601  23.911  1.00  0.00     0.021 C 
ATOM     32  C   UNL A   1      34.082  16.199  24.507  1.00  0.00     0.011 C 
ATOM     33  C   UNL A   1      32.930  17.602  22.782  1.00  0.00     0.011 C 
ENDBRANCH  30  31
ENDBRANCH  29  30
ENDBRANCH  27  29
ENDBRANCH  14  27
ENDBRANCH   6  11
ENDBRANCH   1   5
BRANCH   3  34
ATOM     34  C   UNL A   1      39.303  20.061  25.631  1.00  0.00     0.118 C 
BRANCH  34  35
ATOM     35  C   UNL A   1      40.451  19.091  25.906  1.00  0.00     0.042 C 
BRANCH  35  36
ATOM     36  C   UNL A   1      41.771  19.802  26.187  1.00  0.00     0.118 C 
BRANCH  36  37
ATOM     37  N   UNL A   1      42.840  19.312  25.327  1.00  0.00    -0.352 N 
ATOM     38  C   UNL A   1      43.862  19.994  24.722  1.00  0.00     0.251 C 
ATOM     39  H   UNL A   1      42.825  18.343  25.154  1.00  0.00     0.163 HD
ATOM     40  O   UNL A   1      44.504  19.464  23.820  1.00  0.00    -0.269 OA
BRANCH  38  41
ATOM     41  C   UNL A   1      44.197  21.366  25.153  1.00  0.00     0.039 A 
ATOM     42  C   UNL A   1      44.006  22.422  24.259  1.00  0.00     0.014 A 
ATOM     43  C   UNL A   1      44.744  21.604  26.418  1.00  0.00     0.014 A 
ATOM     44  C   UNL A   1      44.318  23.724  24.652  1.00  0.00     0.010 A 
ATOM     45  C   UNL A   1      44.982  22.908  26.836  1.00  0.00     0.010 A 
ATOM     46  C   UNL A   1      44.784  23.979  25.952  1.00  0.00    -0.014 A 
BRANCH  46  47
ATOM     47  C   UNL A   1      45.091  25.359  26.398  1.00  0.00     0.031 A 
ATOM     48  C   UNL A   1      44.002  26.220  26.974  1.00  0.00     0.074 A 
ATOM     49  C   UNL A   1      46.337  25.845  26.245  1.00  0.00     0.049 A 
ATOM     50  N   UNL A   1      44.059  27.463  27.377  1.00  0.00    -0.248 NA
ATOM     51  C   UNL A   1      42.667  25.611  27.094  1.00  0.00     0.031 C 
ATOM     52  C   UNL A   1      47.462  25.109  25.669  1.00  0.00     0.029 A 
ATOM     53  N   UNL A   1      46.866  27.070  26.559  1.00  0.00    -0.354 N 
ATOM     54  C   UNL A   1      42.775  27.782  27.796  1.00  0.00     0.074 A 
ATOM     55  C   UNL A   1      41.943  26.627  27.539  1.00  0.00     0.031 C 
ATOM     56  C   UNL A   1      48.558  25.883  25.705  1.00  0.00     0.029 A 
ATOM     57  C   UNL A   1      48.203  27.184  26.264  1.00  0.00     0.049 A 
ATOM     58  H   UNL A   1      46.339  27.799  26.959  1.00  0.00     0.167 HD
ATOM     59  C   UNL A   1      42.337  28.925  28.375  1.00  0.00     0.037 A 
ATOM     60  C   UNL A   1      49.045  28.222  26.428  1.00  0.00     0.037 A 
ATOM     61  C   UNL A   1      43.175  30.064  28.643  1.00  0.00     0.049 A 
ATOM     62  C   UNL A   1      48.523  29.496  27.036  1.00  0.00     0.074 A 
ATOM     63  C   UNL A   1      42.837  31.257  29.254  1.00  0.00     0.029 A 
ATOM     64  N   UNL A   1      44.521  30.147  28.315  1.00  0.00    -0.354 N 
ATOM     65  N   UNL A   1      47.318  29.770  27.475  1.00  0.00    -0.248 NA
ATOM     66  C   UNL A   1      49.477  30.605  27.174  1.00  0.00     0.031 C 
ATOM     67  C   UNL A   1      43.964  32.082  29.252  1.00  0.00     0.029 A 
ATOM     68  C   UNL A   1      45.021  31.383  28.692  1.00  0.00     0.049 A 
ATOM     69  H   UNL A   1      45.043  29.435  27.880  1.00  0.00     0.167 HD
ATOM     70  C   UNL A   1      47.374  31.067  27.964  1.00  0.00     0.074 A 
ATOM     71  C   UNL A   1      48.737  31.522  27.783  1.00  0.00     0.031 C 
ATOM     72  C   UNL A   1      46.385  31.814  28.512  1.00  0.00     0.037 A 
BRANCH  59  73
ATOM     73  C   UNL A   1      40.892  28.999  28.776  1.00  0.00     0.064 A 
ATOM     74  C   UNL A   1      39.885  29.264  27.835  1.00  0.00     0.173 A 
ATOM     75  C   UNL A   1      40.501  28.736  30.097  1.00  0.00     0.173 A 
ATOM     76  F   UNL A   1      40.205  29.534  26.560  1.00  0.00    -0.203 F 
ATOM     77  C   UNL A   1      38.543  29.279  28.205  1.00  0.00     0.198 A 
ATOM     78  C   UNL A   1      39.156  28.720  30.457  1.00  0.00     0.198 A 
ATOM     79  F   UNL A   1      41.422  28.472  31.036  1.00  0.00    -0.203 F 
ATOM     80  F   UNL A   1      37.602  29.572  27.297  1.00  0.00    -0.200 F 
ATOM     81  C   UNL A   1      38.179  28.997  29.513  1.00  0.00     0.200 A 
ATOM     82  F   UNL A   1      38.805  28.432  31.718  1.00  0.00    -0.200 F 
ATOM     83  F   UNL A   1      36.885  28.993  29.864  1.00  0.00    -0.200 F 
ENDBRANCH  59  73
BRANCH  60  84
ATOM     84  C   UNL A   1      50.474  28.081  26.046  1.00  0.00     0.064 A 
ATOM     85  C   UNL A   1      51.462  27.894  27.022  1.00  0.00     0.173 A 
ATOM     86  C   UNL A   1      50.882  28.107  24.703  1.00  0.00     0.173 A 
ATOM     87  F   UNL A   1      51.125  27.881  28.320  1.00  0.00    -0.203 F 
ATOM     88  C   UNL A   1      52.803  27.750  26.673  1.00  0.00     0.198 A 
ATOM     89  C   UNL A   1      52.220  27.934  24.353  1.00  0.00     0.198 A 
ATOM     90  F   UNL A   1      49.977  28.280  23.729  1.00  0.00    -0.203 F 
ATOM     91  F   UNL A   1      53.731  27.609  27.630  1.00  0.00    -0.200 F 
ATOM     92  C   UNL A   1      53.180  27.761  25.339  1.00  0.00     0.200 A 
ATOM     93  F   UNL A   1      52.577  27.929  23.062  1.00  0.00    -0.200 F 
ATOM     94  F   UNL A   1      54.468  27.610  25.002  1.00  0.00    -0.200 F 
ENDBRANCH  60  84
BRANCH  72  95
ATOM     95  C   UNL A   1      46.735  33.198  28.980  1.00  0.00     0.064 A 
ATOM     96  C   UNL A   1      46.589  34.314  28.144  1.00  0.00     0.173 A 
ATOM     97  C   UNL A   1      47.140  33.417  30.306  1.00  0.00     0.173 A 
ATOM     98  F   UNL A   1      46.216  34.154  26.864  1.00  0.00    -0.203 F 
ATOM     99  C   UNL A   1      46.850  35.598  28.613  1.00  0.00     0.198 A 
ATOM    100  C   UNL A   1      47.367  34.705  30.781  1.00  0.00     0.198 A 
ATOM    101  F   UNL A   1      47.284  32.384  31.149  1.00  0.00    -0.203 F 
ATOM    102  F   UNL A   1      46.738  36.646  27.786  1.00  0.00    -0.200 F 
ATOM    103  C   UNL A   1      47.227  35.793  29.934  1.00  0.00     0.200 A 
ATOM    104  F   UNL A   1      47.712  34.893  32.063  1.00  0.00    -0.200 F 
ATOM    105  F   UNL A   1      47.455  37.033  30.390  1.00  0.00    -0.200 F 
ENDBRANCH  72  95
ENDBRANCH  46  47
ENDBRANCH  38  41
ENDBRANCH  36  37
ENDBRANCH  35  36
ENDBRANCH  34  35
ENDBRANCH   3  34
TORSDOF 15
ENDMDL
