MODEL 1
REMARK VINA RESULT:     -11.2      0.000      0.000
REMARK SMILES C[C@H](NC(N)=O)C(=O)N[C@@H](CO)C(=O)NCCCNC(=O)c1ccc(-c2c3nc(c(-c4c(F)c(F)c(F)c(F)c4F)c4ccc([nH]4)c(-c4c(F)c(F)c(F)c(F)c4F)c4nc(c(-c5c(F)c(F)c(F)c(F)c5F)c5ccc2[nH]5)C=C4)C=C3)cc1
REMARK SMILES IDX 16 1 15 2 13 3 14 4 10 6 9 7 7 8 8 9 2 11 1 12 3 13 4 14
REMARK SMILES IDX 5 16 6 17 11 20 12 21 17 23 18 24 19 25 20 26 21 28 22 29
REMARK SMILES IDX 23 30 84 31 24 32 83 33 25 34 26 35 27 36 77 37 28 38 82 39
REMARK SMILES IDX 76 40 78 41 29 42 81 43 75 44 74 45 30 47 62 48 42 49 61 50
REMARK SMILES IDX 43 51 46 52 60 53 79 54 44 55 45 56 59 58 80 59 47 60 31 61
REMARK SMILES IDX 32 62 40 63 33 64 34 65 38 66 41 67 35 68 36 69 39 70 37 71
REMARK SMILES IDX 63 72 64 73 72 74 65 75 66 76 70 77 73 78 67 79 68 80 71 81
REMARK SMILES IDX 69 82 48 83 49 84 57 85 50 86 51 87 55 88 58 89 52 90 53 91
REMARK SMILES IDX 56 92 54 93
REMARK H PARENT 15 5 9 10 3 15 5 18 5 19 12 22 19 27 78 46 46 57
REMARK Flexibility Score: inf
ROOT
ATOM      1  C   UNL A   1      31.610  30.770  26.067  1.00  0.00     0.117 C 
ENDROOT
BRANCH   1   2
ATOM      2  N   UNL A   1      31.597  29.785  27.133  1.00  0.00    -0.354 N 
ATOM      3  C   UNL A   1      31.567  28.426  27.107  1.00  0.00     0.244 C 
ATOM      4  O   UNL A   1      31.808  27.848  28.173  1.00  0.00    -0.273 OA
ATOM      5  H   UNL A   1      31.613  30.171  28.039  1.00  0.00     0.163 HD
BRANCH   3   6
ATOM      6  C   UNL A   1      31.350  27.601  25.821  1.00  0.00     0.197 C 
BRANCH   6   7
ATOM      7  N   UNL A   1      32.579  27.410  25.045  1.00  0.00    -0.340 N 
ATOM      8  C   UNL A   1      32.769  27.378  23.695  1.00  0.00     0.243 C 
ATOM      9  O   UNL A   1      33.921  27.577  23.299  1.00  0.00    -0.273 OA
ATOM     10  H   UNL A   1      33.394  27.285  25.583  1.00  0.00     0.164 HD
BRANCH   8  11
ATOM     11  C   UNL A   1      31.608  27.187  22.701  1.00  0.00     0.170 C 
ATOM     12  C   UNL A   1      31.840  25.968  21.812  1.00  0.00     0.041 C 
BRANCH  11  13
ATOM     13  N   UNL A   1      31.355  28.407  21.938  1.00  0.00    -0.327 N 
ATOM     14  C   UNL A   1      30.386  29.285  22.306  1.00  0.00     0.312 C 
ATOM     15  H   UNL A   1      31.899  28.598  21.140  1.00  0.00     0.166 HD
ATOM     16  N   UNL A   1      30.310  30.366  21.501  1.00  0.00    -0.352 N 
ATOM     17  O   UNL A   1      29.636  29.149  23.266  1.00  0.00    -0.249 OA
ATOM     18  H   UNL A   1      30.923  30.454  20.736  1.00  0.00     0.161 HD
ATOM     19  H   UNL A   1      29.641  31.066  21.678  1.00  0.00     0.161 HD
ENDBRANCH  11  13
ENDBRANCH   8  11
ENDBRANCH   6   7
BRANCH   6  20
ATOM     20  C   UNL A   1      30.604  26.289  26.104  1.00  0.00     0.191 C 
BRANCH  20  21
ATOM     21  O   UNL A   1      31.329  25.388  26.936  1.00  0.00    -0.394 OA
ATOM     22  H   UNL A   1      30.706  24.841  27.439  1.00  0.00     0.210 HD
ENDBRANCH  20  21
ENDBRANCH   6  20
ENDBRANCH   3   6
ENDBRANCH   1   2
BRANCH   1  23
ATOM     23  C   UNL A   1      31.408  32.190  26.576  1.00  0.00     0.042 C 
BRANCH  23  24
ATOM     24  C   UNL A   1      32.668  32.856  27.117  1.00  0.00     0.118 C 
BRANCH  24  25
ATOM     25  N   UNL A   1      32.434  34.209  27.604  1.00  0.00    -0.352 N 
ATOM     26  C   UNL A   1      33.007  34.909  28.637  1.00  0.00     0.251 C 
ATOM     27  H   UNL A   1      31.746  34.708  27.107  1.00  0.00     0.163 HD
ATOM     28  O   UNL A   1      32.524  35.988  28.970  1.00  0.00    -0.269 OA
BRANCH  26  29
ATOM     29  C   UNL A   1      34.178  34.378  29.372  1.00  0.00     0.039 A 
ATOM     30  C   UNL A   1      33.959  33.700  30.576  1.00  0.00     0.014 A 
ATOM     31  C   UNL A   1      35.483  34.569  28.915  1.00  0.00     0.014 A 
ATOM     32  C   UNL A   1      35.038  33.153  31.274  1.00  0.00     0.010 A 
ATOM     33  C   UNL A   1      36.549  33.945  29.562  1.00  0.00     0.010 A 
ATOM     34  C   UNL A   1      36.339  33.231  30.750  1.00  0.00    -0.014 A 
BRANCH  34  35
ATOM     35  C   UNL A   1      37.480  32.563  31.429  1.00  0.00     0.031 A 
ATOM     36  C   UNL A   1      38.192  31.411  30.775  1.00  0.00     0.074 A 
ATOM     37  C   UNL A   1      37.838  32.961  32.665  1.00  0.00     0.049 A 
ATOM     38  N   UNL A   1      39.185  30.686  31.228  1.00  0.00    -0.248 NA
ATOM     39  C   UNL A   1      37.709  30.998  29.448  1.00  0.00     0.031 C 
ATOM     40  C   UNL A   1      37.186  34.024  33.433  1.00  0.00     0.029 A 
ATOM     41  N   UNL A   1      38.836  32.517  33.497  1.00  0.00    -0.354 N 
ATOM     42  C   UNL A   1      39.431  29.728  30.253  1.00  0.00     0.074 A 
ATOM     43  C   UNL A   1      38.451  29.927  29.208  1.00  0.00     0.031 C 
ATOM     44  C   UNL A   1      37.822  34.173  34.606  1.00  0.00     0.029 A 
ATOM     45  C   UNL A   1      38.900  33.194  34.690  1.00  0.00     0.049 A 
ATOM     46  H   UNL A   1      39.447  31.783  33.260  1.00  0.00     0.167 HD
ATOM     47  C   UNL A   1      40.404  28.784  30.221  1.00  0.00     0.037 A 
ATOM     48  C   UNL A   1      39.735  33.043  35.735  1.00  0.00     0.037 A 
ATOM     49  C   UNL A   1      41.398  28.609  31.248  1.00  0.00     0.049 A 
ATOM     50  C   UNL A   1      40.812  31.996  35.667  1.00  0.00     0.074 A 
ATOM     51  C   UNL A   1      42.468  27.733  31.273  1.00  0.00     0.029 A 
ATOM     52  N   UNL A   1      41.439  29.324  32.436  1.00  0.00    -0.354 N 
ATOM     53  N   UNL A   1      41.087  31.151  34.703  1.00  0.00    -0.248 NA
ATOM     54  C   UNL A   1      41.700  31.886  36.833  1.00  0.00     0.031 C 
ATOM     55  C   UNL A   1      43.131  27.885  32.496  1.00  0.00     0.029 A 
ATOM     56  C   UNL A   1      42.503  28.891  33.212  1.00  0.00     0.049 A 
ATOM     57  H   UNL A   1      40.807  30.034  32.691  1.00  0.00     0.167 HD
ATOM     58  C   UNL A   1      42.190  30.427  35.134  1.00  0.00     0.074 A 
ATOM     59  C   UNL A   1      42.548  30.948  36.437  1.00  0.00     0.031 C 
ATOM     60  C   UNL A   1      42.845  29.418  34.508  1.00  0.00     0.037 A 
BRANCH  47  61
ATOM     61  C   UNL A   1      40.447  27.871  29.029  1.00  0.00     0.064 A 
ATOM     62  C   UNL A   1      41.241  28.159  27.909  1.00  0.00     0.173 A 
ATOM     63  C   UNL A   1      39.716  26.673  29.023  1.00  0.00     0.173 A 
ATOM     64  F   UNL A   1      41.951  29.296  27.858  1.00  0.00    -0.203 F 
ATOM     65  C   UNL A   1      41.279  27.298  26.815  1.00  0.00     0.198 A 
ATOM     66  C   UNL A   1      39.781  25.799  27.941  1.00  0.00     0.198 A 
ATOM     67  F   UNL A   1      38.945  26.345  30.071  1.00  0.00    -0.203 F 
ATOM     68  F   UNL A   1      42.007  27.619  25.737  1.00  0.00    -0.200 F 
ATOM     69  C   UNL A   1      40.556  26.114  26.836  1.00  0.00     0.200 A 
ATOM     70  F   UNL A   1      39.091  24.650  27.967  1.00  0.00    -0.200 F 
ATOM     71  F   UNL A   1      40.600  25.282  25.786  1.00  0.00    -0.200 F 
ENDBRANCH  47  61
BRANCH  48  72
ATOM     72  C   UNL A   1      39.610  33.929  36.922  1.00  0.00     0.064 A 
ATOM     73  C   UNL A   1      38.838  33.543  38.027  1.00  0.00     0.173 A 
ATOM     74  C   UNL A   1      40.250  35.175  36.977  1.00  0.00     0.173 A 
ATOM     75  F   UNL A   1      38.189  32.369  38.013  1.00  0.00    -0.203 F 
ATOM     76  C   UNL A   1      38.693  34.379  39.132  1.00  0.00     0.198 A 
ATOM     77  C   UNL A   1      40.128  35.998  38.095  1.00  0.00     0.198 A 
ATOM     78  F   UNL A   1      41.004  35.589  35.948  1.00  0.00    -0.203 F 
ATOM     79  F   UNL A   1      37.911  34.005  40.154  1.00  0.00    -0.200 F 
ATOM     80  C   UNL A   1      39.343  35.604  39.167  1.00  0.00     0.200 A 
ATOM     81  F   UNL A   1      40.769  37.174  38.131  1.00  0.00    -0.200 F 
ATOM     82  F   UNL A   1      39.207  36.406  40.231  1.00  0.00    -0.200 F 
ENDBRANCH  48  72
BRANCH  60  83
ATOM     83  C   UNL A   1      44.030  28.830  35.218  1.00  0.00     0.064 A 
ATOM     84  C   UNL A   1      43.898  27.736  36.087  1.00  0.00     0.173 A 
ATOM     85  C   UNL A   1      45.315  29.356  35.013  1.00  0.00     0.173 A 
ATOM     86  F   UNL A   1      42.689  27.208  36.328  1.00  0.00    -0.203 F 
ATOM     87  C   UNL A   1      45.004  27.211  36.749  1.00  0.00     0.198 A 
ATOM     88  C   UNL A   1      46.424  28.807  35.652  1.00  0.00     0.198 A 
ATOM     89  F   UNL A   1      45.497  30.397  34.188  1.00  0.00    -0.203 F 
ATOM     90  F   UNL A   1      44.846  26.202  37.617  1.00  0.00    -0.200 F 
ATOM     91  C   UNL A   1      46.266  27.741  36.526  1.00  0.00     0.200 A 
ATOM     92  F   UNL A   1      47.643  29.313  35.427  1.00  0.00    -0.200 F 
ATOM     93  F   UNL A   1      47.330  27.234  37.164  1.00  0.00    -0.200 F 
ENDBRANCH  60  83
ENDBRANCH  34  35
ENDBRANCH  26  29
ENDBRANCH  24  25
ENDBRANCH  23  24
ENDBRANCH   1  23
TORSDOF 15
ENDMDL
MODEL 2
REMARK VINA RESULT:     -11.1      6.533     11.660
REMARK SMILES C[C@H](NC(N)=O)C(=O)N[C@@H](CO)C(=O)NCCCNC(=O)c1ccc(-c2c3nc(c(-c4c(F)c(F)c(F)c(F)c4F)c4ccc([nH]4)c(-c4c(F)c(F)c(F)c(F)c4F)c4nc(c(-c5c(F)c(F)c(F)c(F)c5F)c5ccc2[nH]5)C=C4)C=C3)cc1
REMARK SMILES IDX 16 1 15 2 13 3 14 4 10 6 9 7 7 8 8 9 2 11 1 12 3 13 4 14
REMARK SMILES IDX 5 16 6 17 11 20 12 21 17 23 18 24 19 25 20 26 21 28 22 29
REMARK SMILES IDX 23 30 84 31 24 32 83 33 25 34 26 35 27 36 77 37 28 38 82 39
REMARK SMILES IDX 76 40 78 41 29 42 81 43 75 44 74 45 30 47 62 48 42 49 61 50
REMARK SMILES IDX 43 51 46 52 60 53 79 54 44 55 45 56 59 58 80 59 47 60 31 61
REMARK SMILES IDX 32 62 40 63 33 64 34 65 38 66 41 67 35 68 36 69 39 70 37 71
REMARK SMILES IDX 63 72 64 73 72 74 65 75 66 76 70 77 73 78 67 79 68 80 71 81
REMARK SMILES IDX 69 82 48 83 49 84 57 85 50 86 51 87 55 88 58 89 52 90 53 91
REMARK SMILES IDX 56 92 54 93
REMARK H PARENT 15 5 9 10 3 15 5 18 5 19 12 22 19 27 78 46 46 57
REMARK Flexibility Score: inf
ROOT
ATOM      1  C   UNL A   1      36.682  20.838  24.805  1.00  0.00     0.117 C 
ENDROOT
BRANCH   1   2
ATOM      2  N   UNL A   1      36.004  21.211  26.033  1.00  0.00    -0.354 N 
ATOM      3  C   UNL A   1      34.684  21.313  26.340  1.00  0.00     0.244 C 
ATOM      4  O   UNL A   1      34.402  21.418  27.539  1.00  0.00    -0.273 OA
ATOM      5  H   UNL A   1      36.610  21.428  26.778  1.00  0.00     0.163 HD
BRANCH   3   6
ATOM      6  C   UNL A   1      33.553  21.208  25.295  1.00  0.00     0.197 C 
BRANCH   6   7
ATOM      7  N   UNL A   1      32.671  20.058  25.517  1.00  0.00    -0.340 N 
ATOM      8  C   UNL A   1      32.846  18.742  25.203  1.00  0.00     0.243 C 
ATOM      9  O   UNL A   1      32.144  17.934  25.817  1.00  0.00    -0.273 OA
ATOM     10  H   UNL A   1      31.818  20.269  25.962  1.00  0.00     0.164 HD
BRANCH   8  11
ATOM     11  C   UNL A   1      33.916  18.267  24.201  1.00  0.00     0.170 C 
ATOM     12  C   UNL A   1      33.304  17.364  23.132  1.00  0.00     0.041 C 
BRANCH  11  13
ATOM     13  N   UNL A   1      35.050  17.650  24.885  1.00  0.00    -0.327 N 
ATOM     14  C   UNL A   1      35.060  16.324  25.184  1.00  0.00     0.312 C 
ATOM     15  H   UNL A   1      35.823  18.206  25.133  1.00  0.00     0.166 HD
ATOM     16  N   UNL A   1      36.196  15.923  25.794  1.00  0.00    -0.352 N 
ATOM     17  O   UNL A   1      34.153  15.537  24.942  1.00  0.00    -0.249 OA
ATOM     18  H   UNL A   1      36.912  16.574  25.978  1.00  0.00     0.161 HD
ATOM     19  H   UNL A   1      36.309  14.982  26.054  1.00  0.00     0.161 HD
ENDBRANCH  11  13
ENDBRANCH   8  11
ENDBRANCH   6   7
BRANCH   6  20
ATOM     20  C   UNL A   1      32.792  22.532  25.141  1.00  0.00     0.191 C 
BRANCH  20  21
ATOM     21  O   UNL A   1      32.061  22.908  26.305  1.00  0.00    -0.394 OA
ATOM     22  H   UNL A   1      32.214  23.847  26.493  1.00  0.00     0.210 HD
ENDBRANCH  20  21
ENDBRANCH   6  20
ENDBRANCH   3   6
ENDBRANCH   1   2
BRANCH   1  23
ATOM     23  C   UNL A   1      37.763  19.788  25.025  1.00  0.00     0.042 C 
BRANCH  23  24
ATOM     24  C   UNL A   1      38.967  20.275  25.824  1.00  0.00     0.118 C 
BRANCH  24  25
ATOM     25  N   UNL A   1      40.038  19.290  25.899  1.00  0.00    -0.352 N 
ATOM     26  C   UNL A   1      41.389  19.437  26.089  1.00  0.00     0.251 C 
ATOM     27  H   UNL A   1      39.741  18.357  25.795  1.00  0.00     0.163 HD
ATOM     28  O   UNL A   1      42.124  18.464  25.945  1.00  0.00    -0.269 OA
BRANCH  26  29
ATOM     29  C   UNL A   1      41.980  20.750  26.438  1.00  0.00     0.039 A 
ATOM     30  C   UNL A   1      42.394  21.593  25.401  1.00  0.00     0.014 A 
ATOM     31  C   UNL A   1      42.166  21.144  27.764  1.00  0.00     0.014 A 
ATOM     32  C   UNL A   1      42.919  22.854  25.696  1.00  0.00     0.010 A 
ATOM     33  C   UNL A   1      42.603  22.435  28.055  1.00  0.00     0.010 A 
ATOM     34  C   UNL A   1      42.987  23.305  27.024  1.00  0.00    -0.014 A 
BRANCH  34  35
ATOM     35  C   UNL A   1      43.444  24.683  27.343  1.00  0.00     0.031 A 
ATOM     36  C   UNL A   1      42.491  25.692  27.922  1.00  0.00     0.074 A 
ATOM     37  C   UNL A   1      44.712  25.040  27.056  1.00  0.00     0.049 A 
ATOM     38  N   UNL A   1      42.702  26.947  28.233  1.00  0.00    -0.248 NA
ATOM     39  C   UNL A   1      41.110  25.243  28.157  1.00  0.00     0.031 C 
ATOM     40  C   UNL A   1      45.715  24.173  26.435  1.00  0.00     0.029 A 
ATOM     41  N   UNL A   1      45.372  26.229  27.244  1.00  0.00    -0.354 N 
ATOM     42  C   UNL A   1      41.483  27.436  28.683  1.00  0.00     0.074 A 
ATOM     43  C   UNL A   1      40.523  26.362  28.554  1.00  0.00     0.031 C 
ATOM     44  C   UNL A   1      46.871  24.846  26.326  1.00  0.00     0.029 A 
ATOM     45  C   UNL A   1      46.683  26.201  26.833  1.00  0.00     0.049 A 
ATOM     46  H   UNL A   1      44.947  27.025  27.636  1.00  0.00     0.167 HD
ATOM     47  C   UNL A   1      41.196  28.663  29.182  1.00  0.00     0.037 A 
ATOM     48  C   UNL A   1      47.627  27.160  26.863  1.00  0.00     0.037 A 
ATOM     49  C   UNL A   1      42.161  29.721  29.338  1.00  0.00     0.049 A 
ATOM     50  C   UNL A   1      47.284  28.509  27.433  1.00  0.00     0.074 A 
ATOM     51  C   UNL A   1      41.986  30.972  29.903  1.00  0.00     0.029 A 
ATOM     52  N   UNL A   1      43.483  29.650  28.924  1.00  0.00    -0.354 N 
ATOM     53  N   UNL A   1      46.148  28.933  27.933  1.00  0.00    -0.248 NA
ATOM     54  C   UNL A   1      48.359  29.511  27.450  1.00  0.00     0.031 C 
ATOM     55  C   UNL A   1      43.190  31.676  29.788  1.00  0.00     0.029 A 
ATOM     56  C   UNL A   1      44.129  30.846  29.198  1.00  0.00     0.049 A 
ATOM     57  H   UNL A   1      43.901  28.867  28.499  1.00  0.00     0.167 HD
ATOM     58  C   UNL A   1      46.376  30.239  28.343  1.00  0.00     0.074 A 
ATOM     59  C   UNL A   1      47.766  30.530  28.055  1.00  0.00     0.031 C 
ATOM     60  C   UNL A   1      45.512  31.120  28.904  1.00  0.00     0.037 A 
BRANCH  47  61
ATOM     61  C   UNL A   1      39.779  28.927  29.606  1.00  0.00     0.064 A 
ATOM     62  C   UNL A   1      39.344  28.677  30.916  1.00  0.00     0.173 A 
ATOM     63  C   UNL A   1      38.856  29.475  28.703  1.00  0.00     0.173 A 
ATOM     64  F   UNL A   1      40.183  28.143  31.817  1.00  0.00    -0.203 F 
ATOM     65  C   UNL A   1      38.030  28.936  31.298  1.00  0.00     0.198 A 
ATOM     66  C   UNL A   1      37.551  29.763  29.097  1.00  0.00     0.198 A 
ATOM     67  F   UNL A   1      39.221  29.740  27.439  1.00  0.00    -0.203 F 
ATOM     68  F   UNL A   1      37.625  28.642  32.541  1.00  0.00    -0.200 F 
ATOM     69  C   UNL A   1      37.137  29.487  30.391  1.00  0.00     0.200 A 
ATOM     70  F   UNL A   1      36.693  30.306  28.222  1.00  0.00    -0.200 F 
ATOM     71  F   UNL A   1      35.876  29.744  30.762  1.00  0.00    -0.200 F 
ENDBRANCH  47  61
BRANCH  48  72
ATOM     72  C   UNL A   1      48.998  26.870  26.370  1.00  0.00     0.064 A 
ATOM     73  C   UNL A   1      49.974  26.345  27.229  1.00  0.00     0.173 A 
ATOM     74  C   UNL A   1      49.364  27.113  25.038  1.00  0.00     0.173 A 
ATOM     75  F   UNL A   1      49.678  26.116  28.516  1.00  0.00    -0.203 F 
ATOM     76  C   UNL A   1      51.269  26.097  26.781  1.00  0.00     0.198 A 
ATOM     77  C   UNL A   1      50.652  26.836  24.584  1.00  0.00     0.198 A 
ATOM     78  F   UNL A   1      48.466  27.609  24.174  1.00  0.00    -0.203 F 
ATOM     79  F   UNL A   1      52.195  25.640  27.636  1.00  0.00    -0.200 F 
ATOM     80  C   UNL A   1      51.606  26.337  25.457  1.00  0.00     0.200 A 
ATOM     81  F   UNL A   1      50.969  27.056  23.301  1.00  0.00    -0.200 F 
ATOM     82  F   UNL A   1      52.850  26.094  25.026  1.00  0.00    -0.200 F 
ENDBRANCH  48  72
BRANCH  60  83
ATOM     83  C   UNL A   1      46.054  32.473  29.263  1.00  0.00     0.064 A 
ATOM     84  C   UNL A   1      45.963  33.560  28.380  1.00  0.00     0.173 A 
ATOM     85  C   UNL A   1      46.654  32.690  30.513  1.00  0.00     0.173 A 
ATOM     86  F   UNL A   1      45.413  33.400  27.167  1.00  0.00    -0.203 F 
ATOM     87  C   UNL A   1      46.483  34.805  28.722  1.00  0.00     0.198 A 
ATOM     88  C   UNL A   1      47.145  33.945  30.864  1.00  0.00     0.198 A 
ATOM     89  F   UNL A   1      46.761  31.687  31.396  1.00  0.00    -0.203 F 
ATOM     90  F   UNL A   1      46.436  35.813  27.840  1.00  0.00    -0.200 F 
ATOM     91  C   UNL A   1      47.067  34.999  29.965  1.00  0.00     0.200 A 
ATOM     92  F   UNL A   1      47.697  34.134  32.069  1.00  0.00    -0.200 F 
ATOM     93  F   UNL A   1      47.566  36.198  30.293  1.00  0.00    -0.200 F 
ENDBRANCH  60  83
ENDBRANCH  34  35
ENDBRANCH  26  29
ENDBRANCH  24  25
ENDBRANCH  23  24
ENDBRANCH   1  23
TORSDOF 15
ENDMDL
MODEL 3
REMARK VINA RESULT:     -11.1      6.485     10.439
REMARK SMILES C[C@H](NC(N)=O)C(=O)N[C@@H](CO)C(=O)NCCCNC(=O)c1ccc(-c2c3nc(c(-c4c(F)c(F)c(F)c(F)c4F)c4ccc([nH]4)c(-c4c(F)c(F)c(F)c(F)c4F)c4nc(c(-c5c(F)c(F)c(F)c(F)c5F)c5ccc2[nH]5)C=C4)C=C3)cc1
REMARK SMILES IDX 16 1 15 2 13 3 14 4 10 6 9 7 7 8 8 9 2 11 1 12 3 13 4 14
REMARK SMILES IDX 5 16 6 17 11 20 12 21 17 23 18 24 19 25 20 26 21 28 22 29
REMARK SMILES IDX 23 30 84 31 24 32 83 33 25 34 26 35 27 36 77 37 28 38 82 39
REMARK SMILES IDX 76 40 78 41 29 42 81 43 75 44 74 45 30 47 62 48 42 49 61 50
REMARK SMILES IDX 43 51 46 52 60 53 79 54 44 55 45 56 59 58 80 59 47 60 31 61
REMARK SMILES IDX 32 62 40 63 33 64 34 65 38 66 41 67 35 68 36 69 39 70 37 71
REMARK SMILES IDX 63 72 64 73 72 74 65 75 66 76 70 77 73 78 67 79 68 80 71 81
REMARK SMILES IDX 69 82 48 83 49 84 57 85 50 86 51 87 55 88 58 89 52 90 53 91
REMARK SMILES IDX 56 92 54 93
REMARK H PARENT 15 5 9 10 3 15 5 18 5 19 12 22 19 27 78 46 46 57
REMARK Flexibility Score: inf
ROOT
ATOM      1  C   UNL A   1      36.677  20.740  24.671  1.00  0.00     0.117 C 
ENDROOT
BRANCH   1   2
ATOM      2  N   UNL A   1      35.946  21.141  25.859  1.00  0.00    -0.354 N 
ATOM      3  C   UNL A   1      34.613  21.255  26.103  1.00  0.00     0.244 C 
ATOM      4  O   UNL A   1      34.277  21.387  27.286  1.00  0.00    -0.273 OA
ATOM      5  H   UNL A   1      36.518  21.371  26.627  1.00  0.00     0.163 HD
BRANCH   3   6
ATOM      6  C   UNL A   1      33.531  21.133  25.010  1.00  0.00     0.197 C 
BRANCH   6   7
ATOM      7  N   UNL A   1      32.627  19.998  25.220  1.00  0.00    -0.340 N 
ATOM      8  C   UNL A   1      32.808  18.671  24.963  1.00  0.00     0.243 C 
ATOM      9  O   UNL A   1      32.064  17.890  25.563  1.00  0.00    -0.273 OA
ATOM     10  H   UNL A   1      31.752  20.230  25.608  1.00  0.00     0.164 HD
BRANCH   8  11
ATOM     11  C   UNL A   1      33.928  18.153  24.040  1.00  0.00     0.170 C 
ATOM     12  C   UNL A   1      33.378  17.176  23.004  1.00  0.00     0.041 C 
BRANCH  11  13
ATOM     13  N   UNL A   1      35.038  17.599  24.811  1.00  0.00    -0.327 N 
ATOM     14  C   UNL A   1      35.065  16.289  25.174  1.00  0.00     0.312 C 
ATOM     15  H   UNL A   1      35.784  18.186  25.072  1.00  0.00     0.166 HD
ATOM     16  N   UNL A   1      36.176  15.947  25.860  1.00  0.00    -0.352 N 
ATOM     17  O   UNL A   1      34.190  15.468  24.924  1.00  0.00    -0.249 OA
ATOM     18  H   UNL A   1      36.866  16.624  26.050  1.00  0.00     0.161 HD
ATOM     19  H   UNL A   1      36.297  15.022  26.172  1.00  0.00     0.161 HD
ENDBRANCH  11  13
ENDBRANCH   8  11
ENDBRANCH   6   7
BRANCH   6  20
ATOM     20  C   UNL A   1      32.792  22.460  24.786  1.00  0.00     0.191 C 
BRANCH  20  21
ATOM     21  O   UNL A   1      32.042  22.893  25.917  1.00  0.00    -0.394 OA
ATOM     22  H   UNL A   1      32.317  22.390  26.699  1.00  0.00     0.210 HD
ENDBRANCH  20  21
ENDBRANCH   6  20
ENDBRANCH   3   6
ENDBRANCH   1   2
BRANCH   1  23
ATOM     23  C   UNL A   1      37.760  19.711  24.967  1.00  0.00     0.042 C 
BRANCH  23  24
ATOM     24  C   UNL A   1      38.933  20.241  25.785  1.00  0.00     0.118 C 
BRANCH  24  25
ATOM     25  N   UNL A   1      40.042  19.300  25.868  1.00  0.00    -0.352 N 
ATOM     26  C   UNL A   1      41.385  19.503  26.065  1.00  0.00     0.251 C 
ATOM     27  H   UNL A   1      39.783  18.356  25.765  1.00  0.00     0.163 HD
ATOM     28  O   UNL A   1      42.160  18.560  25.927  1.00  0.00    -0.269 OA
BRANCH  26  29
ATOM     29  C   UNL A   1      41.921  20.838  26.415  1.00  0.00     0.039 A 
ATOM     30  C   UNL A   1      42.202  21.737  25.380  1.00  0.00     0.014 A 
ATOM     31  C   UNL A   1      42.183  21.204  27.736  1.00  0.00     0.014 A 
ATOM     32  C   UNL A   1      42.671  23.019  25.678  1.00  0.00     0.010 A 
ATOM     33  C   UNL A   1      42.562  22.511  28.038  1.00  0.00     0.010 A 
ATOM     34  C   UNL A   1      42.813  23.433  27.012  1.00  0.00    -0.014 A 
BRANCH  34  35
ATOM     35  C   UNL A   1      43.209  24.827  27.344  1.00  0.00     0.031 A 
ATOM     36  C   UNL A   1      44.616  25.301  27.108  1.00  0.00     0.074 A 
ATOM     37  C   UNL A   1      42.307  25.651  27.914  1.00  0.00     0.049 A 
ATOM     38  N   UNL A   1      45.151  26.469  27.364  1.00  0.00    -0.248 NA
ATOM     39  C   UNL A   1      45.557  24.327  26.533  1.00  0.00     0.031 C 
ATOM     40  C   UNL A   1      40.929  25.292  28.253  1.00  0.00     0.029 A 
ATOM     41  N   UNL A   1      42.416  26.959  28.314  1.00  0.00    -0.354 N 
ATOM     42  C   UNL A   1      46.487  26.363  26.999  1.00  0.00     0.074 A 
ATOM     43  C   UNL A   1      46.696  25.003  26.553  1.00  0.00     0.031 C 
ATOM     44  C   UNL A   1      40.311  26.362  28.776  1.00  0.00     0.029 A 
ATOM     45  C   UNL A   1      41.257  27.471  28.845  1.00  0.00     0.049 A 
ATOM     46  H   UNL A   1      43.246  27.482  28.228  1.00  0.00     0.167 HD
ATOM     47  C   UNL A   1      47.445  27.321  27.010  1.00  0.00     0.037 A 
ATOM     48  C   UNL A   1      40.987  28.696  29.331  1.00  0.00     0.037 A 
ATOM     49  C   UNL A   1      47.225  28.683  27.425  1.00  0.00     0.049 A 
ATOM     50  C   UNL A   1      42.066  29.744  29.320  1.00  0.00     0.074 A 
ATOM     51  C   UNL A   1      48.111  29.746  27.401  1.00  0.00     0.029 A 
ATOM     52  N   UNL A   1      46.033  29.168  27.943  1.00  0.00    -0.354 N 
ATOM     53  N   UNL A   1      43.303  29.656  28.894  1.00  0.00    -0.248 NA
ATOM     54  C   UNL A   1      41.708  31.066  29.854  1.00  0.00     0.031 C 
ATOM     55  C   UNL A   1      47.470  30.863  27.948  1.00  0.00     0.029 A 
ATOM     56  C   UNL A   1      46.168  30.509  28.266  1.00  0.00     0.049 A 
ATOM     57  H   UNL A   1      45.212  28.638  28.063  1.00  0.00     0.167 HD
ATOM     58  C   UNL A   1      43.862  30.911  29.084  1.00  0.00     0.074 A 
ATOM     59  C   UNL A   1      42.823  31.751  29.644  1.00  0.00     0.031 C 
ATOM     60  C   UNL A   1      45.125  31.330  28.824  1.00  0.00     0.037 A 
BRANCH  47  61
ATOM     61  C   UNL A   1      48.821  26.933  26.549  1.00  0.00     0.064 A 
ATOM     62  C   UNL A   1      49.217  27.072  25.210  1.00  0.00     0.173 A 
ATOM     63  C   UNL A   1      49.770  26.455  27.465  1.00  0.00     0.173 A 
ATOM     64  F   UNL A   1      48.345  27.516  24.291  1.00  0.00    -0.203 F 
ATOM     65  C   UNL A   1      50.499  26.718  24.800  1.00  0.00     0.198 A 
ATOM     66  C   UNL A   1      51.062  26.131  27.057  1.00  0.00     0.198 A 
ATOM     67  F   UNL A   1      49.447  26.308  28.760  1.00  0.00    -0.203 F 
ATOM     68  F   UNL A   1      50.837  26.814  23.506  1.00  0.00    -0.200 F 
ATOM     69  C   UNL A   1      51.423  26.256  25.725  1.00  0.00     0.200 A 
ATOM     70  F   UNL A   1      51.957  25.695  27.955  1.00  0.00    -0.200 F 
ATOM     71  F   UNL A   1      52.660  25.923  25.330  1.00  0.00    -0.200 F 
ENDBRANCH  47  61
BRANCH  48  72
ATOM     72  C   UNL A   1      39.626  29.013  29.838  1.00  0.00     0.064 A 
ATOM     73  C   UNL A   1      38.659  29.578  28.994  1.00  0.00     0.173 A 
ATOM     74  C   UNL A   1      39.263  28.763  31.169  1.00  0.00     0.173 A 
ATOM     75  F   UNL A   1      38.965  29.855  27.718  1.00  0.00    -0.203 F 
ATOM     76  C   UNL A   1      37.390  29.903  29.468  1.00  0.00     0.198 A 
ATOM     77  C   UNL A   1      37.984  29.061  31.634  1.00  0.00     0.198 A 
ATOM     78  F   UNL A   1      40.149  28.218  32.016  1.00  0.00    -0.203 F 
ATOM     79  F   UNL A   1      36.502  30.487  28.652  1.00  0.00    -0.200 F 
ATOM     80  C   UNL A   1      37.052  29.639  30.787  1.00  0.00     0.200 A 
ATOM     81  F   UNL A   1      37.657  28.791  32.905  1.00  0.00    -0.200 F 
ATOM     82  F   UNL A   1      35.831  29.947  31.241  1.00  0.00    -0.200 F 
ENDBRANCH  48  72
BRANCH  60  83
ATOM     83  C   UNL A   1      45.442  32.767  29.121  1.00  0.00     0.064 A 
ATOM     84  C   UNL A   1      45.980  33.162  30.355  1.00  0.00     0.173 A 
ATOM     85  C   UNL A   1      45.222  33.759  28.151  1.00  0.00     0.173 A 
ATOM     86  F   UNL A   1      46.193  32.254  31.319  1.00  0.00    -0.203 F 
ATOM     87  C   UNL A   1      46.255  34.500  30.620  1.00  0.00     0.198 A 
ATOM     88  C   UNL A   1      45.529  35.092  28.409  1.00  0.00     0.198 A 
ATOM     89  F   UNL A   1      44.716  33.434  26.953  1.00  0.00    -0.203 F 
ATOM     90  F   UNL A   1      46.715  34.861  31.826  1.00  0.00    -0.200 F 
ATOM     91  C   UNL A   1      46.036  35.463  29.646  1.00  0.00     0.200 A 
ATOM     92  F   UNL A   1      45.329  36.019  27.463  1.00  0.00    -0.200 F 
ATOM     93  F   UNL A   1      46.303  36.751  29.903  1.00  0.00    -0.200 F 
ENDBRANCH  60  83
ENDBRANCH  34  35
ENDBRANCH  26  29
ENDBRANCH  24  25
ENDBRANCH  23  24
ENDBRANCH   1  23
TORSDOF 15
ENDMDL
