MODEL 1
REMARK VINA RESULT:     -11.7      0.000      0.000
REMARK SMILES C[C@@H](NC(=O)[C@@H]1CC[C@@H]2CCCC[C@@H]2[NH2+]1)C(=O)NCCCNC(=O)c1ccc(-c2c3nc(c(-c4c(F)c(F)c(F)c(F)c4F)c4ccc([nH]4)c(-c4c(F)c(F)c(F)c(F)c4F)c4nc(c(-c5c(F)c(F)c(F)c(F)c5F)c5ccc2[nH]5)C=C4)C=C3)cc1
REMARK SMILES IDX 20 1 19 2 18 3 16 4 17 5 2 7 1 8 3 9 4 10 5 12 6 13 7 14
REMARK SMILES IDX 15 15 8 16 14 17 9 20 13 21 10 22 12 23 11 24 21 25 22 26
REMARK SMILES IDX 23 27 24 29 25 30 26 31 87 32 27 33 86 34 28 35 29 36 30 37
REMARK SMILES IDX 80 38 31 39 85 40 79 41 81 42 32 43 84 44 78 45 77 46 33 48
REMARK SMILES IDX 65 49 45 50 64 51 46 52 49 53 63 54 82 55 47 56 48 57 62 59
REMARK SMILES IDX 83 60 50 61 34 62 35 63 43 64 36 65 37 66 41 67 44 68 38 69
REMARK SMILES IDX 39 70 42 71 40 72 66 73 67 74 75 75 68 76 69 77 73 78 76 79
REMARK SMILES IDX 70 80 71 81 74 82 72 83 51 84 52 85 60 86 53 87 54 88 58 89
REMARK SMILES IDX 61 90 55 91 56 92 59 93 57 94
REMARK H PARENT 18 6 3 11 15 18 15 19 22 28 81 47 49 58
REMARK Flexibility Score: inf
ROOT
ATOM      1  C   UNL A   1      40.653  20.413  26.763  1.00  0.00     0.042 C 
ENDROOT
BRANCH   1   2
ATOM      2  C   UNL A   1      42.037  19.819  27.098  1.00  0.00     0.117 C 
BRANCH   2   3
ATOM      3  N   UNL A   1      42.650  19.072  26.017  1.00  0.00    -0.354 N 
ATOM      4  C   UNL A   1      43.796  19.337  25.318  1.00  0.00     0.242 C 
ATOM      5  O   UNL A   1      44.235  18.439  24.594  1.00  0.00    -0.273 OA
ATOM      6  H   UNL A   1      42.173  18.255  25.746  1.00  0.00     0.163 HD
BRANCH   4   7
ATOM      7  C   UNL A   1      44.478  20.724  25.348  1.00  0.00     0.168 C 
ATOM      8  C   UNL A   1      45.997  20.498  25.356  1.00  0.00     0.041 C 
BRANCH   7   9
ATOM      9  N   UNL A   1      44.138  21.753  24.350  1.00  0.00    -0.339 N 
ATOM     10  C   UNL A   1      44.377  23.096  24.512  1.00  0.00     0.278 C 
ATOM     11  H   UNL A   1      43.711  21.460  23.513  1.00  0.00     0.164 HD
ATOM     12  O   UNL A   1      45.321  23.580  23.876  1.00  0.00    -0.268 OA
BRANCH  10  13
ATOM     13  C   UNL A   1      43.435  23.996  25.361  1.00  0.00     0.272 C 
ATOM     14  C   UNL A   1      43.437  25.471  25.001  1.00  0.00     0.076 C 
ATOM     15  N   UNL A   1      43.738  23.844  26.820  1.00  0.00    -0.333 N 
ATOM     16  C   UNL A   1      44.773  26.092  25.374  1.00  0.00     0.016 C 
ATOM     17  C   UNL A   1      44.860  24.646  27.375  1.00  0.00     0.186 C 
ATOM     18  H   UNL A   1      43.953  22.861  26.987  1.00  0.00     0.347 HD
ATOM     19  H   UNL A   1      42.907  24.195  27.296  1.00  0.00     0.347 HD
ATOM     20  C   UNL A   1      44.851  26.102  26.890  1.00  0.00     0.048 C 
ATOM     21  C   UNL A   1      46.224  23.952  27.179  1.00  0.00     0.065 C 
ATOM     22  C   UNL A   1      46.060  26.894  27.383  1.00  0.00     0.010 C 
ATOM     23  C   UNL A   1      47.479  24.817  27.353  1.00  0.00     0.006 C 
ATOM     24  C   UNL A   1      47.364  26.273  26.921  1.00  0.00     0.001 C 
ENDBRANCH  10  13
ENDBRANCH   7   9
ENDBRANCH   4   7
ENDBRANCH   2   3
ENDBRANCH   1   2
BRANCH   1  25
ATOM     25  C   UNL A   1      40.564  21.930  26.513  1.00  0.00     0.118 C 
BRANCH  25  26
ATOM     26  N   UNL A   1      39.297  22.428  25.981  1.00  0.00    -0.352 N 
ATOM     27  C   UNL A   1      38.569  23.569  26.210  1.00  0.00     0.251 C 
ATOM     28  H   UNL A   1      38.882  21.821  25.326  1.00  0.00     0.163 HD
ATOM     29  O   UNL A   1      37.420  23.666  25.798  1.00  0.00    -0.269 OA
BRANCH  27  30
ATOM     30  C   UNL A   1      39.171  24.688  26.947  1.00  0.00     0.039 A 
ATOM     31  C   UNL A   1      40.026  25.581  26.294  1.00  0.00     0.014 A 
ATOM     32  C   UNL A   1      38.917  24.823  28.309  1.00  0.00     0.014 A 
ATOM     33  C   UNL A   1      40.539  26.674  26.994  1.00  0.00     0.010 A 
ATOM     34  C   UNL A   1      39.329  25.964  28.971  1.00  0.00     0.010 A 
ATOM     35  C   UNL A   1      40.144  26.902  28.321  1.00  0.00    -0.014 A 
BRANCH  35  36
ATOM     36  C   UNL A   1      40.542  28.111  29.078  1.00  0.00     0.031 A 
ATOM     37  C   UNL A   1      41.872  28.143  29.776  1.00  0.00     0.074 A 
ATOM     38  C   UNL A   1      39.646  29.099  29.255  1.00  0.00     0.049 A 
ATOM     39  N   UNL A   1      42.327  29.000  30.654  1.00  0.00    -0.248 NA
ATOM     40  C   UNL A   1      42.796  27.033  29.485  1.00  0.00     0.031 C 
ATOM     41  C   UNL A   1      38.303  29.141  28.669  1.00  0.00     0.029 A 
ATOM     42  N   UNL A   1      39.715  30.244  30.005  1.00  0.00    -0.354 N 
ATOM     43  C   UNL A   1      43.571  28.517  31.038  1.00  0.00     0.074 A 
ATOM     44  C   UNL A   1      43.775  27.263  30.347  1.00  0.00     0.031 C 
ATOM     45  C   UNL A   1      37.683  30.261  29.069  1.00  0.00     0.029 A 
ATOM     46  C   UNL A   1      38.560  30.987  29.980  1.00  0.00     0.049 A 
ATOM     47  H   UNL A   1      40.516  30.509  30.512  1.00  0.00     0.167 HD
ATOM     48  C   UNL A   1      44.470  29.085  31.875  1.00  0.00     0.037 A 
ATOM     49  C   UNL A   1      38.239  32.115  30.640  1.00  0.00     0.037 A 
ATOM     50  C   UNL A   1      44.262  30.348  32.532  1.00  0.00     0.049 A 
ATOM     51  C   UNL A   1      39.255  32.723  31.568  1.00  0.00     0.074 A 
ATOM     52  C   UNL A   1      45.133  31.054  33.342  1.00  0.00     0.029 A 
ATOM     53  N   UNL A   1      43.094  31.094  32.453  1.00  0.00    -0.354 N 
ATOM     54  N   UNL A   1      40.458  32.300  31.870  1.00  0.00    -0.248 NA
ATOM     55  C   UNL A   1      38.870  33.968  32.243  1.00  0.00     0.031 C 
ATOM     56  C   UNL A   1      44.472  32.199  33.797  1.00  0.00     0.029 A 
ATOM     57  C   UNL A   1      43.210  32.238  33.223  1.00  0.00     0.049 A 
ATOM     58  H   UNL A   1      42.300  30.845  31.927  1.00  0.00     0.167 HD
ATOM     59  C   UNL A   1      40.983  33.235  32.750  1.00  0.00     0.074 A 
ATOM     60  C   UNL A   1      39.974  34.261  32.915  1.00  0.00     0.031 C 
ATOM     61  C   UNL A   1      42.189  33.246  33.370  1.00  0.00     0.037 A 
BRANCH  48  62
ATOM     62  C   UNL A   1      45.756  28.348  32.122  1.00  0.00     0.064 A 
ATOM     63  C   UNL A   1      46.869  28.498  31.278  1.00  0.00     0.173 A 
ATOM     64  C   UNL A   1      45.891  27.502  33.234  1.00  0.00     0.173 A 
ATOM     65  F   UNL A   1      46.791  29.286  30.195  1.00  0.00    -0.203 F 
ATOM     66  C   UNL A   1      48.052  27.804  31.517  1.00  0.00     0.198 A 
ATOM     67  C   UNL A   1      47.087  26.836  33.490  1.00  0.00     0.198 A 
ATOM     68  F   UNL A   1      44.862  27.322  34.076  1.00  0.00    -0.203 F 
ATOM     69  F   UNL A   1      49.078  27.921  30.664  1.00  0.00    -0.200 F 
ATOM     70  C   UNL A   1      48.163  26.981  32.627  1.00  0.00     0.200 A 
ATOM     71  F   UNL A   1      47.198  26.051  34.570  1.00  0.00    -0.200 F 
ATOM     72  F   UNL A   1      49.305  26.319  32.861  1.00  0.00    -0.200 F 
ENDBRANCH  48  62
BRANCH  49  73
ATOM     73  C   UNL A   1      36.910  32.748  30.432  1.00  0.00     0.064 A 
ATOM     74  C   UNL A   1      35.884  32.584  31.373  1.00  0.00     0.173 A 
ATOM     75  C   UNL A   1      36.636  33.529  29.299  1.00  0.00     0.173 A 
ATOM     76  F   UNL A   1      36.093  31.834  32.465  1.00  0.00    -0.203 F 
ATOM     77  C   UNL A   1      34.629  33.156  31.177  1.00  0.00     0.198 A 
ATOM     78  C   UNL A   1      35.390  34.127  29.121  1.00  0.00     0.198 A 
ATOM     79  F   UNL A   1      37.586  33.727  28.373  1.00  0.00    -0.203 F 
ATOM     80  F   UNL A   1      33.653  32.943  32.070  1.00  0.00    -0.200 F 
ATOM     81  C   UNL A   1      34.384  33.932  30.055  1.00  0.00     0.200 A 
ATOM     82  F   UNL A   1      35.165  34.892  28.044  1.00  0.00    -0.200 F 
ATOM     83  F   UNL A   1      33.179  34.487  29.871  1.00  0.00    -0.200 F 
ENDBRANCH  49  73
BRANCH  61  84
ATOM     84  C   UNL A   1      42.491  34.416  34.261  1.00  0.00     0.064 A 
ATOM     85  C   UNL A   1      42.287  34.356  35.647  1.00  0.00     0.173 A 
ATOM     86  C   UNL A   1      43.025  35.598  33.723  1.00  0.00     0.173 A 
ATOM     87  F   UNL A   1      41.764  33.255  36.206  1.00  0.00    -0.203 F 
ATOM     88  C   UNL A   1      42.583  35.447  36.460  1.00  0.00     0.198 A 
ATOM     89  C   UNL A   1      43.352  36.673  34.543  1.00  0.00     0.198 A 
ATOM     90  F   UNL A   1      43.243  35.702  32.404  1.00  0.00    -0.203 F 
ATOM     91  F   UNL A   1      42.331  35.388  37.775  1.00  0.00    -0.200 F 
ATOM     92  C   UNL A   1      43.123  36.600  35.909  1.00  0.00     0.200 A 
ATOM     93  F   UNL A   1      43.888  37.779  34.011  1.00  0.00    -0.200 F 
ATOM     94  F   UNL A   1      43.415  37.646  36.694  1.00  0.00    -0.200 F 
ENDBRANCH  61  84
ENDBRANCH  35  36
ENDBRANCH  27  30
ENDBRANCH  25  26
ENDBRANCH   1  25
TORSDOF 12
ENDMDL
MODEL 2
REMARK VINA RESULT:     -11.7      4.251      8.444
REMARK SMILES C[C@@H](NC(=O)[C@@H]1CC[C@@H]2CCCC[C@@H]2[NH2+]1)C(=O)NCCCNC(=O)c1ccc(-c2c3nc(c(-c4c(F)c(F)c(F)c(F)c4F)c4ccc([nH]4)c(-c4c(F)c(F)c(F)c(F)c4F)c4nc(c(-c5c(F)c(F)c(F)c(F)c5F)c5ccc2[nH]5)C=C4)C=C3)cc1
REMARK SMILES IDX 20 1 19 2 18 3 16 4 17 5 2 7 1 8 3 9 4 10 5 12 6 13 7 14
REMARK SMILES IDX 15 15 8 16 14 17 9 20 13 21 10 22 12 23 11 24 21 25 22 26
REMARK SMILES IDX 23 27 24 29 25 30 26 31 87 32 27 33 86 34 28 35 29 36 30 37
REMARK SMILES IDX 80 38 31 39 85 40 79 41 81 42 32 43 84 44 78 45 77 46 33 48
REMARK SMILES IDX 65 49 45 50 64 51 46 52 49 53 63 54 82 55 47 56 48 57 62 59
REMARK SMILES IDX 83 60 50 61 34 62 35 63 43 64 36 65 37 66 41 67 44 68 38 69
REMARK SMILES IDX 39 70 42 71 40 72 66 73 67 74 75 75 68 76 69 77 73 78 76 79
REMARK SMILES IDX 70 80 71 81 74 82 72 83 51 84 52 85 60 86 53 87 54 88 58 89
REMARK SMILES IDX 61 90 55 91 56 92 59 93 57 94
REMARK H PARENT 18 6 3 11 15 18 15 19 22 28 81 47 49 58
REMARK Flexibility Score: inf
ROOT
ATOM      1  C   UNL A   1      33.810  28.712  24.063  1.00  0.00     0.042 C 
ENDROOT
BRANCH   1   2
ATOM      2  C   UNL A   1      32.862  28.534  22.859  1.00  0.00     0.117 C 
BRANCH   2   3
ATOM      3  N   UNL A   1      33.284  27.529  21.903  1.00  0.00    -0.354 N 
ATOM      4  C   UNL A   1      32.973  26.199  21.846  1.00  0.00     0.242 C 
ATOM      5  O   UNL A   1      33.273  25.593  20.813  1.00  0.00    -0.273 OA
ATOM      6  H   UNL A   1      33.883  27.851  21.190  1.00  0.00     0.163 HD
BRANCH   4   7
ATOM      7  C   UNL A   1      32.355  25.445  23.045  1.00  0.00     0.168 C 
ATOM      8  C   UNL A   1      30.861  25.240  22.751  1.00  0.00     0.041 C 
BRANCH   7   9
ATOM      9  N   UNL A   1      32.940  24.179  23.523  1.00  0.00    -0.339 N 
ATOM     10  C   UNL A   1      32.738  23.659  24.778  1.00  0.00     0.278 C 
ATOM     11  H   UNL A   1      33.514  23.674  22.903  1.00  0.00     0.164 HD
ATOM     12  O   UNL A   1      31.967  22.697  24.871  1.00  0.00    -0.268 OA
BRANCH  10  13
ATOM     13  C   UNL A   1      33.529  24.176  26.013  1.00  0.00     0.272 C 
ATOM     14  C   UNL A   1      34.778  24.981  25.701  1.00  0.00     0.076 C 
ATOM     15  N   UNL A   1      33.889  23.039  26.920  1.00  0.00    -0.333 N 
ATOM     16  C   UNL A   1      35.837  24.078  25.090  1.00  0.00     0.016 C 
ATOM     17  C   UNL A   1      35.103  22.250  26.582  1.00  0.00     0.186 C 
ATOM     18  H   UNL A   1      33.099  22.395  26.931  1.00  0.00     0.347 HD
ATOM     19  H   UNL A   1      34.105  23.479  27.814  1.00  0.00     0.347 HD
ATOM     20  C   UNL A   1      36.296  23.129  26.183  1.00  0.00     0.048 C 
ATOM     21  C   UNL A   1      34.806  21.135  25.559  1.00  0.00     0.065 C 
ATOM     22  C   UNL A   1      37.508  22.313  25.743  1.00  0.00     0.010 C 
ATOM     23  C   UNL A   1      36.007  20.504  24.844  1.00  0.00     0.006 C 
ATOM     24  C   UNL A   1      37.185  21.426  24.555  1.00  0.00     0.001 C 
ENDBRANCH  10  13
ENDBRANCH   7   9
ENDBRANCH   4   7
ENDBRANCH   2   3
ENDBRANCH   1   2
BRANCH   1  25
ATOM     25  C   UNL A   1      33.184  28.755  25.470  1.00  0.00     0.118 C 
BRANCH  25  26
ATOM     26  N   UNL A   1      32.722  30.061  25.936  1.00  0.00    -0.352 N 
ATOM     27  C   UNL A   1      33.186  30.933  26.890  1.00  0.00     0.251 C 
ATOM     28  H   UNL A   1      31.914  30.380  25.472  1.00  0.00     0.163 HD
ATOM     29  O   UNL A   1      32.500  31.881  27.251  1.00  0.00    -0.269 OA
BRANCH  27  30
ATOM     30  C   UNL A   1      34.518  30.735  27.478  1.00  0.00     0.039 A 
ATOM     31  C   UNL A   1      35.389  31.818  27.626  1.00  0.00     0.014 A 
ATOM     32  C   UNL A   1      34.918  29.453  27.845  1.00  0.00     0.014 A 
ATOM     33  C   UNL A   1      36.625  31.624  28.245  1.00  0.00     0.010 A 
ATOM     34  C   UNL A   1      36.089  29.280  28.559  1.00  0.00     0.010 A 
ATOM     35  C   UNL A   1      36.955  30.364  28.767  1.00  0.00    -0.014 A 
BRANCH  35  36
ATOM     36  C   UNL A   1      38.187  30.121  29.551  1.00  0.00     0.031 A 
ATOM     37  C   UNL A   1      39.221  29.165  29.028  1.00  0.00     0.074 A 
ATOM     38  C   UNL A   1      38.291  30.640  30.788  1.00  0.00     0.049 A 
ATOM     39  N   UNL A   1      40.258  28.650  29.637  1.00  0.00    -0.248 NA
ATOM     40  C   UNL A   1      39.035  28.683  27.648  1.00  0.00     0.031 C 
ATOM     41  C   UNL A   1      37.315  31.535  31.417  1.00  0.00     0.029 A 
ATOM     42  N   UNL A   1      39.250  30.466  31.752  1.00  0.00    -0.354 N 
ATOM     43  C   UNL A   1      40.827  27.768  28.728  1.00  0.00     0.074 A 
ATOM     44  C   UNL A   1      39.987  27.769  27.550  1.00  0.00     0.031 C 
ATOM     45  C   UNL A   1      37.733  31.843  32.653  1.00  0.00     0.029 A 
ATOM     46  C   UNL A   1      38.974  31.127  32.925  1.00  0.00     0.049 A 
ATOM     47  H   UNL A   1      40.058  29.921  31.618  1.00  0.00     0.167 HD
ATOM     48  C   UNL A   1      41.961  27.042  28.859  1.00  0.00     0.037 A 
ATOM     49  C   UNL A   1      39.639  31.131  34.095  1.00  0.00     0.037 A 
ATOM     50  C   UNL A   1      42.800  27.076  30.028  1.00  0.00     0.049 A 
ATOM     51  C   UNL A   1      40.894  30.312  34.216  1.00  0.00     0.074 A 
ATOM     52  C   UNL A   1      44.008  26.439  30.243  1.00  0.00     0.029 A 
ATOM     53  N   UNL A   1      42.510  27.788  31.184  1.00  0.00    -0.354 N 
ATOM     54  N   UNL A   1      41.466  29.537  33.327  1.00  0.00    -0.248 NA
ATOM     55  C   UNL A   1      41.599  30.371  35.503  1.00  0.00     0.031 C 
ATOM     56  C   UNL A   1      44.423  26.722  31.548  1.00  0.00     0.029 A 
ATOM     57  C   UNL A   1      43.503  27.583  32.128  1.00  0.00     0.049 A 
ATOM     58  H   UNL A   1      41.715  28.353  31.315  1.00  0.00     0.167 HD
ATOM     59  C   UNL A   1      42.607  29.034  33.934  1.00  0.00     0.074 A 
ATOM     60  C   UNL A   1      42.659  29.612  35.262  1.00  0.00     0.031 C 
ATOM     61  C   UNL A   1      43.530  28.171  33.443  1.00  0.00     0.037 A 
BRANCH  48  62
ATOM     62  C   UNL A   1      42.360  26.157  27.712  1.00  0.00     0.064 A 
ATOM     63  C   UNL A   1      43.344  26.543  26.788  1.00  0.00     0.173 A 
ATOM     64  C   UNL A   1      41.773  24.892  27.550  1.00  0.00     0.173 A 
ATOM     65  F   UNL A   1      43.929  27.746  26.889  1.00  0.00    -0.203 F 
ATOM     66  C   UNL A   1      43.699  25.714  25.727  1.00  0.00     0.198 A 
ATOM     67  C   UNL A   1      42.156  24.050  26.508  1.00  0.00     0.198 A 
ATOM     68  F   UNL A   1      40.830  24.469  28.404  1.00  0.00    -0.203 F 
ATOM     69  F   UNL A   1      44.599  26.131  24.825  1.00  0.00    -0.200 F 
ATOM     70  C   UNL A   1      43.112  24.465  25.592  1.00  0.00     0.200 A 
ATOM     71  F   UNL A   1      41.597  22.838  26.388  1.00  0.00    -0.200 F 
ATOM     72  F   UNL A   1      43.460  23.665  24.576  1.00  0.00    -0.200 F 
ENDBRANCH  48  62
BRANCH  49  73
ATOM     73  C   UNL A   1      39.141  31.950  35.231  1.00  0.00     0.064 A 
ATOM     74  C   UNL A   1      39.409  33.325  35.295  1.00  0.00     0.173 A 
ATOM     75  C   UNL A   1      38.387  31.385  36.271  1.00  0.00     0.173 A 
ATOM     76  F   UNL A   1      40.139  33.908  34.332  1.00  0.00    -0.203 F 
ATOM     77  C   UNL A   1      38.965  34.098  36.366  1.00  0.00     0.198 A 
ATOM     78  C   UNL A   1      37.915  32.166  37.325  1.00  0.00     0.198 A 
ATOM     79  F   UNL A   1      38.091  30.078  36.254  1.00  0.00    -0.203 F 
ATOM     80  F   UNL A   1      39.278  35.399  36.424  1.00  0.00    -0.200 F 
ATOM     81  C   UNL A   1      38.213  33.519  37.376  1.00  0.00     0.200 A 
ATOM     82  F   UNL A   1      37.172  31.607  38.289  1.00  0.00    -0.200 F 
ATOM     83  F   UNL A   1      37.781  34.265  38.402  1.00  0.00    -0.200 F 
ENDBRANCH  49  73
BRANCH  61  84
ATOM     84  C   UNL A   1      44.686  27.823  34.336  1.00  0.00     0.064 A 
ATOM     85  C   UNL A   1      45.849  28.606  34.371  1.00  0.00     0.173 A 
ATOM     86  C   UNL A   1      44.612  26.715  35.194  1.00  0.00     0.173 A 
ATOM     87  F   UNL A   1      45.976  29.666  33.558  1.00  0.00    -0.203 F 
ATOM     88  C   UNL A   1      46.907  28.276  35.214  1.00  0.00     0.198 A 
ATOM     89  C   UNL A   1      45.657  26.409  36.060  1.00  0.00     0.198 A 
ATOM     90  F   UNL A   1      43.517  25.939  35.202  1.00  0.00    -0.203 F 
ATOM     91  F   UNL A   1      48.031  29.006  35.192  1.00  0.00    -0.200 F 
ATOM     92  C   UNL A   1      46.806  27.184  36.063  1.00  0.00     0.200 A 
ATOM     93  F   UNL A   1      45.550  25.364  36.891  1.00  0.00    -0.200 F 
ATOM     94  F   UNL A   1      47.822  26.873  36.879  1.00  0.00    -0.200 F 
ENDBRANCH  61  84
ENDBRANCH  35  36
ENDBRANCH  27  30
ENDBRANCH  25  26
ENDBRANCH   1  25
TORSDOF 12
ENDMDL
MODEL 3
REMARK VINA RESULT:     -11.6      4.937      9.905
REMARK SMILES C[C@@H](NC(=O)[C@@H]1CC[C@@H]2CCCC[C@@H]2[NH2+]1)C(=O)NCCCNC(=O)c1ccc(-c2c3nc(c(-c4c(F)c(F)c(F)c(F)c4F)c4ccc([nH]4)c(-c4c(F)c(F)c(F)c(F)c4F)c4nc(c(-c5c(F)c(F)c(F)c(F)c5F)c5ccc2[nH]5)C=C4)C=C3)cc1
REMARK SMILES IDX 20 1 19 2 18 3 16 4 17 5 2 7 1 8 3 9 4 10 5 12 6 13 7 14
REMARK SMILES IDX 15 15 8 16 14 17 9 20 13 21 10 22 12 23 11 24 21 25 22 26
REMARK SMILES IDX 23 27 24 29 25 30 26 31 87 32 27 33 86 34 28 35 29 36 30 37
REMARK SMILES IDX 80 38 31 39 85 40 79 41 81 42 32 43 84 44 78 45 77 46 33 48
REMARK SMILES IDX 65 49 45 50 64 51 46 52 49 53 63 54 82 55 47 56 48 57 62 59
REMARK SMILES IDX 83 60 50 61 34 62 35 63 43 64 36 65 37 66 41 67 44 68 38 69
REMARK SMILES IDX 39 70 42 71 40 72 66 73 67 74 75 75 68 76 69 77 73 78 76 79
REMARK SMILES IDX 70 80 71 81 74 82 72 83 51 84 52 85 60 86 53 87 54 88 58 89
REMARK SMILES IDX 61 90 55 91 56 92 59 93 57 94
REMARK H PARENT 18 6 3 11 15 18 15 19 22 28 81 47 49 58
REMARK Flexibility Score: inf
ROOT
ATOM      1  C   UNL A   1      31.571  31.875  26.545  1.00  0.00     0.042 C 
ENDROOT
BRANCH   1   2
ATOM      2  C   UNL A   1      31.698  30.354  26.325  1.00  0.00     0.117 C 
BRANCH   2   3
ATOM      3  N   UNL A   1      32.643  29.970  25.293  1.00  0.00    -0.354 N 
ATOM      4  C   UNL A   1      32.424  29.306  24.118  1.00  0.00     0.242 C 
ATOM      5  O   UNL A   1      33.348  29.289  23.300  1.00  0.00    -0.273 OA
ATOM      6  H   UNL A   1      33.579  30.225  25.464  1.00  0.00     0.163 HD
BRANCH   4   7
ATOM      7  C   UNL A   1      31.119  28.524  23.843  1.00  0.00     0.168 C 
ATOM      8  C   UNL A   1      30.617  28.928  22.449  1.00  0.00     0.041 C 
BRANCH   7   9
ATOM      9  N   UNL A   1      31.076  27.057  23.976  1.00  0.00    -0.339 N 
ATOM     10  C   UNL A   1      30.646  26.395  25.100  1.00  0.00     0.278 C 
ATOM     11  H   UNL A   1      31.376  26.517  23.210  1.00  0.00     0.164 HD
ATOM     12  O   UNL A   1      29.527  25.870  25.050  1.00  0.00    -0.268 OA
BRANCH  10  13
ATOM     13  C   UNL A   1      31.566  26.208  26.339  1.00  0.00     0.272 C 
ATOM     14  C   UNL A   1      33.050  26.408  26.090  1.00  0.00     0.076 C 
ATOM     15  N   UNL A   1      31.348  24.861  26.957  1.00  0.00    -0.333 N 
ATOM     16  C   UNL A   1      33.584  25.286  25.215  1.00  0.00     0.016 C 
ATOM     17  C   UNL A   1      32.067  23.706  26.358  1.00  0.00     0.186 C 
ATOM     18  H   UNL A   1      30.349  24.659  26.905  1.00  0.00     0.347 HD
ATOM     19  H   UNL A   1      31.727  24.943  27.900  1.00  0.00     0.347 HD
ATOM     20  C   UNL A   1      33.537  24.015  26.045  1.00  0.00     0.048 C 
ATOM     21  C   UNL A   1      31.307  23.105  25.158  1.00  0.00     0.065 C 
ATOM     22  C   UNL A   1      34.244  22.861  25.340  1.00  0.00     0.010 C 
ATOM     23  C   UNL A   1      32.095  22.177  24.225  1.00  0.00     0.006 C 
ATOM     24  C   UNL A   1      33.569  22.506  24.029  1.00  0.00     0.001 C 
ENDBRANCH  10  13
ENDBRANCH   7   9
ENDBRANCH   4   7
ENDBRANCH   2   3
ENDBRANCH   1   2
BRANCH   1  25
ATOM     25  C   UNL A   1      32.721  32.594  27.274  1.00  0.00     0.118 C 
BRANCH  25  26
ATOM     26  N   UNL A   1      32.499  33.998  27.613  1.00  0.00    -0.352 N 
ATOM     27  C   UNL A   1      33.015  34.820  28.585  1.00  0.00     0.251 C 
ATOM     28  H   UNL A   1      31.847  34.445  27.026  1.00  0.00     0.163 HD
ATOM     29  O   UNL A   1      32.511  35.915  28.804  1.00  0.00    -0.269 OA
BRANCH  27  30
ATOM     30  C   UNL A   1      34.184  34.390  29.365  1.00  0.00     0.039 A 
ATOM     31  C   UNL A   1      34.014  33.810  30.625  1.00  0.00     0.014 A 
ATOM     32  C   UNL A   1      35.460  34.608  28.855  1.00  0.00     0.014 A 
ATOM     33  C   UNL A   1      35.131  33.350  31.323  1.00  0.00     0.010 A 
ATOM     34  C   UNL A   1      36.554  34.051  29.490  1.00  0.00     0.010 A 
ATOM     35  C   UNL A   1      36.402  33.416  30.731  1.00  0.00    -0.014 A 
BRANCH  35  36
ATOM     36  C   UNL A   1      37.607  32.827  31.357  1.00  0.00     0.031 A 
ATOM     37  C   UNL A   1      38.293  31.667  30.695  1.00  0.00     0.074 A 
ATOM     38  C   UNL A   1      37.979  33.240  32.583  1.00  0.00     0.049 A 
ATOM     39  N   UNL A   1      39.222  30.874  31.165  1.00  0.00    -0.248 NA
ATOM     40  C   UNL A   1      37.837  31.318  29.338  1.00  0.00     0.031 C 
ATOM     41  C   UNL A   1      37.344  34.322  33.341  1.00  0.00     0.029 A 
ATOM     42  N   UNL A   1      38.960  32.779  33.422  1.00  0.00    -0.354 N 
ATOM     43  C   UNL A   1      39.438  29.922  30.177  1.00  0.00     0.074 A 
ATOM     44  C   UNL A   1      38.503  30.196  29.109  1.00  0.00     0.031 C 
ATOM     45  C   UNL A   1      37.962  34.451  34.525  1.00  0.00     0.029 A 
ATOM     46  C   UNL A   1      38.996  33.428  34.632  1.00  0.00     0.049 A 
ATOM     47  H   UNL A   1      39.579  32.053  33.181  1.00  0.00     0.167 HD
ATOM     48  C   UNL A   1      40.352  28.924  30.158  1.00  0.00     0.037 A 
ATOM     49  C   UNL A   1      39.765  33.204  35.714  1.00  0.00     0.037 A 
ATOM     50  C   UNL A   1      41.294  28.684  31.218  1.00  0.00     0.049 A 
ATOM     51  C   UNL A   1      40.770  32.086  35.668  1.00  0.00     0.074 A 
ATOM     52  C   UNL A   1      42.312  27.750  31.274  1.00  0.00     0.029 A 
ATOM     53  N   UNL A   1      41.329  29.388  32.415  1.00  0.00    -0.354 N 
ATOM     54  N   UNL A   1      41.018  31.236  34.701  1.00  0.00    -0.248 NA
ATOM     55  C   UNL A   1      41.604  31.899  36.861  1.00  0.00     0.031 C 
ATOM     56  C   UNL A   1      42.928  27.852  32.525  1.00  0.00     0.029 A 
ATOM     57  C   UNL A   1      42.333  28.889  33.228  1.00  0.00     0.049 A 
ATOM     58  H   UNL A   1      40.728  30.131  32.650  1.00  0.00     0.167 HD
ATOM     59  C   UNL A   1      42.050  30.429  35.157  1.00  0.00     0.074 A 
ATOM     60  C   UNL A   1      42.396  30.907  36.481  1.00  0.00     0.031 C 
ATOM     61  C   UNL A   1      42.657  29.384  34.542  1.00  0.00     0.037 A 
BRANCH  48  62
ATOM     62  C   UNL A   1      40.378  28.025  28.954  1.00  0.00     0.064 A 
ATOM     63  C   UNL A   1      41.141  28.335  27.816  1.00  0.00     0.173 A 
ATOM     64  C   UNL A   1      39.655  26.822  28.946  1.00  0.00     0.173 A 
ATOM     65  F   UNL A   1      41.842  29.478  27.765  1.00  0.00    -0.203 F 
ATOM     66  C   UNL A   1      41.151  27.494  26.706  1.00  0.00     0.198 A 
ATOM     67  C   UNL A   1      39.695  25.966  27.848  1.00  0.00     0.198 A 
ATOM     68  F   UNL A   1      38.911  26.473  30.007  1.00  0.00    -0.203 F 
ATOM     69  F   UNL A   1      41.841  27.842  25.611  1.00  0.00    -0.200 F 
ATOM     70  C   UNL A   1      40.435  26.307  26.726  1.00  0.00     0.200 A 
ATOM     71  F   UNL A   1      39.013  24.813  27.875  1.00  0.00    -0.200 F 
ATOM     72  F   UNL A   1      40.452  25.495  25.660  1.00  0.00    -0.200 F 
ENDBRANCH  48  62
BRANCH  49  73
ATOM     73  C   UNL A   1      39.625  34.065  36.917  1.00  0.00     0.064 A 
ATOM     74  C   UNL A   1      38.830  33.661  37.999  1.00  0.00     0.173 A 
ATOM     75  C   UNL A   1      40.282  35.301  37.018  1.00  0.00     0.173 A 
ATOM     76  F   UNL A   1      38.170  32.494  37.943  1.00  0.00    -0.203 F 
ATOM     77  C   UNL A   1      38.676  34.469  39.123  1.00  0.00     0.198 A 
ATOM     78  C   UNL A   1      40.153  36.094  38.158  1.00  0.00     0.198 A 
ATOM     79  F   UNL A   1      41.064  35.731  36.018  1.00  0.00    -0.203 F 
ATOM     80  F   UNL A   1      37.872  34.078  40.120  1.00  0.00    -0.200 F 
ATOM     81  C   UNL A   1      39.342  35.682  39.204  1.00  0.00     0.200 A 
ATOM     82  F   UNL A   1      40.814  37.256  38.240  1.00  0.00    -0.200 F 
ATOM     83  F   UNL A   1      39.199  36.456  40.289  1.00  0.00    -0.200 F 
ENDBRANCH  49  73
BRANCH  61  84
ATOM     84  C   UNL A   1      43.774  28.708  35.284  1.00  0.00     0.064 A 
ATOM     85  C   UNL A   1      45.112  29.091  35.105  1.00  0.00     0.173 A 
ATOM     86  C   UNL A   1      43.498  27.692  36.211  1.00  0.00     0.173 A 
ATOM     87  F   UNL A   1      45.429  30.046  34.218  1.00  0.00    -0.203 F 
ATOM     88  C   UNL A   1      46.134  28.461  35.809  1.00  0.00     0.198 A 
ATOM     89  C   UNL A   1      44.519  27.089  36.938  1.00  0.00     0.198 A 
ATOM     90  F   UNL A   1      42.234  27.294  36.422  1.00  0.00    -0.203 F 
ATOM     91  F   UNL A   1      47.410  28.805  35.584  1.00  0.00    -0.200 F 
ATOM     92  C   UNL A   1      45.837  27.468  36.731  1.00  0.00     0.200 A 
ATOM     93  F   UNL A   1      44.228  26.142  37.840  1.00  0.00    -0.200 F 
ATOM     94  F   UNL A   1      46.822  26.869  37.414  1.00  0.00    -0.200 F 
ENDBRANCH  61  84
ENDBRANCH  35  36
ENDBRANCH  27  30
ENDBRANCH  25  26
ENDBRANCH   1  25
TORSDOF 12
ENDMDL
