MODEL 1
REMARK VINA RESULT:     -12.9      0.000      0.000
REMARK SMILES Cc1ccccc1[C@@H](Cc1ncnn1C(C)C)C(=O)NCCCNC(=O)c1ccc(-c2c3nc(c(-c4c(F)c(F)c(F)c(F)c4F)c4ccc([nH]4)c(-c4c(F)c(F)c(F)c(F)c4F)c4nc(c(-c5c(F)c(F)c(F)c(F)c5F)c5ccc2[nH]5)C=C4)C=C3)cc1
REMARK SMILES IDX 21 1 20 2 18 3 19 4 8 6 7 7 1 8 2 9 3 10 4 11 6 12 5 13 9 14
REMARK SMILES IDX 10 15 11 16 14 17 12 18 13 19 15 20 16 21 17 22 22 23 23 24
REMARK SMILES IDX 24 25 25 26 26 28 27 29 28 30 89 31 29 32 88 33 30 34 31 35
REMARK SMILES IDX 32 36 82 37 33 38 87 39 81 40 83 41 34 42 86 43 80 44 79 45
REMARK SMILES IDX 35 47 67 48 47 49 66 50 48 51 51 52 65 53 84 54 49 55 50 56
REMARK SMILES IDX 64 58 85 59 52 60 36 61 37 62 45 63 38 64 39 65 43 66 46 67
REMARK SMILES IDX 40 68 41 69 44 70 42 71 68 72 69 73 77 74 70 75 71 76 75 77
REMARK SMILES IDX 78 78 72 79 73 80 76 81 74 82 53 83 54 84 62 85 55 86 56 87
REMARK SMILES IDX 60 88 63 89 57 90 58 91 61 92 59 93
REMARK H PARENT 20 5 24 27 83 46 51 57
REMARK Flexibility Score: inf
ROOT
ATOM      1  C   UNL A   1      33.763  30.078  26.804  1.00  0.00     0.117 C 
ENDROOT
BRANCH   1   2
ATOM      2  N   UNL A   1      32.687  29.340  27.440  1.00  0.00    -0.355 N 
ATOM      3  C   UNL A   1      32.005  28.212  27.126  1.00  0.00     0.228 C 
ATOM      4  O   UNL A   1      31.258  27.788  28.020  1.00  0.00    -0.274 OA
ATOM      5  H   UNL A   1      32.387  29.748  28.283  1.00  0.00     0.163 HD
BRANCH   3   6
ATOM      6  C   UNL A   1      32.085  27.455  25.791  1.00  0.00     0.116 C 
BRANCH   6   7
ATOM      7  C   UNL A   1      31.030  27.926  24.781  1.00  0.00    -0.032 A 
ATOM      8  C   UNL A   1      30.034  25.560  24.464  1.00  0.00     0.044 C 
ATOM      9  C   UNL A   1      30.039  27.054  24.252  1.00  0.00    -0.047 A 
ATOM     10  C   UNL A   1      29.030  27.564  23.405  1.00  0.00     0.004 A 
ATOM     11  C   UNL A   1      28.965  28.916  23.093  1.00  0.00     0.000 A 
ATOM     12  C   UNL A   1      30.956  29.272  24.402  1.00  0.00     0.005 A 
ATOM     13  C   UNL A   1      29.935  29.770  23.588  1.00  0.00     0.000 A 
ENDBRANCH   6   7
BRANCH   6  14
ATOM     14  C   UNL A   1      33.494  26.956  25.378  1.00  0.00     0.095 C 
BRANCH  14  15
ATOM     15  C   UNL A   1      33.666  26.130  24.149  1.00  0.00     0.128 A 
ATOM     16  N   UNL A   1      33.370  26.518  22.921  1.00  0.00    -0.220 NA
ATOM     17  N   UNL A   1      34.094  24.817  24.084  1.00  0.00    -0.248 N 
ATOM     18  C   UNL A   1      33.747  25.475  22.135  1.00  0.00     0.246 A 
ATOM     19  N   UNL A   1      34.249  24.437  22.795  1.00  0.00    -0.159 NA
BRANCH  17  20
ATOM     20  C   UNL A   1      34.388  23.856  25.141  1.00  0.00     0.103 C 
ATOM     21  C   UNL A   1      34.154  22.421  24.659  1.00  0.00     0.033 C 
ATOM     22  C   UNL A   1      35.812  24.006  25.679  1.00  0.00     0.033 C 
ENDBRANCH  17  20
ENDBRANCH  14  15
ENDBRANCH   6  14
ENDBRANCH   3   6
ENDBRANCH   1   2
BRANCH   1  23
ATOM     23  C   UNL A   1      33.938  31.493  27.312  1.00  0.00     0.042 C 
BRANCH  23  24
ATOM     24  C   UNL A   1      34.359  31.540  28.768  1.00  0.00     0.118 C 
BRANCH  24  25
ATOM     25  N   UNL A   1      35.521  32.378  29.071  1.00  0.00    -0.352 N 
ATOM     26  C   UNL A   1      36.844  31.969  29.224  1.00  0.00     0.251 C 
ATOM     27  H   UNL A   1      35.348  33.341  29.180  1.00  0.00     0.163 HD
ATOM     28  O   UNL A   1      37.739  32.763  29.462  1.00  0.00    -0.269 OA
BRANCH  26  29
ATOM     29  C   UNL A   1      37.154  30.542  28.951  1.00  0.00     0.039 A 
ATOM     30  C   UNL A   1      37.425  29.730  30.055  1.00  0.00     0.014 A 
ATOM     31  C   UNL A   1      37.586  30.188  27.680  1.00  0.00     0.014 A 
ATOM     32  C   UNL A   1      38.398  28.744  29.930  1.00  0.00     0.010 A 
ATOM     33  C   UNL A   1      38.659  29.321  27.595  1.00  0.00     0.010 A 
ATOM     34  C   UNL A   1      39.124  28.662  28.742  1.00  0.00    -0.014 A 
BRANCH  34  35
ATOM     35  C   UNL A   1      40.458  28.060  28.673  1.00  0.00     0.031 A 
ATOM     36  C   UNL A   1      40.617  26.602  28.465  1.00  0.00     0.074 A 
ATOM     37  C   UNL A   1      41.565  28.841  28.736  1.00  0.00     0.049 A 
ATOM     38  N   UNL A   1      41.683  25.936  28.761  1.00  0.00    -0.248 NA
ATOM     39  C   UNL A   1      39.538  25.752  27.979  1.00  0.00     0.031 C 
ATOM     40  C   UNL A   1      42.935  28.455  28.394  1.00  0.00     0.029 A 
ATOM     41  N   UNL A   1      41.702  30.114  29.320  1.00  0.00    -0.354 N 
ATOM     42  C   UNL A   1      41.545  24.660  28.261  1.00  0.00     0.074 A 
ATOM     43  C   UNL A   1      40.157  24.574  27.883  1.00  0.00     0.031 C 
ATOM     44  C   UNL A   1      43.788  29.282  29.016  1.00  0.00     0.029 A 
ATOM     45  C   UNL A   1      43.003  30.143  29.878  1.00  0.00     0.049 A 
ATOM     46  H   UNL A   1      41.033  30.836  29.337  1.00  0.00     0.167 HD
ATOM     47  C   UNL A   1      42.660  23.884  28.119  1.00  0.00     0.037 A 
ATOM     48  C   UNL A   1      43.220  30.317  31.213  1.00  0.00     0.037 A 
ATOM     49  C   UNL A   1      43.812  24.507  28.781  1.00  0.00     0.049 A 
ATOM     50  C   UNL A   1      43.991  29.198  31.871  1.00  0.00     0.074 A 
ATOM     51  C   UNL A   1      44.923  25.191  28.315  1.00  0.00     0.029 A 
ATOM     52  N   UNL A   1      43.786  24.697  30.162  1.00  0.00    -0.354 N 
ATOM     53  N   UNL A   1      44.157  28.020  31.338  1.00  0.00    -0.248 NA
ATOM     54  C   UNL A   1      44.582  29.296  33.204  1.00  0.00     0.031 C 
ATOM     55  C   UNL A   1      45.546  25.824  29.420  1.00  0.00     0.029 A 
ATOM     56  C   UNL A   1      44.824  25.516  30.560  1.00  0.00     0.049 A 
ATOM     57  H   UNL A   1      43.120  24.301  30.769  1.00  0.00     0.167 HD
ATOM     58  C   UNL A   1      44.793  27.200  32.233  1.00  0.00     0.074 A 
ATOM     59  C   UNL A   1      45.071  28.054  33.371  1.00  0.00     0.031 C 
ATOM     60  C   UNL A   1      45.003  25.877  31.960  1.00  0.00     0.037 A 
BRANCH  47  61
ATOM     61  C   UNL A   1      42.802  22.699  27.166  1.00  0.00     0.064 A 
ATOM     62  C   UNL A   1      42.098  21.496  27.415  1.00  0.00     0.173 A 
ATOM     63  C   UNL A   1      43.675  22.622  26.062  1.00  0.00     0.173 A 
ATOM     64  F   UNL A   1      41.152  21.419  28.359  1.00  0.00    -0.203 F 
ATOM     65  C   UNL A   1      42.335  20.313  26.703  1.00  0.00     0.198 A 
ATOM     66  C   UNL A   1      43.927  21.438  25.362  1.00  0.00     0.198 A 
ATOM     67  F   UNL A   1      44.298  23.690  25.567  1.00  0.00    -0.203 F 
ATOM     68  F   UNL A   1      41.655  19.200  27.016  1.00  0.00    -0.200 F 
ATOM     69  C   UNL A   1      43.271  20.276  25.694  1.00  0.00     0.200 A 
ATOM     70  F   UNL A   1      44.818  21.441  24.360  1.00  0.00    -0.200 F 
ATOM     71  F   UNL A   1      43.523  19.141  25.030  1.00  0.00    -0.200 F 
ENDBRANCH  47  61
BRANCH  48  72
ATOM     72  C   UNL A   1      42.175  31.130  31.884  1.00  0.00     0.064 A 
ATOM     73  C   UNL A   1      42.235  32.530  31.758  1.00  0.00     0.173 A 
ATOM     74  C   UNL A   1      40.967  30.565  32.304  1.00  0.00     0.173 A 
ATOM     75  F   UNL A   1      43.372  33.119  31.353  1.00  0.00    -0.203 F 
ATOM     76  C   UNL A   1      41.102  33.321  31.935  1.00  0.00     0.198 A 
ATOM     77  C   UNL A   1      39.835  31.361  32.487  1.00  0.00     0.198 A 
ATOM     78  F   UNL A   1      40.842  29.235  32.414  1.00  0.00    -0.203 F 
ATOM     79  F   UNL A   1      41.167  34.639  31.703  1.00  0.00    -0.200 F 
ATOM     80  C   UNL A   1      39.896  32.731  32.272  1.00  0.00     0.200 A 
ATOM     81  F   UNL A   1      38.658  30.787  32.772  1.00  0.00    -0.200 F 
ATOM     82  F   UNL A   1      38.782  33.473  32.342  1.00  0.00    -0.200 F 
ENDBRANCH  48  72
BRANCH  60  83
ATOM     83  C   UNL A   1      45.463  24.820  32.940  1.00  0.00     0.064 A 
ATOM     84  C   UNL A   1      46.792  24.663  33.370  1.00  0.00     0.173 A 
ATOM     85  C   UNL A   1      44.515  23.998  33.600  1.00  0.00     0.173 A 
ATOM     86  F   UNL A   1      47.770  25.459  32.921  1.00  0.00    -0.203 F 
ATOM     87  C   UNL A   1      47.154  23.715  34.334  1.00  0.00     0.198 A 
ATOM     88  C   UNL A   1      44.871  23.096  34.603  1.00  0.00     0.198 A 
ATOM     89  F   UNL A   1      43.207  24.066  33.311  1.00  0.00    -0.203 F 
ATOM     90  F   UNL A   1      48.443  23.578  34.677  1.00  0.00    -0.200 F 
ATOM     91  C   UNL A   1      46.194  22.941  34.957  1.00  0.00     0.200 A 
ATOM     92  F   UNL A   1      43.921  22.394  35.235  1.00  0.00    -0.200 F 
ATOM     93  F   UNL A   1      46.540  22.069  35.914  1.00  0.00    -0.200 F 
ENDBRANCH  60  83
ENDBRANCH  34  35
ENDBRANCH  26  29
ENDBRANCH  24  25
ENDBRANCH  23  24
ENDBRANCH   1  23
TORSDOF 14
ENDMDL
MODEL 2
REMARK VINA RESULT:     -12.9      3.764      9.796
REMARK SMILES Cc1ccccc1[C@@H](Cc1ncnn1C(C)C)C(=O)NCCCNC(=O)c1ccc(-c2c3nc(c(-c4c(F)c(F)c(F)c(F)c4F)c4ccc([nH]4)c(-c4c(F)c(F)c(F)c(F)c4F)c4nc(c(-c5c(F)c(F)c(F)c(F)c5F)c5ccc2[nH]5)C=C4)C=C3)cc1
REMARK SMILES IDX 21 1 20 2 18 3 19 4 8 6 7 7 1 8 2 9 3 10 4 11 6 12 5 13 9 14
REMARK SMILES IDX 10 15 11 16 14 17 12 18 13 19 15 20 16 21 17 22 22 23 23 24
REMARK SMILES IDX 24 25 25 26 26 28 27 29 28 30 89 31 29 32 88 33 30 34 31 35
REMARK SMILES IDX 32 36 82 37 33 38 87 39 81 40 83 41 34 42 86 43 80 44 79 45
REMARK SMILES IDX 35 47 67 48 47 49 66 50 48 51 51 52 65 53 84 54 49 55 50 56
REMARK SMILES IDX 64 58 85 59 52 60 36 61 37 62 45 63 38 64 39 65 43 66 46 67
REMARK SMILES IDX 40 68 41 69 44 70 42 71 68 72 69 73 77 74 70 75 71 76 75 77
REMARK SMILES IDX 78 78 72 79 73 80 76 81 74 82 53 83 54 84 62 85 55 86 56 87
REMARK SMILES IDX 60 88 63 89 57 90 58 91 61 92 59 93
REMARK H PARENT 20 5 24 27 83 46 51 57
REMARK Flexibility Score: inf
ROOT
ATOM      1  C   UNL A   1      36.142  21.030  24.915  1.00  0.00     0.117 C 
ENDROOT
BRANCH   1   2
ATOM      2  N   UNL A   1      35.446  21.364  26.144  1.00  0.00    -0.355 N 
ATOM      3  C   UNL A   1      34.140  21.436  26.497  1.00  0.00     0.228 C 
ATOM      4  O   UNL A   1      33.935  21.590  27.710  1.00  0.00    -0.274 OA
ATOM      5  H   UNL A   1      36.057  21.587  26.883  1.00  0.00     0.163 HD
BRANCH   3   6
ATOM      6  C   UNL A   1      32.943  21.350  25.537  1.00  0.00     0.116 C 
BRANCH   6   7
ATOM      7  C   UNL A   1      32.773  19.951  24.930  1.00  0.00    -0.032 A 
ATOM      8  C   UNL A   1      32.150  20.861  22.590  1.00  0.00     0.044 C 
ATOM      9  C   UNL A   1      32.497  19.749  23.549  1.00  0.00    -0.047 A 
ATOM     10  C   UNL A   1      32.453  18.439  23.023  1.00  0.00     0.004 A 
ATOM     11  C   UNL A   1      32.701  17.331  23.822  1.00  0.00     0.000 A 
ATOM     12  C   UNL A   1      32.970  18.805  25.710  1.00  0.00     0.005 A 
ATOM     13  C   UNL A   1      32.954  17.516  25.170  1.00  0.00     0.000 A 
ENDBRANCH   6   7
BRANCH   6  14
ATOM     14  C   UNL A   1      31.750  22.288  25.855  1.00  0.00     0.095 C 
BRANCH  14  15
ATOM     15  C   UNL A   1      31.940  23.768  25.860  1.00  0.00     0.128 A 
ATOM     16  N   UNL A   1      31.555  24.583  26.825  1.00  0.00    -0.220 NA
ATOM     17  N   UNL A   1      32.480  24.539  24.847  1.00  0.00    -0.248 N 
ATOM     18  C   UNL A   1      31.988  25.809  26.427  1.00  0.00     0.246 A 
ATOM     19  N   UNL A   1      32.610  25.822  25.253  1.00  0.00    -0.159 NA
BRANCH  17  20
ATOM     20  C   UNL A   1      32.907  24.180  23.499  1.00  0.00     0.103 C 
ATOM     21  C   UNL A   1      32.452  25.231  22.482  1.00  0.00     0.033 C 
ATOM     22  C   UNL A   1      34.420  23.976  23.407  1.00  0.00     0.033 C 
ENDBRANCH  17  20
ENDBRANCH  14  15
ENDBRANCH   6  14
ENDBRANCH   3   6
ENDBRANCH   1   2
BRANCH   1  23
ATOM     23  C   UNL A   1      37.650  20.982  25.043  1.00  0.00     0.042 C 
BRANCH  23  24
ATOM     24  C   UNL A   1      38.215  22.210  25.730  1.00  0.00     0.118 C 
BRANCH  24  25
ATOM     25  N   UNL A   1      39.635  22.150  26.083  1.00  0.00    -0.352 N 
ATOM     26  C   UNL A   1      40.438  23.190  26.547  1.00  0.00     0.251 C 
ATOM     27  H   UNL A   1      40.073  21.274  25.980  1.00  0.00     0.163 HD
ATOM     28  O   UNL A   1      41.612  23.020  26.827  1.00  0.00    -0.269 OA
BRANCH  26  29
ATOM     29  C   UNL A   1      39.777  24.492  26.823  1.00  0.00     0.039 A 
ATOM     30  C   UNL A   1      40.292  25.615  26.169  1.00  0.00     0.014 A 
ATOM     31  C   UNL A   1      39.024  24.622  27.981  1.00  0.00     0.014 A 
ATOM     32  C   UNL A   1      40.325  26.824  26.856  1.00  0.00     0.010 A 
ATOM     33  C   UNL A   1      39.197  25.776  28.722  1.00  0.00     0.010 A 
ATOM     34  C   UNL A   1      39.925  26.850  28.191  1.00  0.00    -0.014 A 
BRANCH  34  35
ATOM     35  C   UNL A   1      40.385  27.877  29.132  1.00  0.00     0.031 A 
ATOM     36  C   UNL A   1      39.499  29.001  29.512  1.00  0.00     0.074 A 
ATOM     37  C   UNL A   1      41.605  27.773  29.714  1.00  0.00     0.049 A 
ATOM     38  N   UNL A   1      39.913  30.120  30.007  1.00  0.00    -0.248 NA
ATOM     39  C   UNL A   1      38.061  28.985  29.281  1.00  0.00     0.031 C 
ATOM     40  C   UNL A   1      42.095  28.526  30.870  1.00  0.00     0.029 A 
ATOM     41  N   UNL A   1      42.741  27.088  29.244  1.00  0.00    -0.354 N 
ATOM     42  C   UNL A   1      38.814  30.843  30.411  1.00  0.00     0.074 A 
ATOM     43  C   UNL A   1      37.694  30.140  29.840  1.00  0.00     0.031 C 
ATOM     44  C   UNL A   1      43.436  28.520  30.856  1.00  0.00     0.029 A 
ATOM     45  C   UNL A   1      43.852  27.878  29.625  1.00  0.00     0.049 A 
ATOM     46  H   UNL A   1      42.759  26.235  28.751  1.00  0.00     0.167 HD
ATOM     47  C   UNL A   1      38.992  31.878  31.285  1.00  0.00     0.037 A 
ATOM     48  C   UNL A   1      44.709  28.419  28.714  1.00  0.00     0.037 A 
ATOM     49  C   UNL A   1      40.419  32.182  31.444  1.00  0.00     0.049 A 
ATOM     50  C   UNL A   1      44.823  29.923  28.780  1.00  0.00     0.074 A 
ATOM     51  C   UNL A   1      41.341  31.925  32.446  1.00  0.00     0.029 A 
ATOM     52  N   UNL A   1      41.150  32.625  30.344  1.00  0.00    -0.354 N 
ATOM     53  N   UNL A   1      43.964  30.689  29.394  1.00  0.00    -0.248 NA
ATOM     54  C   UNL A   1      45.873  30.687  28.112  1.00  0.00     0.031 C 
ATOM     55  C   UNL A   1      42.635  32.183  31.931  1.00  0.00     0.029 A 
ATOM     56  C   UNL A   1      42.503  32.608  30.620  1.00  0.00     0.049 A 
ATOM     57  H   UNL A   1      40.756  32.910  29.488  1.00  0.00     0.167 HD
ATOM     58  C   UNL A   1      44.281  32.003  29.167  1.00  0.00     0.074 A 
ATOM     59  C   UNL A   1      45.504  31.950  28.391  1.00  0.00     0.031 C 
ATOM     60  C   UNL A   1      43.480  33.015  29.618  1.00  0.00     0.037 A 
BRANCH  47  61
ATOM     61  C   UNL A   1      37.921  32.455  32.209  1.00  0.00     0.064 A 
ATOM     62  C   UNL A   1      36.923  33.315  31.692  1.00  0.00     0.173 A 
ATOM     63  C   UNL A   1      37.864  32.304  33.609  1.00  0.00     0.173 A 
ATOM     64  F   UNL A   1      36.763  33.494  30.375  1.00  0.00    -0.203 F 
ATOM     65  C   UNL A   1      36.039  34.035  32.508  1.00  0.00     0.198 A 
ATOM     66  C   UNL A   1      36.996  33.035  34.427  1.00  0.00     0.198 A 
ATOM     67  F   UNL A   1      38.607  31.412  34.263  1.00  0.00    -0.203 F 
ATOM     68  F   UNL A   1      35.140  34.859  31.951  1.00  0.00    -0.200 F 
ATOM     69  C   UNL A   1      36.095  33.916  33.879  1.00  0.00     0.200 A 
ATOM     70  F   UNL A   1      37.050  32.871  35.757  1.00  0.00    -0.200 F 
ATOM     71  F   UNL A   1      35.274  34.624  34.665  1.00  0.00    -0.200 F 
ENDBRANCH  47  61
BRANCH  48  72
ATOM     72  C   UNL A   1      44.842  27.617  27.473  1.00  0.00     0.064 A 
ATOM     73  C   UNL A   1      45.632  26.454  27.509  1.00  0.00     0.173 A 
ATOM     74  C   UNL A   1      43.942  27.759  26.412  1.00  0.00     0.173 A 
ATOM     75  F   UNL A   1      46.508  26.270  28.511  1.00  0.00    -0.203 F 
ATOM     76  C   UNL A   1      45.450  25.426  26.587  1.00  0.00     0.198 A 
ATOM     77  C   UNL A   1      43.766  26.730  25.485  1.00  0.00     0.198 A 
ATOM     78  F   UNL A   1      43.142  28.832  26.340  1.00  0.00    -0.203 F 
ATOM     79  F   UNL A   1      46.143  24.286  26.714  1.00  0.00    -0.200 F 
ATOM     80  C   UNL A   1      44.496  25.554  25.593  1.00  0.00     0.200 A 
ATOM     81  F   UNL A   1      42.814  26.835  24.547  1.00  0.00    -0.200 F 
ATOM     82  F   UNL A   1      44.243  24.528  24.767  1.00  0.00    -0.200 F 
ENDBRANCH  48  72
BRANCH  60  83
ATOM     83  C   UNL A   1      43.577  34.475  29.235  1.00  0.00     0.064 A 
ATOM     84  C   UNL A   1      43.417  34.963  27.927  1.00  0.00     0.173 A 
ATOM     85  C   UNL A   1      43.701  35.469  30.238  1.00  0.00     0.173 A 
ATOM     86  F   UNL A   1      43.166  34.142  26.900  1.00  0.00    -0.203 F 
ATOM     87  C   UNL A   1      43.443  36.333  27.637  1.00  0.00     0.198 A 
ATOM     88  C   UNL A   1      43.669  36.834  29.952  1.00  0.00     0.198 A 
ATOM     89  F   UNL A   1      43.829  35.145  31.534  1.00  0.00    -0.203 F 
ATOM     90  F   UNL A   1      43.328  36.742  26.365  1.00  0.00    -0.200 F 
ATOM     91  C   UNL A   1      43.558  37.266  28.648  1.00  0.00     0.200 A 
ATOM     92  F   UNL A   1      43.725  37.726  30.952  1.00  0.00    -0.200 F 
ATOM     93  F   UNL A   1      43.535  38.576  28.369  1.00  0.00    -0.200 F 
ENDBRANCH  60  83
ENDBRANCH  34  35
ENDBRANCH  26  29
ENDBRANCH  24  25
ENDBRANCH  23  24
ENDBRANCH   1  23
TORSDOF 14
ENDMDL
MODEL 3
REMARK VINA RESULT:     -12.7      3.999     10.018
REMARK SMILES Cc1ccccc1[C@@H](Cc1ncnn1C(C)C)C(=O)NCCCNC(=O)c1ccc(-c2c3nc(c(-c4c(F)c(F)c(F)c(F)c4F)c4ccc([nH]4)c(-c4c(F)c(F)c(F)c(F)c4F)c4nc(c(-c5c(F)c(F)c(F)c(F)c5F)c5ccc2[nH]5)C=C4)C=C3)cc1
REMARK SMILES IDX 21 1 20 2 18 3 19 4 8 6 7 7 1 8 2 9 3 10 4 11 6 12 5 13 9 14
REMARK SMILES IDX 10 15 11 16 14 17 12 18 13 19 15 20 16 21 17 22 22 23 23 24
REMARK SMILES IDX 24 25 25 26 26 28 27 29 28 30 89 31 29 32 88 33 30 34 31 35
REMARK SMILES IDX 32 36 82 37 33 38 87 39 81 40 83 41 34 42 86 43 80 44 79 45
REMARK SMILES IDX 35 47 67 48 47 49 66 50 48 51 51 52 65 53 84 54 49 55 50 56
REMARK SMILES IDX 64 58 85 59 52 60 36 61 37 62 45 63 38 64 39 65 43 66 46 67
REMARK SMILES IDX 40 68 41 69 44 70 42 71 68 72 69 73 77 74 70 75 71 76 75 77
REMARK SMILES IDX 78 78 72 79 73 80 76 81 74 82 53 83 54 84 62 85 55 86 56 87
REMARK SMILES IDX 60 88 63 89 57 90 58 91 61 92 59 93
REMARK H PARENT 20 5 24 27 83 46 51 57
REMARK Flexibility Score: inf
ROOT
ATOM      1  C   UNL A   1      37.782  22.803  25.785  1.00  0.00     0.117 C 
ENDROOT
BRANCH   1   2
ATOM      2  N   UNL A   1      37.363  22.822  24.396  1.00  0.00    -0.355 N 
ATOM      3  C   UNL A   1      36.174  23.016  23.773  1.00  0.00     0.228 C 
ATOM      4  O   UNL A   1      36.245  23.134  22.541  1.00  0.00    -0.274 OA
ATOM      5  H   UNL A   1      38.103  22.658  23.769  1.00  0.00     0.163 HD
BRANCH   3   6
ATOM      6  C   UNL A   1      34.802  23.092  24.459  1.00  0.00     0.116 C 
BRANCH   6   7
ATOM      7  C   UNL A   1      33.941  21.849  24.196  1.00  0.00    -0.032 A 
ATOM      8  C   UNL A   1      32.366  23.082  22.554  1.00  0.00     0.044 C 
ATOM      9  C   UNL A   1      32.881  21.844  23.247  1.00  0.00    -0.047 A 
ATOM     10  C   UNL A   1      32.189  20.644  22.970  1.00  0.00     0.004 A 
ATOM     11  C   UNL A   1      32.536  19.451  23.588  1.00  0.00     0.000 A 
ATOM     12  C   UNL A   1      34.228  20.635  24.832  1.00  0.00     0.005 A 
ATOM     13  C   UNL A   1      33.554  19.448  24.526  1.00  0.00     0.000 A 
ENDBRANCH   6   7
BRANCH   6  14
ATOM     14  C   UNL A   1      34.749  23.897  25.783  1.00  0.00     0.095 C 
BRANCH  14  15
ATOM     15  C   UNL A   1      33.635  24.857  26.034  1.00  0.00     0.128 A 
ATOM     16  N   UNL A   1      33.687  26.159  25.816  1.00  0.00    -0.220 NA
ATOM     17  N   UNL A   1      32.402  24.571  26.590  1.00  0.00    -0.248 N 
ATOM     18  C   UNL A   1      32.441  26.604  26.126  1.00  0.00     0.246 A 
ATOM     19  N   UNL A   1      31.604  25.661  26.547  1.00  0.00    -0.159 NA
BRANCH  17  20
ATOM     20  C   UNL A   1      31.880  23.338  27.168  1.00  0.00     0.103 C 
ATOM     21  C   UNL A   1      31.063  22.552  26.137  1.00  0.00     0.033 C 
ATOM     22  C   UNL A   1      32.987  22.455  27.747  1.00  0.00     0.033 C 
ENDBRANCH  17  20
ENDBRANCH  14  15
ENDBRANCH   6  14
ENDBRANCH   3   6
ENDBRANCH   1   2
BRANCH   1  23
ATOM     23  C   UNL A   1      39.060  22.035  26.043  1.00  0.00     0.042 C 
BRANCH  23  24
ATOM     24  C   UNL A   1      39.874  22.625  27.178  1.00  0.00     0.118 C 
BRANCH  24  25
ATOM     25  N   UNL A   1      41.234  23.050  26.838  1.00  0.00    -0.352 N 
ATOM     26  C   UNL A   1      41.682  24.347  26.600  1.00  0.00     0.251 C 
ATOM     27  H   UNL A   1      41.909  22.337  26.771  1.00  0.00     0.163 HD
ATOM     28  O   UNL A   1      42.848  24.587  26.339  1.00  0.00    -0.269 OA
BRANCH  26  29
ATOM     29  C   UNL A   1      40.712  25.453  26.809  1.00  0.00     0.039 A 
ATOM     30  C   UNL A   1      40.951  26.645  26.119  1.00  0.00     0.014 A 
ATOM     31  C   UNL A   1      39.919  25.435  27.948  1.00  0.00     0.014 A 
ATOM     32  C   UNL A   1      40.665  27.849  26.755  1.00  0.00     0.010 A 
ATOM     33  C   UNL A   1      39.780  26.621  28.643  1.00  0.00     0.010 A 
ATOM     34  C   UNL A   1      40.234  27.823  28.081  1.00  0.00    -0.014 A 
BRANCH  34  35
ATOM     35  C   UNL A   1      40.400  28.964  28.986  1.00  0.00     0.031 A 
ATOM     36  C   UNL A   1      39.345  29.998  29.094  1.00  0.00     0.074 A 
ATOM     37  C   UNL A   1      41.493  29.051  29.783  1.00  0.00     0.049 A 
ATOM     38  N   UNL A   1      39.541  31.193  29.546  1.00  0.00    -0.248 NA
ATOM     39  C   UNL A   1      37.986  29.793  28.613  1.00  0.00     0.031 C 
ATOM     40  C   UNL A   1      41.676  29.941  30.931  1.00  0.00     0.029 A 
ATOM     41  N   UNL A   1      42.762  28.474  29.590  1.00  0.00    -0.354 N 
ATOM     42  C   UNL A   1      38.316  31.808  29.677  1.00  0.00     0.074 A 
ATOM     43  C   UNL A   1      37.403  30.934  28.986  1.00  0.00     0.031 C 
ATOM     44  C   UNL A   1      42.989  30.096  31.157  1.00  0.00     0.029 A 
ATOM     45  C   UNL A   1      43.693  29.418  30.086  1.00  0.00     0.049 A 
ATOM     46  H   UNL A   1      42.962  27.596  29.192  1.00  0.00     0.167 HD
ATOM     47  C   UNL A   1      38.218  32.918  30.467  1.00  0.00     0.037 A 
ATOM     48  C   UNL A   1      44.645  29.988  29.295  1.00  0.00     0.037 A 
ATOM     49  C   UNL A   1      39.550  33.402  30.847  1.00  0.00     0.049 A 
ATOM     50  C   UNL A   1      44.586  31.497  29.236  1.00  0.00     0.074 A 
ATOM     51  C   UNL A   1      40.289  33.333  32.017  1.00  0.00     0.029 A 
ATOM     52  N   UNL A   1      40.424  33.847  29.857  1.00  0.00    -0.354 N 
ATOM     53  N   UNL A   1      43.553  32.197  29.612  1.00  0.00    -0.248 NA
ATOM     54  C   UNL A   1      45.658  32.329  28.696  1.00  0.00     0.031 C 
ATOM     55  C   UNL A   1      41.623  33.706  31.718  1.00  0.00     0.029 A 
ATOM     56  C   UNL A   1      41.696  34.013  30.370  1.00  0.00     0.049 A 
ATOM     57  H   UNL A   1      40.170  34.018  28.922  1.00  0.00     0.167 HD
ATOM     58  C   UNL A   1      43.768  33.519  29.321  1.00  0.00     0.074 A 
ATOM     59  C   UNL A   1      45.113  33.556  28.784  1.00  0.00     0.031 C 
ATOM     60  C   UNL A   1      42.796  34.459  29.524  1.00  0.00     0.037 A 
BRANCH  47  61
ATOM     61  C   UNL A   1      36.939  33.430  31.126  1.00  0.00     0.064 A 
ATOM     62  C   UNL A   1      36.723  33.232  32.511  1.00  0.00     0.173 A 
ATOM     63  C   UNL A   1      35.844  34.021  30.464  1.00  0.00     0.173 A 
ATOM     64  F   UNL A   1      37.693  32.778  33.315  1.00  0.00    -0.203 F 
ATOM     65  C   UNL A   1      35.497  33.492  33.137  1.00  0.00     0.198 A 
ATOM     66  C   UNL A   1      34.612  34.264  31.082  1.00  0.00     0.198 A 
ATOM     67  F   UNL A   1      35.911  34.438  29.202  1.00  0.00    -0.203 F 
ATOM     68  F   UNL A   1      35.352  33.248  34.447  1.00  0.00    -0.200 F 
ATOM     69  C   UNL A   1      34.431  33.982  32.415  1.00  0.00     0.200 A 
ATOM     70  F   UNL A   1      33.603  34.775  30.362  1.00  0.00    -0.200 F 
ATOM     71  F   UNL A   1      33.247  34.205  33.001  1.00  0.00    -0.200 F 
ENDBRANCH  47  61
BRANCH  48  72
ATOM     72  C   UNL A   1      45.091  29.118  28.179  1.00  0.00     0.064 A 
ATOM     73  C   UNL A   1      46.061  28.135  28.445  1.00  0.00     0.173 A 
ATOM     74  C   UNL A   1      44.339  28.991  27.006  1.00  0.00     0.173 A 
ATOM     75  F   UNL A   1      46.805  28.211  29.561  1.00  0.00    -0.203 F 
ATOM     76  C   UNL A   1      46.195  27.012  27.631  1.00  0.00     0.198 A 
ATOM     77  C   UNL A   1      44.481  27.868  26.189  1.00  0.00     0.198 A 
ATOM     78  F   UNL A   1      43.381  29.882  26.715  1.00  0.00    -0.203 F 
ATOM     79  F   UNL A   1      47.054  26.041  27.971  1.00  0.00    -0.200 F 
ATOM     80  C   UNL A   1      45.384  26.866  26.519  1.00  0.00     0.200 A 
ATOM     81  F   UNL A   1      43.667  27.706  25.136  1.00  0.00    -0.200 F 
ATOM     82  F   UNL A   1      45.435  25.742  25.792  1.00  0.00    -0.200 F 
ENDBRANCH  48  72
BRANCH  60  83
ATOM     83  C   UNL A   1      42.810  35.887  29.027  1.00  0.00     0.064 A 
ATOM     84  C   UNL A   1      42.061  36.353  27.932  1.00  0.00     0.173 A 
ATOM     85  C   UNL A   1      43.497  36.890  29.757  1.00  0.00     0.173 A 
ATOM     86  F   UNL A   1      41.267  35.535  27.230  1.00  0.00    -0.203 F 
ATOM     87  C   UNL A   1      42.053  37.702  27.557  1.00  0.00     0.198 A 
ATOM     88  C   UNL A   1      43.440  38.241  29.416  1.00  0.00     0.198 A 
ATOM     89  F   UNL A   1      44.224  36.591  30.843  1.00  0.00    -0.203 F 
ATOM     90  F   UNL A   1      41.356  38.085  26.478  1.00  0.00    -0.200 F 
ATOM     91  C   UNL A   1      42.732  38.645  28.304  1.00  0.00     0.200 A 
ATOM     92  F   UNL A   1      44.058  39.149  30.184  1.00  0.00    -0.200 F 
ATOM     93  F   UNL A   1      42.682  39.941  27.968  1.00  0.00    -0.200 F 
ENDBRANCH  60  83
ENDBRANCH  34  35
ENDBRANCH  26  29
ENDBRANCH  24  25
ENDBRANCH  23  24
ENDBRANCH   1  23
TORSDOF 14
ENDMDL
