MODEL 1
REMARK VINA RESULT:     -14.8      0.000      0.000
REMARK SMILES Cc1ccccc1-c1c(Cl)ccc2c1C=C(C(=O)NCCCNC(=O)c1ccc(-c3c4nc(c(-c5c(F)c(F)c(F)c(F)c5F)c5ccc([nH]5)c(-c5c(F)c(F)c(F)c(F)c5F)c5nc(c(-c6c(F)c(F)c(F)c(F)c6F)c6ccc3[nH]6)C=C5)C=C4)cc1)[C@@H](C(F)(F)F)O2
REMARK SMILES IDX 21 1 20 2 19 3 17 4 18 5 16 7 8 8 9 9 14 10 10 11 11 12
REMARK SMILES IDX 13 13 15 14 12 15 94 16 89 17 7 18 1 19 2 20 3 21 4 22 6 23
REMARK SMILES IDX 5 24 90 25 91 26 92 27 93 28 22 29 23 30 24 31 25 33 26 34
REMARK SMILES IDX 27 35 88 36 28 37 87 38 29 39 30 40 31 41 81 42 32 43 86 44
REMARK SMILES IDX 80 45 82 46 33 47 85 48 79 49 78 50 34 52 66 53 46 54 65 55
REMARK SMILES IDX 47 56 50 57 64 58 83 59 48 60 49 61 63 63 84 64 51 65 35 66
REMARK SMILES IDX 36 67 44 68 37 69 38 70 42 71 45 72 39 73 40 74 43 75 41 76
REMARK SMILES IDX 67 77 68 78 76 79 69 80 70 81 74 82 77 83 71 84 72 85 75 86
REMARK SMILES IDX 73 87 52 88 53 89 61 90 54 91 55 92 59 93 62 94 56 95 57 96
REMARK SMILES IDX 60 97 58 98
REMARK H PARENT 19 6 23 32 82 51 50 62
REMARK Flexibility Score: inf
ROOT
ATOM      1  C   UNL A   1      38.590  21.556  25.498  1.00  0.00     0.042 C 
ENDROOT
BRANCH   1   2
ATOM      2  C   UNL A   1      37.125  21.400  25.132  1.00  0.00     0.118 C 
BRANCH   2   3
ATOM      3  N   UNL A   1      36.699  22.378  24.148  1.00  0.00    -0.352 N 
ATOM      4  C   UNL A   1      35.668  23.265  24.150  1.00  0.00     0.251 C 
ATOM      5  O   UNL A   1      35.480  23.914  23.122  1.00  0.00    -0.270 OA
ATOM      6  H   UNL A   1      37.253  22.401  23.334  1.00  0.00     0.163 HD
BRANCH   4   7
ATOM      7  C   UNL A   1      34.763  23.423  25.345  1.00  0.00     0.067 C 
ATOM      8  C   UNL A   1      32.047  25.903  24.761  1.00  0.00     0.012 A 
ATOM      9  C   UNL A   1      30.852  25.881  24.000  1.00  0.00     0.049 A 
ATOM     10  C   UNL A   1      32.749  24.675  24.897  1.00  0.00     0.027 A 
ATOM     11  Cl  UNL A   1      29.956  27.326  23.657  1.00  0.00    -0.084 Cl
ATOM     12  C   UNL A   1      30.337  24.689  23.479  1.00  0.00     0.025 A 
ATOM     13  C   UNL A   1      32.171  23.474  24.441  1.00  0.00     0.128 A 
ATOM     14  C   UNL A   1      34.126  24.607  25.432  1.00  0.00     0.026 C 
ATOM     15  C   UNL A   1      30.979  23.481  23.728  1.00  0.00     0.049 A 
ATOM     16  O   UNL A   1      32.722  22.233  24.649  1.00  0.00    -0.475 OA
ATOM     17  C   UNL A   1      33.885  22.188  25.511  1.00  0.00     0.314 C 
BRANCH   8  18
ATOM     18  C   UNL A   1      32.449  27.128  25.505  1.00  0.00    -0.013 A 
ATOM     19  C   UNL A   1      33.970  28.103  23.672  1.00  0.00     0.045 C 
ATOM     20  C   UNL A   1      33.341  28.115  25.035  1.00  0.00    -0.043 A 
ATOM     21  C   UNL A   1      33.669  29.209  25.865  1.00  0.00     0.004 A 
ATOM     22  C   UNL A   1      33.103  29.359  27.129  1.00  0.00     0.000 A 
ATOM     23  C   UNL A   1      31.896  27.306  26.795  1.00  0.00     0.009 A 
ATOM     24  C   UNL A   1      32.204  28.411  27.591  1.00  0.00     0.001 A 
ENDBRANCH   8  18
BRANCH  17  25
ATOM     25  C   UNL A   1      33.507  21.955  26.983  1.00  0.00     0.429 C 
ATOM     26  F   UNL A   1      34.368  22.576  27.822  1.00  0.00    -0.167 F 
ATOM     27  F   UNL A   1      32.273  22.453  27.249  1.00  0.00    -0.167 F 
ATOM     28  F   UNL A   1      33.485  20.644  27.323  1.00  0.00    -0.167 F 
ENDBRANCH  17  25
ENDBRANCH   4   7
ENDBRANCH   2   3
ENDBRANCH   1   2
BRANCH   1  29
ATOM     29  C   UNL A   1      38.888  22.892  26.163  1.00  0.00     0.118 C 
BRANCH  29  30
ATOM     30  N   UNL A   1      40.295  23.087  26.520  1.00  0.00    -0.352 N 
ATOM     31  C   UNL A   1      40.957  24.252  26.879  1.00  0.00     0.251 C 
ATOM     32  H   UNL A   1      40.852  22.274  26.503  1.00  0.00     0.163 HD
ATOM     33  O   UNL A   1      42.153  24.232  27.155  1.00  0.00    -0.269 OA
BRANCH  31  34
ATOM     34  C   UNL A   1      40.167  25.488  27.078  1.00  0.00     0.039 A 
ATOM     35  C   UNL A   1      40.616  26.650  26.444  1.00  0.00     0.014 A 
ATOM     36  C   UNL A   1      39.259  25.561  28.124  1.00  0.00     0.014 A 
ATOM     37  C   UNL A   1      40.414  27.877  27.068  1.00  0.00     0.010 A 
ATOM     38  C   UNL A   1      39.183  26.743  28.823  1.00  0.00     0.010 A 
ATOM     39  C   UNL A   1      39.824  27.884  28.329  1.00  0.00    -0.014 A 
BRANCH  39  40
ATOM     40  C   UNL A   1      39.834  29.038  29.215  1.00  0.00     0.031 A 
ATOM     41  C   UNL A   1      38.809  30.079  29.022  1.00  0.00     0.074 A 
ATOM     42  C   UNL A   1      40.711  29.109  30.241  1.00  0.00     0.049 A 
ATOM     43  N   UNL A   1      38.931  31.302  29.405  1.00  0.00    -0.248 NA
ATOM     44  C   UNL A   1      37.562  29.822  28.314  1.00  0.00     0.031 C 
ATOM     45  C   UNL A   1      40.683  30.047  31.361  1.00  0.00     0.029 A 
ATOM     46  N   UNL A   1      41.930  28.429  30.393  1.00  0.00    -0.354 N 
ATOM     47  C   UNL A   1      37.710  31.919  29.246  1.00  0.00     0.074 A 
ATOM     48  C   UNL A   1      36.915  30.975  28.500  1.00  0.00     0.031 C 
ATOM     49  C   UNL A   1      41.908  30.116  31.905  1.00  0.00     0.029 A 
ATOM     50  C   UNL A   1      42.794  29.323  31.075  1.00  0.00     0.049 A 
ATOM     51  H   UNL A   1      42.143  27.517  30.086  1.00  0.00     0.167 HD
ATOM     52  C   UNL A   1      37.490  33.107  29.882  1.00  0.00     0.037 A 
ATOM     53  C   UNL A   1      43.952  29.773  30.506  1.00  0.00     0.037 A 
ATOM     54  C   UNL A   1      38.722  33.577  30.523  1.00  0.00     0.049 A 
ATOM     55  C   UNL A   1      43.961  31.264  30.278  1.00  0.00     0.074 A 
ATOM     56  C   UNL A   1      39.197  33.474  31.821  1.00  0.00     0.029 A 
ATOM     57  N   UNL A   1      39.813  33.935  29.734  1.00  0.00    -0.354 N 
ATOM     58  N   UNL A   1      42.889  32.006  30.316  1.00  0.00    -0.248 NA
ATOM     59  C   UNL A   1      45.160  32.030  29.953  1.00  0.00     0.031 C 
ATOM     60  C   UNL A   1      40.597  33.694  31.794  1.00  0.00     0.029 A 
ATOM     61  C   UNL A   1      40.973  33.963  30.488  1.00  0.00     0.049 A 
ATOM     62  H   UNL A   1      39.766  34.141  28.773  1.00  0.00     0.167 HD
ATOM     63  C   UNL A   1      43.212  33.295  29.993  1.00  0.00     0.074 A 
ATOM     64  C   UNL A   1      44.651  33.266  29.805  1.00  0.00     0.031 C 
ATOM     65  C   UNL A   1      42.264  34.272  29.886  1.00  0.00     0.037 A 
BRANCH  52  66
ATOM     66  C   UNL A   1      36.116  33.677  30.181  1.00  0.00     0.064 A 
ATOM     67  C   UNL A   1      35.308  34.185  29.138  1.00  0.00     0.173 A 
ATOM     68  C   UNL A   1      35.558  33.826  31.465  1.00  0.00     0.173 A 
ATOM     69  F   UNL A   1      35.642  34.024  27.852  1.00  0.00    -0.203 F 
ATOM     70  C   UNL A   1      34.118  34.884  29.374  1.00  0.00     0.198 A 
ATOM     71  C   UNL A   1      34.398  34.570  31.709  1.00  0.00     0.198 A 
ATOM     72  F   UNL A   1      36.070  33.202  32.530  1.00  0.00    -0.203 F 
ATOM     73  F   UNL A   1      33.403  35.347  28.340  1.00  0.00    -0.200 F 
ATOM     74  C   UNL A   1      33.683  35.111  30.663  1.00  0.00     0.200 A 
ATOM     75  F   UNL A   1      33.978  34.752  32.970  1.00  0.00    -0.200 F 
ATOM     76  F   UNL A   1      32.566  35.813  30.893  1.00  0.00    -0.200 F 
ENDBRANCH  52  66
BRANCH  53  77
ATOM     77  C   UNL A   1      44.565  28.748  29.616  1.00  0.00     0.064 A 
ATOM     78  C   UNL A   1      44.413  28.957  28.230  1.00  0.00     0.173 A 
ATOM     79  C   UNL A   1      45.662  27.994  30.047  1.00  0.00     0.173 A 
ATOM     80  F   UNL A   1      43.347  29.633  27.769  1.00  0.00    -0.203 F 
ATOM     81  C   UNL A   1      45.445  28.660  27.348  1.00  0.00     0.198 A 
ATOM     82  C   UNL A   1      46.671  27.650  29.146  1.00  0.00     0.198 A 
ATOM     83  F   UNL A   1      45.836  27.727  31.348  1.00  0.00    -0.203 F 
ATOM     84  F   UNL A   1      45.377  29.076  26.075  1.00  0.00    -0.200 F 
ATOM     85  C   UNL A   1      46.595  28.050  27.818  1.00  0.00     0.200 A 
ATOM     86  F   UNL A   1      47.774  27.032  29.591  1.00  0.00    -0.200 F 
ATOM     87  F   UNL A   1      47.650  27.900  27.004  1.00  0.00    -0.200 F 
ENDBRANCH  53  77
BRANCH  65  88
ATOM     88  C   UNL A   1      42.505  35.643  29.306  1.00  0.00     0.064 A 
ATOM     89  C   UNL A   1      41.924  36.101  28.111  1.00  0.00     0.173 A 
ATOM     90  C   UNL A   1      43.256  36.604  30.023  1.00  0.00     0.173 A 
ATOM     91  F   UNL A   1      41.067  35.339  27.417  1.00  0.00    -0.203 F 
ATOM     92  C   UNL A   1      42.162  37.384  27.617  1.00  0.00     0.198 A 
ATOM     93  C   UNL A   1      43.437  37.906  29.560  1.00  0.00     0.198 A 
ATOM     94  F   UNL A   1      43.817  36.313  31.207  1.00  0.00    -0.203 F 
ATOM     95  F   UNL A   1      41.638  37.748  26.438  1.00  0.00    -0.200 F 
ATOM     96  C   UNL A   1      42.913  38.288  28.342  1.00  0.00     0.200 A 
ATOM     97  F   UNL A   1      44.112  38.791  30.308  1.00  0.00    -0.200 F 
ATOM     98  F   UNL A   1      43.111  39.530  27.882  1.00  0.00    -0.200 F 
ENDBRANCH  65  88
ENDBRANCH  39  40
ENDBRANCH  31  34
ENDBRANCH  29  30
ENDBRANCH   1  29
TORSDOF 12
ENDMDL
MODEL 2
REMARK VINA RESULT:     -14.8      4.093      9.933
REMARK SMILES Cc1ccccc1-c1c(Cl)ccc2c1C=C(C(=O)NCCCNC(=O)c1ccc(-c3c4nc(c(-c5c(F)c(F)c(F)c(F)c5F)c5ccc([nH]5)c(-c5c(F)c(F)c(F)c(F)c5F)c5nc(c(-c6c(F)c(F)c(F)c(F)c6F)c6ccc3[nH]6)C=C5)C=C4)cc1)[C@@H](C(F)(F)F)O2
REMARK SMILES IDX 21 1 20 2 19 3 17 4 18 5 16 7 8 8 9 9 14 10 10 11 11 12
REMARK SMILES IDX 13 13 15 14 12 15 94 16 89 17 7 18 1 19 2 20 3 21 4 22 6 23
REMARK SMILES IDX 5 24 90 25 91 26 92 27 93 28 22 29 23 30 24 31 25 33 26 34
REMARK SMILES IDX 27 35 88 36 28 37 87 38 29 39 30 40 31 41 81 42 32 43 86 44
REMARK SMILES IDX 80 45 82 46 33 47 85 48 79 49 78 50 34 52 66 53 46 54 65 55
REMARK SMILES IDX 47 56 50 57 64 58 83 59 48 60 49 61 63 63 84 64 51 65 35 66
REMARK SMILES IDX 36 67 44 68 37 69 38 70 42 71 45 72 39 73 40 74 43 75 41 76
REMARK SMILES IDX 67 77 68 78 76 79 69 80 70 81 74 82 77 83 71 84 72 85 75 86
REMARK SMILES IDX 73 87 52 88 53 89 61 90 54 91 55 92 59 93 62 94 56 95 57 96
REMARK SMILES IDX 60 97 58 98
REMARK H PARENT 19 6 23 32 82 51 50 62
REMARK Flexibility Score: inf
ROOT
ATOM      1  C   UNL A   1      33.067  31.206  27.439  1.00  0.00     0.042 C 
ENDROOT
BRANCH   1   2
ATOM      2  C   UNL A   1      32.258  30.359  26.474  1.00  0.00     0.118 C 
BRANCH   2   3
ATOM      3  N   UNL A   1      31.939  29.055  27.024  1.00  0.00    -0.352 N 
ATOM      4  C   UNL A   1      32.123  27.801  26.531  1.00  0.00     0.251 C 
ATOM      5  O   UNL A   1      31.658  26.865  27.180  1.00  0.00    -0.270 OA
ATOM      6  H   UNL A   1      31.511  29.083  27.911  1.00  0.00     0.163 HD
BRANCH   4   7
ATOM      7  C   UNL A   1      32.831  27.562  25.222  1.00  0.00     0.067 C 
ATOM      8  C   UNL A   1      33.038  23.948  24.349  1.00  0.00     0.012 A 
ATOM      9  C   UNL A   1      32.094  23.001  23.881  1.00  0.00     0.049 A 
ATOM     10  C   UNL A   1      32.626  25.307  24.387  1.00  0.00     0.027 A 
ATOM     11  Cl  UNL A   1      32.421  21.297  23.889  1.00  0.00    -0.084 Cl
ATOM     12  C   UNL A   1      30.841  23.393  23.395  1.00  0.00     0.025 A 
ATOM     13  C   UNL A   1      31.398  25.692  23.814  1.00  0.00     0.128 A 
ATOM     14  C   UNL A   1      33.404  26.349  25.091  1.00  0.00     0.026 C 
ATOM     15  C   UNL A   1      30.507  24.741  23.330  1.00  0.00     0.049 A 
ATOM     16  O   UNL A   1      30.985  26.997  23.693  1.00  0.00    -0.475 OA
ATOM     17  C   UNL A   1      31.956  28.008  24.057  1.00  0.00     0.314 C 
BRANCH   8  18
ATOM     18  C   UNL A   1      34.441  23.541  24.635  1.00  0.00    -0.013 A 
ATOM     19  C   UNL A   1      34.115  23.088  27.146  1.00  0.00     0.045 C 
ATOM     20  C   UNL A   1      34.947  23.179  25.901  1.00  0.00    -0.043 A 
ATOM     21  C   UNL A   1      36.314  22.854  26.038  1.00  0.00     0.004 A 
ATOM     22  C   UNL A   1      37.173  22.846  24.941  1.00  0.00     0.000 A 
ATOM     23  C   UNL A   1      35.341  23.528  23.542  1.00  0.00     0.009 A 
ATOM     24  C   UNL A   1      36.682  23.172  23.687  1.00  0.00     0.001 A 
ENDBRANCH   8  18
BRANCH  17  25
ATOM     25  C   UNL A   1      32.800  28.460  22.854  1.00  0.00     0.429 C 
ATOM     26  F   UNL A   1      32.201  29.467  22.177  1.00  0.00    -0.167 F 
ATOM     27  F   UNL A   1      34.009  28.925  23.259  1.00  0.00    -0.167 F 
ATOM     28  F   UNL A   1      33.037  27.463  21.970  1.00  0.00    -0.167 F 
ENDBRANCH  17  25
ENDBRANCH   4   7
ENDBRANCH   2   3
ENDBRANCH   1   2
BRANCH   1  29
ATOM     29  C   UNL A   1      34.442  30.618  27.722  1.00  0.00     0.118 C 
BRANCH  29  30
ATOM     30  N   UNL A   1      35.284  31.446  28.590  1.00  0.00    -0.352 N 
ATOM     31  C   UNL A   1      36.475  31.124  29.222  1.00  0.00     0.251 C 
ATOM     32  H   UNL A   1      34.958  32.362  28.746  1.00  0.00     0.163 HD
ATOM     33  O   UNL A   1      37.058  31.952  29.918  1.00  0.00    -0.269 OA
BRANCH  31  34
ATOM     34  C   UNL A   1      37.114  29.824  28.922  1.00  0.00     0.039 A 
ATOM     35  C   UNL A   1      37.412  28.984  29.999  1.00  0.00     0.014 A 
ATOM     36  C   UNL A   1      37.712  29.623  27.686  1.00  0.00     0.014 A 
ATOM     37  C   UNL A   1      38.538  28.171  29.927  1.00  0.00     0.010 A 
ATOM     38  C   UNL A   1      38.906  28.939  27.657  1.00  0.00     0.010 A 
ATOM     39  C   UNL A   1      39.353  28.274  28.803  1.00  0.00    -0.014 A 
BRANCH  39  40
ATOM     40  C   UNL A   1      40.698  27.726  28.732  1.00  0.00     0.031 A 
ATOM     41  C   UNL A   1      40.856  26.290  28.440  1.00  0.00     0.074 A 
ATOM     42  C   UNL A   1      41.777  28.533  28.849  1.00  0.00     0.049 A 
ATOM     43  N   UNL A   1      41.890  25.591  28.756  1.00  0.00    -0.248 NA
ATOM     44  C   UNL A   1      39.807  25.506  27.802  1.00  0.00     0.031 C 
ATOM     45  C   UNL A   1      43.165  28.198  28.543  1.00  0.00     0.029 A 
ATOM     46  N   UNL A   1      41.851  29.805  29.439  1.00  0.00    -0.354 N 
ATOM     47  C   UNL A   1      41.772  24.362  28.146  1.00  0.00     0.074 A 
ATOM     48  C   UNL A   1      40.428  24.337  27.624  1.00  0.00     0.031 C 
ATOM     49  C   UNL A   1      43.974  29.053  29.188  1.00  0.00     0.029 A 
ATOM     50  C   UNL A   1      43.138  29.886  30.031  1.00  0.00     0.049 A 
ATOM     51  H   UNL A   1      41.153  30.499  29.443  1.00  0.00     0.167 HD
ATOM     52  C   UNL A   1      42.881  23.569  28.053  1.00  0.00     0.037 A 
ATOM     53  C   UNL A   1      43.296  30.053  31.377  1.00  0.00     0.037 A 
ATOM     54  C   UNL A   1      43.997  24.166  28.793  1.00  0.00     0.049 A 
ATOM     55  C   UNL A   1      43.985  28.888  32.043  1.00  0.00     0.074 A 
ATOM     56  C   UNL A   1      45.066  24.953  28.394  1.00  0.00     0.029 A 
ATOM     57  N   UNL A   1      43.915  24.288  30.179  1.00  0.00    -0.354 N 
ATOM     58  N   UNL A   1      44.134  27.721  31.480  1.00  0.00    -0.248 NA
ATOM     59  C   UNL A   1      44.525  28.928  33.398  1.00  0.00     0.031 C 
ATOM     60  C   UNL A   1      45.576  25.612  29.541  1.00  0.00     0.029 A 
ATOM     61  C   UNL A   1      44.842  25.205  30.643  1.00  0.00     0.049 A 
ATOM     62  H   UNL A   1      43.286  23.792  30.748  1.00  0.00     0.167 HD
ATOM     63  C   UNL A   1      44.724  26.858  32.363  1.00  0.00     0.074 A 
ATOM     64  C   UNL A   1      44.978  27.670  33.540  1.00  0.00     0.031 C 
ATOM     65  C   UNL A   1      44.932  25.543  32.058  1.00  0.00     0.037 A 
BRANCH  52  66
ATOM     66  C   UNL A   1      43.042  22.436  27.058  1.00  0.00     0.064 A 
ATOM     67  C   UNL A   1      42.291  21.245  27.198  1.00  0.00     0.173 A 
ATOM     68  C   UNL A   1      43.960  22.413  25.991  1.00  0.00     0.173 A 
ATOM     69  F   UNL A   1      41.300  21.145  28.092  1.00  0.00    -0.203 F 
ATOM     70  C   UNL A   1      42.529  20.104  26.423  1.00  0.00     0.198 A 
ATOM     71  C   UNL A   1      44.238  21.258  25.250  1.00  0.00     0.198 A 
ATOM     72  F   UNL A   1      44.578  23.522  25.572  1.00  0.00    -0.203 F 
ATOM     73  F   UNL A   1      41.786  19.005  26.612  1.00  0.00    -0.200 F 
ATOM     74  C   UNL A   1      43.530  20.098  25.474  1.00  0.00     0.200 A 
ATOM     75  F   UNL A   1      45.196  21.285  24.312  1.00  0.00    -0.200 F 
ATOM     76  F   UNL A   1      43.786  18.995  24.759  1.00  0.00    -0.200 F 
ENDBRANCH  52  66
BRANCH  53  77
ATOM     77  C   UNL A   1      42.202  30.874  31.965  1.00  0.00     0.064 A 
ATOM     78  C   UNL A   1      41.199  30.168  32.660  1.00  0.00     0.173 A 
ATOM     79  C   UNL A   1      42.423  32.210  32.316  1.00  0.00     0.173 A 
ATOM     80  F   UNL A   1      40.919  28.898  32.322  1.00  0.00    -0.203 F 
ATOM     81  C   UNL A   1      40.639  30.686  33.822  1.00  0.00     0.198 A 
ATOM     82  C   UNL A   1      41.814  32.745  33.453  1.00  0.00     0.198 A 
ATOM     83  F   UNL A   1      43.334  32.945  31.663  1.00  0.00    -0.203 F 
ATOM     84  F   UNL A   1      39.863  29.910  34.593  1.00  0.00    -0.200 F 
ATOM     85  C   UNL A   1      40.986  31.958  34.243  1.00  0.00     0.200 A 
ATOM     86  F   UNL A   1      42.124  33.987  33.849  1.00  0.00    -0.200 F 
ATOM     87  F   UNL A   1      40.567  32.402  35.437  1.00  0.00    -0.200 F 
ENDBRANCH  53  77
BRANCH  65  88
ATOM     88  C   UNL A   1      45.350  24.487  33.050  1.00  0.00     0.064 A 
ATOM     89  C   UNL A   1      44.548  23.390  33.410  1.00  0.00     0.173 A 
ATOM     90  C   UNL A   1      46.657  24.488  33.592  1.00  0.00     0.173 A 
ATOM     91  F   UNL A   1      43.348  23.191  32.847  1.00  0.00    -0.203 F 
ATOM     92  C   UNL A   1      44.980  22.426  34.322  1.00  0.00     0.198 A 
ATOM     93  C   UNL A   1      47.109  23.487  34.451  1.00  0.00     0.198 A 
ATOM     94  F   UNL A   1      47.542  25.448  33.283  1.00  0.00    -0.203 F 
ATOM     95  F   UNL A   1      44.151  21.436  34.683  1.00  0.00    -0.200 F 
ATOM     96  C   UNL A   1      46.260  22.471  34.838  1.00  0.00     0.200 A 
ATOM     97  F   UNL A   1      48.375  23.508  34.889  1.00  0.00    -0.200 F 
ATOM     98  F   UNL A   1      46.683  21.525  35.687  1.00  0.00    -0.200 F 
ENDBRANCH  65  88
ENDBRANCH  39  40
ENDBRANCH  31  34
ENDBRANCH  29  30
ENDBRANCH   1  29
TORSDOF 12
ENDMDL
MODEL 3
REMARK VINA RESULT:     -14.5      2.466      3.740
REMARK SMILES Cc1ccccc1-c1c(Cl)ccc2c1C=C(C(=O)NCCCNC(=O)c1ccc(-c3c4nc(c(-c5c(F)c(F)c(F)c(F)c5F)c5ccc([nH]5)c(-c5c(F)c(F)c(F)c(F)c5F)c5nc(c(-c6c(F)c(F)c(F)c(F)c6F)c6ccc3[nH]6)C=C5)C=C4)cc1)[C@@H](C(F)(F)F)O2
REMARK SMILES IDX 21 1 20 2 19 3 17 4 18 5 16 7 8 8 9 9 14 10 10 11 11 12
REMARK SMILES IDX 13 13 15 14 12 15 94 16 89 17 7 18 1 19 2 20 3 21 4 22 6 23
REMARK SMILES IDX 5 24 90 25 91 26 92 27 93 28 22 29 23 30 24 31 25 33 26 34
REMARK SMILES IDX 27 35 88 36 28 37 87 38 29 39 30 40 31 41 81 42 32 43 86 44
REMARK SMILES IDX 80 45 82 46 33 47 85 48 79 49 78 50 34 52 66 53 46 54 65 55
REMARK SMILES IDX 47 56 50 57 64 58 83 59 48 60 49 61 63 63 84 64 51 65 35 66
REMARK SMILES IDX 36 67 44 68 37 69 38 70 42 71 45 72 39 73 40 74 43 75 41 76
REMARK SMILES IDX 67 77 68 78 76 79 69 80 70 81 74 82 77 83 71 84 72 85 75 86
REMARK SMILES IDX 73 87 52 88 53 89 61 90 54 91 55 92 59 93 62 94 56 95 57 96
REMARK SMILES IDX 60 97 58 98
REMARK H PARENT 19 6 23 32 82 51 50 62
REMARK Flexibility Score: inf
ROOT
ATOM      1  C   UNL A   1      38.440  22.314  26.117  1.00  0.00     0.042 C 
ENDROOT
BRANCH   1   2
ATOM      2  C   UNL A   1      37.899  23.694  25.793  1.00  0.00     0.118 C 
BRANCH   2   3
ATOM      3  N   UNL A   1      37.099  23.700  24.582  1.00  0.00    -0.352 N 
ATOM      4  C   UNL A   1      35.752  23.719  24.394  1.00  0.00     0.251 C 
ATOM      5  O   UNL A   1      35.342  23.616  23.239  1.00  0.00    -0.270 OA
ATOM      6  H   UNL A   1      37.625  23.685  23.749  1.00  0.00     0.163 HD
BRANCH   4   7
ATOM      7  C   UNL A   1      34.793  23.820  25.552  1.00  0.00     0.067 C 
ATOM      8  C   UNL A   1      31.902  26.051  24.824  1.00  0.00     0.012 A 
ATOM      9  C   UNL A   1      30.742  25.915  24.022  1.00  0.00     0.049 A 
ATOM     10  C   UNL A   1      32.699  24.890  25.009  1.00  0.00     0.027 A 
ATOM     11  Cl  UNL A   1      29.742  27.274  23.618  1.00  0.00    -0.084 Cl
ATOM     12  C   UNL A   1      30.349  24.675  23.506  1.00  0.00     0.025 A 
ATOM     13  C   UNL A   1      32.242  23.636  24.557  1.00  0.00     0.128 A 
ATOM     14  C   UNL A   1      34.056  24.947  25.593  1.00  0.00     0.026 C 
ATOM     15  C   UNL A   1      31.080  23.531  23.802  1.00  0.00     0.049 A 
ATOM     16  O   UNL A   1      32.887  22.449  24.809  1.00  0.00    -0.475 OA
ATOM     17  C   UNL A   1      34.017  22.517  25.712  1.00  0.00     0.314 C 
BRANCH   8  18
ATOM     18  C   UNL A   1      32.173  27.318  25.557  1.00  0.00    -0.013 A 
ATOM     19  C   UNL A   1      33.605  28.422  23.727  1.00  0.00     0.045 C 
ATOM     20  C   UNL A   1      32.965  28.384  25.084  1.00  0.00    -0.043 A 
ATOM     21  C   UNL A   1      33.174  29.514  25.904  1.00  0.00     0.004 A 
ATOM     22  C   UNL A   1      32.583  29.620  27.161  1.00  0.00     0.000 A 
ATOM     23  C   UNL A   1      31.592  27.453  26.840  1.00  0.00     0.009 A 
ATOM     24  C   UNL A   1      31.779  28.592  27.626  1.00  0.00     0.001 A 
ENDBRANCH   8  18
BRANCH  17  25
ATOM     25  C   UNL A   1      33.605  22.278  27.173  1.00  0.00     0.429 C 
ATOM     26  F   UNL A   1      33.605  20.960  27.481  1.00  0.00    -0.167 F 
ATOM     27  F   UNL A   1      34.474  22.879  28.025  1.00  0.00    -0.167 F 
ATOM     28  F   UNL A   1      32.373  22.760  27.462  1.00  0.00    -0.167 F 
ENDBRANCH  17  25
ENDBRANCH   4   7
ENDBRANCH   2   3
ENDBRANCH   1   2
BRANCH   1  29
ATOM     29  C   UNL A   1      39.895  22.346  26.560  1.00  0.00     0.118 C 
BRANCH  29  30
ATOM     30  N   UNL A   1      40.738  21.323  25.934  1.00  0.00    -0.352 N 
ATOM     31  C   UNL A   1      42.114  21.165  25.991  1.00  0.00     0.251 C 
ATOM     32  H   UNL A   1      40.258  20.651  25.397  1.00  0.00     0.163 HD
ATOM     33  O   UNL A   1      42.662  20.236  25.403  1.00  0.00    -0.269 OA
BRANCH  31  34
ATOM     34  C   UNL A   1      42.896  22.036  26.897  1.00  0.00     0.039 A 
ATOM     35  C   UNL A   1      42.670  21.909  28.271  1.00  0.00     0.014 A 
ATOM     36  C   UNL A   1      43.533  23.158  26.388  1.00  0.00     0.014 A 
ATOM     37  C   UNL A   1      42.780  23.037  29.077  1.00  0.00     0.010 A 
ATOM     38  C   UNL A   1      43.501  24.308  27.142  1.00  0.00     0.010 A 
ATOM     39  C   UNL A   1      43.054  24.258  28.467  1.00  0.00    -0.014 A 
BRANCH  39  40
ATOM     40  C   UNL A   1      42.893  25.543  29.129  1.00  0.00     0.031 A 
ATOM     41  C   UNL A   1      41.735  26.379  28.766  1.00  0.00     0.074 A 
ATOM     42  C   UNL A   1      43.739  25.921  30.113  1.00  0.00     0.049 A 
ATOM     43  N   UNL A   1      41.681  27.656  28.919  1.00  0.00    -0.248 NA
ATOM     44  C   UNL A   1      40.544  25.827  28.134  1.00  0.00     0.031 C 
ATOM     45  C   UNL A   1      43.569  27.032  31.045  1.00  0.00     0.029 A 
ATOM     46  N   UNL A   1      45.040  25.455  30.367  1.00  0.00    -0.354 N 
ATOM     47  C   UNL A   1      40.387  28.058  28.669  1.00  0.00     0.074 A 
ATOM     48  C   UNL A   1      39.740  26.893  28.117  1.00  0.00     0.031 C 
ATOM     49  C   UNL A   1      44.765  27.368  31.549  1.00  0.00     0.029 A 
ATOM     50  C   UNL A   1      45.763  26.570  30.864  1.00  0.00     0.049 A 
ATOM     51  H   UNL A   1      45.381  24.542  30.228  1.00  0.00     0.167 HD
ATOM     52  C   UNL A   1      39.997  29.299  29.082  1.00  0.00     0.037 A 
ATOM     53  C   UNL A   1      46.853  27.066  30.206  1.00  0.00     0.037 A 
ATOM     54  C   UNL A   1      41.144  30.044  29.610  1.00  0.00     0.049 A 
ATOM     55  C   UNL A   1      46.657  28.478  29.712  1.00  0.00     0.074 A 
ATOM     56  C   UNL A   1      41.614  30.245  30.899  1.00  0.00     0.029 A 
ATOM     57  N   UNL A   1      42.183  30.402  28.753  1.00  0.00    -0.354 N 
ATOM     58  N   UNL A   1      45.491  29.057  29.631  1.00  0.00    -0.248 NA
ATOM     59  C   UNL A   1      47.741  29.331  29.236  1.00  0.00     0.031 C 
ATOM     60  C   UNL A   1      42.970  30.650  30.812  1.00  0.00     0.029 A 
ATOM     61  C   UNL A   1      43.320  30.727  29.473  1.00  0.00     0.049 A 
ATOM     62  H   UNL A   1      42.119  30.421  27.772  1.00  0.00     0.167 HD
ATOM     63  C   UNL A   1      45.635  30.299  29.075  1.00  0.00     0.074 A 
ATOM     64  C   UNL A   1      47.066  30.437  28.874  1.00  0.00     0.031 C 
ATOM     65  C   UNL A   1      44.561  31.099  28.806  1.00  0.00     0.037 A 
BRANCH  52  66
ATOM     66  C   UNL A   1      38.553  29.717  29.293  1.00  0.00     0.064 A 
ATOM     67  C   UNL A   1      37.740  30.069  28.191  1.00  0.00     0.173 A 
ATOM     68  C   UNL A   1      37.923  29.867  30.543  1.00  0.00     0.173 A 
ATOM     69  F   UNL A   1      38.150  29.881  26.931  1.00  0.00    -0.203 F 
ATOM     70  C   UNL A   1      36.468  30.633  28.339  1.00  0.00     0.198 A 
ATOM     71  C   UNL A   1      36.674  30.480  30.697  1.00  0.00     0.198 A 
ATOM     72  F   UNL A   1      38.455  29.365  31.662  1.00  0.00    -0.203 F 
ATOM     73  F   UNL A   1      35.752  30.953  27.252  1.00  0.00    -0.200 F 
ATOM     74  C   UNL A   1      35.950  30.875  29.594  1.00  0.00     0.200 A 
ATOM     75  F   UNL A   1      36.178  30.677  31.927  1.00  0.00    -0.200 F 
ATOM     76  F   UNL A   1      34.750  31.451  29.738  1.00  0.00    -0.200 F 
ENDBRANCH  52  66
BRANCH  53  77
ATOM     77  C   UNL A   1      47.613  25.992  29.508  1.00  0.00     0.064 A 
ATOM     78  C   UNL A   1      47.352  25.841  28.130  1.00  0.00     0.173 A 
ATOM     79  C   UNL A   1      48.859  25.573  29.987  1.00  0.00     0.173 A 
ATOM     80  F   UNL A   1      46.151  26.184  27.636  1.00  0.00    -0.203 F 
ATOM     81  C   UNL A   1      48.378  25.542  27.241  1.00  0.00     0.198 A 
ATOM     82  C   UNL A   1      49.870  25.219  29.092  1.00  0.00     0.198 A 
ATOM     83  F   UNL A   1      49.148  25.653  31.293  1.00  0.00    -0.203 F 
ATOM     84  F   UNL A   1      48.163  25.630  25.920  1.00  0.00    -0.200 F 
ATOM     85  C   UNL A   1      49.649  25.279  27.721  1.00  0.00     0.200 A 
ATOM     86  F   UNL A   1      51.095  24.935  29.554  1.00  0.00    -0.200 F 
ATOM     87  F   UNL A   1      50.670  25.140  26.864  1.00  0.00    -0.200 F 
ENDBRANCH  53  77
BRANCH  65  88
ATOM     88  C   UNL A   1      44.615  32.362  27.985  1.00  0.00     0.064 A 
ATOM     89  C   UNL A   1      44.196  32.443  26.646  1.00  0.00     0.173 A 
ATOM     90  C   UNL A   1      44.990  33.589  28.580  1.00  0.00     0.173 A 
ATOM     91  F   UNL A   1      43.673  31.383  26.014  1.00  0.00    -0.203 F 
ATOM     92  C   UNL A   1      44.249  33.637  25.925  1.00  0.00     0.198 A 
ATOM     93  C   UNL A   1      44.978  34.793  27.876  1.00  0.00     0.198 A 
ATOM     94  F   UNL A   1      45.356  33.660  29.868  1.00  0.00    -0.203 F 
ATOM     95  F   UNL A   1      43.901  33.646  24.630  1.00  0.00    -0.200 F 
ATOM     96  C   UNL A   1      44.634  34.812  26.540  1.00  0.00     0.200 A 
ATOM     97  F   UNL A   1      45.290  35.935  28.505  1.00  0.00    -0.200 F 
ATOM     98  F   UNL A   1      44.650  35.963  25.855  1.00  0.00    -0.200 F 
ENDBRANCH  65  88
ENDBRANCH  39  40
ENDBRANCH  31  34
ENDBRANCH  29  30
ENDBRANCH   1  29
TORSDOF 12
ENDMDL
