MODEL 1
REMARK VINA RESULT:     -13.6      0.000      0.000
REMARK SMILES COc1ccc(NS(=O)(=O)c2ccc(Cl)c(C(=O)NCCCNC(=O)c3ccc(-c4c5nc(c(-c6c(F)c(F)c(F)c(F)c6F)c6ccc([nH]6)c(-c6c(F)c(F)c(F)c(F)c6F)c6nc(c(-c7c(F)c(F)c(F)c(F)c7F)c7ccc4[nH]7)C=C6)C=C5)cc3)c2)cc1Cl
REMARK SMILES IDX 20 1 19 2 17 3 18 4 16 6 11 7 12 8 89 9 13 10 14 11 15 12
REMARK SMILES IDX 8 13 9 14 10 15 7 16 6 18 3 19 4 20 91 21 5 22 90 23 92 24
REMARK SMILES IDX 2 25 1 26 21 27 22 28 23 29 24 30 25 32 26 33 27 34 88 35
REMARK SMILES IDX 28 36 87 37 29 38 30 39 31 40 81 41 32 42 86 43 80 44 82 45
REMARK SMILES IDX 33 46 85 47 79 48 78 49 34 51 66 52 46 53 65 54 47 55 50 56
REMARK SMILES IDX 64 57 83 58 48 59 49 60 63 62 84 63 51 64 35 65 36 66 44 67
REMARK SMILES IDX 37 68 38 69 42 70 45 71 39 72 40 73 43 74 41 75 67 76 68 77
REMARK SMILES IDX 76 78 69 79 70 80 74 81 77 82 71 83 72 84 75 85 73 86 52 87
REMARK SMILES IDX 53 88 61 89 54 90 55 91 59 92 62 93 56 94 57 95 60 96 58 97
REMARK H PARENT 19 5 7 17 23 31 82 50 50 61
REMARK Flexibility Score: inf
ROOT
ATOM      1  C   UNL A   1      31.715  30.854  26.303  1.00  0.00     0.118 C 
ENDROOT
BRANCH   1   2
ATOM      2  N   UNL A   1      31.059  30.447  25.077  1.00  0.00    -0.352 N 
ATOM      3  C   UNL A   1      31.075  29.271  24.368  1.00  0.00     0.252 C 
ATOM      4  O   UNL A   1      30.305  29.200  23.408  1.00  0.00    -0.269 OA
ATOM      5  H   UNL A   1      30.494  31.147  24.676  1.00  0.00     0.163 HD
BRANCH   3   6
ATOM      6  C   UNL A   1      32.015  28.133  24.609  1.00  0.00     0.059 A 
ATOM      7  C   UNL A   1      33.293  26.342  23.564  1.00  0.00     0.088 A 
ATOM      8  C   UNL A   1      33.929  26.049  24.765  1.00  0.00     0.024 A 
ATOM      9  C   UNL A   1      32.456  27.459  23.449  1.00  0.00     0.037 A 
ATOM     10  C   UNL A   1      33.465  26.669  25.917  1.00  0.00     0.023 A 
ATOM     11  C   UNL A   1      32.404  27.586  25.840  1.00  0.00     0.053 A 
ATOM     12  Cl  UNL A   1      31.382  27.595  27.250  1.00  0.00    -0.083 Cl
BRANCH   7  13
ATOM     13  S   UNL A   1      33.387  25.161  22.246  1.00  0.00     0.261 S 
ATOM     14  O   UNL A   1      34.548  24.329  22.499  1.00  0.00    -0.201 OA
ATOM     15  O   UNL A   1      33.253  25.868  20.993  1.00  0.00    -0.201 OA
BRANCH  13  16
ATOM     16  N   UNL A   1      32.028  24.123  22.377  1.00  0.00    -0.280 N 
ATOM     17  H   UNL A   1      31.210  24.359  21.884  1.00  0.00     0.180 HD
BRANCH  16  18
ATOM     18  C   UNL A   1      32.022  22.916  23.176  1.00  0.00     0.051 A 
ATOM     19  C   UNL A   1      32.296  20.590  24.774  1.00  0.00     0.137 A 
ATOM     20  C   UNL A   1      32.281  20.502  23.385  1.00  0.00     0.050 A 
ATOM     21  C   UNL A   1      32.265  21.858  25.365  1.00  0.00     0.085 A 
ATOM     22  C   UNL A   1      32.197  21.659  22.601  1.00  0.00     0.030 A 
ATOM     23  C   UNL A   1      32.106  23.009  24.569  1.00  0.00     0.051 A 
ATOM     24  Cl  UNL A   1      32.540  22.091  27.054  1.00  0.00    -0.080 Cl
BRANCH  19  25
ATOM     25  O   UNL A   1      32.499  19.409  25.433  1.00  0.00    -0.495 OA
ATOM     26  C   UNL A   1      32.387  18.254  24.603  1.00  0.00     0.278 C 
ENDBRANCH  19  25
ENDBRANCH  16  18
ENDBRANCH  13  16
ENDBRANCH   7  13
ENDBRANCH   3   6
ENDBRANCH   1   2
BRANCH   1  27
ATOM     27  C   UNL A   1      31.494  32.293  26.715  1.00  0.00     0.042 C 
BRANCH  27  28
ATOM     28  C   UNL A   1      32.730  33.022  27.200  1.00  0.00     0.118 C 
BRANCH  28  29
ATOM     29  N   UNL A   1      32.454  34.364  27.703  1.00  0.00    -0.352 N 
ATOM     30  C   UNL A   1      32.994  35.079  28.746  1.00  0.00     0.251 C 
ATOM     31  H   UNL A   1      31.754  34.844  27.205  1.00  0.00     0.163 HD
ATOM     32  O   UNL A   1      32.473  36.140  29.084  1.00  0.00    -0.269 OA
BRANCH  30  33
ATOM     33  C   UNL A   1      34.171  34.579  29.490  1.00  0.00     0.039 A 
ATOM     34  C   UNL A   1      33.997  34.074  30.784  1.00  0.00     0.014 A 
ATOM     35  C   UNL A   1      35.450  34.620  28.937  1.00  0.00     0.014 A 
ATOM     36  C   UNL A   1      35.086  33.534  31.475  1.00  0.00     0.010 A 
ATOM     37  C   UNL A   1      36.503  33.968  29.568  1.00  0.00     0.010 A 
ATOM     38  C   UNL A   1      36.337  33.429  30.851  1.00  0.00    -0.014 A 
BRANCH  38  39
ATOM     39  C   UNL A   1      37.496  32.779  31.517  1.00  0.00     0.031 A 
ATOM     40  C   UNL A   1      38.177  31.605  30.868  1.00  0.00     0.074 A 
ATOM     41  C   UNL A   1      37.876  33.187  32.745  1.00  0.00     0.049 A 
ATOM     42  N   UNL A   1      39.133  30.840  31.331  1.00  0.00    -0.248 NA
ATOM     43  C   UNL A   1      37.694  31.213  29.533  1.00  0.00     0.031 C 
ATOM     44  C   UNL A   1      37.253  34.271  33.506  1.00  0.00     0.029 A 
ATOM     45  N   UNL A   1      38.866  32.726  33.576  1.00  0.00    -0.354 N 
ATOM     46  C   UNL A   1      39.343  29.868  30.361  1.00  0.00     0.074 A 
ATOM     47  C   UNL A   1      38.374  30.099  29.313  1.00  0.00     0.031 C 
ATOM     48  C   UNL A   1      37.889  34.407  34.680  1.00  0.00     0.029 A 
ATOM     49  C   UNL A   1      38.933  33.393  34.775  1.00  0.00     0.049 A 
ATOM     50  H   UNL A   1      39.470  31.988  33.335  1.00  0.00     0.167 HD
ATOM     51  C   UNL A   1      40.277  28.888  30.333  1.00  0.00     0.037 A 
ATOM     52  C   UNL A   1      39.738  33.200  35.837  1.00  0.00     0.037 A 
ATOM     53  C   UNL A   1      41.261  28.685  31.364  1.00  0.00     0.049 A 
ATOM     54  C   UNL A   1      40.774  32.110  35.779  1.00  0.00     0.074 A 
ATOM     55  C   UNL A   1      42.302  27.776  31.396  1.00  0.00     0.029 A 
ATOM     56  N   UNL A   1      41.319  29.404  32.550  1.00  0.00    -0.354 N 
ATOM     57  N   UNL A   1      41.020  31.251  34.819  1.00  0.00    -0.248 NA
ATOM     58  C   UNL A   1      41.652  31.968  36.949  1.00  0.00     0.031 C 
ATOM     59  C   UNL A   1      42.954  27.902  32.627  1.00  0.00     0.029 A 
ATOM     60  C   UNL A   1      42.360  28.935  33.335  1.00  0.00     0.049 A 
ATOM     61  H   UNL A   1      40.711  30.138  32.797  1.00  0.00     0.167 HD
ATOM     62  C   UNL A   1      42.093  30.486  35.254  1.00  0.00     0.074 A 
ATOM     63  C   UNL A   1      42.464  30.994  36.559  1.00  0.00     0.031 C 
ATOM     64  C   UNL A   1      42.717  29.455  34.631  1.00  0.00     0.037 A 
BRANCH  51  65
ATOM     65  C   UNL A   1      40.279  27.961  29.150  1.00  0.00     0.064 A 
ATOM     66  C   UNL A   1      39.537  26.768  29.140  1.00  0.00     0.173 A 
ATOM     67  C   UNL A   1      41.013  28.282  27.998  1.00  0.00     0.173 A 
ATOM     68  F   UNL A   1      38.826  26.407  30.219  1.00  0.00    -0.203 F 
ATOM     69  C   UNL A   1      39.562  25.915  28.040  1.00  0.00     0.198 A 
ATOM     70  C   UNL A   1      41.006  27.445  26.884  1.00  0.00     0.198 A 
ATOM     71  F   UNL A   1      41.734  29.412  27.947  1.00  0.00    -0.203 F 
ATOM     72  F   UNL A   1      38.896  24.753  28.080  1.00  0.00    -0.200 F 
ATOM     73  C   UNL A   1      40.290  26.258  26.910  1.00  0.00     0.200 A 
ATOM     74  F   UNL A   1      41.698  27.786  25.789  1.00  0.00    -0.200 F 
ATOM     75  F   UNL A   1      40.308  25.439  25.849  1.00  0.00    -0.200 F 
ENDBRANCH  51  65
BRANCH  52  76
ATOM     76  C   UNL A   1      39.606  34.069  37.036  1.00  0.00     0.064 A 
ATOM     77  C   UNL A   1      38.825  33.674  38.131  1.00  0.00     0.173 A 
ATOM     78  C   UNL A   1      40.262  35.306  37.117  1.00  0.00     0.173 A 
ATOM     79  F   UNL A   1      38.164  32.507  38.096  1.00  0.00    -0.203 F 
ATOM     80  C   UNL A   1      38.687  34.492  39.251  1.00  0.00     0.198 A 
ATOM     81  C   UNL A   1      40.149  36.109  38.249  1.00  0.00     0.198 A 
ATOM     82  F   UNL A   1      41.030  35.727  36.101  1.00  0.00    -0.203 F 
ATOM     83  F   UNL A   1      37.896  34.111  40.264  1.00  0.00    -0.200 F 
ATOM     84  C   UNL A   1      39.354  35.707  39.311  1.00  0.00     0.200 A 
ATOM     85  F   UNL A   1      40.810  37.273  38.311  1.00  0.00    -0.200 F 
ATOM     86  F   UNL A   1      39.227  36.490  40.391  1.00  0.00    -0.200 F 
ENDBRANCH  52  76
BRANCH  64  87
ATOM     87  C   UNL A   1      43.886  28.830  35.335  1.00  0.00     0.064 A 
ATOM     88  C   UNL A   1      45.195  29.298  35.149  1.00  0.00     0.173 A 
ATOM     89  C   UNL A   1      43.687  27.779  36.243  1.00  0.00     0.173 A 
ATOM     90  F   UNL A   1      45.441  30.292  34.282  1.00  0.00    -0.203 F 
ATOM     91  C   UNL A   1      46.265  28.717  35.827  1.00  0.00     0.198 A 
ATOM     92  C   UNL A   1      44.754  27.224  36.944  1.00  0.00     0.198 A 
ATOM     93  F   UNL A   1      42.454  27.299  36.463  1.00  0.00    -0.203 F 
ATOM     94  F   UNL A   1      47.514  29.146  35.595  1.00  0.00    -0.200 F 
ATOM     95  C   UNL A   1      46.042  27.688  36.728  1.00  0.00     0.200 A 
ATOM     96  F   UNL A   1      44.534  26.242  37.828  1.00  0.00    -0.200 F 
ATOM     97  F   UNL A   1      47.072  27.138  37.387  1.00  0.00    -0.200 F 
ENDBRANCH  64  87
ENDBRANCH  38  39
ENDBRANCH  30  33
ENDBRANCH  28  29
ENDBRANCH  27  28
ENDBRANCH   1  27
TORSDOF 14
ENDMDL
MODEL 2
REMARK VINA RESULT:     -13.6      0.193      1.927
REMARK SMILES COc1ccc(NS(=O)(=O)c2ccc(Cl)c(C(=O)NCCCNC(=O)c3ccc(-c4c5nc(c(-c6c(F)c(F)c(F)c(F)c6F)c6ccc([nH]6)c(-c6c(F)c(F)c(F)c(F)c6F)c6nc(c(-c7c(F)c(F)c(F)c(F)c7F)c7ccc4[nH]7)C=C6)C=C5)cc3)c2)cc1Cl
REMARK SMILES IDX 20 1 19 2 17 3 18 4 16 6 11 7 12 8 89 9 13 10 14 11 15 12
REMARK SMILES IDX 8 13 9 14 10 15 7 16 6 18 3 19 4 20 91 21 5 22 90 23 92 24
REMARK SMILES IDX 2 25 1 26 21 27 22 28 23 29 24 30 25 32 26 33 27 34 88 35
REMARK SMILES IDX 28 36 87 37 29 38 30 39 31 40 81 41 32 42 86 43 80 44 82 45
REMARK SMILES IDX 33 46 85 47 79 48 78 49 34 51 66 52 46 53 65 54 47 55 50 56
REMARK SMILES IDX 64 57 83 58 48 59 49 60 63 62 84 63 51 64 35 65 36 66 44 67
REMARK SMILES IDX 37 68 38 69 42 70 45 71 39 72 40 73 43 74 41 75 67 76 68 77
REMARK SMILES IDX 76 78 69 79 70 80 74 81 77 82 71 83 72 84 75 85 73 86 52 87
REMARK SMILES IDX 53 88 61 89 54 90 55 91 59 92 62 93 56 94 57 95 60 96 58 97
REMARK H PARENT 19 5 7 17 23 31 82 50 50 61
REMARK Flexibility Score: inf
ROOT
ATOM      1  C   UNL A   1      31.650  30.780  26.192  1.00  0.00     0.118 C 
ENDROOT
BRANCH   1   2
ATOM      2  N   UNL A   1      31.025  30.360  24.955  1.00  0.00    -0.352 N 
ATOM      3  C   UNL A   1      31.068  29.178  24.254  1.00  0.00     0.252 C 
ATOM      4  O   UNL A   1      30.319  29.095  23.278  1.00  0.00    -0.269 OA
ATOM      5  H   UNL A   1      30.463  31.051  24.537  1.00  0.00     0.163 HD
BRANCH   3   6
ATOM      6  C   UNL A   1      32.012  28.051  24.523  1.00  0.00     0.059 A 
ATOM      7  C   UNL A   1      33.298  26.241  23.522  1.00  0.00     0.088 A 
ATOM      8  C   UNL A   1      33.935  25.980  24.731  1.00  0.00     0.024 A 
ATOM      9  C   UNL A   1      32.457  27.352  23.380  1.00  0.00     0.037 A 
ATOM     10  C   UNL A   1      33.467  26.625  25.867  1.00  0.00     0.023 A 
ATOM     11  C   UNL A   1      32.402  27.536  25.767  1.00  0.00     0.053 A 
ATOM     12  Cl  UNL A   1      31.380  27.574  27.175  1.00  0.00    -0.083 Cl
BRANCH   7  13
ATOM     13  S   UNL A   1      33.399  25.030  22.233  1.00  0.00     0.261 S 
ATOM     14  O   UNL A   1      34.554  24.199  22.514  1.00  0.00    -0.201 OA
ATOM     15  O   UNL A   1      33.278  25.707  20.963  1.00  0.00    -0.201 OA
BRANCH  13  16
ATOM     16  N   UNL A   1      32.035  23.999  22.377  1.00  0.00    -0.280 N 
ATOM     17  H   UNL A   1      31.211  24.245  21.897  1.00  0.00     0.180 HD
BRANCH  16  18
ATOM     18  C   UNL A   1      32.032  22.787  23.168  1.00  0.00     0.051 A 
ATOM     19  C   UNL A   1      32.315  20.445  24.739  1.00  0.00     0.137 A 
ATOM     20  C   UNL A   1      32.240  20.366  23.352  1.00  0.00     0.050 A 
ATOM     21  C   UNL A   1      32.340  21.708  25.338  1.00  0.00     0.085 A 
ATOM     22  C   UNL A   1      32.152  21.531  22.579  1.00  0.00     0.030 A 
ATOM     23  C   UNL A   1      32.176  22.868  24.557  1.00  0.00     0.051 A 
ATOM     24  Cl  UNL A   1      32.690  21.923  27.016  1.00  0.00    -0.080 Cl
BRANCH  19  25
ATOM     25  O   UNL A   1      32.516  19.254  25.382  1.00  0.00    -0.495 OA
ATOM     26  C   UNL A   1      32.533  18.121  24.514  1.00  0.00     0.278 C 
ENDBRANCH  19  25
ENDBRANCH  16  18
ENDBRANCH  13  16
ENDBRANCH   7  13
ENDBRANCH   3   6
ENDBRANCH   1   2
BRANCH   1  27
ATOM     27  C   UNL A   1      31.509  32.248  26.530  1.00  0.00     0.042 C 
BRANCH  27  28
ATOM     28  C   UNL A   1      32.704  32.869  27.223  1.00  0.00     0.118 C 
BRANCH  28  29
ATOM     29  N   UNL A   1      32.463  34.231  27.689  1.00  0.00    -0.352 N 
ATOM     30  C   UNL A   1      33.023  34.961  28.711  1.00  0.00     0.251 C 
ATOM     31  H   UNL A   1      31.774  34.715  27.178  1.00  0.00     0.163 HD
ATOM     32  O   UNL A   1      32.529  36.043  29.020  1.00  0.00    -0.269 OA
BRANCH  30  33
ATOM     33  C   UNL A   1      34.188  34.451  29.468  1.00  0.00     0.039 A 
ATOM     34  C   UNL A   1      33.976  33.794  30.685  1.00  0.00     0.014 A 
ATOM     35  C   UNL A   1      35.489  34.632  29.003  1.00  0.00     0.014 A 
ATOM     36  C   UNL A   1      35.059  33.246  31.380  1.00  0.00     0.010 A 
ATOM     37  C   UNL A   1      36.547  33.977  29.623  1.00  0.00     0.010 A 
ATOM     38  C   UNL A   1      36.348  33.287  30.826  1.00  0.00    -0.014 A 
BRANCH  38  39
ATOM     39  C   UNL A   1      37.509  32.638  31.488  1.00  0.00     0.031 A 
ATOM     40  C   UNL A   1      38.209  31.486  30.820  1.00  0.00     0.074 A 
ATOM     41  C   UNL A   1      37.874  33.024  32.727  1.00  0.00     0.049 A 
ATOM     42  N   UNL A   1      39.171  30.723  31.275  1.00  0.00    -0.248 NA
ATOM     43  C   UNL A   1      37.742  31.116  29.474  1.00  0.00     0.031 C 
ATOM     44  C   UNL A   1      37.232  34.085  33.506  1.00  0.00     0.029 A 
ATOM     45  N   UNL A   1      38.863  32.557  33.556  1.00  0.00    -0.354 N 
ATOM     46  C   UNL A   1      39.400  29.774  30.286  1.00  0.00     0.074 A 
ATOM     47  C   UNL A   1      38.437  30.015  29.236  1.00  0.00     0.031 C 
ATOM     48  C   UNL A   1      37.857  34.203  34.687  1.00  0.00     0.029 A 
ATOM     49  C   UNL A   1      38.912  33.200  34.770  1.00  0.00     0.049 A 
ATOM     50  H   UNL A   1      39.478  31.831  33.305  1.00  0.00     0.167 HD
ATOM     51  C   UNL A   1      40.346  28.806  30.245  1.00  0.00     0.037 A 
ATOM     52  C   UNL A   1      39.711  32.993  35.834  1.00  0.00     0.037 A 
ATOM     53  C   UNL A   1      41.324  28.593  31.280  1.00  0.00     0.049 A 
ATOM     54  C   UNL A   1      40.761  31.917  35.762  1.00  0.00     0.074 A 
ATOM     55  C   UNL A   1      42.376  27.696  31.301  1.00  0.00     0.029 A 
ATOM     56  N   UNL A   1      41.363  29.287  32.481  1.00  0.00    -0.354 N 
ATOM     57  N   UNL A   1      41.025  31.082  34.786  1.00  0.00    -0.248 NA
ATOM     58  C   UNL A   1      41.631  31.761  36.935  1.00  0.00     0.031 C 
ATOM     59  C   UNL A   1      43.016  27.804  32.540  1.00  0.00     0.029 A 
ATOM     60  C   UNL A   1      42.404  28.815  33.264  1.00  0.00     0.049 A 
ATOM     61  H   UNL A   1      40.745  30.008  32.738  1.00  0.00     0.167 HD
ATOM     62  C   UNL A   1      42.103  30.321  35.214  1.00  0.00     0.074 A 
ATOM     63  C   UNL A   1      42.457  30.806  36.532  1.00  0.00     0.031 C 
ATOM     64  C   UNL A   1      42.744  29.311  34.574  1.00  0.00     0.037 A 
BRANCH  51  65
ATOM     65  C   UNL A   1      40.368  27.904  29.043  1.00  0.00     0.064 A 
ATOM     66  C   UNL A   1      41.126  28.208  27.901  1.00  0.00     0.173 A 
ATOM     67  C   UNL A   1      39.640  26.703  29.043  1.00  0.00     0.173 A 
ATOM     68  F   UNL A   1      41.831  29.347  27.843  1.00  0.00    -0.203 F 
ATOM     69  C   UNL A   1      41.123  27.367  26.791  1.00  0.00     0.198 A 
ATOM     70  C   UNL A   1      39.670  25.846  27.946  1.00  0.00     0.198 A 
ATOM     71  F   UNL A   1      38.904  26.357  30.110  1.00  0.00    -0.203 F 
ATOM     72  F   UNL A   1      41.805  27.711  25.690  1.00  0.00    -0.200 F 
ATOM     73  C   UNL A   1      40.402  26.183  26.818  1.00  0.00     0.200 A 
ATOM     74  F   UNL A   1      38.984  24.695  27.980  1.00  0.00    -0.200 F 
ATOM     75  F   UNL A   1      40.405  25.371  25.751  1.00  0.00    -0.200 F 
ENDBRANCH  51  65
BRANCH  52  76
ATOM     76  C   UNL A   1      39.559  33.835  37.050  1.00  0.00     0.064 A 
ATOM     77  C   UNL A   1      40.209  35.073  37.157  1.00  0.00     0.173 A 
ATOM     78  C   UNL A   1      38.759  33.425  38.127  1.00  0.00     0.173 A 
ATOM     79  F   UNL A   1      40.999  35.502  36.162  1.00  0.00    -0.203 F 
ATOM     80  C   UNL A   1      40.081  35.858  38.301  1.00  0.00     0.198 A 
ATOM     81  C   UNL A   1      38.607  34.225  39.257  1.00  0.00     0.198 A 
ATOM     82  F   UNL A   1      38.108  32.253  38.073  1.00  0.00    -0.203 F 
ATOM     83  F   UNL A   1      40.750  37.016  38.396  1.00  0.00    -0.200 F 
ATOM     84  C   UNL A   1      39.275  35.436  39.348  1.00  0.00     0.200 A 
ATOM     85  F   UNL A   1      37.813  33.821  40.258  1.00  0.00    -0.200 F 
ATOM     86  F   UNL A   1      39.146  36.194  40.445  1.00  0.00    -0.200 F 
ENDBRANCH  52  76
BRANCH  64  87
ATOM     87  C   UNL A   1      43.916  28.685  35.275  1.00  0.00     0.064 A 
ATOM     88  C   UNL A   1      43.769  27.554  36.091  1.00  0.00     0.173 A 
ATOM     89  C   UNL A   1      45.209  29.197  35.088  1.00  0.00     0.173 A 
ATOM     90  F   UNL A   1      42.552  27.033  36.311  1.00  0.00    -0.203 F 
ATOM     91  C   UNL A   1      44.871  26.975  36.716  1.00  0.00     0.198 A 
ATOM     92  C   UNL A   1      46.312  28.596  35.688  1.00  0.00     0.198 A 
ATOM     93  F   UNL A   1      45.405  30.273  34.312  1.00  0.00    -0.203 F 
ATOM     94  F   UNL A   1      44.701  25.926  37.533  1.00  0.00    -0.200 F 
ATOM     95  C   UNL A   1      46.140  27.492  36.508  1.00  0.00     0.200 A 
ATOM     96  F   UNL A   1      47.540  29.086  35.471  1.00  0.00    -0.200 F 
ATOM     97  F   UNL A   1      47.200  26.928  37.102  1.00  0.00    -0.200 F 
ENDBRANCH  64  87
ENDBRANCH  38  39
ENDBRANCH  30  33
ENDBRANCH  28  29
ENDBRANCH  27  28
ENDBRANCH   1  27
TORSDOF 14
ENDMDL
MODEL 3
REMARK VINA RESULT:     -13.6      1.795      3.294
REMARK SMILES COc1ccc(NS(=O)(=O)c2ccc(Cl)c(C(=O)NCCCNC(=O)c3ccc(-c4c5nc(c(-c6c(F)c(F)c(F)c(F)c6F)c6ccc([nH]6)c(-c6c(F)c(F)c(F)c(F)c6F)c6nc(c(-c7c(F)c(F)c(F)c(F)c7F)c7ccc4[nH]7)C=C6)C=C5)cc3)c2)cc1Cl
REMARK SMILES IDX 20 1 19 2 17 3 18 4 16 6 11 7 12 8 89 9 13 10 14 11 15 12
REMARK SMILES IDX 8 13 9 14 10 15 7 16 6 18 3 19 4 20 91 21 5 22 90 23 92 24
REMARK SMILES IDX 2 25 1 26 21 27 22 28 23 29 24 30 25 32 26 33 27 34 88 35
REMARK SMILES IDX 28 36 87 37 29 38 30 39 31 40 81 41 32 42 86 43 80 44 82 45
REMARK SMILES IDX 33 46 85 47 79 48 78 49 34 51 66 52 46 53 65 54 47 55 50 56
REMARK SMILES IDX 64 57 83 58 48 59 49 60 63 62 84 63 51 64 35 65 36 66 44 67
REMARK SMILES IDX 37 68 38 69 42 70 45 71 39 72 40 73 43 74 41 75 67 76 68 77
REMARK SMILES IDX 76 78 69 79 70 80 74 81 77 82 71 83 72 84 75 85 73 86 52 87
REMARK SMILES IDX 53 88 61 89 54 90 55 91 59 92 62 93 56 94 57 95 60 96 58 97
REMARK H PARENT 19 5 7 17 23 31 82 50 50 61
REMARK Flexibility Score: inf
ROOT
ATOM      1  C   UNL A   1      31.830  30.747  26.692  1.00  0.00     0.118 C 
ENDROOT
BRANCH   1   2
ATOM      2  N   UNL A   1      33.140  30.300  27.119  1.00  0.00    -0.352 N 
ATOM      3  C   UNL A   1      33.875  29.177  26.822  1.00  0.00     0.252 C 
ATOM      4  O   UNL A   1      35.025  29.144  27.264  1.00  0.00    -0.269 OA
ATOM      5  H   UNL A   1      33.590  30.918  27.740  1.00  0.00     0.163 HD
BRANCH   3   6
ATOM      6  C   UNL A   1      33.355  27.973  26.105  1.00  0.00     0.059 A 
ATOM      7  C   UNL A   1      33.323  26.767  23.989  1.00  0.00     0.088 A 
ATOM      8  C   UNL A   1      32.656  25.695  24.572  1.00  0.00     0.024 A 
ATOM      9  C   UNL A   1      33.796  27.828  24.772  1.00  0.00     0.037 A 
ATOM     10  C   UNL A   1      32.174  25.851  25.864  1.00  0.00     0.023 A 
ATOM     11  C   UNL A   1      32.395  27.054  26.554  1.00  0.00     0.053 A 
ATOM     12  Cl  UNL A   1      31.112  27.478  27.651  1.00  0.00    -0.083 Cl
BRANCH   7  13
ATOM     13  S   UNL A   1      33.377  26.871  22.221  1.00  0.00     0.261 S 
ATOM     14  O   UNL A   1      33.850  25.591  21.730  1.00  0.00    -0.201 OA
ATOM     15  O   UNL A   1      34.060  28.091  21.859  1.00  0.00    -0.201 OA
BRANCH  13  16
ATOM     16  N   UNL A   1      31.763  27.021  21.658  1.00  0.00    -0.280 N 
ATOM     17  H   UNL A   1      31.485  26.479  20.885  1.00  0.00     0.180 HD
BRANCH  16  18
ATOM     18  C   UNL A   1      30.788  27.905  22.261  1.00  0.00     0.051 A 
ATOM     19  C   UNL A   1      28.712  29.588  23.207  1.00  0.00     0.137 A 
ATOM     20  C   UNL A   1      29.820  30.122  22.555  1.00  0.00     0.050 A 
ATOM     21  C   UNL A   1      28.599  28.198  23.306  1.00  0.00     0.085 A 
ATOM     22  C   UNL A   1      30.816  29.280  22.045  1.00  0.00     0.030 A 
ATOM     23  C   UNL A   1      29.642  27.366  22.856  1.00  0.00     0.051 A 
ATOM     24  Cl  UNL A   1      27.153  27.431  23.859  1.00  0.00    -0.080 Cl
BRANCH  19  25
ATOM     25  O   UNL A   1      27.749  30.494  23.559  1.00  0.00    -0.495 OA
ATOM     26  C   UNL A   1      27.983  31.812  23.065  1.00  0.00     0.278 C 
ENDBRANCH  19  25
ENDBRANCH  16  18
ENDBRANCH  13  16
ENDBRANCH   7  13
ENDBRANCH   3   6
ENDBRANCH   1   2
BRANCH   1  27
ATOM     27  C   UNL A   1      31.570  32.231  26.829  1.00  0.00     0.042 C 
BRANCH  27  28
ATOM     28  C   UNL A   1      32.794  33.077  27.115  1.00  0.00     0.118 C 
BRANCH  28  29
ATOM     29  N   UNL A   1      32.476  34.390  27.667  1.00  0.00    -0.352 N 
ATOM     30  C   UNL A   1      32.982  35.075  28.747  1.00  0.00     0.251 C 
ATOM     31  H   UNL A   1      31.773  34.874  27.177  1.00  0.00     0.163 HD
ATOM     32  O   UNL A   1      32.429  36.108  29.119  1.00  0.00    -0.269 OA
BRANCH  30  33
ATOM     33  C   UNL A   1      34.158  34.572  29.491  1.00  0.00     0.039 A 
ATOM     34  C   UNL A   1      33.976  34.020  30.764  1.00  0.00     0.014 A 
ATOM     35  C   UNL A   1      35.443  34.658  28.958  1.00  0.00     0.014 A 
ATOM     36  C   UNL A   1      35.066  33.478  31.452  1.00  0.00     0.010 A 
ATOM     37  C   UNL A   1      36.500  34.005  29.582  1.00  0.00     0.010 A 
ATOM     38  C   UNL A   1      36.328  33.419  30.843  1.00  0.00    -0.014 A 
BRANCH  38  39
ATOM     39  C   UNL A   1      37.490  32.770  31.503  1.00  0.00     0.031 A 
ATOM     40  C   UNL A   1      38.178  31.605  30.843  1.00  0.00     0.074 A 
ATOM     41  C   UNL A   1      37.867  33.169  32.734  1.00  0.00     0.049 A 
ATOM     42  N   UNL A   1      39.139  30.842  31.299  1.00  0.00    -0.248 NA
ATOM     43  C   UNL A   1      37.697  31.223  29.505  1.00  0.00     0.031 C 
ATOM     44  C   UNL A   1      37.238  34.242  33.506  1.00  0.00     0.029 A 
ATOM     45  N   UNL A   1      38.860  32.705  33.561  1.00  0.00    -0.354 N 
ATOM     46  C   UNL A   1      39.354  29.880  30.320  1.00  0.00     0.074 A 
ATOM     47  C   UNL A   1      38.384  30.115  29.274  1.00  0.00     0.031 C 
ATOM     48  C   UNL A   1      37.874  34.371  34.681  1.00  0.00     0.029 A 
ATOM     49  C   UNL A   1      38.923  33.361  34.767  1.00  0.00     0.049 A 
ATOM     50  H   UNL A   1      39.469  31.972  33.314  1.00  0.00     0.167 HD
ATOM     51  C   UNL A   1      40.293  28.905  30.283  1.00  0.00     0.037 A 
ATOM     52  C   UNL A   1      39.729  33.162  35.827  1.00  0.00     0.037 A 
ATOM     53  C   UNL A   1      41.278  28.699  31.312  1.00  0.00     0.049 A 
ATOM     54  C   UNL A   1      40.772  32.079  35.759  1.00  0.00     0.074 A 
ATOM     55  C   UNL A   1      42.325  27.795  31.336  1.00  0.00     0.029 A 
ATOM     56  N   UNL A   1      41.332  29.406  32.505  1.00  0.00    -0.354 N 
ATOM     57  N   UNL A   1      41.023  31.231  34.791  1.00  0.00    -0.248 NA
ATOM     58  C   UNL A   1      41.650  31.931  36.927  1.00  0.00     0.031 C 
ATOM     59  C   UNL A   1      42.975  27.913  32.568  1.00  0.00     0.029 A 
ATOM     60  C   UNL A   1      42.376  28.937  33.286  1.00  0.00     0.049 A 
ATOM     61  H   UNL A   1      40.720  30.134  32.759  1.00  0.00     0.167 HD
ATOM     62  C   UNL A   1      42.100  30.468  35.219  1.00  0.00     0.074 A 
ATOM     63  C   UNL A   1      42.467  30.966  36.529  1.00  0.00     0.031 C 
ATOM     64  C   UNL A   1      42.729  29.446  34.587  1.00  0.00     0.037 A 
BRANCH  51  65
ATOM     65  C   UNL A   1      40.300  27.989  29.091  1.00  0.00     0.064 A 
ATOM     66  C   UNL A   1      41.046  28.278  27.937  1.00  0.00     0.173 A 
ATOM     67  C   UNL A   1      39.571  26.790  29.114  1.00  0.00     0.173 A 
ATOM     68  F   UNL A   1      41.752  29.416  27.858  1.00  0.00    -0.203 F 
ATOM     69  C   UNL A   1      41.029  27.424  26.838  1.00  0.00     0.198 A 
ATOM     70  C   UNL A   1      39.586  25.919  28.027  1.00  0.00     0.198 A 
ATOM     71  F   UNL A   1      38.846  26.458  30.193  1.00  0.00    -0.203 F 
ATOM     72  F   UNL A   1      41.699  27.754  25.725  1.00  0.00    -0.200 F 
ATOM     73  C   UNL A   1      40.306  26.242  26.887  1.00  0.00     0.200 A 
ATOM     74  F   UNL A   1      38.899  24.771  28.082  1.00  0.00    -0.200 F 
ATOM     75  F   UNL A   1      40.296  25.417  25.830  1.00  0.00    -0.200 F 
ENDBRANCH  51  65
BRANCH  52  76
ATOM     76  C   UNL A   1      39.593  34.019  37.034  1.00  0.00     0.064 A 
ATOM     77  C   UNL A   1      38.826  33.603  38.132  1.00  0.00     0.173 A 
ATOM     78  C   UNL A   1      40.228  35.267  37.120  1.00  0.00     0.173 A 
ATOM     79  F   UNL A   1      38.184  32.427  38.092  1.00  0.00    -0.203 F 
ATOM     80  C   UNL A   1      38.684  34.410  39.259  1.00  0.00     0.198 A 
ATOM     81  C   UNL A   1      40.111  36.059  38.260  1.00  0.00     0.198 A 
ATOM     82  F   UNL A   1      40.982  35.709  36.101  1.00  0.00    -0.203 F 
ATOM     83  F   UNL A   1      37.907  34.008  40.275  1.00  0.00    -0.200 F 
ATOM     84  C   UNL A   1      39.331  35.635  39.325  1.00  0.00     0.200 A 
ATOM     85  F   UNL A   1      40.754  37.233  38.326  1.00  0.00    -0.200 F 
ATOM     86  F   UNL A   1      39.200  36.408  40.411  1.00  0.00    -0.200 F 
ENDBRANCH  52  76
BRANCH  64  87
ATOM     87  C   UNL A   1      43.902  28.821  35.285  1.00  0.00     0.064 A 
ATOM     88  C   UNL A   1      45.215  29.263  35.062  1.00  0.00     0.173 A 
ATOM     89  C   UNL A   1      43.704  27.798  36.225  1.00  0.00     0.173 A 
ATOM     90  F   UNL A   1      45.459  30.229  34.164  1.00  0.00    -0.203 F 
ATOM     91  C   UNL A   1      46.288  28.683  35.734  1.00  0.00     0.198 A 
ATOM     92  C   UNL A   1      44.776  27.245  36.920  1.00  0.00     0.198 A 
ATOM     93  F   UNL A   1      42.468  27.345  36.481  1.00  0.00    -0.203 F 
ATOM     94  F   UNL A   1      47.539  29.085  35.468  1.00  0.00    -0.200 F 
ATOM     95  C   UNL A   1      46.067  27.682  36.667  1.00  0.00     0.200 A 
ATOM     96  F   UNL A   1      44.558  26.290  37.834  1.00  0.00    -0.200 F 
ATOM     97  F   UNL A   1      47.100  27.133  37.321  1.00  0.00    -0.200 F 
ENDBRANCH  64  87
ENDBRANCH  38  39
ENDBRANCH  30  33
ENDBRANCH  28  29
ENDBRANCH  27  28
ENDBRANCH   1  27
TORSDOF 14
ENDMDL
