MODEL 1
REMARK VINA RESULT:     -13.5      0.000      0.000
REMARK SMILES O=C(NCCCNC(=O)[C@H]1CCCN(C(=O)c2c[nH]c3ccccc23)C1)c1ccc(-c2c3nc(c(-c4c(F)c(F)c(F)c(F)c4F)c4ccc([nH]4)c(-c4c(F)c(F)c(F)c(F)c4F)c4nc(c(-c5c(F)c(F)c(F)c(F)c5F)c5ccc2[nH]5)C=C4)C=C3)cc1
REMARK SMILES IDX 5 1 4 2 3 3 1 4 2 5 27 7 28 8 89 9 29 10 88 11 30 12 31 13
REMARK SMILES IDX 32 14 82 15 33 16 87 17 81 18 83 19 34 20 86 21 80 22 79 23
REMARK SMILES IDX 35 25 67 26 47 27 66 28 48 29 51 30 65 31 84 32 49 33 50 34
REMARK SMILES IDX 64 36 85 37 52 38 36 39 37 40 45 41 38 42 39 43 43 44 46 45
REMARK SMILES IDX 40 46 41 47 44 48 42 49 68 50 69 51 77 52 70 53 71 54 75 55
REMARK SMILES IDX 78 56 72 57 73 58 76 59 74 60 53 61 54 62 62 63 55 64 56 65
REMARK SMILES IDX 60 66 63 67 57 68 58 69 61 70 59 71 6 72 7 73 8 74 9 76
REMARK SMILES IDX 10 77 11 78 26 79 12 80 14 81 13 82 15 83 16 84 17 85 18 86
REMARK SMILES IDX 25 87 19 88 20 89 24 90 21 92 23 93 22 94
REMARK H PARENT 3 6 83 24 51 35 7 75 19 91
REMARK Flexibility Score: inf
ROOT
ATOM      1  C   UNL A   1      31.450  32.313  26.694  1.00  0.00     0.042 C 
ENDROOT
BRANCH   1   2
ATOM      2  C   UNL A   1      32.734  32.928  27.260  1.00  0.00     0.118 C 
BRANCH   2   3
ATOM      3  N   UNL A   1      32.539  34.316  27.657  1.00  0.00    -0.352 N 
ATOM      4  O   UNL A   1      32.532  36.106  29.002  1.00  0.00    -0.269 OA
ATOM      5  C   UNL A   1      33.036  35.022  28.719  1.00  0.00     0.251 C 
ATOM      6  H   UNL A   1      31.951  34.833  27.061  1.00  0.00     0.163 HD
BRANCH   5   7
ATOM      7  C   UNL A   1      34.178  34.527  29.520  1.00  0.00     0.039 A 
ATOM      8  C   UNL A   1      33.987  33.880  30.745  1.00  0.00     0.014 A 
ATOM      9  C   UNL A   1      35.457  34.581  28.955  1.00  0.00     0.014 A 
ATOM     10  C   UNL A   1      35.078  33.327  31.421  1.00  0.00     0.010 A 
ATOM     11  C   UNL A   1      36.543  34.002  29.615  1.00  0.00     0.010 A 
ATOM     12  C   UNL A   1      36.361  33.371  30.853  1.00  0.00    -0.014 A 
BRANCH  12  13
ATOM     13  C   UNL A   1      37.495  32.680  31.512  1.00  0.00     0.031 A 
ATOM     14  C   UNL A   1      38.186  31.528  30.849  1.00  0.00     0.074 A 
ATOM     15  C   UNL A   1      37.877  33.076  32.740  1.00  0.00     0.049 A 
ATOM     16  N   UNL A   1      39.184  30.802  31.287  1.00  0.00    -0.248 NA
ATOM     17  C   UNL A   1      37.686  31.131  29.524  1.00  0.00     0.031 C 
ATOM     18  C   UNL A   1      37.257  34.156  33.509  1.00  0.00     0.029 A 
ATOM     19  N   UNL A   1      38.873  32.609  33.560  1.00  0.00    -0.354 N 
ATOM     20  C   UNL A   1      39.424  29.856  30.302  1.00  0.00     0.074 A 
ATOM     21  C   UNL A   1      38.461  30.090  29.246  1.00  0.00     0.031 C 
ATOM     22  C   UNL A   1      37.892  34.274  34.686  1.00  0.00     0.029 A 
ATOM     23  C   UNL A   1      38.947  33.268  34.761  1.00  0.00     0.049 A 
ATOM     24  H   UNL A   1      39.475  31.871  33.312  1.00  0.00     0.167 HD
ATOM     25  C   UNL A   1      40.367  28.883  30.281  1.00  0.00     0.037 A 
ATOM     26  C   UNL A   1      39.770  33.079  35.809  1.00  0.00     0.037 A 
ATOM     27  C   UNL A   1      41.341  28.659  31.315  1.00  0.00     0.049 A 
ATOM     28  C   UNL A   1      40.814  32.006  35.753  1.00  0.00     0.074 A 
ATOM     29  C   UNL A   1      42.383  27.747  31.338  1.00  0.00     0.029 A 
ATOM     30  N   UNL A   1      41.388  29.350  32.515  1.00  0.00    -0.354 N 
ATOM     31  N   UNL A   1      41.071  31.157  34.790  1.00  0.00    -0.248 NA
ATOM     32  C   UNL A   1      41.682  31.861  36.932  1.00  0.00     0.031 C 
ATOM     33  C   UNL A   1      43.048  27.873  32.564  1.00  0.00     0.029 A 
ATOM     34  C   UNL A   1      42.428  28.873  33.296  1.00  0.00     0.049 A 
ATOM     35  H   UNL A   1      40.772  30.074  32.775  1.00  0.00     0.167 HD
ATOM     36  C   UNL A   1      42.127  30.380  35.240  1.00  0.00     0.074 A 
ATOM     37  C   UNL A   1      42.472  30.863  36.561  1.00  0.00     0.031 C 
ATOM     38  C   UNL A   1      42.751  29.355  34.612  1.00  0.00     0.037 A 
BRANCH  25  39
ATOM     39  C   UNL A   1      40.387  27.980  29.090  1.00  0.00     0.064 A 
ATOM     40  C   UNL A   1      39.630  26.802  29.059  1.00  0.00     0.173 A 
ATOM     41  C   UNL A   1      41.143  28.314  27.957  1.00  0.00     0.173 A 
ATOM     42  F   UNL A   1      38.904  26.438  30.126  1.00  0.00    -0.203 F 
ATOM     43  C   UNL A   1      39.637  25.980  27.935  1.00  0.00     0.198 A 
ATOM     44  C   UNL A   1      41.139  27.495  26.831  1.00  0.00     0.198 A 
ATOM     45  F   UNL A   1      41.884  29.431  27.943  1.00  0.00    -0.203 F 
ATOM     46  F   UNL A   1      38.926  24.844  27.933  1.00  0.00    -0.200 F 
ATOM     47  C   UNL A   1      40.389  26.328  26.822  1.00  0.00     0.200 A 
ATOM     48  F   UNL A   1      41.865  27.832  25.757  1.00  0.00    -0.200 F 
ATOM     49  F   UNL A   1      40.395  25.534  25.743  1.00  0.00    -0.200 F 
ENDBRANCH  25  39
BRANCH  26  50
ATOM     50  C   UNL A   1      39.630  33.945  37.001  1.00  0.00     0.064 A 
ATOM     51  C   UNL A   1      40.254  35.198  37.054  1.00  0.00     0.173 A 
ATOM     52  C   UNL A   1      38.839  33.554  38.090  1.00  0.00     0.173 A 
ATOM     53  F   UNL A   1      41.032  35.601  36.041  1.00  0.00    -0.203 F 
ATOM     54  C   UNL A   1      40.089  36.032  38.158  1.00  0.00     0.198 A 
ATOM     55  C   UNL A   1      38.665  34.394  39.186  1.00  0.00     0.198 A 
ATOM     56  F   UNL A   1      38.225  32.362  38.078  1.00  0.00    -0.203 F 
ATOM     57  F   UNL A   1      40.704  37.221  38.192  1.00  0.00    -0.200 F 
ATOM     58  C   UNL A   1      39.291  35.632  39.219  1.00  0.00     0.200 A 
ATOM     59  F   UNL A   1      37.892  34.007  40.209  1.00  0.00    -0.200 F 
ATOM     60  F   UNL A   1      39.127  36.439  40.276  1.00  0.00    -0.200 F 
ENDBRANCH  26  50
BRANCH  38  61
ATOM     61  C   UNL A   1      43.866  28.685  35.348  1.00  0.00     0.064 A 
ATOM     62  C   UNL A   1      43.612  27.625  36.230  1.00  0.00     0.173 A 
ATOM     63  C   UNL A   1      45.196  29.075  35.144  1.00  0.00     0.173 A 
ATOM     64  F   UNL A   1      42.352  27.230  36.465  1.00  0.00    -0.203 F 
ATOM     65  C   UNL A   1      44.656  26.982  36.890  1.00  0.00     0.198 A 
ATOM     66  C   UNL A   1      46.238  28.424  35.798  1.00  0.00     0.198 A 
ATOM     67  F   UNL A   1      45.483  30.086  34.310  1.00  0.00    -0.203 F 
ATOM     68  F   UNL A   1      44.393  25.985  37.744  1.00  0.00    -0.200 F 
ATOM     69  C   UNL A   1      45.968  27.379  36.670  1.00  0.00     0.200 A 
ATOM     70  F   UNL A   1      47.504  28.807  35.587  1.00  0.00    -0.200 F 
ATOM     71  F   UNL A   1      46.971  26.759  37.306  1.00  0.00    -0.200 F 
ENDBRANCH  38  61
ENDBRANCH  12  13
ENDBRANCH   5   7
ENDBRANCH   2   3
ENDBRANCH   1   2
BRANCH   1  72
ATOM     72  C   UNL A   1      31.561  30.815  26.417  1.00  0.00     0.117 C 
BRANCH  72  73
ATOM     73  N   UNL A   1      32.694  30.203  27.084  1.00  0.00    -0.356 N 
ATOM     74  C   UNL A   1      33.413  29.075  26.883  1.00  0.00     0.224 C 
ATOM     75  H   UNL A   1      33.011  30.726  27.856  1.00  0.00     0.163 HD
ATOM     76  O   UNL A   1      34.359  28.905  27.665  1.00  0.00    -0.275 OA
BRANCH  74  77
ATOM     77  C   UNL A   1      33.102  27.983  25.866  1.00  0.00     0.098 C 
ATOM     78  C   UNL A   1      34.091  26.819  26.013  1.00  0.00     0.017 C 
ATOM     79  C   UNL A   1      31.685  27.442  25.779  1.00  0.00     0.133 C 
ATOM     80  C   UNL A   1      33.928  25.838  24.850  1.00  0.00     0.022 C 
ATOM     81  N   UNL A   1      31.539  26.473  24.693  1.00  0.00    -0.338 N 
ATOM     82  C   UNL A   1      32.485  25.354  24.702  1.00  0.00     0.120 C 
BRANCH  81  83
ATOM     83  C   UNL A   1      30.514  26.661  23.766  1.00  0.00     0.256 C 
ATOM     84  O   UNL A   1      29.642  25.813  23.579  1.00  0.00    -0.269 OA
BRANCH  83  85
ATOM     85  C   UNL A   1      30.499  27.902  23.003  1.00  0.00     0.065 A 
ATOM     86  C   UNL A   1      31.610  28.452  22.389  1.00  0.00     0.097 A 
ATOM     87  C   UNL A   1      29.422  28.832  22.816  1.00  0.00     0.012 A 
ATOM     88  N   UNL A   1      31.241  29.630  21.800  1.00  0.00    -0.360 N 
ATOM     89  C   UNL A   1      29.913  29.889  22.046  1.00  0.00     0.046 A 
ATOM     90  C   UNL A   1      28.079  28.888  23.248  1.00  0.00     0.011 A 
ATOM     91  H   UNL A   1      31.839  30.209  21.275  1.00  0.00     0.166 HD
ATOM     92  C   UNL A   1      29.123  30.979  21.665  1.00  0.00     0.027 A 
ATOM     93  C   UNL A   1      27.275  29.970  22.874  1.00  0.00     0.001 A 
ATOM     94  C   UNL A   1      27.791  30.999  22.090  1.00  0.00     0.002 A 
ENDBRANCH  83  85
ENDBRANCH  81  83
ENDBRANCH  74  77
ENDBRANCH  72  73
ENDBRANCH   1  72
TORSDOF 12
ENDMDL
MODEL 2
REMARK VINA RESULT:     -13.5      0.047      1.127
REMARK SMILES O=C(NCCCNC(=O)[C@H]1CCCN(C(=O)c2c[nH]c3ccccc23)C1)c1ccc(-c2c3nc(c(-c4c(F)c(F)c(F)c(F)c4F)c4ccc([nH]4)c(-c4c(F)c(F)c(F)c(F)c4F)c4nc(c(-c5c(F)c(F)c(F)c(F)c5F)c5ccc2[nH]5)C=C4)C=C3)cc1
REMARK SMILES IDX 5 1 4 2 3 3 1 4 2 5 27 7 28 8 89 9 29 10 88 11 30 12 31 13
REMARK SMILES IDX 32 14 82 15 33 16 87 17 81 18 83 19 34 20 86 21 80 22 79 23
REMARK SMILES IDX 35 25 67 26 47 27 66 28 48 29 51 30 65 31 84 32 49 33 50 34
REMARK SMILES IDX 64 36 85 37 52 38 36 39 37 40 45 41 38 42 39 43 43 44 46 45
REMARK SMILES IDX 40 46 41 47 44 48 42 49 68 50 69 51 77 52 70 53 71 54 75 55
REMARK SMILES IDX 78 56 72 57 73 58 76 59 74 60 53 61 54 62 62 63 55 64 56 65
REMARK SMILES IDX 60 66 63 67 57 68 58 69 61 70 59 71 6 72 7 73 8 74 9 76
REMARK SMILES IDX 10 77 11 78 26 79 12 80 14 81 13 82 15 83 16 84 17 85 18 86
REMARK SMILES IDX 25 87 19 88 20 89 24 90 21 92 23 93 22 94
REMARK H PARENT 3 6 83 24 51 35 7 75 19 91
REMARK Flexibility Score: inf
ROOT
ATOM      1  C   UNL A   1      31.450  32.308  26.691  1.00  0.00     0.042 C 
ENDROOT
BRANCH   1   2
ATOM      2  C   UNL A   1      32.731  32.923  27.263  1.00  0.00     0.118 C 
BRANCH   2   3
ATOM      3  N   UNL A   1      32.536  34.311  27.657  1.00  0.00    -0.352 N 
ATOM      4  O   UNL A   1      32.527  36.104  28.999  1.00  0.00    -0.269 OA
ATOM      5  C   UNL A   1      33.031  35.019  28.718  1.00  0.00     0.251 C 
ATOM      6  H   UNL A   1      31.948  34.827  27.059  1.00  0.00     0.163 HD
BRANCH   5   7
ATOM      7  C   UNL A   1      34.172  34.525  29.522  1.00  0.00     0.039 A 
ATOM      8  C   UNL A   1      33.978  33.867  30.741  1.00  0.00     0.014 A 
ATOM      9  C   UNL A   1      35.454  34.592  28.964  1.00  0.00     0.014 A 
ATOM     10  C   UNL A   1      35.070  33.317  31.418  1.00  0.00     0.010 A 
ATOM     11  C   UNL A   1      36.540  34.015  29.626  1.00  0.00     0.010 A 
ATOM     12  C   UNL A   1      36.356  33.373  30.857  1.00  0.00    -0.014 A 
BRANCH  12  13
ATOM     13  C   UNL A   1      37.490  32.685  31.517  1.00  0.00     0.031 A 
ATOM     14  C   UNL A   1      38.183  31.533  30.856  1.00  0.00     0.074 A 
ATOM     15  C   UNL A   1      37.872  33.083  32.745  1.00  0.00     0.049 A 
ATOM     16  N   UNL A   1      39.183  30.809  31.294  1.00  0.00    -0.248 NA
ATOM     17  C   UNL A   1      37.684  31.134  29.532  1.00  0.00     0.031 C 
ATOM     18  C   UNL A   1      37.251  34.163  33.512  1.00  0.00     0.029 A 
ATOM     19  N   UNL A   1      38.869  32.618  33.566  1.00  0.00    -0.354 N 
ATOM     20  C   UNL A   1      39.424  29.862  30.311  1.00  0.00     0.074 A 
ATOM     21  C   UNL A   1      38.460  30.093  29.254  1.00  0.00     0.031 C 
ATOM     22  C   UNL A   1      37.885  34.283  34.690  1.00  0.00     0.029 A 
ATOM     23  C   UNL A   1      38.942  33.279  34.766  1.00  0.00     0.049 A 
ATOM     24  H   UNL A   1      39.472  31.881  33.319  1.00  0.00     0.167 HD
ATOM     25  C   UNL A   1      40.368  28.891  30.291  1.00  0.00     0.037 A 
ATOM     26  C   UNL A   1      39.765  33.093  35.814  1.00  0.00     0.037 A 
ATOM     27  C   UNL A   1      41.342  28.669  31.325  1.00  0.00     0.049 A 
ATOM     28  C   UNL A   1      40.811  32.020  35.759  1.00  0.00     0.074 A 
ATOM     29  C   UNL A   1      42.386  27.759  31.349  1.00  0.00     0.029 A 
ATOM     30  N   UNL A   1      41.388  29.362  32.525  1.00  0.00    -0.354 N 
ATOM     31  N   UNL A   1      41.069  31.171  34.797  1.00  0.00    -0.248 NA
ATOM     32  C   UNL A   1      41.679  31.879  36.938  1.00  0.00     0.031 C 
ATOM     33  C   UNL A   1      43.051  27.887  32.575  1.00  0.00     0.029 A 
ATOM     34  C   UNL A   1      42.429  28.887  33.305  1.00  0.00     0.049 A 
ATOM     35  H   UNL A   1      40.772  30.085  32.783  1.00  0.00     0.167 HD
ATOM     36  C   UNL A   1      42.126  30.396  35.248  1.00  0.00     0.074 A 
ATOM     37  C   UNL A   1      42.471  30.881  36.568  1.00  0.00     0.031 C 
ATOM     38  C   UNL A   1      42.751  29.371  34.621  1.00  0.00     0.037 A 
BRANCH  25  39
ATOM     39  C   UNL A   1      40.389  27.986  29.101  1.00  0.00     0.064 A 
ATOM     40  C   UNL A   1      39.632  26.808  29.070  1.00  0.00     0.173 A 
ATOM     41  C   UNL A   1      41.147  28.318  27.968  1.00  0.00     0.173 A 
ATOM     42  F   UNL A   1      38.904  26.445  30.137  1.00  0.00    -0.203 F 
ATOM     43  C   UNL A   1      39.640  25.984  27.947  1.00  0.00     0.198 A 
ATOM     44  C   UNL A   1      41.143  27.498  26.843  1.00  0.00     0.198 A 
ATOM     45  F   UNL A   1      41.888  29.435  27.954  1.00  0.00    -0.203 F 
ATOM     46  F   UNL A   1      38.928  24.849  27.946  1.00  0.00    -0.200 F 
ATOM     47  C   UNL A   1      40.393  26.332  26.835  1.00  0.00     0.200 A 
ATOM     48  F   UNL A   1      41.871  27.833  25.770  1.00  0.00    -0.200 F 
ATOM     49  F   UNL A   1      40.400  25.536  25.756  1.00  0.00    -0.200 F 
ENDBRANCH  25  39
BRANCH  26  50
ATOM     50  C   UNL A   1      39.624  33.960  37.005  1.00  0.00     0.064 A 
ATOM     51  C   UNL A   1      40.244  35.214  37.055  1.00  0.00     0.173 A 
ATOM     52  C   UNL A   1      38.836  33.568  38.095  1.00  0.00     0.173 A 
ATOM     53  F   UNL A   1      41.020  35.619  36.040  1.00  0.00    -0.203 F 
ATOM     54  C   UNL A   1      40.079  36.050  38.158  1.00  0.00     0.198 A 
ATOM     55  C   UNL A   1      38.661  34.409  39.191  1.00  0.00     0.198 A 
ATOM     56  F   UNL A   1      38.226  32.373  38.085  1.00  0.00    -0.203 F 
ATOM     57  F   UNL A   1      40.690  37.240  38.190  1.00  0.00    -0.200 F 
ATOM     58  C   UNL A   1      39.283  35.649  39.221  1.00  0.00     0.200 A 
ATOM     59  F   UNL A   1      37.890  34.021  40.215  1.00  0.00    -0.200 F 
ATOM     60  F   UNL A   1      39.118  36.457  40.277  1.00  0.00    -0.200 F 
ENDBRANCH  26  50
BRANCH  38  61
ATOM     61  C   UNL A   1      43.867  28.703  35.358  1.00  0.00     0.064 A 
ATOM     62  C   UNL A   1      45.195  29.120  35.187  1.00  0.00     0.173 A 
ATOM     63  C   UNL A   1      43.608  27.668  36.266  1.00  0.00     0.173 A 
ATOM     64  F   UNL A   1      45.489  30.097  34.317  1.00  0.00    -0.203 F 
ATOM     65  C   UNL A   1      46.228  28.516  35.899  1.00  0.00     0.198 A 
ATOM     66  C   UNL A   1      44.642  27.073  36.983  1.00  0.00     0.198 A 
ATOM     67  F   UNL A   1      42.352  27.237  36.457  1.00  0.00    -0.203 F 
ATOM     68  F   UNL A   1      47.492  28.915  35.709  1.00  0.00    -0.200 F 
ATOM     69  C   UNL A   1      45.951  27.496  36.799  1.00  0.00     0.200 A 
ATOM     70  F   UNL A   1      44.375  26.088  37.851  1.00  0.00    -0.200 F 
ATOM     71  F   UNL A   1      46.946  26.917  37.483  1.00  0.00    -0.200 F 
ENDBRANCH  38  61
ENDBRANCH  12  13
ENDBRANCH   5   7
ENDBRANCH   2   3
ENDBRANCH   1   2
BRANCH   1  72
ATOM     72  C   UNL A   1      31.554  30.806  26.435  1.00  0.00     0.117 C 
BRANCH  72  73
ATOM     73  N   UNL A   1      32.694  30.202  27.097  1.00  0.00    -0.356 N 
ATOM     74  C   UNL A   1      33.421  29.080  26.890  1.00  0.00     0.224 C 
ATOM     75  H   UNL A   1      33.010  30.725  27.869  1.00  0.00     0.163 HD
ATOM     76  O   UNL A   1      34.372  28.916  27.668  1.00  0.00    -0.275 OA
BRANCH  74  77
ATOM     77  C   UNL A   1      33.115  27.988  25.871  1.00  0.00     0.098 C 
ATOM     78  C   UNL A   1      34.111  26.829  26.015  1.00  0.00     0.017 C 
ATOM     79  C   UNL A   1      31.701  27.439  25.786  1.00  0.00     0.133 C 
ATOM     80  C   UNL A   1      33.952  25.849  24.851  1.00  0.00     0.022 C 
ATOM     81  N   UNL A   1      31.559  26.471  24.699  1.00  0.00    -0.338 N 
ATOM     82  C   UNL A   1      32.511  25.357  24.704  1.00  0.00     0.120 C 
BRANCH  81  83
ATOM     83  C   UNL A   1      30.531  26.654  23.774  1.00  0.00     0.256 C 
ATOM     84  O   UNL A   1      29.661  25.803  23.591  1.00  0.00    -0.269 OA
BRANCH  83  85
ATOM     85  C   UNL A   1      30.510  27.894  23.009  1.00  0.00     0.065 A 
ATOM     86  C   UNL A   1      31.618  28.446  22.392  1.00  0.00     0.097 A 
ATOM     87  C   UNL A   1      29.430  28.820  22.825  1.00  0.00     0.012 A 
ATOM     88  N   UNL A   1      31.243  29.622  21.802  1.00  0.00    -0.360 N 
ATOM     89  C   UNL A   1      29.916  29.877  22.052  1.00  0.00     0.046 A 
ATOM     90  C   UNL A   1      28.088  28.873  23.260  1.00  0.00     0.011 A 
ATOM     91  H   UNL A   1      31.839  30.202  21.274  1.00  0.00     0.166 HD
ATOM     92  C   UNL A   1      29.121  30.965  21.671  1.00  0.00     0.027 A 
ATOM     93  C   UNL A   1      27.280  29.952  22.887  1.00  0.00     0.001 A 
ATOM     94  C   UNL A   1      27.791  30.981  22.100  1.00  0.00     0.002 A 
ENDBRANCH  83  85
ENDBRANCH  81  83
ENDBRANCH  74  77
ENDBRANCH  72  73
ENDBRANCH   1  72
TORSDOF 12
ENDMDL
MODEL 3
REMARK VINA RESULT:     -13.4      6.484     11.873
REMARK SMILES O=C(NCCCNC(=O)[C@H]1CCCN(C(=O)c2c[nH]c3ccccc23)C1)c1ccc(-c2c3nc(c(-c4c(F)c(F)c(F)c(F)c4F)c4ccc([nH]4)c(-c4c(F)c(F)c(F)c(F)c4F)c4nc(c(-c5c(F)c(F)c(F)c(F)c5F)c5ccc2[nH]5)C=C4)C=C3)cc1
REMARK SMILES IDX 5 1 4 2 3 3 1 4 2 5 27 7 28 8 89 9 29 10 88 11 30 12 31 13
REMARK SMILES IDX 32 14 82 15 33 16 87 17 81 18 83 19 34 20 86 21 80 22 79 23
REMARK SMILES IDX 35 25 67 26 47 27 66 28 48 29 51 30 65 31 84 32 49 33 50 34
REMARK SMILES IDX 64 36 85 37 52 38 36 39 37 40 45 41 38 42 39 43 43 44 46 45
REMARK SMILES IDX 40 46 41 47 44 48 42 49 68 50 69 51 77 52 70 53 71 54 75 55
REMARK SMILES IDX 78 56 72 57 73 58 76 59 74 60 53 61 54 62 62 63 55 64 56 65
REMARK SMILES IDX 60 66 63 67 57 68 58 69 61 70 59 71 6 72 7 73 8 74 9 76
REMARK SMILES IDX 10 77 11 78 26 79 12 80 14 81 13 82 15 83 16 84 17 85 18 86
REMARK SMILES IDX 25 87 19 88 20 89 24 90 21 92 23 93 22 94
REMARK H PARENT 3 6 83 24 51 35 7 75 19 91
REMARK Flexibility Score: inf
ROOT
ATOM      1  C   UNL A   1      38.369  19.272  25.259  1.00  0.00     0.042 C 
ENDROOT
BRANCH   1   2
ATOM      2  C   UNL A   1      39.577  19.854  25.999  1.00  0.00     0.118 C 
BRANCH   2   3
ATOM      3  N   UNL A   1      40.665  18.892  26.100  1.00  0.00    -0.352 N 
ATOM      4  O   UNL A   1      42.755  18.101  25.950  1.00  0.00    -0.269 OA
ATOM      5  C   UNL A   1      42.022  19.072  26.122  1.00  0.00     0.251 C 
ATOM      6  H   UNL A   1      40.376  17.953  26.162  1.00  0.00     0.163 HD
BRANCH   5   7
ATOM      7  C   UNL A   1      42.629  20.399  26.371  1.00  0.00     0.039 A 
ATOM      8  C   UNL A   1      43.171  21.163  25.332  1.00  0.00     0.014 A 
ATOM      9  C   UNL A   1      42.514  20.950  27.653  1.00  0.00     0.014 A 
ATOM     10  C   UNL A   1      43.634  22.456  25.586  1.00  0.00     0.010 A 
ATOM     11  C   UNL A   1      42.950  22.254  27.899  1.00  0.00     0.010 A 
ATOM     12  C   UNL A   1      43.513  23.016  26.867  1.00  0.00    -0.014 A 
BRANCH  12  13
ATOM     13  C   UNL A   1      43.894  24.428  27.106  1.00  0.00     0.031 A 
ATOM     14  C   UNL A   1      42.893  25.423  27.609  1.00  0.00     0.074 A 
ATOM     15  C   UNL A   1      45.150  24.823  26.828  1.00  0.00     0.049 A 
ATOM     16  N   UNL A   1      43.051  26.699  27.860  1.00  0.00    -0.248 NA
ATOM     17  C   UNL A   1      41.532  24.924  27.854  1.00  0.00     0.031 C 
ATOM     18  C   UNL A   1      46.206  23.961  26.293  1.00  0.00     0.029 A 
ATOM     19  N   UNL A   1      45.749  26.052  26.947  1.00  0.00    -0.354 N 
ATOM     20  C   UNL A   1      41.812  27.158  28.278  1.00  0.00     0.074 A 
ATOM     21  C   UNL A   1      40.905  26.029  28.238  1.00  0.00     0.031 C 
ATOM     22  C   UNL A   1      47.325  24.686  26.138  1.00  0.00     0.029 A 
ATOM     23  C   UNL A   1      47.060  26.063  26.543  1.00  0.00     0.049 A 
ATOM     24  H   UNL A   1      45.283  26.848  27.288  1.00  0.00     0.167 HD
ATOM     25  C   UNL A   1      41.464  28.409  28.665  1.00  0.00     0.037 A 
ATOM     26  C   UNL A   1      47.948  27.073  26.499  1.00  0.00     0.037 A 
ATOM     27  C   UNL A   1      42.363  29.530  28.730  1.00  0.00     0.049 A 
ATOM     28  C   UNL A   1      47.542  28.444  26.947  1.00  0.00     0.074 A 
ATOM     29  C   UNL A   1      42.114  30.813  29.186  1.00  0.00     0.029 A 
ATOM     30  N   UNL A   1      43.686  29.502  28.316  1.00  0.00    -0.354 N 
ATOM     31  N   UNL A   1      46.384  28.853  27.399  1.00  0.00    -0.248 NA
ATOM     32  C   UNL A   1      48.567  29.497  26.876  1.00  0.00     0.031 C 
ATOM     33  C   UNL A   1      43.283  31.569  29.029  1.00  0.00     0.029 A 
ATOM     34  C   UNL A   1      44.262  30.750  28.489  1.00  0.00     0.049 A 
ATOM     35  H   UNL A   1      44.149  28.711  27.954  1.00  0.00     0.167 HD
ATOM     36  C   UNL A   1      46.536  30.204  27.668  1.00  0.00     0.074 A 
ATOM     37  C   UNL A   1      47.903  30.548  27.340  1.00  0.00     0.031 C 
ATOM     38  C   UNL A   1      45.619  31.079  28.145  1.00  0.00     0.037 A 
BRANCH  25  39
ATOM     39  C   UNL A   1      40.037  28.632  29.051  1.00  0.00     0.064 A 
ATOM     40  C   UNL A   1      39.596  28.411  30.362  1.00  0.00     0.173 A 
ATOM     41  C   UNL A   1      39.112  29.105  28.110  1.00  0.00     0.173 A 
ATOM     42  F   UNL A   1      40.445  27.946  31.291  1.00  0.00    -0.203 F 
ATOM     43  C   UNL A   1      38.270  28.645  30.717  1.00  0.00     0.198 A 
ATOM     44  C   UNL A   1      37.789  29.348  28.471  1.00  0.00     0.198 A 
ATOM     45  F   UNL A   1      39.490  29.328  26.843  1.00  0.00    -0.203 F 
ATOM     46  F   UNL A   1      37.861  28.404  31.969  1.00  0.00    -0.200 F 
ATOM     47  C   UNL A   1      37.370  29.116  29.772  1.00  0.00     0.200 A 
ATOM     48  F   UNL A   1      36.920  29.802  27.558  1.00  0.00    -0.200 F 
ATOM     49  F   UNL A   1      36.094  29.339  30.116  1.00  0.00    -0.200 F 
ENDBRANCH  25  39
BRANCH  26  50
ATOM     50  C   UNL A   1      49.320  26.806  26.010  1.00  0.00     0.064 A 
ATOM     51  C   UNL A   1      50.304  26.307  26.872  1.00  0.00     0.173 A 
ATOM     52  C   UNL A   1      49.659  27.006  24.665  1.00  0.00     0.173 A 
ATOM     53  F   UNL A   1      50.023  26.118  28.169  1.00  0.00    -0.203 F 
ATOM     54  C   UNL A   1      51.583  26.016  26.405  1.00  0.00     0.198 A 
ATOM     55  C   UNL A   1      50.935  26.702  24.197  1.00  0.00     0.198 A 
ATOM     56  F   UNL A   1      48.746  27.483  23.807  1.00  0.00    -0.203 F 
ATOM     57  F   UNL A   1      52.512  25.551  27.250  1.00  0.00    -0.200 F 
ATOM     58  C   UNL A   1      51.896  26.208  25.067  1.00  0.00     0.200 A 
ATOM     59  F   UNL A   1      51.234  26.886  22.904  1.00  0.00    -0.200 F 
ATOM     60  F   UNL A   1      53.124  25.919  24.617  1.00  0.00    -0.200 F 
ENDBRANCH  26  50
BRANCH  38  61
ATOM     61  C   UNL A   1      46.064  32.494  28.333  1.00  0.00     0.064 A 
ATOM     62  C   UNL A   1      46.650  32.912  29.535  1.00  0.00     0.173 A 
ATOM     63  C   UNL A   1      45.940  33.428  27.295  1.00  0.00     0.173 A 
ATOM     64  F   UNL A   1      46.774  32.054  30.559  1.00  0.00    -0.203 F 
ATOM     65  C   UNL A   1      47.092  34.222  29.695  1.00  0.00     0.198 A 
ATOM     66  C   UNL A   1      46.392  34.735  27.455  1.00  0.00     0.198 A 
ATOM     67  F   UNL A   1      45.383  33.071  26.128  1.00  0.00    -0.203 F 
ATOM     68  F   UNL A   1      47.632  34.608  30.858  1.00  0.00    -0.200 F 
ATOM     69  C   UNL A   1      46.966  35.131  28.654  1.00  0.00     0.200 A 
ATOM     70  F   UNL A   1      46.270  35.612  26.450  1.00  0.00    -0.200 F 
ATOM     71  F   UNL A   1      47.393  36.392  28.809  1.00  0.00    -0.200 F 
ENDBRANCH  38  61
ENDBRANCH  12  13
ENDBRANCH   5   7
ENDBRANCH   2   3
ENDBRANCH   1   2
BRANCH   1  72
ATOM     72  C   UNL A   1      37.470  20.333  24.626  1.00  0.00     0.117 C 
BRANCH  72  73
ATOM     73  N   UNL A   1      37.823  21.680  25.030  1.00  0.00    -0.356 N 
ATOM     74  C   UNL A   1      37.115  22.798  25.313  1.00  0.00     0.224 C 
ATOM     75  H   UNL A   1      38.795  21.812  25.116  1.00  0.00     0.163 HD
ATOM     76  O   UNL A   1      37.790  23.775  25.667  1.00  0.00    -0.275 OA
BRANCH  74  77
ATOM     77  C   UNL A   1      35.609  22.972  25.145  1.00  0.00     0.098 C 
ATOM     78  C   UNL A   1      35.212  24.436  25.380  1.00  0.00     0.017 C 
ATOM     79  C   UNL A   1      34.949  22.461  23.876  1.00  0.00     0.133 C 
ATOM     80  C   UNL A   1      33.689  24.566  25.441  1.00  0.00     0.022 C 
ATOM     81  N   UNL A   1      33.496  22.622  23.917  1.00  0.00    -0.338 N 
ATOM     82  C   UNL A   1      33.010  23.974  24.205  1.00  0.00     0.120 C 
BRANCH  81  83
ATOM     83  C   UNL A   1      32.694  21.511  23.654  1.00  0.00     0.256 C 
ATOM     84  O   UNL A   1      31.931  21.474  22.690  1.00  0.00    -0.269 OA
BRANCH  83  85
ATOM     85  C   UNL A   1      32.774  20.377  24.566  1.00  0.00     0.065 A 
ATOM     86  C   UNL A   1      32.779  20.486  25.945  1.00  0.00     0.097 A 
ATOM     87  C   UNL A   1      32.961  18.988  24.261  1.00  0.00     0.012 A 
ATOM     88  N   UNL A   1      32.903  19.233  26.478  1.00  0.00    -0.360 N 
ATOM     89  C   UNL A   1      33.019  18.299  25.474  1.00  0.00     0.046 A 
ATOM     90  C   UNL A   1      33.110  18.250  23.066  1.00  0.00     0.011 A 
ATOM     91  H   UNL A   1      32.908  19.028  27.440  1.00  0.00     0.166 HD
ATOM     92  C   UNL A   1      33.188  16.912  25.551  1.00  0.00     0.027 A 
ATOM     93  C   UNL A   1      33.279  16.862  23.125  1.00  0.00     0.001 A 
ATOM     94  C   UNL A   1      33.314  16.205  24.352  1.00  0.00     0.002 A 
ENDBRANCH  83  85
ENDBRANCH  81  83
ENDBRANCH  74  77
ENDBRANCH  72  73
ENDBRANCH   1  72
TORSDOF 12
ENDMDL
