MODEL 1
REMARK VINA RESULT:     -13.8      0.000      0.000
REMARK SMILES Cn1cc(S(=O)(=O)N2CCCc3cc(C(=O)NCCCNC(=O)c4ccc(-c5c6nc(c(-c7c(F)c(F)c(F)c(F)c7F)c7ccc([nH]7)c(-c7c(F)c(F)c(F)c(F)c7F)c7nc(c(-c8c(F)c(F)c(F)c(F)c8F)c8ccc5[nH]8)C=C7)C=C6)cc4)ccc32)cc1C(N)=O
REMARK SMILES IDX 18 1 17 2 15 3 16 4 14 6 8 7 9 8 89 9 10 10 12 11 88 12
REMARK SMILES IDX 11 13 13 14 87 15 5 16 6 17 7 18 4 19 1 20 2 21 3 22 91 23
REMARK SMILES IDX 90 24 92 25 93 26 94 27 19 30 20 31 21 32 22 33 23 35 24 36
REMARK SMILES IDX 25 37 86 38 26 39 85 40 27 41 28 42 29 43 79 44 30 45 84 46
REMARK SMILES IDX 78 47 80 48 31 49 83 50 77 51 76 52 32 54 64 55 44 56 63 57
REMARK SMILES IDX 45 58 48 59 62 60 81 61 46 62 47 63 61 65 82 66 49 67 33 68
REMARK SMILES IDX 34 69 42 70 35 71 36 72 40 73 43 74 37 75 38 76 41 77 39 78
REMARK SMILES IDX 65 79 66 80 74 81 67 82 68 83 72 84 75 85 69 86 70 87 73 88
REMARK SMILES IDX 71 89 50 90 51 91 59 92 52 93 53 94 57 95 60 96 54 97 55 98
REMARK SMILES IDX 58 99 56 100
REMARK H PARENT 17 5 93 28 93 29 21 34 80 53 48 64
REMARK Flexibility Score: inf
ROOT
ATOM      1  C   UNL A   1      32.024  30.580  26.814  1.00  0.00     0.118 C 
ENDROOT
BRANCH   1   2
ATOM      2  N   UNL A   1      33.429  30.350  27.103  1.00  0.00    -0.352 N 
ATOM      3  C   UNL A   1      34.289  29.333  26.785  1.00  0.00     0.251 C 
ATOM      4  O   UNL A   1      35.462  29.452  27.147  1.00  0.00    -0.269 OA
ATOM      5  H   UNL A   1      33.845  31.069  27.633  1.00  0.00     0.163 HD
BRANCH   3   6
ATOM      6  C   UNL A   1      33.898  28.128  26.001  1.00  0.00     0.040 A 
ATOM      7  N   UNL A   1      32.688  24.887  23.511  1.00  0.00    -0.266 N 
ATOM      8  C   UNL A   1      32.900  25.021  22.058  1.00  0.00     0.136 C 
ATOM      9  C   UNL A   1      33.105  25.966  24.358  1.00  0.00     0.055 A 
ATOM     10  C   UNL A   1      32.372  26.370  21.601  1.00  0.00     0.028 C 
ATOM     11  C   UNL A   1      33.251  27.248  23.807  1.00  0.00    -0.023 A 
ATOM     12  C   UNL A   1      33.447  25.762  25.697  1.00  0.00     0.028 A 
ATOM     13  C   UNL A   1      33.105  27.493  22.326  1.00  0.00     0.039 C 
ATOM     14  C   UNL A   1      33.630  28.318  24.637  1.00  0.00     0.019 A 
ATOM     15  C   UNL A   1      33.854  26.830  26.506  1.00  0.00     0.016 A 
BRANCH   7  16
ATOM     16  S   UNL A   1      31.575  23.720  24.046  1.00  0.00     0.265 S 
ATOM     17  O   UNL A   1      30.744  23.313  22.929  1.00  0.00    -0.201 OA
ATOM     18  O   UNL A   1      31.011  24.059  25.331  1.00  0.00    -0.201 OA
BRANCH  16  19
ATOM     19  C   UNL A   1      32.497  22.290  24.386  1.00  0.00     0.106 A 
ATOM     20  C   UNL A   1      35.557  20.481  25.001  1.00  0.00     0.150 C 
ATOM     21  N   UNL A   1      34.185  20.901  24.805  1.00  0.00    -0.345 N 
ATOM     22  C   UNL A   1      33.864  22.207  24.512  1.00  0.00     0.108 A 
ATOM     23  C   UNL A   1      33.036  20.125  24.872  1.00  0.00     0.107 A 
ATOM     24  C   UNL A   1      31.980  20.989  24.585  1.00  0.00     0.056 A 
BRANCH  23  25
ATOM     25  C   UNL A   1      32.983  18.705  25.178  1.00  0.00     0.265 C 
ATOM     26  N   UNL A   1      32.902  18.380  26.502  1.00  0.00    -0.364 N 
ATOM     27  O   UNL A   1      33.013  17.798  24.353  1.00  0.00    -0.268 OA
ATOM     28  H   UNL A   1      32.878  19.091  27.183  1.00  0.00     0.160 HD
ATOM     29  H   UNL A   1      32.869  17.435  26.776  1.00  0.00     0.160 HD
ENDBRANCH  23  25
ENDBRANCH  16  19
ENDBRANCH   7  16
ENDBRANCH   3   6
ENDBRANCH   1   2
BRANCH   1  30
ATOM     30  C   UNL A   1      31.687  32.070  26.881  1.00  0.00     0.042 C 
BRANCH  30  31
ATOM     31  C   UNL A   1      32.907  32.960  27.112  1.00  0.00     0.118 C 
BRANCH  31  32
ATOM     32  N   UNL A   1      32.540  34.273  27.626  1.00  0.00    -0.352 N 
ATOM     33  C   UNL A   1      32.994  34.950  28.730  1.00  0.00     0.251 C 
ATOM     34  H   UNL A   1      31.859  34.749  27.099  1.00  0.00     0.163 HD
ATOM     35  O   UNL A   1      32.397  35.948  29.121  1.00  0.00    -0.269 OA
BRANCH  33  36
ATOM     36  C   UNL A   1      34.189  34.481  29.465  1.00  0.00     0.039 A 
ATOM     37  C   UNL A   1      34.026  33.957  30.751  1.00  0.00     0.014 A 
ATOM     38  C   UNL A   1      35.467  34.584  28.908  1.00  0.00     0.014 A 
ATOM     39  C   UNL A   1      35.132  33.462  31.446  1.00  0.00     0.010 A 
ATOM     40  C   UNL A   1      36.561  34.037  29.576  1.00  0.00     0.010 A 
ATOM     41  C   UNL A   1      36.401  33.456  30.844  1.00  0.00    -0.014 A 
BRANCH  41  42
ATOM     42  C   UNL A   1      37.559  32.792  31.494  1.00  0.00     0.031 A 
ATOM     43  C   UNL A   1      38.229  31.614  30.847  1.00  0.00     0.074 A 
ATOM     44  C   UNL A   1      37.945  33.202  32.717  1.00  0.00     0.049 A 
ATOM     45  N   UNL A   1      39.179  30.844  31.315  1.00  0.00    -0.248 NA
ATOM     46  C   UNL A   1      37.756  31.240  29.506  1.00  0.00     0.031 C 
ATOM     47  C   UNL A   1      37.344  34.309  33.464  1.00  0.00     0.029 A 
ATOM     48  N   UNL A   1      38.918  32.724  33.559  1.00  0.00    -0.354 N 
ATOM     49  C   UNL A   1      39.410  29.889  30.334  1.00  0.00     0.074 A 
ATOM     50  C   UNL A   1      38.473  30.152  29.262  1.00  0.00     0.031 C 
ATOM     51  C   UNL A   1      37.965  34.430  34.647  1.00  0.00     0.029 A 
ATOM     52  C   UNL A   1      38.977  33.385  34.762  1.00  0.00     0.049 A 
ATOM     53  H   UNL A   1      39.517  31.979  33.324  1.00  0.00     0.167 HD
ATOM     54  C   UNL A   1      40.331  28.895  30.325  1.00  0.00     0.037 A 
ATOM     55  C   UNL A   1      39.744  33.160  35.845  1.00  0.00     0.037 A 
ATOM     56  C   UNL A   1      41.270  28.650  31.389  1.00  0.00     0.049 A 
ATOM     57  C   UNL A   1      40.733  32.029  35.822  1.00  0.00     0.074 A 
ATOM     58  C   UNL A   1      42.291  27.717  31.442  1.00  0.00     0.029 A 
ATOM     59  N   UNL A   1      41.297  29.337  32.594  1.00  0.00    -0.354 N 
ATOM     60  N   UNL A   1      40.992  31.176  34.861  1.00  0.00    -0.248 NA
ATOM     61  C   UNL A   1      41.536  31.826  37.037  1.00  0.00     0.031 C 
ATOM     62  C   UNL A   1      42.901  27.805  32.697  1.00  0.00     0.029 A 
ATOM     63  C   UNL A   1      42.293  28.824  33.410  1.00  0.00     0.049 A 
ATOM     64  H   UNL A   1      40.697  30.080  32.834  1.00  0.00     0.167 HD
ATOM     65  C   UNL A   1      41.992  30.346  35.345  1.00  0.00     0.074 A 
ATOM     66  C   UNL A   1      42.311  30.811  36.680  1.00  0.00     0.031 C 
ATOM     67  C   UNL A   1      42.589  29.290  34.741  1.00  0.00     0.037 A 
BRANCH  54  68
ATOM     68  C   UNL A   1      40.370  27.992  29.127  1.00  0.00     0.064 A 
ATOM     69  C   UNL A   1      39.628  26.802  29.078  1.00  0.00     0.173 A 
ATOM     70  C   UNL A   1      41.121  28.343  27.995  1.00  0.00     0.173 A 
ATOM     71  F   UNL A   1      38.900  26.416  30.137  1.00  0.00    -0.203 F 
ATOM     72  C   UNL A   1      39.655  25.986  27.950  1.00  0.00     0.198 A 
ATOM     73  C   UNL A   1      41.124  27.539  26.859  1.00  0.00     0.198 A 
ATOM     74  F   UNL A   1      41.844  29.474  27.987  1.00  0.00    -0.203 F 
ATOM     75  F   UNL A   1      38.971  24.834  27.942  1.00  0.00    -0.200 F 
ATOM     76  C   UNL A   1      40.397  26.359  26.839  1.00  0.00     0.200 A 
ATOM     77  F   UNL A   1      41.831  27.907  25.781  1.00  0.00    -0.200 F 
ATOM     78  F   UNL A   1      40.415  25.576  25.751  1.00  0.00    -0.200 F 
ENDBRANCH  54  68
BRANCH  55  79
ATOM     79  C   UNL A   1      39.602  34.026  37.044  1.00  0.00     0.064 A 
ATOM     80  C   UNL A   1      38.790  33.638  38.118  1.00  0.00     0.173 A 
ATOM     81  C   UNL A   1      40.276  35.251  37.144  1.00  0.00     0.173 A 
ATOM     82  F   UNL A   1      38.108  32.484  38.058  1.00  0.00    -0.203 F 
ATOM     83  C   UNL A   1      38.645  34.449  39.240  1.00  0.00     0.198 A 
ATOM     84  C   UNL A   1      40.152  36.050  38.280  1.00  0.00     0.198 A 
ATOM     85  F   UNL A   1      41.069  35.666  36.145  1.00  0.00    -0.203 F 
ATOM     86  F   UNL A   1      37.830  34.075  40.236  1.00  0.00    -0.200 F 
ATOM     87  C   UNL A   1      39.331  35.652  39.323  1.00  0.00     0.200 A 
ATOM     88  F   UNL A   1      40.829  37.203  38.361  1.00  0.00    -0.200 F 
ATOM     89  F   UNL A   1      39.197  36.430  40.406  1.00  0.00    -0.200 F 
ENDBRANCH  55  79
BRANCH  67  90
ATOM     90  C   UNL A   1      43.651  28.569  35.517  1.00  0.00     0.064 A 
ATOM     91  C   UNL A   1      43.329  27.528  36.400  1.00  0.00     0.173 A 
ATOM     92  C   UNL A   1      45.006  28.896  35.351  1.00  0.00     0.173 A 
ATOM     93  F   UNL A   1      42.047  27.191  36.608  1.00  0.00    -0.203 F 
ATOM     94  C   UNL A   1      44.323  26.853  37.104  1.00  0.00     0.198 A 
ATOM     95  C   UNL A   1      45.999  28.199  36.034  1.00  0.00     0.198 A 
ATOM     96  F   UNL A   1      45.366  29.880  34.515  1.00  0.00    -0.203 F 
ATOM     97  F   UNL A   1      43.989  25.891  37.975  1.00  0.00    -0.200 F 
ATOM     98  C   UNL A   1      45.657  27.183  36.914  1.00  0.00     0.200 A 
ATOM     99  F   UNL A   1      47.288  28.512  35.841  1.00  0.00    -0.200 F 
ATOM    100  F   UNL A   1      46.613  26.527  37.586  1.00  0.00    -0.200 F 
ENDBRANCH  67  90
ENDBRANCH  41  42
ENDBRANCH  33  36
ENDBRANCH  31  32
ENDBRANCH  30  31
ENDBRANCH   1  30
TORSDOF 13
ENDMDL
MODEL 2
REMARK VINA RESULT:     -13.8      0.143      1.556
REMARK SMILES Cn1cc(S(=O)(=O)N2CCCc3cc(C(=O)NCCCNC(=O)c4ccc(-c5c6nc(c(-c7c(F)c(F)c(F)c(F)c7F)c7ccc([nH]7)c(-c7c(F)c(F)c(F)c(F)c7F)c7nc(c(-c8c(F)c(F)c(F)c(F)c8F)c8ccc5[nH]8)C=C7)C=C6)cc4)ccc32)cc1C(N)=O
REMARK SMILES IDX 18 1 17 2 15 3 16 4 14 6 8 7 9 8 89 9 10 10 12 11 88 12
REMARK SMILES IDX 11 13 13 14 87 15 5 16 6 17 7 18 4 19 1 20 2 21 3 22 91 23
REMARK SMILES IDX 90 24 92 25 93 26 94 27 19 30 20 31 21 32 22 33 23 35 24 36
REMARK SMILES IDX 25 37 86 38 26 39 85 40 27 41 28 42 29 43 79 44 30 45 84 46
REMARK SMILES IDX 78 47 80 48 31 49 83 50 77 51 76 52 32 54 64 55 44 56 63 57
REMARK SMILES IDX 45 58 48 59 62 60 81 61 46 62 47 63 61 65 82 66 49 67 33 68
REMARK SMILES IDX 34 69 42 70 35 71 36 72 40 73 43 74 37 75 38 76 41 77 39 78
REMARK SMILES IDX 65 79 66 80 74 81 67 82 68 83 72 84 75 85 69 86 70 87 73 88
REMARK SMILES IDX 71 89 50 90 51 91 59 92 52 93 53 94 57 95 60 96 54 97 55 98
REMARK SMILES IDX 58 99 56 100
REMARK H PARENT 17 5 93 28 93 29 21 34 80 53 48 64
REMARK Flexibility Score: inf
ROOT
ATOM      1  C   UNL A   1      31.967  30.543  26.874  1.00  0.00     0.118 C 
ENDROOT
BRANCH   1   2
ATOM      2  N   UNL A   1      33.381  30.313  27.112  1.00  0.00    -0.352 N 
ATOM      3  C   UNL A   1      34.231  29.299  26.759  1.00  0.00     0.251 C 
ATOM      4  O   UNL A   1      35.415  29.417  27.078  1.00  0.00    -0.269 OA
ATOM      5  H   UNL A   1      33.816  31.030  27.629  1.00  0.00     0.163 HD
BRANCH   3   6
ATOM      6  C   UNL A   1      33.813  28.097  25.984  1.00  0.00     0.040 A 
ATOM      7  N   UNL A   1      32.504  24.865  23.531  1.00  0.00    -0.266 N 
ATOM      8  C   UNL A   1      32.609  25.027  22.069  1.00  0.00     0.136 C 
ATOM      9  C   UNL A   1      32.955  25.941  24.365  1.00  0.00     0.055 A 
ATOM     10  C   UNL A   1      32.018  26.369  21.674  1.00  0.00     0.028 C 
ATOM     11  C   UNL A   1      33.031  27.235  23.827  1.00  0.00    -0.023 A 
ATOM     12  C   UNL A   1      33.397  25.725  25.672  1.00  0.00     0.028 A 
ATOM     13  C   UNL A   1      32.774  27.499  22.364  1.00  0.00     0.039 C 
ATOM     14  C   UNL A   1      33.444  28.301  24.645  1.00  0.00     0.019 A 
ATOM     15  C   UNL A   1      33.835  26.790  26.468  1.00  0.00     0.016 A 
BRANCH   7  16
ATOM     16  S   UNL A   1      31.460  23.663  24.123  1.00  0.00     0.265 S 
ATOM     17  O   UNL A   1      30.601  23.210  23.046  1.00  0.00    -0.201 OA
ATOM     18  O   UNL A   1      30.935  23.997  25.426  1.00  0.00    -0.201 OA
BRANCH  16  19
ATOM     19  C   UNL A   1      32.450  22.275  24.442  1.00  0.00     0.106 A 
ATOM     20  C   UNL A   1      35.599  20.597  24.978  1.00  0.00     0.150 C 
ATOM     21  N   UNL A   1      34.205  20.959  24.818  1.00  0.00    -0.345 N 
ATOM     22  C   UNL A   1      33.822  22.249  24.530  1.00  0.00     0.108 A 
ATOM     23  C   UNL A   1      33.092  20.136  24.919  1.00  0.00     0.107 A 
ATOM     24  C   UNL A   1      31.994  20.954  24.659  1.00  0.00     0.056 A 
BRANCH  23  25
ATOM     25  C   UNL A   1      33.107  18.716  25.230  1.00  0.00     0.265 C 
ATOM     26  N   UNL A   1      32.781  18.380  26.512  1.00  0.00    -0.364 N 
ATOM     27  O   UNL A   1      33.393  17.819  24.444  1.00  0.00    -0.268 OA
ATOM     28  H   UNL A   1      32.548  19.084  27.162  1.00  0.00     0.160 HD
ATOM     29  H   UNL A   1      32.778  17.436  26.789  1.00  0.00     0.160 HD
ENDBRANCH  23  25
ENDBRANCH  16  19
ENDBRANCH   7  16
ENDBRANCH   3   6
ENDBRANCH   1   2
BRANCH   1  30
ATOM     30  C   UNL A   1      31.643  32.037  26.890  1.00  0.00     0.042 C 
BRANCH  30  31
ATOM     31  C   UNL A   1      32.870  32.923  27.101  1.00  0.00     0.118 C 
BRANCH  31  32
ATOM     32  N   UNL A   1      32.514  34.245  27.600  1.00  0.00    -0.352 N 
ATOM     33  C   UNL A   1      32.984  34.937  28.688  1.00  0.00     0.251 C 
ATOM     34  H   UNL A   1      31.828  34.715  27.074  1.00  0.00     0.163 HD
ATOM     35  O   UNL A   1      32.395  35.944  29.070  1.00  0.00    -0.269 OA
BRANCH  33  36
ATOM     36  C   UNL A   1      34.186  34.475  29.414  1.00  0.00     0.039 A 
ATOM     37  C   UNL A   1      34.032  33.925  30.691  1.00  0.00     0.014 A 
ATOM     38  C   UNL A   1      35.463  34.612  28.862  1.00  0.00     0.014 A 
ATOM     39  C   UNL A   1      35.145  33.436  31.377  1.00  0.00     0.010 A 
ATOM     40  C   UNL A   1      36.565  34.071  29.521  1.00  0.00     0.010 A 
ATOM     41  C   UNL A   1      36.415  33.464  30.777  1.00  0.00    -0.014 A 
BRANCH  41  42
ATOM     42  C   UNL A   1      37.584  32.808  31.415  1.00  0.00     0.031 A 
ATOM     43  C   UNL A   1      38.254  31.634  30.763  1.00  0.00     0.074 A 
ATOM     44  C   UNL A   1      37.979  33.222  32.634  1.00  0.00     0.049 A 
ATOM     45  N   UNL A   1      39.214  30.870  31.222  1.00  0.00    -0.248 NA
ATOM     46  C   UNL A   1      37.770  31.254  29.427  1.00  0.00     0.031 C 
ATOM     47  C   UNL A   1      37.379  34.325  33.385  1.00  0.00     0.029 A 
ATOM     48  N   UNL A   1      38.965  32.751  33.466  1.00  0.00    -0.354 N 
ATOM     49  C   UNL A   1      39.441  29.915  30.240  1.00  0.00     0.074 A 
ATOM     50  C   UNL A   1      38.491  30.171  29.177  1.00  0.00     0.031 C 
ATOM     51  C   UNL A   1      38.012  34.453  34.562  1.00  0.00     0.029 A 
ATOM     52  C   UNL A   1      39.032  33.414  34.668  1.00  0.00     0.049 A 
ATOM     53  H   UNL A   1      39.565  32.010  33.226  1.00  0.00     0.167 HD
ATOM     54  C   UNL A   1      40.368  28.927  30.223  1.00  0.00     0.037 A 
ATOM     55  C   UNL A   1      39.811  33.195  35.743  1.00  0.00     0.037 A 
ATOM     56  C   UNL A   1      41.320  28.690  31.277  1.00  0.00     0.049 A 
ATOM     57  C   UNL A   1      40.807  32.071  35.711  1.00  0.00     0.074 A 
ATOM     58  C   UNL A   1      42.348  27.763  31.320  1.00  0.00     0.029 A 
ATOM     59  N   UNL A   1      41.355  29.378  32.481  1.00  0.00    -0.354 N 
ATOM     60  N   UNL A   1      41.061  31.218  34.748  1.00  0.00    -0.248 NA
ATOM     61  C   UNL A   1      41.624  31.874  36.918  1.00  0.00     0.031 C 
ATOM     62  C   UNL A   1      42.970  27.856  32.569  1.00  0.00     0.029 A 
ATOM     63  C   UNL A   1      42.362  28.873  33.287  1.00  0.00     0.049 A 
ATOM     64  H   UNL A   1      40.752  30.117  32.727  1.00  0.00     0.167 HD
ATOM     65  C   UNL A   1      42.072  30.395  35.223  1.00  0.00     0.074 A 
ATOM     66  C   UNL A   1      42.401  30.864  36.554  1.00  0.00     0.031 C 
ATOM     67  C   UNL A   1      42.669  29.343  34.615  1.00  0.00     0.037 A 
BRANCH  54  68
ATOM     68  C   UNL A   1      40.401  28.023  29.026  1.00  0.00     0.064 A 
ATOM     69  C   UNL A   1      39.652  26.836  28.979  1.00  0.00     0.173 A 
ATOM     70  C   UNL A   1      41.151  28.369  27.892  1.00  0.00     0.173 A 
ATOM     71  F   UNL A   1      38.924  26.455  30.040  1.00  0.00    -0.203 F 
ATOM     72  C   UNL A   1      39.673  26.019  27.851  1.00  0.00     0.198 A 
ATOM     73  C   UNL A   1      41.148  27.564  26.756  1.00  0.00     0.198 A 
ATOM     74  F   UNL A   1      41.879  29.496  27.881  1.00  0.00    -0.203 F 
ATOM     75  F   UNL A   1      38.984  24.870  27.846  1.00  0.00    -0.200 F 
ATOM     76  C   UNL A   1      40.415  26.387  26.739  1.00  0.00     0.200 A 
ATOM     77  F   UNL A   1      41.855  27.927  25.677  1.00  0.00    -0.200 F 
ATOM     78  F   UNL A   1      40.427  25.604  25.651  1.00  0.00    -0.200 F 
ENDBRANCH  54  68
BRANCH  55  79
ATOM     79  C   UNL A   1      39.676  34.062  36.943  1.00  0.00     0.064 A 
ATOM     80  C   UNL A   1      40.357  35.283  37.026  1.00  0.00     0.173 A 
ATOM     81  C   UNL A   1      38.864  33.691  38.024  1.00  0.00     0.173 A 
ATOM     82  F   UNL A   1      41.163  35.670  36.026  1.00  0.00    -0.203 F 
ATOM     83  C   UNL A   1      40.242  36.096  38.151  1.00  0.00     0.198 A 
ATOM     84  C   UNL A   1      38.728  34.517  39.139  1.00  0.00     0.198 A 
ATOM     85  F   UNL A   1      38.188  32.533  37.992  1.00  0.00    -0.203 F 
ATOM     86  F   UNL A   1      40.936  37.240  38.224  1.00  0.00    -0.200 F 
ATOM     87  C   UNL A   1      39.423  35.715  39.204  1.00  0.00     0.200 A 
ATOM     88  F   UNL A   1      37.924  34.153  40.145  1.00  0.00    -0.200 F 
ATOM     89  F   UNL A   1      39.308  36.500  40.285  1.00  0.00    -0.200 F 
ENDBRANCH  55  79
BRANCH  67  90
ATOM     90  C   UNL A   1      43.744  28.629  35.381  1.00  0.00     0.064 A 
ATOM     91  C   UNL A   1      45.094  28.983  35.247  1.00  0.00     0.173 A 
ATOM     92  C   UNL A   1      43.418  27.605  36.285  1.00  0.00     0.173 A 
ATOM     93  F   UNL A   1      45.457  29.942  34.381  1.00  0.00    -0.203 F 
ATOM     94  C   UNL A   1      46.082  28.326  35.974  1.00  0.00     0.198 A 
ATOM     95  C   UNL A   1      44.406  26.970  37.032  1.00  0.00     0.198 A 
ATOM     96  F   UNL A   1      42.141  27.232  36.453  1.00  0.00    -0.203 F 
ATOM     97  F   UNL A   1      47.370  28.651  35.798  1.00  0.00    -0.200 F 
ATOM     98  C   UNL A   1      45.737  27.326  36.872  1.00  0.00     0.200 A 
ATOM     99  F   UNL A   1      44.070  26.013  37.907  1.00  0.00    -0.200 F 
ATOM    100  F   UNL A   1      46.689  26.701  37.578  1.00  0.00    -0.200 F 
ENDBRANCH  67  90
ENDBRANCH  41  42
ENDBRANCH  33  36
ENDBRANCH  31  32
ENDBRANCH  30  31
ENDBRANCH   1  30
TORSDOF 13
ENDMDL
MODEL 3
REMARK VINA RESULT:     -13.7      5.580     11.393
REMARK SMILES Cn1cc(S(=O)(=O)N2CCCc3cc(C(=O)NCCCNC(=O)c4ccc(-c5c6nc(c(-c7c(F)c(F)c(F)c(F)c7F)c7ccc([nH]7)c(-c7c(F)c(F)c(F)c(F)c7F)c7nc(c(-c8c(F)c(F)c(F)c(F)c8F)c8ccc5[nH]8)C=C7)C=C6)cc4)ccc32)cc1C(N)=O
REMARK SMILES IDX 18 1 17 2 15 3 16 4 14 6 8 7 9 8 89 9 10 10 12 11 88 12
REMARK SMILES IDX 11 13 13 14 87 15 5 16 6 17 7 18 4 19 1 20 2 21 3 22 91 23
REMARK SMILES IDX 90 24 92 25 93 26 94 27 19 30 20 31 21 32 22 33 23 35 24 36
REMARK SMILES IDX 25 37 86 38 26 39 85 40 27 41 28 42 29 43 79 44 30 45 84 46
REMARK SMILES IDX 78 47 80 48 31 49 83 50 77 51 76 52 32 54 64 55 44 56 63 57
REMARK SMILES IDX 45 58 48 59 62 60 81 61 46 62 47 63 61 65 82 66 49 67 33 68
REMARK SMILES IDX 34 69 42 70 35 71 36 72 40 73 43 74 37 75 38 76 41 77 39 78
REMARK SMILES IDX 65 79 66 80 74 81 67 82 68 83 72 84 75 85 69 86 70 87 73 88
REMARK SMILES IDX 71 89 50 90 51 91 59 92 52 93 53 94 57 95 60 96 54 97 55 98
REMARK SMILES IDX 58 99 56 100
REMARK H PARENT 17 5 93 28 93 29 21 34 80 53 48 64
REMARK Flexibility Score: inf
ROOT
ATOM      1  C   UNL A   1      36.816  20.673  25.065  1.00  0.00     0.118 C 
ENDROOT
BRANCH   1   2
ATOM      2  N   UNL A   1      35.556  19.955  25.006  1.00  0.00    -0.352 N 
ATOM      3  C   UNL A   1      34.257  20.366  24.871  1.00  0.00     0.251 C 
ATOM      4  O   UNL A   1      33.391  19.491  24.808  1.00  0.00    -0.269 OA
ATOM      5  H   UNL A   1      35.656  18.977  25.077  1.00  0.00     0.163 HD
BRANCH   3   6
ATOM      6  C   UNL A   1      33.844  21.793  24.755  1.00  0.00     0.040 A 
ATOM      7  N   UNL A   1      32.369  25.787  24.549  1.00  0.00    -0.266 N 
ATOM      8  C   UNL A   1      31.449  26.234  25.612  1.00  0.00     0.136 C 
ATOM      9  C   UNL A   1      32.882  24.450  24.618  1.00  0.00     0.055 A 
ATOM     10  C   UNL A   1      30.360  25.192  25.798  1.00  0.00     0.028 C 
ATOM     11  C   UNL A   1      32.181  23.488  25.361  1.00  0.00    -0.023 A 
ATOM     12  C   UNL A   1      34.100  24.097  24.033  1.00  0.00     0.028 A 
ATOM     13  C   UNL A   1      30.976  23.854  26.192  1.00  0.00     0.039 C 
ATOM     14  C   UNL A   1      32.660  22.167  25.409  1.00  0.00     0.019 A 
ATOM     15  C   UNL A   1      34.583  22.785  24.113  1.00  0.00     0.016 A 
BRANCH   7  16
ATOM     16  S   UNL A   1      32.401  26.676  23.102  1.00  0.00     0.265 S 
ATOM     17  O   UNL A   1      31.933  25.832  22.019  1.00  0.00    -0.201 OA
ATOM     18  O   UNL A   1      33.600  27.472  22.983  1.00  0.00    -0.201 OA
BRANCH  16  19
ATOM     19  C   UNL A   1      31.148  27.868  23.237  1.00  0.00     0.106 A 
ATOM     20  C   UNL A   1      29.817  31.069  24.238  1.00  0.00     0.150 C 
ATOM     21  N   UNL A   1      30.039  29.740  23.705  1.00  0.00    -0.345 N 
ATOM     22  C   UNL A   1      31.250  29.100  23.839  1.00  0.00     0.108 A 
ATOM     23  C   UNL A   1      29.141  28.934  23.018  1.00  0.00     0.107 A 
ATOM     24  C   UNL A   1      29.827  27.752  22.746  1.00  0.00     0.056 A 
BRANCH  23  25
ATOM     25  C   UNL A   1      27.773  29.284  22.674  1.00  0.00     0.265 C 
ATOM     26  N   UNL A   1      27.610  30.014  21.531  1.00  0.00    -0.364 N 
ATOM     27  O   UNL A   1      26.777  28.986  23.324  1.00  0.00    -0.268 OA
ATOM     28  H   UNL A   1      28.396  30.267  20.992  1.00  0.00     0.160 HD
ATOM     29  H   UNL A   1      26.709  30.288  21.245  1.00  0.00     0.160 HD
ENDBRANCH  23  25
ENDBRANCH  16  19
ENDBRANCH   7  16
ENDBRANCH   3   6
ENDBRANCH   1   2
BRANCH   1  30
ATOM     30  C   UNL A   1      38.002  19.710  24.988  1.00  0.00     0.042 C 
BRANCH  30  31
ATOM     31  C   UNL A   1      39.214  20.172  25.797  1.00  0.00     0.118 C 
BRANCH  31  32
ATOM     32  N   UNL A   1      40.223  19.128  25.918  1.00  0.00    -0.352 N 
ATOM     33  C   UNL A   1      41.581  19.226  26.092  1.00  0.00     0.251 C 
ATOM     34  H   UNL A   1      39.877  18.209  25.866  1.00  0.00     0.163 HD
ATOM     35  O   UNL A   1      42.287  18.234  25.944  1.00  0.00    -0.269 OA
BRANCH  33  36
ATOM     36  C   UNL A   1      42.205  20.520  26.443  1.00  0.00     0.039 A 
ATOM     37  C   UNL A   1      42.747  21.306  25.420  1.00  0.00     0.014 A 
ATOM     38  C   UNL A   1      42.290  20.946  27.772  1.00  0.00     0.014 A 
ATOM     39  C   UNL A   1      43.298  22.554  25.720  1.00  0.00     0.010 A 
ATOM     40  C   UNL A   1      42.786  22.215  28.063  1.00  0.00     0.010 A 
ATOM     41  C   UNL A   1      43.280  23.038  27.038  1.00  0.00    -0.014 A 
BRANCH  41  42
ATOM     42  C   UNL A   1      43.711  24.422  27.357  1.00  0.00     0.031 A 
ATOM     43  C   UNL A   1      42.721  25.441  27.842  1.00  0.00     0.074 A 
ATOM     44  C   UNL A   1      44.987  24.779  27.118  1.00  0.00     0.049 A 
ATOM     45  N   UNL A   1      42.892  26.720  28.066  1.00  0.00    -0.248 NA
ATOM     46  C   UNL A   1      41.351  24.965  28.090  1.00  0.00     0.031 C 
ATOM     47  C   UNL A   1      46.031  23.889  26.608  1.00  0.00     0.029 A 
ATOM     48  N   UNL A   1      45.620  25.991  27.250  1.00  0.00    -0.354 N 
ATOM     49  C   UNL A   1      41.655  27.203  28.469  1.00  0.00     0.074 A 
ATOM     50  C   UNL A   1      40.732  26.089  28.420  1.00  0.00     0.031 C 
ATOM     51  C   UNL A   1      47.174  24.579  26.478  1.00  0.00     0.029 A 
ATOM     52  C   UNL A   1      46.935  25.969  26.853  1.00  0.00     0.049 A 
ATOM     53  H   UNL A   1      45.176  26.797  27.597  1.00  0.00     0.167 HD
ATOM     54  C   UNL A   1      41.327  28.459  28.858  1.00  0.00     0.037 A 
ATOM     55  C   UNL A   1      47.841  26.962  26.776  1.00  0.00     0.037 A 
ATOM     56  C   UNL A   1      42.255  29.558  28.919  1.00  0.00     0.049 A 
ATOM     57  C   UNL A   1      47.440  28.353  27.181  1.00  0.00     0.074 A 
ATOM     58  C   UNL A   1      42.038  30.849  29.371  1.00  0.00     0.029 A 
ATOM     59  N   UNL A   1      43.578  29.500  28.504  1.00  0.00    -0.354 N 
ATOM     60  N   UNL A   1      46.286  28.784  27.628  1.00  0.00    -0.248 NA
ATOM     61  C   UNL A   1      48.468  29.397  27.068  1.00  0.00     0.031 C 
ATOM     62  C   UNL A   1      43.213  31.583  29.182  1.00  0.00     0.029 A 
ATOM     63  C   UNL A   1      44.178  30.740  28.656  1.00  0.00     0.049 A 
ATOM     64  H   UNL A   1      44.025  28.696  28.153  1.00  0.00     0.167 HD
ATOM     65  C   UNL A   1      46.450  30.141  27.862  1.00  0.00     0.074 A 
ATOM     66  C   UNL A   1      47.823  30.460  27.528  1.00  0.00     0.031 C 
ATOM     67  C   UNL A   1      45.543  31.044  28.308  1.00  0.00     0.037 A 
BRANCH  54  68
ATOM     68  C   UNL A   1      39.901  28.717  29.249  1.00  0.00     0.064 A 
ATOM     69  C   UNL A   1      38.946  29.140  28.312  1.00  0.00     0.173 A 
ATOM     70  C   UNL A   1      39.472  28.494  30.566  1.00  0.00     0.173 A 
ATOM     71  F   UNL A   1      39.305  29.375  27.041  1.00  0.00    -0.203 F 
ATOM     72  C   UNL A   1      37.621  29.351  28.685  1.00  0.00     0.198 A 
ATOM     73  C   UNL A   1      38.142  28.680  30.929  1.00  0.00     0.198 A 
ATOM     74  F   UNL A   1      40.344  28.083  31.501  1.00  0.00    -0.203 F 
ATOM     75  F   UNL A   1      36.735  29.795  27.782  1.00  0.00    -0.200 F 
ATOM     76  C   UNL A   1      37.219  29.115  29.991  1.00  0.00     0.200 A 
ATOM     77  F   UNL A   1      37.752  28.439  32.188  1.00  0.00    -0.200 F 
ATOM     78  F   UNL A   1      35.941  29.311  30.345  1.00  0.00    -0.200 F 
ENDBRANCH  54  68
BRANCH  55  79
ATOM     79  C   UNL A   1      49.216  26.673  26.293  1.00  0.00     0.064 A 
ATOM     80  C   UNL A   1      50.200  26.199  27.170  1.00  0.00     0.173 A 
ATOM     81  C   UNL A   1      49.572  26.860  24.950  1.00  0.00     0.173 A 
ATOM     82  F   UNL A   1      49.912  26.026  28.469  1.00  0.00    -0.203 F 
ATOM     83  C   UNL A   1      51.493  25.936  26.726  1.00  0.00     0.198 A 
ATOM     84  C   UNL A   1      50.860  26.570  24.500  1.00  0.00     0.198 A 
ATOM     85  F   UNL A   1      48.666  27.309  24.069  1.00  0.00    -0.203 F 
ATOM     86  F   UNL A   1      52.427  25.522  27.593  1.00  0.00    -0.200 F 
ATOM     87  C   UNL A   1      51.820  26.116  25.390  1.00  0.00     0.200 A 
ATOM     88  F   UNL A   1      51.166  26.731  23.206  1.00  0.00    -0.200 F 
ATOM     89  F   UNL A   1      53.064  25.856  24.961  1.00  0.00    -0.200 F 
ENDBRANCH  55  79
BRANCH  67  90
ATOM     90  C   UNL A   1      46.008  32.461  28.464  1.00  0.00     0.064 A 
ATOM     91  C   UNL A   1      45.859  33.397  27.430  1.00  0.00     0.173 A 
ATOM     92  C   UNL A   1      46.576  32.899  29.671  1.00  0.00     0.173 A 
ATOM     93  F   UNL A   1      45.340  33.023  26.251  1.00  0.00    -0.203 F 
ATOM     94  C   UNL A   1      46.279  34.715  27.591  1.00  0.00     0.198 A 
ATOM     95  C   UNL A   1      46.968  34.224  29.839  1.00  0.00     0.198 A 
ATOM     96  F   UNL A   1      46.737  32.044  30.692  1.00  0.00    -0.203 F 
ATOM     97  F   UNL A   1      46.166  35.581  26.575  1.00  0.00    -0.200 F 
ATOM     98  C   UNL A   1      46.825  35.129  28.797  1.00  0.00     0.200 A 
ATOM     99  F   UNL A   1      47.485  34.625  31.008  1.00  0.00    -0.200 F 
ATOM    100  F   UNL A   1      47.221  36.400  28.953  1.00  0.00    -0.200 F 
ENDBRANCH  67  90
ENDBRANCH  41  42
ENDBRANCH  33  36
ENDBRANCH  31  32
ENDBRANCH  30  31
ENDBRANCH   1  30
TORSDOF 13
ENDMDL
