MODEL 1
REMARK VINA RESULT:     -12.3      0.000      0.000
REMARK SMILES CC[NH2+][C@]1(C(=O)NCCCNC(=O)c2ccc(-c3c4nc(c(-c5c(F)c(F)c(F)c(F)c5F)c5ccc([nH]5)c(-c5c(F)c(F)c(F)c(F)c5F)c5nc(c(-c6c(F)c(F)c(F)c(F)c6F)c6ccc3[nH]6)C=C5)C=C4)cc2)CCC[C@@H]1CCSc1ccccc1F
REMARK SMILES IDX 8 1 7 2 5 3 6 4 4 6 77 7 80 8 78 9 79 10 3 11 2 14 1 15
REMARK SMILES IDX 81 16 82 17 83 18 84 19 85 20 89 21 86 22 88 23 90 24 87 25
REMARK SMILES IDX 9 26 10 27 11 28 12 29 13 31 14 32 15 33 76 34 16 35 75 36
REMARK SMILES IDX 17 37 18 38 19 39 69 40 20 41 74 42 68 43 70 44 21 45 73 46
REMARK SMILES IDX 67 47 66 48 22 50 54 51 34 52 53 53 35 54 38 55 52 56 71 57
REMARK SMILES IDX 36 58 37 59 51 61 72 62 39 63 23 64 24 65 32 66 25 67 26 68
REMARK SMILES IDX 30 69 33 70 27 71 28 72 31 73 29 74 55 75 56 76 64 77 57 78
REMARK SMILES IDX 58 79 62 80 65 81 59 82 60 83 63 84 61 85 40 86 41 87 49 88
REMARK SMILES IDX 42 89 43 90 47 91 50 92 44 93 45 94 48 95 46 96
REMARK H PARENT 7 5 3 12 3 13 11 30 70 49 38 60
REMARK Flexibility Score: inf
ROOT
ATOM      1  C   UNL A   1      31.758  30.867  26.118  1.00  0.00     0.118 C 
ENDROOT
BRANCH   1   2
ATOM      2  N   UNL A   1      31.528  29.708  26.945  1.00  0.00    -0.351 N 
ATOM      3  C   UNL A   1      31.951  28.426  26.881  1.00  0.00     0.281 C 
ATOM      4  O   UNL A   1      31.500  27.713  27.794  1.00  0.00    -0.268 OA
ATOM      5  H   UNL A   1      30.943  29.888  27.715  1.00  0.00     0.163 HD
BRANCH   3   6
ATOM      6  C   UNL A   1      32.960  27.815  25.844  1.00  0.00     0.178 C 
ATOM      7  C   UNL A   1      33.020  26.307  26.264  1.00  0.00     0.079 C 
ATOM      8  C   UNL A   1      32.650  27.591  24.334  1.00  0.00     0.061 C 
ATOM      9  C   UNL A   1      33.751  25.565  25.158  1.00  0.00     0.008 C 
ATOM     10  C   UNL A   1      33.644  26.471  23.949  1.00  0.00     0.011 C 
BRANCH   6  11
ATOM     11  N   UNL A   1      34.246  28.557  25.930  1.00  0.00    -0.334 N 
ATOM     12  H   UNL A   1      34.952  28.018  25.428  1.00  0.00     0.347 HD
ATOM     13  H   UNL A   1      34.063  29.477  25.530  1.00  0.00     0.347 HD
BRANCH  11  14
ATOM     14  C   UNL A   1      34.748  28.803  27.280  1.00  0.00     0.257 C 
ATOM     15  C   UNL A   1      35.247  30.236  27.376  1.00  0.00     0.071 C 
ENDBRANCH  11  14
ENDBRANCH   6  11
BRANCH   8  16
ATOM     16  C   UNL A   1      32.770  28.722  23.285  1.00  0.00     0.022 C 
BRANCH  16  17
ATOM     17  C   UNL A   1      31.477  28.969  22.464  1.00  0.00     0.075 C 
BRANCH  17  18
ATOM     18  S   UNL A   1      29.887  29.016  23.406  1.00  0.00    -0.123 SA
BRANCH  18  19
ATOM     19  C   UNL A   1      29.039  30.401  22.648  1.00  0.00     0.043 A 
ATOM     20  C   UNL A   1      28.542  30.235  21.347  1.00  0.00     0.018 A 
ATOM     21  C   UNL A   1      28.898  31.654  23.256  1.00  0.00     0.136 A 
ATOM     22  C   UNL A   1      28.042  31.324  20.628  1.00  0.00     0.001 A 
ATOM     23  C   UNL A   1      28.366  32.738  22.553  1.00  0.00     0.040 A 
ATOM     24  F   UNL A   1      29.320  31.856  24.512  1.00  0.00    -0.206 F 
ATOM     25  C   UNL A   1      27.966  32.579  21.226  1.00  0.00     0.003 A 
ENDBRANCH  18  19
ENDBRANCH  17  18
ENDBRANCH  16  17
ENDBRANCH   8  16
ENDBRANCH   3   6
ENDBRANCH   1   2
BRANCH   1  26
ATOM     26  C   UNL A   1      31.446  32.174  26.824  1.00  0.00     0.042 C 
BRANCH  26  27
ATOM     27  C   UNL A   1      32.644  32.849  27.469  1.00  0.00     0.118 C 
BRANCH  27  28
ATOM     28  N   UNL A   1      32.413  34.254  27.777  1.00  0.00    -0.352 N 
ATOM     29  C   UNL A   1      33.020  35.079  28.693  1.00  0.00     0.251 C 
ATOM     30  H   UNL A   1      31.708  34.684  27.240  1.00  0.00     0.163 HD
ATOM     31  O   UNL A   1      32.554  36.197  28.911  1.00  0.00    -0.269 OA
BRANCH  29  32
ATOM     32  C   UNL A   1      34.210  34.623  29.444  1.00  0.00     0.039 A 
ATOM     33  C   UNL A   1      34.072  34.263  30.787  1.00  0.00     0.014 A 
ATOM     34  C   UNL A   1      35.460  34.545  28.830  1.00  0.00     0.014 A 
ATOM     35  C   UNL A   1      35.165  33.740  31.482  1.00  0.00     0.010 A 
ATOM     36  C   UNL A   1      36.517  33.922  29.485  1.00  0.00     0.010 A 
ATOM     37  C   UNL A   1      36.382  33.516  30.820  1.00  0.00    -0.014 A 
BRANCH  37  38
ATOM     38  C   UNL A   1      37.533  32.861  31.495  1.00  0.00     0.031 A 
ATOM     39  C   UNL A   1      38.223  31.695  30.840  1.00  0.00     0.074 A 
ATOM     40  C   UNL A   1      37.897  33.256  32.731  1.00  0.00     0.049 A 
ATOM     41  N   UNL A   1      39.162  30.915  31.313  1.00  0.00    -0.248 NA
ATOM     42  C   UNL A   1      37.774  31.338  29.485  1.00  0.00     0.031 C 
ATOM     43  C   UNL A   1      37.277  34.343  33.489  1.00  0.00     0.029 A 
ATOM     44  N   UNL A   1      38.868  32.776  33.575  1.00  0.00    -0.354 N 
ATOM     45  C   UNL A   1      39.398  29.969  30.324  1.00  0.00     0.074 A 
ATOM     46  C   UNL A   1      38.465  30.232  29.252  1.00  0.00     0.031 C 
ATOM     47  C   UNL A   1      37.895  34.462  34.675  1.00  0.00     0.029 A 
ATOM     48  C   UNL A   1      38.920  33.430  34.782  1.00  0.00     0.049 A 
ATOM     49  H   UNL A   1      39.470  32.034  33.337  1.00  0.00     0.167 HD
ATOM     50  C   UNL A   1      40.329  28.985  30.301  1.00  0.00     0.037 A 
ATOM     51  C   UNL A   1      39.696  33.210  35.861  1.00  0.00     0.037 A 
ATOM     52  C   UNL A   1      41.273  28.745  31.361  1.00  0.00     0.049 A 
ATOM     53  C   UNL A   1      40.704  32.093  35.822  1.00  0.00     0.074 A 
ATOM     54  C   UNL A   1      42.297  27.817  31.408  1.00  0.00     0.029 A 
ATOM     55  N   UNL A   1      41.301  29.436  32.564  1.00  0.00    -0.354 N 
ATOM     56  N   UNL A   1      40.969  31.250  34.852  1.00  0.00    -0.248 NA
ATOM     57  C   UNL A   1      41.522  31.895  37.026  1.00  0.00     0.031 C 
ATOM     58  C   UNL A   1      42.908  27.905  32.663  1.00  0.00     0.029 A 
ATOM     59  C   UNL A   1      42.305  28.931  33.374  1.00  0.00     0.049 A 
ATOM     60  H   UNL A   1      40.698  30.175  32.806  1.00  0.00     0.167 HD
ATOM     61  C   UNL A   1      41.999  30.443  35.317  1.00  0.00     0.074 A 
ATOM     62  C   UNL A   1      42.323  30.908  36.650  1.00  0.00     0.031 C 
ATOM     63  C   UNL A   1      42.619  29.410  34.696  1.00  0.00     0.037 A 
BRANCH  50  64
ATOM     64  C   UNL A   1      40.373  28.095  29.092  1.00  0.00     0.064 A 
ATOM     65  C   UNL A   1      39.641  26.899  29.029  1.00  0.00     0.173 A 
ATOM     66  C   UNL A   1      41.127  28.460  27.967  1.00  0.00     0.173 A 
ATOM     67  F   UNL A   1      38.910  26.497  30.080  1.00  0.00    -0.203 F 
ATOM     68  C   UNL A   1      39.688  26.087  27.898  1.00  0.00     0.198 A 
ATOM     69  C   UNL A   1      41.145  27.663  26.825  1.00  0.00     0.198 A 
ATOM     70  F   UNL A   1      41.842  29.596  27.969  1.00  0.00    -0.203 F 
ATOM     71  F   UNL A   1      39.024  24.923  27.883  1.00  0.00    -0.200 F 
ATOM     72  C   UNL A   1      40.434  26.474  26.795  1.00  0.00     0.200 A 
ATOM     73  F   UNL A   1      41.854  28.046  25.754  1.00  0.00    -0.200 F 
ATOM     74  F   UNL A   1      40.472  25.695  25.705  1.00  0.00    -0.200 F 
ENDBRANCH  50  64
BRANCH  51  75
ATOM     75  C   UNL A   1      39.557  34.069  37.068  1.00  0.00     0.064 A 
ATOM     76  C   UNL A   1      38.784  33.655  38.162  1.00  0.00     0.173 A 
ATOM     77  C   UNL A   1      40.182  35.322  37.150  1.00  0.00     0.173 A 
ATOM     78  F   UNL A   1      38.148  32.474  38.123  1.00  0.00    -0.203 F 
ATOM     79  C   UNL A   1      38.623  34.469  39.281  1.00  0.00     0.198 A 
ATOM     80  C   UNL A   1      40.048  36.122  38.284  1.00  0.00     0.198 A 
ATOM     81  F   UNL A   1      40.937  35.765  36.133  1.00  0.00    -0.203 F 
ATOM     82  F   UNL A   1      37.837  34.070  40.289  1.00  0.00    -0.200 F 
ATOM     83  C   UNL A   1      39.261  35.699  39.344  1.00  0.00     0.200 A 
ATOM     84  F   UNL A   1      40.678  37.303  38.346  1.00  0.00    -0.200 F 
ATOM     85  F   UNL A   1      39.108  36.481  40.421  1.00  0.00    -0.200 F 
ENDBRANCH  51  75
BRANCH  63  86
ATOM     86  C   UNL A   1      43.734  28.727  35.435  1.00  0.00     0.064 A 
ATOM     87  C   UNL A   1      45.071  29.119  35.279  1.00  0.00     0.173 A 
ATOM     88  C   UNL A   1      43.453  27.705  36.355  1.00  0.00     0.173 A 
ATOM     89  F   UNL A   1      45.395  30.081  34.401  1.00  0.00    -0.203 F 
ATOM     90  C   UNL A   1      46.087  28.501  36.002  1.00  0.00     0.198 A 
ATOM     91  C   UNL A   1      44.467  27.112  37.100  1.00  0.00     0.198 A 
ATOM     92  F   UNL A   1      42.189  27.296  36.547  1.00  0.00    -0.203 F 
ATOM     93  F   UNL A   1      47.363  28.863  35.804  1.00  0.00    -0.200 F 
ATOM     94  C   UNL A   1      45.784  27.506  36.920  1.00  0.00     0.200 A 
ATOM     95  F   UNL A   1      44.170  26.163  37.999  1.00  0.00    -0.200 F 
ATOM     96  F   UNL A   1      46.762  26.923  37.625  1.00  0.00    -0.200 F 
ENDBRANCH  63  86
ENDBRANCH  37  38
ENDBRANCH  29  32
ENDBRANCH  27  28
ENDBRANCH  26  27
ENDBRANCH   1  26
TORSDOF 16
ENDMDL
MODEL 2
REMARK VINA RESULT:     -12.0      0.988      2.066
REMARK SMILES CC[NH2+][C@]1(C(=O)NCCCNC(=O)c2ccc(-c3c4nc(c(-c5c(F)c(F)c(F)c(F)c5F)c5ccc([nH]5)c(-c5c(F)c(F)c(F)c(F)c5F)c5nc(c(-c6c(F)c(F)c(F)c(F)c6F)c6ccc3[nH]6)C=C5)C=C4)cc2)CCC[C@@H]1CCSc1ccccc1F
REMARK SMILES IDX 8 1 7 2 5 3 6 4 4 6 77 7 80 8 78 9 79 10 3 11 2 14 1 15
REMARK SMILES IDX 81 16 82 17 83 18 84 19 85 20 89 21 86 22 88 23 90 24 87 25
REMARK SMILES IDX 9 26 10 27 11 28 12 29 13 31 14 32 15 33 76 34 16 35 75 36
REMARK SMILES IDX 17 37 18 38 19 39 69 40 20 41 74 42 68 43 70 44 21 45 73 46
REMARK SMILES IDX 67 47 66 48 22 50 54 51 34 52 53 53 35 54 38 55 52 56 71 57
REMARK SMILES IDX 36 58 37 59 51 61 72 62 39 63 23 64 24 65 32 66 25 67 26 68
REMARK SMILES IDX 30 69 33 70 27 71 28 72 31 73 29 74 55 75 56 76 64 77 57 78
REMARK SMILES IDX 58 79 62 80 65 81 59 82 60 83 63 84 61 85 40 86 41 87 49 88
REMARK SMILES IDX 42 89 43 90 47 91 50 92 44 93 45 94 48 95 46 96
REMARK H PARENT 7 5 3 12 3 13 11 30 70 49 38 60
REMARK Flexibility Score: inf
ROOT
ATOM      1  C   UNL A   1      31.715  30.719  25.892  1.00  0.00     0.118 C 
ENDROOT
BRANCH   1   2
ATOM      2  N   UNL A   1      32.771  29.919  26.461  1.00  0.00    -0.351 N 
ATOM      3  C   UNL A   1      33.073  28.604  26.398  1.00  0.00     0.281 C 
ATOM      4  O   UNL A   1      34.078  28.297  27.063  1.00  0.00    -0.268 OA
ATOM      5  H   UNL A   1      33.402  30.439  27.007  1.00  0.00     0.163 HD
BRANCH   3   6
ATOM      6  C   UNL A   1      32.338  27.505  25.549  1.00  0.00     0.178 C 
ATOM      7  C   UNL A   1      32.139  26.343  26.581  1.00  0.00     0.079 C 
ATOM      8  C   UNL A   1      30.861  27.602  25.066  1.00  0.00     0.061 C 
ATOM      9  C   UNL A   1      31.192  25.340  25.945  1.00  0.00     0.008 C 
ATOM     10  C   UNL A   1      30.476  26.118  24.860  1.00  0.00     0.011 C 
BRANCH   6  11
ATOM     11  N   UNL A   1      33.174  27.174  24.364  1.00  0.00    -0.334 N 
ATOM     12  H   UNL A   1      33.773  26.388  24.614  1.00  0.00     0.347 HD
ATOM     13  H   UNL A   1      32.518  26.973  23.610  1.00  0.00     0.347 HD
BRANCH  11  14
ATOM     14  C   UNL A   1      34.029  28.251  23.869  1.00  0.00     0.257 C 
ATOM     15  C   UNL A   1      33.910  28.332  22.356  1.00  0.00     0.071 C 
ENDBRANCH  11  14
ENDBRANCH   6  11
BRANCH   8  16
ATOM     16  C   UNL A   1      30.451  28.385  23.797  1.00  0.00     0.022 C 
BRANCH  16  17
ATOM     17  C   UNL A   1      29.251  27.770  23.029  1.00  0.00     0.075 C 
BRANCH  17  18
ATOM     18  S   UNL A   1      27.644  28.677  23.126  1.00  0.00    -0.123 SA
BRANCH  18  19
ATOM     19  C   UNL A   1      28.127  30.349  22.698  1.00  0.00     0.043 A 
ATOM     20  C   UNL A   1      28.568  31.191  23.730  1.00  0.00     0.018 A 
ATOM     21  C   UNL A   1      28.031  30.879  21.406  1.00  0.00     0.136 A 
ATOM     22  C   UNL A   1      28.778  32.553  23.501  1.00  0.00     0.001 A 
ATOM     23  C   UNL A   1      28.274  32.234  21.165  1.00  0.00     0.040 A 
ATOM     24  F   UNL A   1      27.653  30.108  20.376  1.00  0.00    -0.206 F 
ATOM     25  C   UNL A   1      28.618  33.078  22.221  1.00  0.00     0.003 A 
ENDBRANCH  18  19
ENDBRANCH  17  18
ENDBRANCH  16  17
ENDBRANCH   8  16
ENDBRANCH   3   6
ENDBRANCH   1   2
BRANCH   1  26
ATOM     26  C   UNL A   1      31.415  31.971  26.696  1.00  0.00     0.042 C 
BRANCH  26  27
ATOM     27  C   UNL A   1      32.638  32.666  27.269  1.00  0.00     0.118 C 
BRANCH  27  28
ATOM     28  N   UNL A   1      32.404  34.068  27.589  1.00  0.00    -0.352 N 
ATOM     29  C   UNL A   1      32.993  34.879  28.529  1.00  0.00     0.251 C 
ATOM     30  H   UNL A   1      31.711  34.505  27.044  1.00  0.00     0.163 HD
ATOM     31  O   UNL A   1      32.525  35.995  28.751  1.00  0.00    -0.269 OA
BRANCH  29  32
ATOM     32  C   UNL A   1      34.166  34.411  29.298  1.00  0.00     0.039 A 
ATOM     33  C   UNL A   1      33.969  33.808  30.543  1.00  0.00     0.014 A 
ATOM     34  C   UNL A   1      35.460  34.561  28.796  1.00  0.00     0.014 A 
ATOM     35  C   UNL A   1      35.058  33.276  31.237  1.00  0.00     0.010 A 
ATOM     36  C   UNL A   1      36.526  33.934  29.432  1.00  0.00     0.010 A 
ATOM     37  C   UNL A   1      36.338  33.287  30.661  1.00  0.00    -0.014 A 
BRANCH  37  38
ATOM     38  C   UNL A   1      37.499  32.635  31.320  1.00  0.00     0.031 A 
ATOM     39  C   UNL A   1      38.192  31.481  30.647  1.00  0.00     0.074 A 
ATOM     40  C   UNL A   1      37.872  33.020  32.556  1.00  0.00     0.049 A 
ATOM     41  N   UNL A   1      39.141  30.702  31.103  1.00  0.00    -0.248 NA
ATOM     42  C   UNL A   1      37.733  31.134  29.292  1.00  0.00     0.031 C 
ATOM     43  C   UNL A   1      37.251  34.094  33.331  1.00  0.00     0.029 A 
ATOM     44  N   UNL A   1      38.854  32.539  33.386  1.00  0.00    -0.354 N 
ATOM     45  C   UNL A   1      39.376  29.769  30.103  1.00  0.00     0.074 A 
ATOM     46  C   UNL A   1      38.431  30.036  29.041  1.00  0.00     0.031 C 
ATOM     47  C   UNL A   1      37.879  34.206  34.512  1.00  0.00     0.029 A 
ATOM     48  C   UNL A   1      38.913  33.181  34.600  1.00  0.00     0.049 A 
ATOM     49  H   UNL A   1      39.460  31.804  33.136  1.00  0.00     0.167 HD
ATOM     50  C   UNL A   1      40.313  28.792  30.061  1.00  0.00     0.037 A 
ATOM     51  C   UNL A   1      39.700  32.955  35.670  1.00  0.00     0.037 A 
ATOM     52  C   UNL A   1      41.268  28.548  31.110  1.00  0.00     0.049 A 
ATOM     53  C   UNL A   1      40.716  31.846  35.609  1.00  0.00     0.074 A 
ATOM     54  C   UNL A   1      42.300  27.627  31.139  1.00  0.00     0.029 A 
ATOM     55  N   UNL A   1      41.303  29.227  32.320  1.00  0.00    -0.354 N 
ATOM     56  N   UNL A   1      40.978  31.015  34.629  1.00  0.00    -0.248 NA
ATOM     57  C   UNL A   1      41.546  31.642  36.805  1.00  0.00     0.031 C 
ATOM     58  C   UNL A   1      42.921  27.708  32.388  1.00  0.00     0.029 A 
ATOM     59  C   UNL A   1      42.318  28.721  33.115  1.00  0.00     0.049 A 
ATOM     60  H   UNL A   1      40.696  29.959  32.575  1.00  0.00     0.167 HD
ATOM     61  C   UNL A   1      42.018  30.212  35.076  1.00  0.00     0.074 A 
ATOM     62  C   UNL A   1      42.351  30.665  36.410  1.00  0.00     0.031 C 
ATOM     63  C   UNL A   1      42.640  29.189  34.440  1.00  0.00     0.037 A 
BRANCH  50  64
ATOM     64  C   UNL A   1      40.353  27.914  28.843  1.00  0.00     0.064 A 
ATOM     65  C   UNL A   1      41.118  28.250  27.715  1.00  0.00     0.173 A 
ATOM     66  C   UNL A   1      39.646  26.702  28.815  1.00  0.00     0.173 A 
ATOM     67  F   UNL A   1      41.805  29.402  27.684  1.00  0.00    -0.203 F 
ATOM     68  C   UNL A   1      41.148  27.423  26.595  1.00  0.00     0.198 A 
ATOM     69  C   UNL A   1      39.705  25.861  27.707  1.00  0.00     0.198 A 
ATOM     70  F   UNL A   1      38.903  26.328  29.868  1.00  0.00    -0.203 F 
ATOM     71  F   UNL A   1      41.841  27.793  25.509  1.00  0.00    -0.200 F 
ATOM     72  C   UNL A   1      40.448  26.226  26.595  1.00  0.00     0.200 A 
ATOM     73  F   UNL A   1      39.041  24.697  27.716  1.00  0.00    -0.200 F 
ATOM     74  F   UNL A   1      40.485  25.427  25.520  1.00  0.00    -0.200 F 
ENDBRANCH  50  64
BRANCH  51  75
ATOM     75  C   UNL A   1      39.566  33.802  36.886  1.00  0.00     0.064 A 
ATOM     76  C   UNL A   1      38.755  33.399  37.957  1.00  0.00     0.173 A 
ATOM     77  C   UNL A   1      40.233  35.029  37.001  1.00  0.00     0.173 A 
ATOM     78  F   UNL A   1      38.078  32.243  37.886  1.00  0.00    -0.203 F 
ATOM     79  C   UNL A   1      38.599  34.202  39.084  1.00  0.00     0.198 A 
ATOM     80  C   UNL A   1      40.103  35.817  38.143  1.00  0.00     0.198 A 
ATOM     81  F   UNL A   1      41.025  35.460  36.007  1.00  0.00    -0.203 F 
ATOM     82  F   UNL A   1      37.777  33.817  40.070  1.00  0.00    -0.200 F 
ATOM     83  C   UNL A   1      39.279  35.407  39.180  1.00  0.00     0.200 A 
ATOM     84  F   UNL A   1      40.773  36.974  38.237  1.00  0.00    -0.200 F 
ATOM     85  F   UNL A   1      39.131  36.178  40.266  1.00  0.00    -0.200 F 
ENDBRANCH  51  75
BRANCH  63  86
ATOM     86  C   UNL A   1      43.766  28.507  35.161  1.00  0.00     0.064 A 
ATOM     87  C   UNL A   1      43.558  27.350  35.926  1.00  0.00     0.173 A 
ATOM     88  C   UNL A   1      45.080  28.985  35.038  1.00  0.00     0.173 A 
ATOM     89  F   UNL A   1      42.319  26.861  36.087  1.00  0.00    -0.203 F 
ATOM     90  C   UNL A   1      44.620  26.708  36.555  1.00  0.00     0.198 A 
ATOM     91  C   UNL A   1      46.144  28.321  35.642  1.00  0.00     0.198 A 
ATOM     92  F   UNL A   1      45.335  30.085  34.313  1.00  0.00    -0.203 F 
ATOM     93  F   UNL A   1      44.391  25.628  37.316  1.00  0.00    -0.200 F 
ATOM     94  C   UNL A   1      45.914  27.187  36.405  1.00  0.00     0.200 A 
ATOM     95  F   UNL A   1      47.394  28.776  35.481  1.00  0.00    -0.200 F 
ATOM     96  F   UNL A   1      46.935  26.558  36.999  1.00  0.00    -0.200 F 
ENDBRANCH  63  86
ENDBRANCH  37  38
ENDBRANCH  29  32
ENDBRANCH  27  28
ENDBRANCH  26  27
ENDBRANCH   1  26
TORSDOF 16
ENDMDL
MODEL 3
REMARK VINA RESULT:     -12.0      2.217      4.072
REMARK SMILES CC[NH2+][C@]1(C(=O)NCCCNC(=O)c2ccc(-c3c4nc(c(-c5c(F)c(F)c(F)c(F)c5F)c5ccc([nH]5)c(-c5c(F)c(F)c(F)c(F)c5F)c5nc(c(-c6c(F)c(F)c(F)c(F)c6F)c6ccc3[nH]6)C=C5)C=C4)cc2)CCC[C@@H]1CCSc1ccccc1F
REMARK SMILES IDX 8 1 7 2 5 3 6 4 4 6 77 7 80 8 78 9 79 10 3 11 2 14 1 15
REMARK SMILES IDX 81 16 82 17 83 18 84 19 85 20 89 21 86 22 88 23 90 24 87 25
REMARK SMILES IDX 9 26 10 27 11 28 12 29 13 31 14 32 15 33 76 34 16 35 75 36
REMARK SMILES IDX 17 37 18 38 19 39 69 40 20 41 74 42 68 43 70 44 21 45 73 46
REMARK SMILES IDX 67 47 66 48 22 50 54 51 34 52 53 53 35 54 38 55 52 56 71 57
REMARK SMILES IDX 36 58 37 59 51 61 72 62 39 63 23 64 24 65 32 66 25 67 26 68
REMARK SMILES IDX 30 69 33 70 27 71 28 72 31 73 29 74 55 75 56 76 64 77 57 78
REMARK SMILES IDX 58 79 62 80 65 81 59 82 60 83 63 84 61 85 40 86 41 87 49 88
REMARK SMILES IDX 42 89 43 90 47 91 50 92 44 93 45 94 48 95 46 96
REMARK H PARENT 7 5 3 12 3 13 11 30 70 49 38 60
REMARK Flexibility Score: inf
ROOT
ATOM      1  C   UNL A   1      31.483  30.576  26.383  1.00  0.00     0.118 C 
ENDROOT
BRANCH   1   2
ATOM      2  N   UNL A   1      31.936  30.126  25.091  1.00  0.00    -0.351 N 
ATOM      3  C   UNL A   1      32.377  28.936  24.627  1.00  0.00     0.281 C 
ATOM      4  O   UNL A   1      32.702  28.964  23.428  1.00  0.00    -0.268 OA
ATOM      5  H   UNL A   1      31.920  30.830  24.405  1.00  0.00     0.163 HD
BRANCH   3   6
ATOM      6  C   UNL A   1      32.448  27.581  25.419  1.00  0.00     0.178 C 
ATOM      7  C   UNL A   1      30.938  27.251  25.680  1.00  0.00     0.079 C 
ATOM      8  C   UNL A   1      32.848  26.211  24.795  1.00  0.00     0.061 C 
ATOM      9  C   UNL A   1      30.876  25.824  26.195  1.00  0.00     0.008 C 
ATOM     10  C   UNL A   1      32.183  25.197  25.755  1.00  0.00     0.011 C 
BRANCH   6  11
ATOM     11  N   UNL A   1      33.281  27.777  26.635  1.00  0.00    -0.334 N 
ATOM     12  H   UNL A   1      32.718  28.278  27.322  1.00  0.00     0.347 HD
ATOM     13  H   UNL A   1      33.564  26.843  26.931  1.00  0.00     0.347 HD
BRANCH  11  14
ATOM     14  C   UNL A   1      34.521  28.525  26.441  1.00  0.00     0.257 C 
ATOM     15  C   UNL A   1      34.743  29.446  27.630  1.00  0.00     0.071 C 
ENDBRANCH  11  14
ENDBRANCH   6  11
BRANCH   8  16
ATOM     16  C   UNL A   1      34.322  25.788  24.595  1.00  0.00     0.022 C 
BRANCH  16  17
ATOM     17  C   UNL A   1      34.762  24.584  25.469  1.00  0.00     0.075 C 
BRANCH  17  18
ATOM     18  S   UNL A   1      35.846  23.321  24.663  1.00  0.00    -0.123 SA
BRANCH  18  19
ATOM     19  C   UNL A   1      34.721  21.944  24.440  1.00  0.00     0.043 A 
ATOM     20  C   UNL A   1      33.463  22.207  23.878  1.00  0.00     0.018 A 
ATOM     21  C   UNL A   1      35.002  20.636  24.849  1.00  0.00     0.136 A 
ATOM     22  C   UNL A   1      32.472  21.223  23.850  1.00  0.00     0.001 A 
ATOM     23  C   UNL A   1      34.025  19.638  24.791  1.00  0.00     0.040 A 
ATOM     24  F   UNL A   1      36.203  20.321  25.356  1.00  0.00    -0.206 F 
ATOM     25  C   UNL A   1      32.748  19.941  24.319  1.00  0.00     0.003 A 
ENDBRANCH  18  19
ENDBRANCH  17  18
ENDBRANCH  16  17
ENDBRANCH   8  16
ENDBRANCH   3   6
ENDBRANCH   1   2
BRANCH   1  26
ATOM     26  C   UNL A   1      31.420  32.088  26.500  1.00  0.00     0.042 C 
BRANCH  26  27
ATOM     27  C   UNL A   1      32.551  32.711  27.300  1.00  0.00     0.118 C 
BRANCH  27  28
ATOM     28  N   UNL A   1      32.327  34.117  27.610  1.00  0.00    -0.352 N 
ATOM     29  C   UNL A   1      32.932  34.935  28.534  1.00  0.00     0.251 C 
ATOM     30  H   UNL A   1      31.630  34.553  27.068  1.00  0.00     0.163 HD
ATOM     31  O   UNL A   1      32.472  36.055  28.751  1.00  0.00    -0.269 OA
BRANCH  29  32
ATOM     32  C   UNL A   1      34.112  34.468  29.293  1.00  0.00     0.039 A 
ATOM     33  C   UNL A   1      33.931  33.917  30.565  1.00  0.00     0.014 A 
ATOM     34  C   UNL A   1      35.397  34.568  28.757  1.00  0.00     0.014 A 
ATOM     35  C   UNL A   1      35.024  33.385  31.253  1.00  0.00     0.010 A 
ATOM     36  C   UNL A   1      36.463  33.940  29.391  1.00  0.00     0.010 A 
ATOM     37  C   UNL A   1      36.290  33.345  30.648  1.00  0.00    -0.014 A 
BRANCH  37  38
ATOM     38  C   UNL A   1      37.451  32.690  31.304  1.00  0.00     0.031 A 
ATOM     39  C   UNL A   1      38.144  31.539  30.626  1.00  0.00     0.074 A 
ATOM     40  C   UNL A   1      37.824  33.070  32.542  1.00  0.00     0.049 A 
ATOM     41  N   UNL A   1      39.094  30.759  31.079  1.00  0.00    -0.248 NA
ATOM     42  C   UNL A   1      37.686  31.197  29.270  1.00  0.00     0.031 C 
ATOM     43  C   UNL A   1      37.202  34.141  33.321  1.00  0.00     0.029 A 
ATOM     44  N   UNL A   1      38.806  32.586  33.370  1.00  0.00    -0.354 N 
ATOM     45  C   UNL A   1      39.329  29.829  30.075  1.00  0.00     0.074 A 
ATOM     46  C   UNL A   1      38.383  30.100  29.015  1.00  0.00     0.031 C 
ATOM     47  C   UNL A   1      37.829  34.248  34.502  1.00  0.00     0.029 A 
ATOM     48  C   UNL A   1      38.864  33.222  34.586  1.00  0.00     0.049 A 
ATOM     49  H   UNL A   1      39.412  31.852  33.117  1.00  0.00     0.167 HD
ATOM     50  C   UNL A   1      40.266  28.853  30.030  1.00  0.00     0.037 A 
ATOM     51  C   UNL A   1      39.651  32.993  35.655  1.00  0.00     0.037 A 
ATOM     52  C   UNL A   1      41.222  28.605  31.077  1.00  0.00     0.049 A 
ATOM     53  C   UNL A   1      40.667  31.885  35.591  1.00  0.00     0.074 A 
ATOM     54  C   UNL A   1      42.253  27.685  31.103  1.00  0.00     0.029 A 
ATOM     55  N   UNL A   1      41.255  29.279  32.290  1.00  0.00    -0.354 N 
ATOM     56  N   UNL A   1      40.930  31.058  34.607  1.00  0.00    -0.248 NA
ATOM     57  C   UNL A   1      41.498  31.676  36.785  1.00  0.00     0.031 C 
ATOM     58  C   UNL A   1      42.874  27.760  32.353  1.00  0.00     0.029 A 
ATOM     59  C   UNL A   1      42.270  28.770  33.084  1.00  0.00     0.049 A 
ATOM     60  H   UNL A   1      40.648  30.010  32.548  1.00  0.00     0.167 HD
ATOM     61  C   UNL A   1      41.970  30.253  35.051  1.00  0.00     0.074 A 
ATOM     62  C   UNL A   1      42.303  30.701  36.387  1.00  0.00     0.031 C 
ATOM     63  C   UNL A   1      42.593  29.233  34.410  1.00  0.00     0.037 A 
BRANCH  50  64
ATOM     64  C   UNL A   1      40.306  27.980  28.808  1.00  0.00     0.064 A 
ATOM     65  C   UNL A   1      41.045  28.338  27.669  1.00  0.00     0.173 A 
ATOM     66  C   UNL A   1      39.628  26.753  28.787  1.00  0.00     0.173 A 
ATOM     67  F   UNL A   1      41.705  29.505  27.630  1.00  0.00    -0.203 F 
ATOM     68  C   UNL A   1      41.075  27.516  26.545  1.00  0.00     0.198 A 
ATOM     69  C   UNL A   1      39.688  25.916  27.675  1.00  0.00     0.198 A 
ATOM     70  F   UNL A   1      38.911  26.357  29.851  1.00  0.00    -0.203 F 
ATOM     71  F   UNL A   1      41.743  27.904  25.450  1.00  0.00    -0.200 F 
ATOM     72  C   UNL A   1      40.404  26.302  26.553  1.00  0.00     0.200 A 
ATOM     73  F   UNL A   1      39.052  24.737  27.691  1.00  0.00    -0.200 F 
ATOM     74  F   UNL A   1      40.442  25.508  25.474  1.00  0.00    -0.200 F 
ENDBRANCH  50  64
BRANCH  51  75
ATOM     75  C   UNL A   1      39.516  33.834  36.875  1.00  0.00     0.064 A 
ATOM     76  C   UNL A   1      38.733  33.411  37.958  1.00  0.00     0.173 A 
ATOM     77  C   UNL A   1      40.156  35.078  36.981  1.00  0.00     0.173 A 
ATOM     78  F   UNL A   1      38.083  32.239  37.896  1.00  0.00    -0.203 F 
ATOM     79  C   UNL A   1      38.576  34.209  39.090  1.00  0.00     0.198 A 
ATOM     80  C   UNL A   1      40.026  35.860  38.127  1.00  0.00     0.198 A 
ATOM     81  F   UNL A   1      40.921  35.529  35.975  1.00  0.00    -0.203 F 
ATOM     82  F   UNL A   1      37.780  33.802  40.088  1.00  0.00    -0.200 F 
ATOM     83  C   UNL A   1      39.228  35.430  39.176  1.00  0.00     0.200 A 
ATOM     84  F   UNL A   1      40.669  37.033  38.211  1.00  0.00    -0.200 F 
ATOM     85  F   UNL A   1      39.079  36.195  40.266  1.00  0.00    -0.200 F 
ENDBRANCH  51  75
BRANCH  63  86
ATOM     86  C   UNL A   1      43.719  28.548  35.129  1.00  0.00     0.064 A 
ATOM     87  C   UNL A   1      43.503  27.415  35.927  1.00  0.00     0.173 A 
ATOM     88  C   UNL A   1      45.039  28.998  34.970  1.00  0.00     0.173 A 
ATOM     89  F   UNL A   1      42.258  26.954  36.123  1.00  0.00    -0.203 F 
ATOM     90  C   UNL A   1      44.565  26.770  36.554  1.00  0.00     0.198 A 
ATOM     91  C   UNL A   1      46.101  28.329  35.572  1.00  0.00     0.198 A 
ATOM     92  F   UNL A   1      45.301  30.074  34.213  1.00  0.00    -0.203 F 
ATOM     93  F   UNL A   1      44.330  25.714  37.347  1.00  0.00    -0.200 F 
ATOM     94  C   UNL A   1      45.864  27.220  36.368  1.00  0.00     0.200 A 
ATOM     95  F   UNL A   1      47.356  28.756  35.377  1.00  0.00    -0.200 F 
ATOM     96  F   UNL A   1      46.884  26.587  36.961  1.00  0.00    -0.200 F 
ENDBRANCH  63  86
ENDBRANCH  37  38
ENDBRANCH  29  32
ENDBRANCH  27  28
ENDBRANCH  26  27
ENDBRANCH   1  26
TORSDOF 16
ENDMDL
