MODEL 1
REMARK VINA RESULT:     -11.8      0.000      0.000
REMARK SMILES CC[NH2+][C@H](CC(=O)Nc1cc(C)cc(C)c1)C(=O)NCCCNC(=O)c1ccc(-c2c3nc(c(-c4c(F)c(F)c(F)c(F)c4F)c4ccc([nH]4)c(-c4c(F)c(F)c(F)c(F)c4F)c4nc(c(-c5c(F)c(F)c(F)c(F)c5F)c5ccc2[nH]5)C=C4)C=C3)cc1
REMARK SMILES IDX 20 1 19 2 17 3 18 4 4 6 3 7 2 10 1 11 5 12 6 13 7 14 8 15
REMARK SMILES IDX 9 17 10 18 16 19 11 20 14 21 12 22 13 23 15 24 21 25 22 26
REMARK SMILES IDX 23 27 24 28 25 30 26 31 27 32 88 33 28 34 87 35 29 36 30 37
REMARK SMILES IDX 31 38 81 39 32 40 86 41 80 42 82 43 33 44 85 45 79 46 78 47
REMARK SMILES IDX 34 49 66 50 46 51 65 52 47 53 50 54 64 55 83 56 48 57 49 58
REMARK SMILES IDX 63 60 84 61 51 62 35 63 36 64 44 65 37 66 38 67 42 68 45 69
REMARK SMILES IDX 39 70 40 71 43 72 41 73 67 74 68 75 76 76 69 77 70 78 74 79
REMARK SMILES IDX 77 80 71 81 72 82 75 83 73 84 52 85 53 86 61 87 54 88 55 89
REMARK SMILES IDX 59 90 62 91 56 92 57 93 60 94 58 95
REMARK H PARENT 19 5 3 8 3 9 8 16 23 29 82 48 50 59
REMARK Flexibility Score: inf
ROOT
ATOM      1  C   UNL A   1      36.557  20.235  25.116  1.00  0.00     0.118 C 
ENDROOT
BRANCH   1   2
ATOM      2  N   UNL A   1      35.623  19.188  24.757  1.00  0.00    -0.351 N 
ATOM      3  C   UNL A   1      34.263  19.201  24.794  1.00  0.00     0.278 C 
ATOM      4  O   UNL A   1      33.670  18.167  24.472  1.00  0.00    -0.268 OA
ATOM      5  H   UNL A   1      36.030  18.349  24.442  1.00  0.00     0.163 HD
BRANCH   3   6
ATOM      6  C   UNL A   1      33.486  20.463  25.225  1.00  0.00     0.281 C 
BRANCH   6   7
ATOM      7  N   UNL A   1      33.407  20.469  26.712  1.00  0.00    -0.336 N 
ATOM      8  H   UNL A   1      32.419  20.474  26.964  1.00  0.00     0.346 HD
ATOM      9  H   UNL A   1      33.929  19.642  27.001  1.00  0.00     0.346 HD
BRANCH   7  10
ATOM     10  C   UNL A   1      34.042  21.572  27.419  1.00  0.00     0.257 C 
ATOM     11  C   UNL A   1      32.993  22.556  27.911  1.00  0.00     0.071 C 
ENDBRANCH   7  10
ENDBRANCH   6   7
BRANCH   6  12
ATOM     12  C   UNL A   1      32.209  20.630  24.402  1.00  0.00     0.175 C 
BRANCH  12  13
ATOM     13  C   UNL A   1      32.369  21.258  23.015  1.00  0.00     0.230 C 
ATOM     14  O   UNL A   1      31.947  20.657  22.022  1.00  0.00    -0.274 OA
ATOM     15  N   UNL A   1      32.747  22.569  22.857  1.00  0.00    -0.326 N 
ATOM     16  H   UNL A   1      32.486  22.976  22.001  1.00  0.00     0.169 HD
BRANCH  15  17
ATOM     17  C   UNL A   1      33.446  23.418  23.725  1.00  0.00     0.041 A 
ATOM     18  C   UNL A   1      34.830  23.328  23.870  1.00  0.00     0.029 A 
ATOM     19  C   UNL A   1      32.757  24.419  24.406  1.00  0.00     0.029 A 
ATOM     20  C   UNL A   1      35.502  24.051  24.860  1.00  0.00    -0.049 A 
ATOM     21  C   UNL A   1      33.425  25.217  25.348  1.00  0.00    -0.049 A 
ATOM     22  C   UNL A   1      36.951  23.787  25.145  1.00  0.00     0.044 C 
ATOM     23  C   UNL A   1      34.789  24.998  25.598  1.00  0.00     0.007 A 
ATOM     24  C   UNL A   1      32.695  26.272  26.124  1.00  0.00     0.044 C 
ENDBRANCH  15  17
ENDBRANCH  12  13
ENDBRANCH   6  12
ENDBRANCH   3   6
ENDBRANCH   1   2
BRANCH   1  25
ATOM     25  C   UNL A   1      37.967  19.900  24.669  1.00  0.00     0.042 C 
BRANCH  25  26
ATOM     26  C   UNL A   1      39.016  20.244  25.711  1.00  0.00     0.118 C 
BRANCH  26  27
ATOM     27  N   UNL A   1      39.991  19.176  25.889  1.00  0.00    -0.352 N 
ATOM     28  C   UNL A   1      41.349  19.247  26.072  1.00  0.00     0.251 C 
ATOM     29  H   UNL A   1      39.619  18.264  25.875  1.00  0.00     0.163 HD
ATOM     30  O   UNL A   1      42.040  18.241  25.970  1.00  0.00    -0.269 OA
BRANCH  28  31
ATOM     31  C   UNL A   1      41.976  20.550  26.368  1.00  0.00     0.039 A 
ATOM     32  C   UNL A   1      42.259  21.421  25.314  1.00  0.00     0.014 A 
ATOM     33  C   UNL A   1      42.276  20.913  27.683  1.00  0.00     0.014 A 
ATOM     34  C   UNL A   1      42.774  22.689  25.591  1.00  0.00     0.010 A 
ATOM     35  C   UNL A   1      42.688  22.209  27.964  1.00  0.00     0.010 A 
ATOM     36  C   UNL A   1      42.950  23.107  26.921  1.00  0.00    -0.014 A 
BRANCH  36  37
ATOM     37  C   UNL A   1      43.409  24.480  27.241  1.00  0.00     0.031 A 
ATOM     38  C   UNL A   1      42.438  25.491  27.786  1.00  0.00     0.074 A 
ATOM     39  C   UNL A   1      44.683  24.833  26.980  1.00  0.00     0.049 A 
ATOM     40  N   UNL A   1      42.629  26.755  28.064  1.00  0.00    -0.248 NA
ATOM     41  C   UNL A   1      41.060  25.028  28.023  1.00  0.00     0.031 C 
ATOM     42  C   UNL A   1      45.702  23.954  26.401  1.00  0.00     0.029 A 
ATOM     43  N   UNL A   1      45.338  26.026  27.156  1.00  0.00    -0.354 N 
ATOM     44  C   UNL A   1      41.400  27.237  28.493  1.00  0.00     0.074 A 
ATOM     45  C   UNL A   1      40.455  26.149  28.384  1.00  0.00     0.031 C 
ATOM     46  C   UNL A   1      46.857  24.630  26.296  1.00  0.00     0.029 A 
ATOM     47  C   UNL A   1      46.651  25.999  26.755  1.00  0.00     0.049 A 
ATOM     48  H   UNL A   1      44.906  26.826  27.533  1.00  0.00     0.167 HD
ATOM     49  C   UNL A   1      41.094  28.471  28.960  1.00  0.00     0.037 A 
ATOM     50  C   UNL A   1      47.580  26.973  26.750  1.00  0.00     0.037 A 
ATOM     51  C   UNL A   1      42.046  29.543  29.090  1.00  0.00     0.049 A 
ATOM     52  C   UNL A   1      47.206  28.339  27.264  1.00  0.00     0.074 A 
ATOM     53  C   UNL A   1      41.852  30.808  29.612  1.00  0.00     0.029 A 
ATOM     54  N   UNL A   1      43.372  29.473  28.688  1.00  0.00    -0.354 N 
ATOM     55  N   UNL A   1      46.062  28.760  27.741  1.00  0.00    -0.248 NA
ATOM     56  C   UNL A   1      48.259  29.363  27.242  1.00  0.00     0.031 C 
ATOM     57  C   UNL A   1      43.045  31.524  29.474  1.00  0.00     0.029 A 
ATOM     58  C   UNL A   1      44.001  30.685  28.926  1.00  0.00     0.049 A 
ATOM     59  H   UNL A   1      43.803  28.680  28.293  1.00  0.00     0.167 HD
ATOM     60  C   UNL A   1      46.264  30.084  28.108  1.00  0.00     0.074 A 
ATOM     61  C   UNL A   1      47.648  30.391  27.813  1.00  0.00     0.031 C 
ATOM     62  C   UNL A   1      45.383  30.968  28.638  1.00  0.00     0.037 A 
BRANCH  49  63
ATOM     63  C   UNL A   1      39.674  28.732  29.373  1.00  0.00     0.064 A 
ATOM     64  C   UNL A   1      39.231  28.489  30.682  1.00  0.00     0.173 A 
ATOM     65  C   UNL A   1      38.760  29.288  28.466  1.00  0.00     0.173 A 
ATOM     66  F   UNL A   1      40.061  27.946  31.587  1.00  0.00    -0.203 F 
ATOM     67  C   UNL A   1      37.921  28.771  31.060  1.00  0.00     0.198 A 
ATOM     68  C   UNL A   1      37.462  29.601  28.855  1.00  0.00     0.198 A 
ATOM     69  F   UNL A   1      39.134  29.546  27.203  1.00  0.00    -0.203 F 
ATOM     70  F   UNL A   1      37.508  28.490  32.304  1.00  0.00    -0.200 F 
ATOM     71  C   UNL A   1      37.041  29.337  30.150  1.00  0.00     0.200 A 
ATOM     72  F   UNL A   1      36.617  30.162  27.979  1.00  0.00    -0.200 F 
ATOM     73  F   UNL A   1      35.785  29.625  30.520  1.00  0.00    -0.200 F 
ENDBRANCH  49  63
BRANCH  50  74
ATOM     74  C   UNL A   1      48.955  26.696  26.255  1.00  0.00     0.064 A 
ATOM     75  C   UNL A   1      49.941  26.187  27.112  1.00  0.00     0.173 A 
ATOM     76  C   UNL A   1      49.321  26.960  24.927  1.00  0.00     0.173 A 
ATOM     77  F   UNL A   1      49.647  25.935  28.397  1.00  0.00    -0.203 F 
ATOM     78  C   UNL A   1      51.246  25.982  26.669  1.00  0.00     0.198 A 
ATOM     79  C   UNL A   1      50.617  26.722  24.476  1.00  0.00     0.198 A 
ATOM     80  F   UNL A   1      48.416  27.441  24.063  1.00  0.00    -0.203 F 
ATOM     81  F   UNL A   1      52.182  25.552  27.526  1.00  0.00    -0.200 F 
ATOM     82  C   UNL A   1      51.583  26.246  25.350  1.00  0.00     0.200 A 
ATOM     83  F   UNL A   1      50.934  26.962  23.195  1.00  0.00    -0.200 F 
ATOM     84  F   UNL A   1      52.838  26.051  24.925  1.00  0.00    -0.200 F 
ENDBRANCH  50  74
BRANCH  62  85
ATOM     85  C   UNL A   1      45.901  32.337  28.977  1.00  0.00     0.064 A 
ATOM     86  C   UNL A   1      46.490  32.618  30.218  1.00  0.00     0.173 A 
ATOM     87  C   UNL A   1      45.840  33.371  28.030  1.00  0.00     0.173 A 
ATOM     88  F   UNL A   1      46.560  31.667  31.163  1.00  0.00    -0.203 F 
ATOM     89  C   UNL A   1      46.971  33.891  30.509  1.00  0.00     0.198 A 
ATOM     90  C   UNL A   1      46.354  34.632  28.312  1.00  0.00     0.198 A 
ATOM     91  F   UNL A   1      45.294  33.153  26.824  1.00  0.00    -0.203 F 
ATOM     92  F   UNL A   1      47.480  34.151  31.722  1.00  0.00    -0.200 F 
ATOM     93  C   UNL A   1      46.911  34.894  29.554  1.00  0.00     0.200 A 
ATOM     94  F   UNL A   1      46.310  35.595  27.380  1.00  0.00    -0.200 F 
ATOM     95  F   UNL A   1      47.382  36.117  29.834  1.00  0.00    -0.200 F 
ENDBRANCH  62  85
ENDBRANCH  36  37
ENDBRANCH  28  31
ENDBRANCH  26  27
ENDBRANCH  25  26
ENDBRANCH   1  25
TORSDOF 15
ENDMDL
MODEL 2
REMARK VINA RESULT:     -11.8      6.343     11.469
REMARK SMILES CC[NH2+][C@H](CC(=O)Nc1cc(C)cc(C)c1)C(=O)NCCCNC(=O)c1ccc(-c2c3nc(c(-c4c(F)c(F)c(F)c(F)c4F)c4ccc([nH]4)c(-c4c(F)c(F)c(F)c(F)c4F)c4nc(c(-c5c(F)c(F)c(F)c(F)c5F)c5ccc2[nH]5)C=C4)C=C3)cc1
REMARK SMILES IDX 20 1 19 2 17 3 18 4 4 6 3 7 2 10 1 11 5 12 6 13 7 14 8 15
REMARK SMILES IDX 9 17 10 18 16 19 11 20 14 21 12 22 13 23 15 24 21 25 22 26
REMARK SMILES IDX 23 27 24 28 25 30 26 31 27 32 88 33 28 34 87 35 29 36 30 37
REMARK SMILES IDX 31 38 81 39 32 40 86 41 80 42 82 43 33 44 85 45 79 46 78 47
REMARK SMILES IDX 34 49 66 50 46 51 65 52 47 53 50 54 64 55 83 56 48 57 49 58
REMARK SMILES IDX 63 60 84 61 51 62 35 63 36 64 44 65 37 66 38 67 42 68 45 69
REMARK SMILES IDX 39 70 40 71 43 72 41 73 67 74 68 75 76 76 69 77 70 78 74 79
REMARK SMILES IDX 77 80 71 81 72 82 75 83 73 84 52 85 53 86 61 87 54 88 55 89
REMARK SMILES IDX 59 90 62 91 56 92 57 93 60 94 58 95
REMARK H PARENT 19 5 3 8 3 9 8 16 23 29 82 48 50 59
REMARK Flexibility Score: inf
ROOT
ATOM      1  C   UNL A   1      31.564  30.671  26.442  1.00  0.00     0.118 C 
ENDROOT
BRANCH   1   2
ATOM      2  N   UNL A   1      32.927  30.239  26.670  1.00  0.00    -0.351 N 
ATOM      3  C   UNL A   1      33.600  29.191  26.121  1.00  0.00     0.278 C 
ATOM      4  O   UNL A   1      34.759  28.991  26.498  1.00  0.00    -0.268 OA
ATOM      5  H   UNL A   1      33.440  30.781  27.313  1.00  0.00     0.163 HD
BRANCH   3   6
ATOM      6  C   UNL A   1      32.938  28.281  25.065  1.00  0.00     0.281 C 
BRANCH   6   7
ATOM      7  N   UNL A   1      33.426  26.891  25.286  1.00  0.00    -0.336 N 
ATOM      8  H   UNL A   1      33.984  26.631  24.473  1.00  0.00     0.346 HD
ATOM      9  H   UNL A   1      33.932  26.934  26.170  1.00  0.00     0.346 HD
BRANCH   7  10
ATOM     10  C   UNL A   1      32.429  25.847  25.482  1.00  0.00     0.257 C 
ATOM     11  C   UNL A   1      31.127  26.452  25.985  1.00  0.00     0.071 C 
ENDBRANCH   7  10
ENDBRANCH   6   7
BRANCH   6  12
ATOM     12  C   UNL A   1      33.031  28.899  23.670  1.00  0.00     0.175 C 
BRANCH  12  13
ATOM     13  C   UNL A   1      32.692  27.980  22.494  1.00  0.00     0.230 C 
ATOM     14  O   UNL A   1      33.583  27.300  21.976  1.00  0.00    -0.274 OA
ATOM     15  N   UNL A   1      31.392  27.703  22.148  1.00  0.00    -0.326 N 
ATOM     16  H   UNL A   1      31.265  26.866  21.647  1.00  0.00     0.169 HD
BRANCH  15  17
ATOM     17  C   UNL A   1      30.217  28.424  22.398  1.00  0.00     0.041 A 
ATOM     18  C   UNL A   1      29.167  27.870  23.128  1.00  0.00     0.029 A 
ATOM     19  C   UNL A   1      30.121  29.746  21.968  1.00  0.00     0.029 A 
ATOM     20  C   UNL A   1      27.933  28.520  23.227  1.00  0.00    -0.049 A 
ATOM     21  C   UNL A   1      28.919  30.452  22.129  1.00  0.00    -0.049 A 
ATOM     22  C   UNL A   1      26.751  27.821  23.830  1.00  0.00     0.044 C 
ATOM     23  C   UNL A   1      27.817  29.816  22.723  1.00  0.00     0.007 A 
ATOM     24  C   UNL A   1      28.778  31.862  21.637  1.00  0.00     0.044 C 
ENDBRANCH  15  17
ENDBRANCH  12  13
ENDBRANCH   6  12
ENDBRANCH   3   6
ENDBRANCH   1   2
BRANCH   1  25
ATOM     25  C   UNL A   1      31.404  32.159  26.685  1.00  0.00     0.042 C 
BRANCH  25  26
ATOM     26  C   UNL A   1      32.601  32.776  27.386  1.00  0.00     0.118 C 
BRANCH  26  27
ATOM     27  N   UNL A   1      32.427  34.203  27.624  1.00  0.00    -0.352 N 
ATOM     28  C   UNL A   1      33.012  35.014  28.564  1.00  0.00     0.251 C 
ATOM     29  H   UNL A   1      31.794  34.654  27.020  1.00  0.00     0.163 HD
ATOM     30  O   UNL A   1      32.574  36.139  28.768  1.00  0.00    -0.269 OA
BRANCH  28  31
ATOM     31  C   UNL A   1      34.159  34.512  29.347  1.00  0.00     0.039 A 
ATOM     32  C   UNL A   1      33.932  33.973  30.614  1.00  0.00     0.014 A 
ATOM     33  C   UNL A   1      35.455  34.567  28.825  1.00  0.00     0.014 A 
ATOM     34  C   UNL A   1      34.997  33.420  31.325  1.00  0.00     0.010 A 
ATOM     35  C   UNL A   1      36.492  33.924  29.487  1.00  0.00     0.010 A 
ATOM     36  C   UNL A   1      36.276  33.351  30.748  1.00  0.00    -0.014 A 
BRANCH  36  37
ATOM     37  C   UNL A   1      37.402  32.687  31.447  1.00  0.00     0.031 A 
ATOM     38  C   UNL A   1      38.107  31.524  30.805  1.00  0.00     0.074 A 
ATOM     39  C   UNL A   1      37.745  33.090  32.686  1.00  0.00     0.049 A 
ATOM     40  N   UNL A   1      39.064  30.771  31.282  1.00  0.00    -0.248 NA
ATOM     41  C   UNL A   1      37.655  31.135  29.458  1.00  0.00     0.031 C 
ATOM     42  C   UNL A   1      37.099  34.171  33.433  1.00  0.00     0.029 A 
ATOM     43  N   UNL A   1      38.715  32.631  33.542  1.00  0.00    -0.354 N 
ATOM     44  C   UNL A   1      39.318  29.818  30.304  1.00  0.00     0.074 A 
ATOM     45  C   UNL A   1      38.376  30.048  29.232  1.00  0.00     0.031 C 
ATOM     46  C   UNL A   1      37.707  34.310  34.622  1.00  0.00     0.029 A 
ATOM     47  C   UNL A   1      38.754  33.301  34.741  1.00  0.00     0.049 A 
ATOM     48  H   UNL A   1      39.325  31.892  33.318  1.00  0.00     0.167 HD
ATOM     49  C   UNL A   1      40.269  28.854  30.293  1.00  0.00     0.037 A 
ATOM     50  C   UNL A   1      39.539  33.112  35.819  1.00  0.00     0.037 A 
ATOM     51  C   UNL A   1      41.220  28.647  31.353  1.00  0.00     0.049 A 
ATOM     52  C   UNL A   1      40.579  32.024  35.780  1.00  0.00     0.074 A 
ATOM     53  C   UNL A   1      42.263  27.742  31.410  1.00  0.00     0.029 A 
ATOM     54  N   UNL A   1      41.238  29.356  32.545  1.00  0.00    -0.354 N 
ATOM     55  N   UNL A   1      40.862  31.181  34.818  1.00  0.00    -0.248 NA
ATOM     56  C   UNL A   1      41.413  31.866  36.979  1.00  0.00     0.031 C 
ATOM     57  C   UNL A   1      42.878  27.862  32.659  1.00  0.00     0.029 A 
ATOM     58  C   UNL A   1      42.260  28.886  33.357  1.00  0.00     0.049 A 
ATOM     59  H   UNL A   1      40.619  30.084  32.782  1.00  0.00     0.167 HD
ATOM     60  C   UNL A   1      41.926  30.417  35.280  1.00  0.00     0.074 A 
ATOM     61  C   UNL A   1      42.248  30.909  36.602  1.00  0.00     0.031 C 
ATOM     62  C   UNL A   1      42.575  29.397  34.666  1.00  0.00     0.037 A 
BRANCH  49  63
ATOM     63  C   UNL A   1      40.337  27.951  29.095  1.00  0.00     0.064 A 
ATOM     64  C   UNL A   1      39.620  26.746  29.041  1.00  0.00     0.173 A 
ATOM     65  C   UNL A   1      41.081  28.322  27.965  1.00  0.00     0.173 A 
ATOM     66  F   UNL A   1      38.902  26.337  30.098  1.00  0.00    -0.203 F 
ATOM     67  C   UNL A   1      39.664  25.937  27.908  1.00  0.00     0.198 A 
ATOM     68  C   UNL A   1      41.096  27.528  26.823  1.00  0.00     0.198 A 
ATOM     69  F   UNL A   1      41.781  29.467  27.963  1.00  0.00    -0.203 F 
ATOM     70  F   UNL A   1      39.004  24.769  27.894  1.00  0.00    -0.200 F 
ATOM     71  C   UNL A   1      40.392  26.333  26.797  1.00  0.00     0.200 A 
ATOM     72  F   UNL A   1      41.788  27.920  25.744  1.00  0.00    -0.200 F 
ATOM     73  F   UNL A   1      40.418  25.562  25.701  1.00  0.00    -0.200 F 
ENDBRANCH  49  63
BRANCH  50  74
ATOM     74  C   UNL A   1      39.385  33.976  37.019  1.00  0.00     0.064 A 
ATOM     75  C   UNL A   1      39.996  35.237  37.084  1.00  0.00     0.173 A 
ATOM     76  C   UNL A   1      38.651  33.552  38.136  1.00  0.00     0.173 A 
ATOM     77  F   UNL A   1      40.724  35.682  36.049  1.00  0.00    -0.203 F 
ATOM     78  C   UNL A   1      39.904  36.025  38.229  1.00  0.00     0.198 A 
ATOM     79  C   UNL A   1      38.531  34.355  39.268  1.00  0.00     0.198 A 
ATOM     80  F   UNL A   1      38.040  32.358  38.126  1.00  0.00    -0.203 F 
ATOM     81  F   UNL A   1      40.549  37.198  38.285  1.00  0.00    -0.200 F 
ATOM     82  C   UNL A   1      39.169  35.586  39.319  1.00  0.00     0.200 A 
ATOM     83  F   UNL A   1      37.805  33.934  40.313  1.00  0.00    -0.200 F 
ATOM     84  F   UNL A   1      39.083  36.342  40.422  1.00  0.00    -0.200 F 
ENDBRANCH  50  74
BRANCH  62  85
ATOM     85  C   UNL A   1      43.730  28.776  35.398  1.00  0.00     0.064 A 
ATOM     86  C   UNL A   1      45.046  29.228  35.222  1.00  0.00     0.173 A 
ATOM     87  C   UNL A   1      43.509  27.739  36.318  1.00  0.00     0.173 A 
ATOM     88  F   UNL A   1      45.312  30.207  34.344  1.00  0.00    -0.203 F 
ATOM     89  C   UNL A   1      46.101  28.644  35.916  1.00  0.00     0.198 A 
ATOM     90  C   UNL A   1      44.562  27.182  37.037  1.00  0.00     0.198 A 
ATOM     91  F   UNL A   1      42.269  27.275  36.530  1.00  0.00    -0.203 F 
ATOM     92  F   UNL A   1      47.357  29.054  35.691  1.00  0.00    -0.200 F 
ATOM     93  C   UNL A   1      45.858  27.629  36.829  1.00  0.00     0.200 A 
ATOM     94  F   UNL A   1      44.322  26.213  37.931  1.00  0.00    -0.200 F 
ATOM     95  F   UNL A   1      46.875  27.073  37.502  1.00  0.00    -0.200 F 
ENDBRANCH  62  85
ENDBRANCH  36  37
ENDBRANCH  28  31
ENDBRANCH  26  27
ENDBRANCH  25  26
ENDBRANCH   1  25
TORSDOF 15
ENDMDL
MODEL 3
REMARK VINA RESULT:     -11.6      5.427      9.859
REMARK SMILES CC[NH2+][C@H](CC(=O)Nc1cc(C)cc(C)c1)C(=O)NCCCNC(=O)c1ccc(-c2c3nc(c(-c4c(F)c(F)c(F)c(F)c4F)c4ccc([nH]4)c(-c4c(F)c(F)c(F)c(F)c4F)c4nc(c(-c5c(F)c(F)c(F)c(F)c5F)c5ccc2[nH]5)C=C4)C=C3)cc1
REMARK SMILES IDX 20 1 19 2 17 3 18 4 4 6 3 7 2 10 1 11 5 12 6 13 7 14 8 15
REMARK SMILES IDX 9 17 10 18 16 19 11 20 14 21 12 22 13 23 15 24 21 25 22 26
REMARK SMILES IDX 23 27 24 28 25 30 26 31 27 32 88 33 28 34 87 35 29 36 30 37
REMARK SMILES IDX 31 38 81 39 32 40 86 41 80 42 82 43 33 44 85 45 79 46 78 47
REMARK SMILES IDX 34 49 66 50 46 51 65 52 47 53 50 54 64 55 83 56 48 57 49 58
REMARK SMILES IDX 63 60 84 61 51 62 35 63 36 64 44 65 37 66 38 67 42 68 45 69
REMARK SMILES IDX 39 70 40 71 43 72 41 73 67 74 68 75 76 76 69 77 70 78 74 79
REMARK SMILES IDX 77 80 71 81 72 82 75 83 73 84 52 85 53 86 61 87 54 88 55 89
REMARK SMILES IDX 59 90 62 91 56 92 57 93 60 94 58 95
REMARK H PARENT 19 5 3 8 3 9 8 16 23 29 82 48 50 59
REMARK Flexibility Score: inf
ROOT
ATOM      1  C   UNL A   1      35.588  32.894  30.357  1.00  0.00     0.118 C 
ENDROOT
BRANCH   1   2
ATOM      2  N   UNL A   1      36.785  33.708  30.420  1.00  0.00    -0.351 N 
ATOM      3  C   UNL A   1      37.485  34.123  31.510  1.00  0.00     0.278 C 
ATOM      4  O   UNL A   1      38.465  34.850  31.321  1.00  0.00    -0.268 OA
ATOM      5  H   UNL A   1      37.141  34.002  29.550  1.00  0.00     0.163 HD
BRANCH   3   6
ATOM      6  C   UNL A   1      37.069  33.703  32.936  1.00  0.00     0.281 C 
BRANCH   6   7
ATOM      7  N   UNL A   1      36.437  34.879  33.595  1.00  0.00    -0.336 N 
ATOM      8  H   UNL A   1      36.737  34.879  34.570  1.00  0.00     0.346 HD
ATOM      9  H   UNL A   1      36.741  35.679  33.041  1.00  0.00     0.346 HD
BRANCH   7  10
ATOM     10  C   UNL A   1      34.983  34.958  33.588  1.00  0.00     0.257 C 
ATOM     11  C   UNL A   1      34.380  33.563  33.661  1.00  0.00     0.071 C 
ENDBRANCH   7  10
ENDBRANCH   6   7
BRANCH   6  12
ATOM     12  C   UNL A   1      38.203  32.962  33.644  1.00  0.00     0.175 C 
BRANCH  12  13
ATOM     13  C   UNL A   1      37.812  32.123  34.863  1.00  0.00     0.230 C 
ATOM     14  O   UNL A   1      37.172  32.644  35.780  1.00  0.00    -0.274 OA
ATOM     15  N   UNL A   1      37.938  30.755  34.865  1.00  0.00    -0.326 N 
ATOM     16  H   UNL A   1      37.357  30.286  35.506  1.00  0.00     0.169 HD
BRANCH  15  17
ATOM     17  C   UNL A   1      38.762  29.922  34.098  1.00  0.00     0.041 A 
ATOM     18  C   UNL A   1      38.235  29.082  33.118  1.00  0.00     0.029 A 
ATOM     19  C   UNL A   1      40.144  29.981  34.268  1.00  0.00     0.029 A 
ATOM     20  C   UNL A   1      39.032  28.128  32.478  1.00  0.00    -0.049 A 
ATOM     21  C   UNL A   1      40.976  29.090  33.575  1.00  0.00    -0.049 A 
ATOM     22  C   UNL A   1      38.412  27.093  31.586  1.00  0.00     0.044 C 
ATOM     23  C   UNL A   1      40.408  28.139  32.712  1.00  0.00     0.007 A 
ATOM     24  C   UNL A   1      42.463  29.107  33.772  1.00  0.00     0.044 C 
ENDBRANCH  15  17
ENDBRANCH  12  13
ENDBRANCH   6  12
ENDBRANCH   3   6
ENDBRANCH   1   2
BRANCH   1  25
ATOM     25  C   UNL A   1      34.550  33.501  29.432  1.00  0.00     0.042 C 
BRANCH  25  26
ATOM     26  C   UNL A   1      34.626  32.953  28.018  1.00  0.00     0.118 C 
BRANCH  26  27
ATOM     27  N   UNL A   1      33.777  31.784  27.832  1.00  0.00    -0.352 N 
ATOM     28  C   UNL A   1      34.119  30.462  27.702  1.00  0.00     0.251 C 
ATOM     29  H   UNL A   1      32.811  31.970  27.794  1.00  0.00     0.163 HD
ATOM     30  O   UNL A   1      33.291  29.644  27.320  1.00  0.00    -0.269 OA
BRANCH  28  31
ATOM     31  C   UNL A   1      35.500  30.034  28.001  1.00  0.00     0.039 A 
ATOM     32  C   UNL A   1      36.458  30.077  26.987  1.00  0.00     0.014 A 
ATOM     33  C   UNL A   1      35.849  29.601  29.283  1.00  0.00     0.014 A 
ATOM     34  C   UNL A   1      37.784  29.756  27.282  1.00  0.00     0.010 A 
ATOM     35  C   UNL A   1      37.183  29.384  29.599  1.00  0.00     0.010 A 
ATOM     36  C   UNL A   1      38.164  29.450  28.600  1.00  0.00    -0.014 A 
BRANCH  36  37
ATOM     37  C   UNL A   1      39.581  29.195  28.953  1.00  0.00     0.031 A 
ATOM     38  C   UNL A   1      40.368  30.231  29.708  1.00  0.00     0.074 A 
ATOM     39  C   UNL A   1      40.175  28.059  28.537  1.00  0.00     0.049 A 
ATOM     40  N   UNL A   1      41.630  30.224  30.050  1.00  0.00    -0.248 NA
ATOM     41  C   UNL A   1      39.647  31.452  30.106  1.00  0.00     0.031 C 
ATOM     42  C   UNL A   1      39.529  27.005  27.752  1.00  0.00     0.029 A 
ATOM     43  N   UNL A   1      41.459  27.605  28.706  1.00  0.00    -0.354 N 
ATOM     44  C   UNL A   1      41.856  31.436  30.687  1.00  0.00     0.074 A 
ATOM     45  C   UNL A   1      40.618  32.181  30.634  1.00  0.00     0.031 C 
ATOM     46  C   UNL A   1      40.410  26.017  27.532  1.00  0.00     0.029 A 
ATOM     47  C   UNL A   1      41.694  26.385  28.118  1.00  0.00     0.049 A 
ATOM     48  H   UNL A   1      42.147  28.106  29.202  1.00  0.00     0.167 HD
ATOM     49  C   UNL A   1      42.988  31.877  31.285  1.00  0.00     0.037 A 
ATOM     50  C   UNL A   1      42.823  25.654  28.052  1.00  0.00     0.037 A 
ATOM     51  C   UNL A   1      44.209  31.119  31.356  1.00  0.00     0.049 A 
ATOM     52  C   UNL A   1      44.069  26.177  28.717  1.00  0.00     0.074 A 
ATOM     53  C   UNL A   1      45.391  31.448  31.995  1.00  0.00     0.029 A 
ATOM     54  N   UNL A   1      44.405  29.881  30.763  1.00  0.00    -0.354 N 
ATOM     55  N   UNL A   1      44.248  27.289  29.385  1.00  0.00    -0.248 NA
ATOM     56  C   UNL A   1      45.271  25.337  28.620  1.00  0.00     0.031 C 
ATOM     57  C   UNL A   1      46.321  30.436  31.740  1.00  0.00     0.029 A 
ATOM     58  C   UNL A   1      45.700  29.445  30.998  1.00  0.00     0.049 A 
ATOM     59  H   UNL A   1      43.726  29.384  30.251  1.00  0.00     0.167 HD
ATOM     60  C   UNL A   1      45.568  27.268  29.818  1.00  0.00     0.074 A 
ATOM     61  C   UNL A   1      46.139  26.023  29.350  1.00  0.00     0.031 C 
ATOM     62  C   UNL A   1      46.247  28.196  30.534  1.00  0.00     0.037 A 
BRANCH  49  63
ATOM     63  C   UNL A   1      42.962  33.238  31.918  1.00  0.00     0.064 A 
ATOM     64  C   UNL A   1      43.291  34.394  31.193  1.00  0.00     0.173 A 
ATOM     65  C   UNL A   1      42.547  33.397  33.249  1.00  0.00     0.173 A 
ATOM     66  F   UNL A   1      43.707  34.298  29.921  1.00  0.00    -0.203 F 
ATOM     67  C   UNL A   1      43.226  35.653  31.784  1.00  0.00     0.198 A 
ATOM     68  C   UNL A   1      42.451  34.659  33.826  1.00  0.00     0.198 A 
ATOM     69  F   UNL A   1      42.216  32.325  33.986  1.00  0.00    -0.203 F 
ATOM     70  F   UNL A   1      43.586  36.739  31.084  1.00  0.00    -0.200 F 
ATOM     71  C   UNL A   1      42.796  35.786  33.095  1.00  0.00     0.200 A 
ATOM     72  F   UNL A   1      42.020  34.787  35.088  1.00  0.00    -0.200 F 
ATOM     73  F   UNL A   1      42.717  37.001  33.656  1.00  0.00    -0.200 F 
ENDBRANCH  49  63
BRANCH  50  74
ATOM     74  C   UNL A   1      42.829  24.347  27.344  1.00  0.00     0.064 A 
ATOM     75  C   UNL A   1      42.506  23.160  28.018  1.00  0.00     0.173 A 
ATOM     76  C   UNL A   1      43.183  24.249  25.991  1.00  0.00     0.173 A 
ATOM     77  F   UNL A   1      42.178  23.196  29.318  1.00  0.00    -0.203 F 
ATOM     78  C   UNL A   1      42.568  21.926  27.375  1.00  0.00     0.198 A 
ATOM     79  C   UNL A   1      43.211  23.019  25.339  1.00  0.00     0.198 A 
ATOM     80  F   UNL A   1      43.494  25.354  25.296  1.00  0.00    -0.203 F 
ATOM     81  F   UNL A   1      42.314  20.803  28.060  1.00  0.00    -0.200 F 
ATOM     82  C   UNL A   1      42.917  21.856  26.035  1.00  0.00     0.200 A 
ATOM     83  F   UNL A   1      43.532  22.958  24.039  1.00  0.00    -0.200 F 
ATOM     84  F   UNL A   1      42.979  20.668  25.417  1.00  0.00    -0.200 F 
ENDBRANCH  50  74
BRANCH  62  85
ATOM     85  C   UNL A   1      47.670  27.880  30.897  1.00  0.00     0.064 A 
ATOM     86  C   UNL A   1      47.998  27.203  32.080  1.00  0.00     0.173 A 
ATOM     87  C   UNL A   1      48.716  28.227  30.028  1.00  0.00     0.173 A 
ATOM     88  F   UNL A   1      47.036  26.861  32.952  1.00  0.00    -0.203 F 
ATOM     89  C   UNL A   1      49.323  26.912  32.395  1.00  0.00     0.198 A 
ATOM     90  C   UNL A   1      50.035  27.904  30.328  1.00  0.00     0.198 A 
ATOM     91  F   UNL A   1      48.456  28.869  28.879  1.00  0.00    -0.203 F 
ATOM     92  F   UNL A   1      49.618  26.314  33.557  1.00  0.00    -0.200 F 
ATOM     93  C   UNL A   1      50.338  27.255  31.515  1.00  0.00     0.200 A 
ATOM     94  F   UNL A   1      51.013  28.220  29.468  1.00  0.00    -0.200 F 
ATOM     95  F   UNL A   1      51.612  26.967  31.816  1.00  0.00    -0.200 F 
ENDBRANCH  62  85
ENDBRANCH  36  37
ENDBRANCH  28  31
ENDBRANCH  26  27
ENDBRANCH  25  26
ENDBRANCH   1  25
TORSDOF 15
ENDMDL
