MODEL 1
REMARK VINA RESULT:     -10.3      0.000      0.000
REMARK SMILES N#Cc1cnc2cc(C(=O)NCCCNC(=O)c3ccc(-c4c5nc(c(-c6c(F)c(F)c(F)c(F)c6F)c6ccc([nH]6)c(-c6c(F)c(F)c(F)c(F)c6F)c6nc(c(-c7c(F)c(F)c(F)c(F)c7F)c7ccc4[nH]7)C=C6)C=C5)cc3)[nH]c2c1
REMARK SMILES IDX 13 1 12 2 11 3 9 4 10 5 8 7 3 8 4 9 83 10 5 11 82 12 6 13
REMARK SMILES IDX 81 14 7 15 2 17 1 18 14 19 15 20 16 21 17 23 18 24 19 25
REMARK SMILES IDX 80 26 20 27 79 28 21 29 22 30 23 31 73 32 24 33 78 34 72 35
REMARK SMILES IDX 74 36 25 37 77 38 71 39 70 40 26 42 58 43 38 44 57 45 39 46
REMARK SMILES IDX 42 47 56 48 75 49 40 50 41 51 55 53 76 54 43 55 27 56 28 57
REMARK SMILES IDX 36 58 29 59 30 60 34 61 37 62 31 63 32 64 35 65 33 66 59 67
REMARK SMILES IDX 60 68 68 69 61 70 62 71 66 72 69 73 63 74 64 75 67 76 65 77
REMARK SMILES IDX 44 78 45 79 53 80 46 81 47 82 51 83 54 84 48 85 49 86 52 87
REMARK SMILES IDX 50 88
REMARK H PARENT 11 6 81 16 15 22 74 41 42 52
REMARK Flexibility Score: inf
ROOT
ATOM      1  C   UNL A   1      43.462  23.711  24.987  1.00  0.00     0.042 C 
ENDROOT
BRANCH   1   2
ATOM      2  C   UNL A   1      44.886  24.273  25.066  1.00  0.00     0.118 C 
BRANCH   2   3
ATOM      3  N   UNL A   1      44.958  25.687  24.737  1.00  0.00    -0.351 N 
ATOM      4  C   UNL A   1      45.314  26.779  25.480  1.00  0.00     0.267 C 
ATOM      5  O   UNL A   1      45.389  27.856  24.885  1.00  0.00    -0.268 OA
ATOM      6  H   UNL A   1      44.701  25.896  23.810  1.00  0.00     0.163 HD
BRANCH   4   7
ATOM      7  C   UNL A   1      45.555  26.703  26.903  1.00  0.00     0.107 A 
ATOM      8  C   UNL A   1      45.044  25.768  31.349  1.00  0.00     0.072 A 
ATOM      9  C   UNL A   1      46.425  25.877  31.230  1.00  0.00     0.131 A 
ATOM     10  C   UNL A   1      44.234  26.024  30.237  1.00  0.00     0.049 A 
ATOM     11  N   UNL A   1      47.090  26.211  30.103  1.00  0.00    -0.253 NA
ATOM     12  C   UNL A   1      44.915  26.336  29.058  1.00  0.00     0.066 A 
ATOM     13  C   UNL A   1      46.299  26.417  29.025  1.00  0.00     0.089 A 
ATOM     14  N   UNL A   1      44.483  26.584  27.778  1.00  0.00    -0.349 N 
ATOM     15  C   UNL A   1      46.688  26.682  27.698  1.00  0.00     0.062 A 
ATOM     16  H   UNL A   1      43.537  26.666  27.516  1.00  0.00     0.167 HD
BRANCH   8  17
ATOM     17  C   UNL A   1      44.474  25.368  32.602  1.00  0.00     0.101 C 
ATOM     18  N   UNL A   1      43.997  25.054  33.602  1.00  0.00    -0.192 NA
ENDBRANCH   8  17
ENDBRANCH   4   7
ENDBRANCH   2   3
ENDBRANCH   1   2
BRANCH   1  19
ATOM     19  C   UNL A   1      43.163  22.839  26.195  1.00  0.00     0.118 C 
BRANCH  19  20
ATOM     20  N   UNL A   1      41.746  22.451  26.297  1.00  0.00    -0.352 N 
ATOM     21  C   UNL A   1      40.691  23.135  26.878  1.00  0.00     0.251 C 
ATOM     22  H   UNL A   1      41.516  21.582  25.894  1.00  0.00     0.163 HD
ATOM     23  O   UNL A   1      39.645  22.558  27.152  1.00  0.00    -0.269 OA
BRANCH  21  24
ATOM     24  C   UNL A   1      40.837  24.579  27.143  1.00  0.00     0.039 A 
ATOM     25  C   UNL A   1      40.516  25.567  26.211  1.00  0.00     0.014 A 
ATOM     26  C   UNL A   1      41.273  24.939  28.409  1.00  0.00     0.014 A 
ATOM     27  C   UNL A   1      40.665  26.901  26.594  1.00  0.00     0.010 A 
ATOM     28  C   UNL A   1      41.023  26.194  28.870  1.00  0.00     0.010 A 
ATOM     29  C   UNL A   1      40.939  27.201  27.943  1.00  0.00    -0.014 A 
BRANCH  29  30
ATOM     30  C   UNL A   1      40.960  28.553  28.481  1.00  0.00     0.031 A 
ATOM     31  C   UNL A   1      42.163  29.272  28.022  1.00  0.00     0.074 A 
ATOM     32  C   UNL A   1      39.952  29.137  29.177  1.00  0.00     0.049 A 
ATOM     33  N   UNL A   1      43.242  29.426  28.706  1.00  0.00    -0.248 NA
ATOM     34  C   UNL A   1      42.306  29.612  26.598  1.00  0.00     0.031 C 
ATOM     35  C   UNL A   1      38.598  28.646  29.465  1.00  0.00     0.029 A 
ATOM     36  N   UNL A   1      39.944  30.363  29.787  1.00  0.00    -0.354 N 
ATOM     37  C   UNL A   1      44.117  30.120  27.885  1.00  0.00     0.074 A 
ATOM     38  C   UNL A   1      43.581  30.009  26.555  1.00  0.00     0.031 C 
ATOM     39  C   UNL A   1      37.847  29.635  30.014  1.00  0.00     0.029 A 
ATOM     40  C   UNL A   1      38.697  30.782  30.274  1.00  0.00     0.049 A 
ATOM     41  H   UNL A   1      40.756  30.912  29.877  1.00  0.00     0.167 HD
ATOM     42  C   UNL A   1      45.029  30.953  28.453  1.00  0.00     0.037 A 
ATOM     43  C   UNL A   1      38.420  31.968  30.889  1.00  0.00     0.037 A 
ATOM     44  C   UNL A   1      45.149  30.662  29.867  1.00  0.00     0.049 A 
ATOM     45  C   UNL A   1      39.713  32.481  31.412  1.00  0.00     0.074 A 
ATOM     46  C   UNL A   1      45.555  29.568  30.606  1.00  0.00     0.029 A 
ATOM     47  N   UNL A   1      44.384  31.428  30.712  1.00  0.00    -0.354 N 
ATOM     48  N   UNL A   1      40.377  31.896  32.369  1.00  0.00    -0.248 NA
ATOM     49  C   UNL A   1      40.492  33.319  30.515  1.00  0.00     0.031 C 
ATOM     50  C   UNL A   1      44.649  29.506  31.709  1.00  0.00     0.029 A 
ATOM     51  C   UNL A   1      43.807  30.618  31.654  1.00  0.00     0.049 A 
ATOM     52  H   UNL A   1      44.267  32.403  30.651  1.00  0.00     0.167 HD
ATOM     53  C   UNL A   1      41.693  31.910  31.931  1.00  0.00     0.074 A 
ATOM     54  C   UNL A   1      41.705  32.837  30.797  1.00  0.00     0.031 C 
ATOM     55  C   UNL A   1      42.567  30.937  32.323  1.00  0.00     0.037 A 
BRANCH  42  56
ATOM     56  C   UNL A   1      45.445  32.286  27.877  1.00  0.00     0.064 A 
ATOM     57  C   UNL A   1      44.446  33.257  27.654  1.00  0.00     0.173 A 
ATOM     58  C   UNL A   1      46.686  32.544  27.257  1.00  0.00     0.173 A 
ATOM     59  F   UNL A   1      43.221  33.114  28.182  1.00  0.00    -0.203 F 
ATOM     60  C   UNL A   1      44.647  34.346  26.802  1.00  0.00     0.198 A 
ATOM     61  C   UNL A   1      46.897  33.657  26.444  1.00  0.00     0.198 A 
ATOM     62  F   UNL A   1      47.712  31.690  27.312  1.00  0.00    -0.203 F 
ATOM     63  F   UNL A   1      43.626  35.165  26.519  1.00  0.00    -0.200 F 
ATOM     64  C   UNL A   1      45.870  34.540  26.191  1.00  0.00     0.200 A 
ATOM     65  F   UNL A   1      48.085  33.814  25.842  1.00  0.00    -0.200 F 
ATOM     66  F   UNL A   1      46.049  35.547  25.328  1.00  0.00    -0.200 F 
ENDBRANCH  42  56
BRANCH  43  67
ATOM     67  C   UNL A   1      37.259  32.891  30.715  1.00  0.00     0.064 A 
ATOM     68  C   UNL A   1      36.912  33.400  29.445  1.00  0.00     0.173 A 
ATOM     69  C   UNL A   1      36.275  33.012  31.713  1.00  0.00     0.173 A 
ATOM     70  F   UNL A   1      37.769  33.292  28.417  1.00  0.00    -0.203 F 
ATOM     71  C   UNL A   1      35.648  33.948  29.182  1.00  0.00     0.198 A 
ATOM     72  C   UNL A   1      35.013  33.555  31.449  1.00  0.00     0.198 A 
ATOM     73  F   UNL A   1      36.483  32.507  32.937  1.00  0.00    -0.203 F 
ATOM     74  F   UNL A   1      35.334  34.353  27.942  1.00  0.00    -0.200 F 
ATOM     75  C   UNL A   1      34.693  34.007  30.181  1.00  0.00     0.200 A 
ATOM     76  F   UNL A   1      34.082  33.571  32.413  1.00  0.00    -0.200 F 
ATOM     77  F   UNL A   1      33.458  34.457  29.916  1.00  0.00    -0.200 F 
ENDBRANCH  43  67
BRANCH  55  78
ATOM     78  C   UNL A   1      42.144  30.012  33.435  1.00  0.00     0.064 A 
ATOM     79  C   UNL A   1      41.617  28.721  33.247  1.00  0.00     0.173 A 
ATOM     80  C   UNL A   1      42.449  30.394  34.747  1.00  0.00     0.173 A 
ATOM     81  F   UNL A   1      41.366  28.248  32.020  1.00  0.00    -0.203 F 
ATOM     82  C   UNL A   1      41.396  27.865  34.329  1.00  0.00     0.198 A 
ATOM     83  C   UNL A   1      42.261  29.528  35.818  1.00  0.00     0.198 A 
ATOM     84  F   UNL A   1      42.993  31.600  34.982  1.00  0.00    -0.203 F 
ATOM     85  F   UNL A   1      40.898  26.634  34.126  1.00  0.00    -0.200 F 
ATOM     86  C   UNL A   1      41.730  28.265  35.612  1.00  0.00     0.200 A 
ATOM     87  F   UNL A   1      42.632  29.907  37.049  1.00  0.00    -0.200 F 
ATOM     88  F   UNL A   1      41.567  27.428  36.646  1.00  0.00    -0.200 F 
ENDBRANCH  55  78
ENDBRANCH  29  30
ENDBRANCH  21  24
ENDBRANCH  19  20
ENDBRANCH   1  19
TORSDOF 11
ENDMDL
MODEL 2
REMARK VINA RESULT:     -10.2      3.922      6.432
REMARK SMILES N#Cc1cnc2cc(C(=O)NCCCNC(=O)c3ccc(-c4c5nc(c(-c6c(F)c(F)c(F)c(F)c6F)c6ccc([nH]6)c(-c6c(F)c(F)c(F)c(F)c6F)c6nc(c(-c7c(F)c(F)c(F)c(F)c7F)c7ccc4[nH]7)C=C6)C=C5)cc3)[nH]c2c1
REMARK SMILES IDX 13 1 12 2 11 3 9 4 10 5 8 7 3 8 4 9 83 10 5 11 82 12 6 13
REMARK SMILES IDX 81 14 7 15 2 17 1 18 14 19 15 20 16 21 17 23 18 24 19 25
REMARK SMILES IDX 80 26 20 27 79 28 21 29 22 30 23 31 73 32 24 33 78 34 72 35
REMARK SMILES IDX 74 36 25 37 77 38 71 39 70 40 26 42 58 43 38 44 57 45 39 46
REMARK SMILES IDX 42 47 56 48 75 49 40 50 41 51 55 53 76 54 43 55 27 56 28 57
REMARK SMILES IDX 36 58 29 59 30 60 34 61 37 62 31 63 32 64 35 65 33 66 59 67
REMARK SMILES IDX 60 68 68 69 61 70 62 71 66 72 69 73 63 74 64 75 67 76 65 77
REMARK SMILES IDX 44 78 45 79 53 80 46 81 47 82 51 83 54 84 48 85 49 86 52 87
REMARK SMILES IDX 50 88
REMARK H PARENT 11 6 81 16 15 22 74 41 42 52
REMARK Flexibility Score: inf
ROOT
ATOM      1  C   UNL A   1      37.122  21.695  25.167  1.00  0.00     0.042 C 
ENDROOT
BRANCH   1   2
ATOM      2  C   UNL A   1      35.758  22.025  25.785  1.00  0.00     0.118 C 
BRANCH   2   3
ATOM      3  N   UNL A   1      34.723  21.073  25.419  1.00  0.00    -0.351 N 
ATOM      4  C   UNL A   1      33.739  21.116  24.470  1.00  0.00     0.267 C 
ATOM      5  O   UNL A   1      33.071  20.092  24.314  1.00  0.00    -0.268 OA
ATOM      6  H   UNL A   1      34.733  20.246  25.952  1.00  0.00     0.163 HD
BRANCH   4   7
ATOM      7  C   UNL A   1      33.451  22.309  23.705  1.00  0.00     0.107 A 
ATOM      8  C   UNL A   1      31.616  26.284  22.387  1.00  0.00     0.072 A 
ATOM      9  C   UNL A   1      32.860  26.315  21.766  1.00  0.00     0.131 A 
ATOM     10  C   UNL A   1      31.234  25.147  23.108  1.00  0.00     0.049 A 
ATOM     11  N   UNL A   1      33.775  25.323  21.795  1.00  0.00    -0.253 NA
ATOM     12  C   UNL A   1      32.189  24.129  23.173  1.00  0.00     0.066 A 
ATOM     13  C   UNL A   1      33.411  24.245  22.528  1.00  0.00     0.089 A 
ATOM     14  N   UNL A   1      32.207  22.917  23.820  1.00  0.00    -0.349 N 
ATOM     15  C   UNL A   1      34.173  23.100  22.829  1.00  0.00     0.062 A 
ATOM     16  H   UNL A   1      31.440  22.532  24.301  1.00  0.00     0.167 HD
BRANCH   8  17
ATOM     17  C   UNL A   1      30.756  27.428  22.303  1.00  0.00     0.101 C 
ATOM     18  N   UNL A   1      30.049  28.334  22.236  1.00  0.00    -0.192 NA
ENDBRANCH   8  17
ENDBRANCH   4   7
ENDBRANCH   2   3
ENDBRANCH   1   2
BRANCH   1  19
ATOM     19  C   UNL A   1      38.195  22.625  25.707  1.00  0.00     0.118 C 
BRANCH  19  20
ATOM     20  N   UNL A   1      39.125  21.965  26.636  1.00  0.00    -0.352 N 
ATOM     21  C   UNL A   1      40.153  22.515  27.386  1.00  0.00     0.251 C 
ATOM     22  H   UNL A   1      38.999  20.994  26.742  1.00  0.00     0.163 HD
ATOM     23  O   UNL A   1      41.024  21.804  27.872  1.00  0.00    -0.269 OA
BRANCH  21  24
ATOM     24  C   UNL A   1      40.170  23.974  27.608  1.00  0.00     0.039 A 
ATOM     25  C   UNL A   1      39.076  24.802  27.354  1.00  0.00     0.014 A 
ATOM     26  C   UNL A   1      41.333  24.509  28.142  1.00  0.00     0.014 A 
ATOM     27  C   UNL A   1      39.206  26.163  27.639  1.00  0.00     0.010 A 
ATOM     28  C   UNL A   1      41.287  25.714  28.769  1.00  0.00     0.010 A 
ATOM     29  C   UNL A   1      40.341  26.612  28.343  1.00  0.00    -0.014 A 
BRANCH  29  30
ATOM     30  C   UNL A   1      40.504  27.974  28.826  1.00  0.00     0.031 A 
ATOM     31  C   UNL A   1      41.670  28.612  28.187  1.00  0.00     0.074 A 
ATOM     32  C   UNL A   1      39.631  28.632  29.629  1.00  0.00     0.049 A 
ATOM     33  N   UNL A   1      42.838  28.725  28.716  1.00  0.00    -0.248 NA
ATOM     34  C   UNL A   1      41.637  28.905  26.746  1.00  0.00     0.031 C 
ATOM     35  C   UNL A   1      38.304  28.225  30.112  1.00  0.00     0.029 A 
ATOM     36  N   UNL A   1      39.768  29.873  30.193  1.00  0.00    -0.354 N 
ATOM     37  C   UNL A   1      43.629  29.346  27.762  1.00  0.00     0.074 A 
ATOM     38  C   UNL A   1      42.914  29.229  26.520  1.00  0.00     0.031 C 
ATOM     39  C   UNL A   1      37.685  29.269  30.721  1.00  0.00     0.029 A 
ATOM     40  C   UNL A   1      38.621  30.374  30.826  1.00  0.00     0.049 A 
ATOM     41  H   UNL A   1      40.612  30.378  30.155  1.00  0.00     0.167 HD
ATOM     42  C   UNL A   1      44.651  30.142  28.176  1.00  0.00     0.037 A 
ATOM     43  C   UNL A   1      38.491  31.590  31.431  1.00  0.00     0.037 A 
ATOM     44  C   UNL A   1      44.944  29.883  29.570  1.00  0.00     0.049 A 
ATOM     45  C   UNL A   1      39.867  32.044  31.760  1.00  0.00     0.074 A 
ATOM     46  C   UNL A   1      45.389  28.788  30.286  1.00  0.00     0.029 A 
ATOM     47  N   UNL A   1      44.340  30.713  30.482  1.00  0.00    -0.354 N 
ATOM     48  N   UNL A   1      40.623  31.449  32.640  1.00  0.00    -0.248 NA
ATOM     49  C   UNL A   1      40.561  32.812  30.739  1.00  0.00     0.031 C 
ATOM     50  C   UNL A   1      44.638  28.808  31.501  1.00  0.00     0.029 A 
ATOM     51  C   UNL A   1      43.855  29.962  31.521  1.00  0.00     0.049 A 
ATOM     52  H   UNL A   1      44.267  31.692  30.404  1.00  0.00     0.167 HD
ATOM     53  C   UNL A   1      41.866  31.377  32.031  1.00  0.00     0.074 A 
ATOM     54  C   UNL A   1      41.774  32.271  30.874  1.00  0.00     0.031 C 
ATOM     55  C   UNL A   1      42.734  30.369  32.337  1.00  0.00     0.037 A 
BRANCH  42  56
ATOM     56  C   UNL A   1      45.054  31.434  27.504  1.00  0.00     0.064 A 
ATOM     57  C   UNL A   1      46.353  31.527  26.962  1.00  0.00     0.173 A 
ATOM     58  C   UNL A   1      44.365  32.659  27.636  1.00  0.00     0.173 A 
ATOM     59  F   UNL A   1      47.109  30.431  26.801  1.00  0.00    -0.203 F 
ATOM     60  C   UNL A   1      46.946  32.757  26.666  1.00  0.00     0.198 A 
ATOM     61  C   UNL A   1      44.945  33.880  27.296  1.00  0.00     0.198 A 
ATOM     62  F   UNL A   1      43.156  32.750  28.195  1.00  0.00    -0.203 F 
ATOM     63  F   UNL A   1      48.228  32.799  26.279  1.00  0.00    -0.200 F 
ATOM     64  C   UNL A   1      46.244  33.933  26.842  1.00  0.00     0.200 A 
ATOM     65  F   UNL A   1      44.254  35.012  27.496  1.00  0.00    -0.200 F 
ATOM     66  F   UNL A   1      46.828  35.116  26.617  1.00  0.00    -0.200 F 
ENDBRANCH  42  56
BRANCH  43  67
ATOM     67  C   UNL A   1      37.367  32.572  31.382  1.00  0.00     0.064 A 
ATOM     68  C   UNL A   1      37.047  33.258  30.190  1.00  0.00     0.173 A 
ATOM     69  C   UNL A   1      36.382  32.595  32.385  1.00  0.00     0.173 A 
ATOM     70  F   UNL A   1      37.905  33.256  29.158  1.00  0.00    -0.203 F 
ATOM     71  C   UNL A   1      35.806  33.884  30.002  1.00  0.00     0.198 A 
ATOM     72  C   UNL A   1      35.143  33.216  32.195  1.00  0.00     0.198 A 
ATOM     73  F   UNL A   1      36.563  31.923  33.531  1.00  0.00    -0.203 F 
ATOM     74  F   UNL A   1      35.515  34.462  28.827  1.00  0.00    -0.200 F 
ATOM     75  C   UNL A   1      34.847  33.845  30.999  1.00  0.00     0.200 A 
ATOM     76  F   UNL A   1      34.207  33.138  33.152  1.00  0.00    -0.200 F 
ATOM     77  F   UNL A   1      33.632  34.374  30.795  1.00  0.00    -0.200 F 
ENDBRANCH  43  67
BRANCH  55  78
ATOM     78  C   UNL A   1      42.417  29.499  33.526  1.00  0.00     0.064 A 
ATOM     79  C   UNL A   1      41.739  28.268  33.461  1.00  0.00     0.173 A 
ATOM     80  C   UNL A   1      42.979  29.856  34.757  1.00  0.00     0.173 A 
ATOM     81  F   UNL A   1      41.236  27.816  32.306  1.00  0.00    -0.203 F 
ATOM     82  C   UNL A   1      41.622  27.446  34.585  1.00  0.00     0.198 A 
ATOM     83  C   UNL A   1      42.892  29.021  35.866  1.00  0.00     0.198 A 
ATOM     84  F   UNL A   1      43.673  31.001  34.868  1.00  0.00    -0.203 F 
ATOM     85  F   UNL A   1      40.976  26.272  34.499  1.00  0.00    -0.200 F 
ATOM     86  C   UNL A   1      42.209  27.818  35.783  1.00  0.00     0.200 A 
ATOM     87  F   UNL A   1      43.504  29.367  37.006  1.00  0.00    -0.200 F 
ATOM     88  F   UNL A   1      42.143  27.009  36.849  1.00  0.00    -0.200 F 
ENDBRANCH  55  78
ENDBRANCH  29  30
ENDBRANCH  21  24
ENDBRANCH  19  20
ENDBRANCH   1  19
TORSDOF 11
ENDMDL
MODEL 3
REMARK VINA RESULT:     -10.2      3.911     10.588
REMARK SMILES N#Cc1cnc2cc(C(=O)NCCCNC(=O)c3ccc(-c4c5nc(c(-c6c(F)c(F)c(F)c(F)c6F)c6ccc([nH]6)c(-c6c(F)c(F)c(F)c(F)c6F)c6nc(c(-c7c(F)c(F)c(F)c(F)c7F)c7ccc4[nH]7)C=C6)C=C5)cc3)[nH]c2c1
REMARK SMILES IDX 13 1 12 2 11 3 9 4 10 5 8 7 3 8 4 9 83 10 5 11 82 12 6 13
REMARK SMILES IDX 81 14 7 15 2 17 1 18 14 19 15 20 16 21 17 23 18 24 19 25
REMARK SMILES IDX 80 26 20 27 79 28 21 29 22 30 23 31 73 32 24 33 78 34 72 35
REMARK SMILES IDX 74 36 25 37 77 38 71 39 70 40 26 42 58 43 38 44 57 45 39 46
REMARK SMILES IDX 42 47 56 48 75 49 40 50 41 51 55 53 76 54 43 55 27 56 28 57
REMARK SMILES IDX 36 58 29 59 30 60 34 61 37 62 31 63 32 64 35 65 33 66 59 67
REMARK SMILES IDX 60 68 68 69 61 70 62 71 66 72 69 73 63 74 64 75 67 76 65 77
REMARK SMILES IDX 44 78 45 79 53 80 46 81 47 82 51 83 54 84 48 85 49 86 52 87
REMARK SMILES IDX 50 88
REMARK H PARENT 11 6 81 16 15 22 74 41 42 52
REMARK Flexibility Score: inf
ROOT
ATOM      1  C   UNL A   1      34.500  33.696  28.078  1.00  0.00     0.042 C 
ENDROOT
BRANCH   1   2
ATOM      2  C   UNL A   1      34.432  35.216  28.269  1.00  0.00     0.118 C 
BRANCH   2   3
ATOM      3  N   UNL A   1      33.234  35.646  28.971  1.00  0.00    -0.351 N 
ATOM      4  C   UNL A   1      32.952  35.767  30.305  1.00  0.00     0.267 C 
ATOM      5  O   UNL A   1      31.869  36.276  30.600  1.00  0.00    -0.268 OA
ATOM      6  H   UNL A   1      32.489  35.896  28.378  1.00  0.00     0.163 HD
BRANCH   4   7
ATOM      7  C   UNL A   1      33.849  35.289  31.333  1.00  0.00     0.107 A 
ATOM      8  C   UNL A   1      36.766  32.654  33.668  1.00  0.00     0.072 A 
ATOM      9  C   UNL A   1      37.084  33.926  34.132  1.00  0.00     0.131 A 
ATOM     10  C   UNL A   1      35.703  32.494  32.773  1.00  0.00     0.049 A 
ATOM     11  N   UNL A   1      36.450  35.067  33.787  1.00  0.00    -0.253 NA
ATOM     12  C   UNL A   1      35.063  33.673  32.382  1.00  0.00     0.066 A 
ATOM     13  C   UNL A   1      35.450  34.904  32.890  1.00  0.00     0.089 A 
ATOM     14  N   UNL A   1      34.045  33.923  31.496  1.00  0.00    -0.349 N 
ATOM     15  C   UNL A   1      34.670  35.897  32.266  1.00  0.00     0.062 A 
ATOM     16  H   UNL A   1      33.523  33.226  31.036  1.00  0.00     0.167 HD
BRANCH   8  17
ATOM     17  C   UNL A   1      37.550  31.532  34.092  1.00  0.00     0.101 C 
ATOM     18  N   UNL A   1      38.172  30.619  34.417  1.00  0.00    -0.192 NA
ENDBRANCH   8  17
ENDBRANCH   4   7
ENDBRANCH   2   3
ENDBRANCH   1   2
BRANCH   1  19
ATOM     19  C   UNL A   1      35.890  33.178  28.406  1.00  0.00     0.118 C 
BRANCH  19  20
ATOM     20  N   UNL A   1      36.737  34.170  29.089  1.00  0.00    -0.352 N 
ATOM     21  C   UNL A   1      37.770  33.968  29.990  1.00  0.00     0.251 C 
ATOM     22  H   UNL A   1      36.542  35.111  28.874  1.00  0.00     0.163 HD
ATOM     23  O   UNL A   1      38.173  34.883  30.697  1.00  0.00    -0.269 OA
BRANCH  21  24
ATOM     24  C   UNL A   1      38.395  32.633  30.070  1.00  0.00     0.039 A 
ATOM     25  C   UNL A   1      37.828  31.486  29.513  1.00  0.00     0.014 A 
ATOM     26  C   UNL A   1      39.631  32.560  30.695  1.00  0.00     0.014 A 
ATOM     27  C   UNL A   1      38.535  30.287  29.626  1.00  0.00     0.010 A 
ATOM     28  C   UNL A   1      40.450  31.506  30.435  1.00  0.00     0.010 A 
ATOM     29  C   UNL A   1      39.857  30.312  30.111  1.00  0.00    -0.014 A 
BRANCH  29  30
ATOM     30  C   UNL A   1      40.734  29.152  30.124  1.00  0.00     0.031 A 
ATOM     31  C   UNL A   1      41.094  28.793  31.508  1.00  0.00     0.074 A 
ATOM     32  C   UNL A   1      41.059  28.401  29.041  1.00  0.00     0.049 A 
ATOM     33  N   UNL A   1      42.193  29.113  32.096  1.00  0.00    -0.248 NA
ATOM     34  C   UNL A   1      40.058  28.280  32.417  1.00  0.00     0.031 C 
ATOM     35  C   UNL A   1      40.558  28.470  27.662  1.00  0.00     0.029 A 
ATOM     36  N   UNL A   1      41.946  27.360  28.967  1.00  0.00    -0.354 N 
ATOM     37  C   UNL A   1      42.096  28.610  33.384  1.00  0.00     0.074 A 
ATOM     38  C   UNL A   1      40.703  28.315  33.587  1.00  0.00     0.031 C 
ATOM     39  C   UNL A   1      40.994  27.400  26.949  1.00  0.00     0.029 A 
ATOM     40  C   UNL A   1      41.938  26.650  27.758  1.00  0.00     0.049 A 
ATOM     41  H   UNL A   1      42.547  27.126  29.711  1.00  0.00     0.167 HD
ATOM     42  C   UNL A   1      43.232  28.225  34.025  1.00  0.00     0.037 A 
ATOM     43  C   UNL A   1      42.699  25.560  27.449  1.00  0.00     0.037 A 
ATOM     44  C   UNL A   1      44.389  28.775  33.351  1.00  0.00     0.049 A 
ATOM     45  C   UNL A   1      43.865  25.589  28.369  1.00  0.00     0.074 A 
ATOM     46  C   UNL A   1      44.857  30.050  33.099  1.00  0.00     0.029 A 
ATOM     47  N   UNL A   1      45.001  27.958  32.432  1.00  0.00    -0.354 N 
ATOM     48  N   UNL A   1      44.786  26.510  28.324  1.00  0.00    -0.248 NA
ATOM     49  C   UNL A   1      43.705  24.908  29.643  1.00  0.00     0.031 C 
ATOM     50  C   UNL A   1      45.373  30.002  31.768  1.00  0.00     0.029 A 
ATOM     51  C   UNL A   1      45.297  28.686  31.310  1.00  0.00     0.049 A 
ATOM     52  H   UNL A   1      45.198  27.002  32.558  1.00  0.00     0.167 HD
ATOM     53  C   UNL A   1      44.998  26.848  29.652  1.00  0.00     0.074 A 
ATOM     54  C   UNL A   1      44.329  25.796  30.422  1.00  0.00     0.031 C 
ATOM     55  C   UNL A   1      45.416  28.102  29.994  1.00  0.00     0.037 A 
BRANCH  42  56
ATOM     56  C   UNL A   1      43.335  27.020  34.931  1.00  0.00     0.064 A 
ATOM     57  C   UNL A   1      43.590  27.235  36.301  1.00  0.00     0.173 A 
ATOM     58  C   UNL A   1      43.507  25.692  34.486  1.00  0.00     0.173 A 
ATOM     59  F   UNL A   1      43.472  28.460  36.836  1.00  0.00    -0.203 F 
ATOM     60  C   UNL A   1      44.068  26.221  37.135  1.00  0.00     0.198 A 
ATOM     61  C   UNL A   1      43.940  24.672  35.332  1.00  0.00     0.198 A 
ATOM     62  F   UNL A   1      43.373  25.336  33.205  1.00  0.00    -0.203 F 
ATOM     63  F   UNL A   1      44.419  26.508  38.395  1.00  0.00    -0.200 F 
ATOM     64  C   UNL A   1      44.251  24.942  36.647  1.00  0.00     0.200 A 
ATOM     65  F   UNL A   1      44.132  23.443  34.833  1.00  0.00    -0.200 F 
ATOM     66  F   UNL A   1      44.765  23.982  37.425  1.00  0.00    -0.200 F 
ENDBRANCH  42  56
BRANCH  43  67
ATOM     67  C   UNL A   1      42.326  24.297  26.746  1.00  0.00     0.064 A 
ATOM     68  C   UNL A   1      43.223  23.658  25.863  1.00  0.00     0.173 A 
ATOM     69  C   UNL A   1      41.241  23.517  27.186  1.00  0.00     0.173 A 
ATOM     70  F   UNL A   1      44.314  24.306  25.423  1.00  0.00    -0.203 F 
ATOM     71  C   UNL A   1      43.069  22.316  25.486  1.00  0.00     0.198 A 
ATOM     72  C   UNL A   1      41.089  22.178  26.811  1.00  0.00     0.198 A 
ATOM     73  F   UNL A   1      40.364  24.010  28.072  1.00  0.00    -0.203 F 
ATOM     74  F   UNL A   1      43.985  21.727  24.702  1.00  0.00    -0.200 F 
ATOM     75  C   UNL A   1      42.011  21.571  25.976  1.00  0.00     0.200 A 
ATOM     76  F   UNL A   1      40.084  21.454  27.324  1.00  0.00    -0.200 F 
ATOM     77  F   UNL A   1      41.902  20.268  25.681  1.00  0.00    -0.200 F 
ENDBRANCH  43  67
BRANCH  55  78
ATOM     78  C   UNL A   1      45.886  29.016  28.891  1.00  0.00     0.064 A 
ATOM     79  C   UNL A   1      45.060  29.905  28.179  1.00  0.00     0.173 A 
ATOM     80  C   UNL A   1      47.265  29.108  28.672  1.00  0.00     0.173 A 
ATOM     81  F   UNL A   1      43.737  29.934  28.384  1.00  0.00    -0.203 F 
ATOM     82  C   UNL A   1      45.598  30.831  27.282  1.00  0.00     0.198 A 
ATOM     83  C   UNL A   1      47.801  30.053  27.804  1.00  0.00     0.198 A 
ATOM     84  F   UNL A   1      48.105  28.312  29.354  1.00  0.00    -0.203 F 
ATOM     85  F   UNL A   1      44.791  31.675  26.618  1.00  0.00    -0.200 F 
ATOM     86  C   UNL A   1      46.969  30.912  27.105  1.00  0.00     0.200 A 
ATOM     87  F   UNL A   1      49.131  30.157  27.675  1.00  0.00    -0.200 F 
ATOM     88  F   UNL A   1      47.491  31.834  26.283  1.00  0.00    -0.200 F 
ENDBRANCH  55  78
ENDBRANCH  29  30
ENDBRANCH  21  24
ENDBRANCH  19  20
ENDBRANCH   1  19
TORSDOF 11
ENDMDL
