MODEL 1
REMARK VINA RESULT:     -13.1      0.000      0.000
REMARK SMILES Cc1occc1C(=O)N1CCC(C(=O)NCCCNC(=O)c2ccc(-c3c4nc(c(-c5c(F)c(F)c(F)c(F)c5F)c5ccc([nH]5)c(-c5c(F)c(F)c(F)c(F)c5F)c5nc(c(-c6c(F)c(F)c(F)c(F)c6F)c6ccc3[nH]6)C=C5)C=C4)cc2)(n2cccn2)CC1
REMARK SMILES IDX 17 1 16 2 15 3 13 4 14 5 12 7 7 8 8 9 9 10 10 11 91 12 11 13
REMARK SMILES IDX 90 14 6 15 1 16 2 17 3 18 4 19 5 20 85 21 86 22 89 23 87 24
REMARK SMILES IDX 88 25 18 26 19 27 20 28 21 30 22 31 23 32 84 33 24 34 83 35
REMARK SMILES IDX 25 36 26 37 27 38 77 39 28 40 82 41 76 42 78 43 29 44 81 45
REMARK SMILES IDX 75 46 74 47 30 49 62 50 42 51 61 52 43 53 46 54 60 55 79 56
REMARK SMILES IDX 44 57 45 58 59 60 80 61 47 62 31 63 32 64 40 65 33 66 34 67
REMARK SMILES IDX 38 68 41 69 35 70 36 71 39 72 37 73 63 74 64 75 72 76 65 77
REMARK SMILES IDX 66 78 70 79 73 80 67 81 68 82 71 83 69 84 48 85 49 86 57 87
REMARK SMILES IDX 50 88 51 89 55 90 58 91 52 92 53 93 56 94 54 95
REMARK H PARENT 15 6 19 29 78 48 46 59
REMARK Flexibility Score: inf
ROOT
ATOM      1  C   UNL A   1      31.790  31.116  26.201  1.00  0.00     0.042 C 
ENDROOT
BRANCH   1   2
ATOM      2  C   UNL A   1      32.200  29.693  25.839  1.00  0.00     0.117 C 
BRANCH   2   3
ATOM      3  N   UNL A   1      33.153  29.660  24.739  1.00  0.00    -0.354 N 
ATOM      4  C   UNL A   1      33.442  28.747  23.754  1.00  0.00     0.248 C 
ATOM      5  O   UNL A   1      34.447  29.057  23.111  1.00  0.00    -0.272 OA
ATOM      6  H   UNL A   1      33.713  30.468  24.689  1.00  0.00     0.163 HD
BRANCH   4   7
ATOM      7  C   UNL A   1      32.584  27.450  23.551  1.00  0.00     0.144 C 
ATOM      8  C   UNL A   1      34.004  23.445  23.323  1.00  0.00     0.257 C 
ATOM      9  O   UNL A   1      34.979  23.403  22.573  1.00  0.00    -0.269 OA
ATOM     10  N   UNL A   1      33.240  24.609  23.410  1.00  0.00    -0.338 N 
ATOM     11  C   UNL A   1      32.962  25.298  22.164  1.00  0.00     0.123 C 
ATOM     12  C   UNL A   1      32.585  25.082  24.620  1.00  0.00     0.123 C 
ATOM     13  C   UNL A   1      33.116  26.801  22.249  1.00  0.00     0.062 C 
ATOM     14  C   UNL A   1      32.737  26.584  24.833  1.00  0.00     0.062 C 
BRANCH   8  15
ATOM     15  C   UNL A   1      33.601  22.252  24.062  1.00  0.00     0.081 A 
ATOM     16  C   UNL A   1      35.119  22.127  26.242  1.00  0.00     0.088 C 
ATOM     17  C   UNL A   1      34.073  21.747  25.268  1.00  0.00     0.113 A 
ATOM     18  O   UNL A   1      33.324  20.675  25.659  1.00  0.00    -0.469 OA
ATOM     19  C   UNL A   1      32.333  20.517  24.753  1.00  0.00     0.196 A 
ATOM     20  C   UNL A   1      32.452  21.454  23.758  1.00  0.00     0.056 A 
ENDBRANCH   8  15
BRANCH   7  21
ATOM     21  N   UNL A   1      31.117  27.709  23.364  1.00  0.00    -0.257 N 
ATOM     22  C   UNL A   1      30.069  26.969  23.875  1.00  0.00     0.110 A 
ATOM     23  N   UNL A   1      30.657  28.774  22.683  1.00  0.00    -0.181 NA
ATOM     24  C   UNL A   1      28.905  27.558  23.444  1.00  0.00     0.042 A 
ATOM     25  C   UNL A   1      29.331  28.660  22.699  1.00  0.00     0.135 A 
ENDBRANCH   7  21
ENDBRANCH   4   7
ENDBRANCH   2   3
ENDBRANCH   1   2
BRANCH   1  26
ATOM     26  C   UNL A   1      32.795  31.846  27.081  1.00  0.00     0.118 C 
BRANCH  26  27
ATOM     27  N   UNL A   1      32.455  33.247  27.286  1.00  0.00    -0.352 N 
ATOM     28  C   UNL A   1      32.972  34.145  28.190  1.00  0.00     0.251 C 
ATOM     29  H   UNL A   1      31.755  33.603  26.694  1.00  0.00     0.163 HD
ATOM     30  O   UNL A   1      32.449  35.244  28.345  1.00  0.00    -0.269 OA
BRANCH  28  31
ATOM     31  C   UNL A   1      34.152  33.769  28.995  1.00  0.00     0.039 A 
ATOM     32  C   UNL A   1      34.007  32.847  30.036  1.00  0.00     0.014 A 
ATOM     33  C   UNL A   1      35.405  34.308  28.699  1.00  0.00     0.014 A 
ATOM     34  C   UNL A   1      35.138  32.400  30.724  1.00  0.00     0.010 A 
ATOM     35  C   UNL A   1      36.535  33.798  29.323  1.00  0.00     0.010 A 
ATOM     36  C   UNL A   1      36.415  32.838  30.340  1.00  0.00    -0.014 A 
BRANCH  36  37
ATOM     37  C   UNL A   1      37.655  32.342  30.988  1.00  0.00     0.031 A 
ATOM     38  C   UNL A   1      38.461  31.273  30.310  1.00  0.00     0.074 A 
ATOM     39  C   UNL A   1      37.986  32.760  32.225  1.00  0.00     0.049 A 
ATOM     40  N   UNL A   1      39.449  30.553  30.776  1.00  0.00    -0.248 NA
ATOM     41  C   UNL A   1      38.074  30.942  28.929  1.00  0.00     0.031 C 
ATOM     42  C   UNL A   1      37.276  33.781  32.996  1.00  0.00     0.029 A 
ATOM     43  N   UNL A   1      38.998  32.356  33.060  1.00  0.00    -0.354 N 
ATOM     44  C   UNL A   1      39.773  29.662  29.762  1.00  0.00     0.074 A 
ATOM     45  C   UNL A   1      38.847  29.898  28.677  1.00  0.00     0.031 C 
ATOM     46  C   UNL A   1      37.885  33.938  34.182  1.00  0.00     0.029 A 
ATOM     47  C   UNL A   1      38.992  32.990  34.278  1.00  0.00     0.049 A 
ATOM     48  H   UNL A   1      39.664  31.675  32.810  1.00  0.00     0.167 HD
ATOM     49  C   UNL A   1      40.766  28.741  29.732  1.00  0.00     0.037 A 
ATOM     50  C   UNL A   1      39.781  32.812  35.356  1.00  0.00     0.037 A 
ATOM     51  C   UNL A   1      41.704  28.536  30.803  1.00  0.00     0.049 A 
ATOM     52  C   UNL A   1      40.857  31.760  35.314  1.00  0.00     0.074 A 
ATOM     53  C   UNL A   1      42.782  27.670  30.853  1.00  0.00     0.029 A 
ATOM     54  N   UNL A   1      41.672  29.207  32.017  1.00  0.00    -0.354 N 
ATOM     55  N   UNL A   1      41.183  30.949  34.337  1.00  0.00    -0.248 NA
ATOM     56  C   UNL A   1      41.667  31.594  36.529  1.00  0.00     0.031 C 
ATOM     57  C   UNL A   1      43.376  27.786  32.115  1.00  0.00     0.029 A 
ATOM     58  C   UNL A   1      42.700  28.761  32.831  1.00  0.00     0.049 A 
ATOM     59  H   UNL A   1      41.016  29.900  32.263  1.00  0.00     0.167 HD
ATOM     60  C   UNL A   1      42.262  30.208  34.801  1.00  0.00     0.074 A 
ATOM     61  C   UNL A   1      42.531  30.660  36.151  1.00  0.00     0.031 C 
ATOM     62  C   UNL A   1      42.969  29.245  34.162  1.00  0.00     0.037 A 
BRANCH  49  63
ATOM     63  C   UNL A   1      40.873  27.884  28.503  1.00  0.00     0.064 A 
ATOM     64  C   UNL A   1      41.643  28.272  27.396  1.00  0.00     0.173 A 
ATOM     65  C   UNL A   1      40.188  26.662  28.428  1.00  0.00     0.173 A 
ATOM     66  F   UNL A   1      42.308  29.438  27.411  1.00  0.00    -0.203 F 
ATOM     67  C   UNL A   1      41.684  27.494  26.242  1.00  0.00     0.198 A 
ATOM     68  C   UNL A   1      40.262  25.868  27.286  1.00  0.00     0.198 A 
ATOM     69  F   UNL A   1      39.444  26.237  29.460  1.00  0.00    -0.203 F 
ATOM     70  F   UNL A   1      42.369  27.922  25.172  1.00  0.00    -0.200 F 
ATOM     71  C   UNL A   1      40.998  26.291  26.190  1.00  0.00     0.200 A 
ATOM     72  F   UNL A   1      39.608  24.699  27.242  1.00  0.00    -0.200 F 
ATOM     73  F   UNL A   1      41.035  25.545  25.077  1.00  0.00    -0.200 F 
ENDBRANCH  49  63
BRANCH  50  74
ATOM     74  C   UNL A   1      39.605  33.676  36.551  1.00  0.00     0.064 A 
ATOM     75  C   UNL A   1      40.252  34.917  36.629  1.00  0.00     0.173 A 
ATOM     76  C   UNL A   1      38.786  33.297  37.624  1.00  0.00     0.173 A 
ATOM     77  F   UNL A   1      41.063  35.313  35.638  1.00  0.00    -0.203 F 
ATOM     78  C   UNL A   1      40.094  35.742  37.741  1.00  0.00     0.198 A 
ATOM     79  C   UNL A   1      38.609  34.135  38.724  1.00  0.00     0.198 A 
ATOM     80  F   UNL A   1      38.143  32.120  37.596  1.00  0.00    -0.203 F 
ATOM     81  F   UNL A   1      40.751  36.908  37.805  1.00  0.00    -0.200 F 
ATOM     82  C   UNL A   1      39.268  35.353  38.784  1.00  0.00     0.200 A 
ATOM     83  F   UNL A   1      37.800  33.761  39.725  1.00  0.00    -0.200 F 
ATOM     84  F   UNL A   1      39.109  36.151  39.849  1.00  0.00    -0.200 F 
ENDBRANCH  50  74
BRANCH  62  85
ATOM     85  C   UNL A   1      44.146  28.654  34.881  1.00  0.00     0.064 A 
ATOM     86  C   UNL A   1      44.037  27.481  35.639  1.00  0.00     0.173 A 
ATOM     87  C   UNL A   1      45.417  29.232  34.740  1.00  0.00     0.173 A 
ATOM     88  F   UNL A   1      42.841  26.900  35.817  1.00  0.00    -0.203 F 
ATOM     89  C   UNL A   1      45.158  26.911  36.238  1.00  0.00     0.198 A 
ATOM     90  C   UNL A   1      46.540  28.646  35.316  1.00  0.00     0.198 A 
ATOM     91  F   UNL A   1      45.573  30.354  34.019  1.00  0.00    -0.203 F 
ATOM     92  F   UNL A   1      45.029  25.804  36.982  1.00  0.00    -0.200 F 
ATOM     93  C   UNL A   1      46.409  27.487  36.066  1.00  0.00     0.200 A 
ATOM     94  F   UNL A   1      47.748  29.197  35.138  1.00  0.00    -0.200 F 
ATOM     95  F   UNL A   1      47.490  26.926  36.626  1.00  0.00    -0.200 F 
ENDBRANCH  62  85
ENDBRANCH  36  37
ENDBRANCH  28  31
ENDBRANCH  26  27
ENDBRANCH   1  26
TORSDOF 12
ENDMDL
MODEL 2
REMARK VINA RESULT:     -13.1      0.138      1.122
REMARK SMILES Cc1occc1C(=O)N1CCC(C(=O)NCCCNC(=O)c2ccc(-c3c4nc(c(-c5c(F)c(F)c(F)c(F)c5F)c5ccc([nH]5)c(-c5c(F)c(F)c(F)c(F)c5F)c5nc(c(-c6c(F)c(F)c(F)c(F)c6F)c6ccc3[nH]6)C=C5)C=C4)cc2)(n2cccn2)CC1
REMARK SMILES IDX 17 1 16 2 15 3 13 4 14 5 12 7 7 8 8 9 9 10 10 11 91 12 11 13
REMARK SMILES IDX 90 14 6 15 1 16 2 17 3 18 4 19 5 20 85 21 86 22 89 23 87 24
REMARK SMILES IDX 88 25 18 26 19 27 20 28 21 30 22 31 23 32 84 33 24 34 83 35
REMARK SMILES IDX 25 36 26 37 27 38 77 39 28 40 82 41 76 42 78 43 29 44 81 45
REMARK SMILES IDX 75 46 74 47 30 49 62 50 42 51 61 52 43 53 46 54 60 55 79 56
REMARK SMILES IDX 44 57 45 58 59 60 80 61 47 62 31 63 32 64 40 65 33 66 34 67
REMARK SMILES IDX 38 68 41 69 35 70 36 71 39 72 37 73 63 74 64 75 72 76 65 77
REMARK SMILES IDX 66 78 70 79 73 80 67 81 68 82 71 83 69 84 48 85 49 86 57 87
REMARK SMILES IDX 50 88 51 89 55 90 58 91 52 92 53 93 56 94 54 95
REMARK H PARENT 15 6 19 29 78 48 46 59
REMARK Flexibility Score: inf
ROOT
ATOM      1  C   UNL A   1      31.754  31.165  26.259  1.00  0.00     0.042 C 
ENDROOT
BRANCH   1   2
ATOM      2  C   UNL A   1      32.158  29.747  25.874  1.00  0.00     0.117 C 
BRANCH   2   3
ATOM      3  N   UNL A   1      33.099  29.727  24.763  1.00  0.00    -0.354 N 
ATOM      4  C   UNL A   1      33.383  28.823  23.769  1.00  0.00     0.248 C 
ATOM      5  O   UNL A   1      34.378  29.144  23.116  1.00  0.00    -0.272 OA
ATOM      6  H   UNL A   1      33.653  30.540  24.712  1.00  0.00     0.163 HD
BRANCH   4   7
ATOM      7  C   UNL A   1      32.532  27.521  23.567  1.00  0.00     0.144 C 
ATOM      8  C   UNL A   1      33.969  23.520  23.373  1.00  0.00     0.257 C 
ATOM      9  O   UNL A   1      34.950  23.478  22.631  1.00  0.00    -0.269 OA
ATOM     10  N   UNL A   1      33.199  24.682  23.448  1.00  0.00    -0.338 N 
ATOM     11  C   UNL A   1      32.928  25.363  22.195  1.00  0.00     0.123 C 
ATOM     12  C   UNL A   1      32.534  25.159  24.650  1.00  0.00     0.123 C 
ATOM     13  C   UNL A   1      33.075  26.867  22.274  1.00  0.00     0.062 C 
ATOM     14  C   UNL A   1      32.679  26.663  24.855  1.00  0.00     0.062 C 
BRANCH   8  15
ATOM     15  C   UNL A   1      33.565  22.330  24.117  1.00  0.00     0.081 A 
ATOM     16  C   UNL A   1      34.603  22.537  26.556  1.00  0.00     0.088 C 
ATOM     17  C   UNL A   1      33.834  21.965  25.430  1.00  0.00     0.113 A 
ATOM     18  O   UNL A   1      33.152  20.827  25.755  1.00  0.00    -0.469 OA
ATOM     19  C   UNL A   1      32.396  20.486  24.687  1.00  0.00     0.196 A 
ATOM     20  C   UNL A   1      32.607  21.370  23.659  1.00  0.00     0.056 A 
ENDBRANCH   8  15
BRANCH   7  21
ATOM     21  N   UNL A   1      31.065  27.773  23.369  1.00  0.00    -0.257 N 
ATOM     22  C   UNL A   1      30.016  27.019  23.856  1.00  0.00     0.110 A 
ATOM     23  N   UNL A   1      30.605  28.846  22.698  1.00  0.00    -0.181 NA
ATOM     24  C   UNL A   1      28.853  27.606  23.422  1.00  0.00     0.042 A 
ATOM     25  C   UNL A   1      29.280  28.722  22.698  1.00  0.00     0.135 A 
ENDBRANCH   7  21
ENDBRANCH   4   7
ENDBRANCH   2   3
ENDBRANCH   1   2
BRANCH   1  26
ATOM     26  C   UNL A   1      32.796  31.903  27.088  1.00  0.00     0.118 C 
BRANCH  26  27
ATOM     27  N   UNL A   1      32.457  33.303  27.308  1.00  0.00    -0.352 N 
ATOM     28  C   UNL A   1      32.977  34.191  28.220  1.00  0.00     0.251 C 
ATOM     29  H   UNL A   1      31.757  33.664  26.720  1.00  0.00     0.163 HD
ATOM     30  O   UNL A   1      32.454  35.289  28.387  1.00  0.00    -0.269 OA
BRANCH  28  31
ATOM     31  C   UNL A   1      34.157  33.806  29.020  1.00  0.00     0.039 A 
ATOM     32  C   UNL A   1      34.014  32.869  30.047  1.00  0.00     0.014 A 
ATOM     33  C   UNL A   1      35.409  34.352  28.732  1.00  0.00     0.014 A 
ATOM     34  C   UNL A   1      35.146  32.414  30.729  1.00  0.00     0.010 A 
ATOM     35  C   UNL A   1      36.540  33.835  29.348  1.00  0.00     0.010 A 
ATOM     36  C   UNL A   1      36.422  32.861  30.351  1.00  0.00    -0.014 A 
BRANCH  36  37
ATOM     37  C   UNL A   1      37.663  32.359  30.992  1.00  0.00     0.031 A 
ATOM     38  C   UNL A   1      38.459  31.284  30.311  1.00  0.00     0.074 A 
ATOM     39  C   UNL A   1      38.005  32.776  32.227  1.00  0.00     0.049 A 
ATOM     40  N   UNL A   1      39.445  30.558  30.771  1.00  0.00    -0.248 NA
ATOM     41  C   UNL A   1      38.061  30.953  28.932  1.00  0.00     0.031 C 
ATOM     42  C   UNL A   1      37.306  33.802  33.000  1.00  0.00     0.029 A 
ATOM     43  N   UNL A   1      39.019  32.367  33.056  1.00  0.00    -0.354 N 
ATOM     44  C   UNL A   1      39.758  29.664  29.756  1.00  0.00     0.074 A 
ATOM     45  C   UNL A   1      38.826  29.904  28.677  1.00  0.00     0.031 C 
ATOM     46  C   UNL A   1      37.923  33.957  34.182  1.00  0.00     0.029 A 
ATOM     47  C   UNL A   1      39.025  33.003  34.272  1.00  0.00     0.049 A 
ATOM     48  H   UNL A   1      39.679  31.682  32.802  1.00  0.00     0.167 HD
ATOM     49  C   UNL A   1      40.745  28.737  29.722  1.00  0.00     0.037 A 
ATOM     50  C   UNL A   1      39.819  32.822  35.345  1.00  0.00     0.037 A 
ATOM     51  C   UNL A   1      41.688  28.528  30.787  1.00  0.00     0.049 A 
ATOM     52  C   UNL A   1      40.889  31.763  35.298  1.00  0.00     0.074 A 
ATOM     53  C   UNL A   1      42.761  27.656  30.831  1.00  0.00     0.029 A 
ATOM     54  N   UNL A   1      41.669  29.201  32.000  1.00  0.00    -0.354 N 
ATOM     55  N   UNL A   1      41.204  30.949  34.321  1.00  0.00    -0.248 NA
ATOM     56  C   UNL A   1      41.706  31.594  36.509  1.00  0.00     0.031 C 
ATOM     57  C   UNL A   1      43.364  27.771  32.089  1.00  0.00     0.029 A 
ATOM     58  C   UNL A   1      42.699  28.750  32.808  1.00  0.00     0.049 A 
ATOM     59  H   UNL A   1      41.018  29.898  32.249  1.00  0.00     0.167 HD
ATOM     60  C   UNL A   1      42.281  30.202  34.779  1.00  0.00     0.074 A 
ATOM     61  C   UNL A   1      42.561  30.654  36.126  1.00  0.00     0.031 C 
ATOM     62  C   UNL A   1      42.979  29.234  34.137  1.00  0.00     0.037 A 
BRANCH  49  63
ATOM     63  C   UNL A   1      40.839  27.878  28.493  1.00  0.00     0.064 A 
ATOM     64  C   UNL A   1      41.601  28.263  27.379  1.00  0.00     0.173 A 
ATOM     65  C   UNL A   1      40.151  26.658  28.425  1.00  0.00     0.173 A 
ATOM     66  F   UNL A   1      42.269  29.426  27.387  1.00  0.00    -0.203 F 
ATOM     67  C   UNL A   1      41.631  27.482  26.226  1.00  0.00     0.198 A 
ATOM     68  C   UNL A   1      40.212  25.862  27.284  1.00  0.00     0.198 A 
ATOM     69  F   UNL A   1      39.414  26.237  29.464  1.00  0.00    -0.203 F 
ATOM     70  F   UNL A   1      42.307  27.907  25.150  1.00  0.00    -0.200 F 
ATOM     71  C   UNL A   1      40.940  26.281  26.181  1.00  0.00     0.200 A 
ATOM     72  F   UNL A   1      39.555  24.694  27.248  1.00  0.00    -0.200 F 
ATOM     73  F   UNL A   1      40.965  25.533  25.069  1.00  0.00    -0.200 F 
ENDBRANCH  49  63
BRANCH  50  74
ATOM     74  C   UNL A   1      39.656  33.688  36.541  1.00  0.00     0.064 A 
ATOM     75  C   UNL A   1      40.332  34.913  36.625  1.00  0.00     0.173 A 
ATOM     76  C   UNL A   1      38.821  33.327  37.608  1.00  0.00     0.173 A 
ATOM     77  F   UNL A   1      41.158  35.291  35.639  1.00  0.00    -0.203 F 
ATOM     78  C   UNL A   1      40.186  35.741  37.736  1.00  0.00     0.198 A 
ATOM     79  C   UNL A   1      38.657  34.168  38.708  1.00  0.00     0.198 A 
ATOM     80  F   UNL A   1      38.151  32.166  37.574  1.00  0.00    -0.203 F 
ATOM     81  F   UNL A   1      40.870  36.891  37.807  1.00  0.00    -0.200 F 
ATOM     82  C   UNL A   1      39.344  35.370  38.774  1.00  0.00     0.200 A 
ATOM     83  F   UNL A   1      37.833  33.812  39.703  1.00  0.00    -0.200 F 
ATOM     84  F   UNL A   1      39.197  36.171  39.839  1.00  0.00    -0.200 F 
ENDBRANCH  50  74
BRANCH  62  85
ATOM     85  C   UNL A   1      44.157  28.637  34.849  1.00  0.00     0.064 A 
ATOM     86  C   UNL A   1      45.429  29.223  34.795  1.00  0.00     0.173 A 
ATOM     87  C   UNL A   1      43.985  27.507  35.663  1.00  0.00     0.173 A 
ATOM     88  F   UNL A   1      45.646  30.295  34.020  1.00  0.00    -0.203 F 
ATOM     89  C   UNL A   1      46.490  28.692  35.524  1.00  0.00     0.198 A 
ATOM     90  C   UNL A   1      45.040  26.995  36.412  1.00  0.00     0.198 A 
ATOM     91  F   UNL A   1      42.785  26.913  35.751  1.00  0.00    -0.203 F 
ATOM     92  F   UNL A   1      47.706  29.250  35.437  1.00  0.00    -0.200 F 
ATOM     93  C   UNL A   1      46.293  27.587  36.340  1.00  0.00     0.200 A 
ATOM     94  F   UNL A   1      44.845  25.936  37.208  1.00  0.00    -0.200 F 
ATOM     95  F   UNL A   1      47.310  27.090  37.056  1.00  0.00    -0.200 F 
ENDBRANCH  62  85
ENDBRANCH  36  37
ENDBRANCH  28  31
ENDBRANCH  26  27
ENDBRANCH   1  26
TORSDOF 12
ENDMDL
MODEL 3
REMARK VINA RESULT:     -13.0      0.244      1.140
REMARK SMILES Cc1occc1C(=O)N1CCC(C(=O)NCCCNC(=O)c2ccc(-c3c4nc(c(-c5c(F)c(F)c(F)c(F)c5F)c5ccc([nH]5)c(-c5c(F)c(F)c(F)c(F)c5F)c5nc(c(-c6c(F)c(F)c(F)c(F)c6F)c6ccc3[nH]6)C=C5)C=C4)cc2)(n2cccn2)CC1
REMARK SMILES IDX 17 1 16 2 15 3 13 4 14 5 12 7 7 8 8 9 9 10 10 11 91 12 11 13
REMARK SMILES IDX 90 14 6 15 1 16 2 17 3 18 4 19 5 20 85 21 86 22 89 23 87 24
REMARK SMILES IDX 88 25 18 26 19 27 20 28 21 30 22 31 23 32 84 33 24 34 83 35
REMARK SMILES IDX 25 36 26 37 27 38 77 39 28 40 82 41 76 42 78 43 29 44 81 45
REMARK SMILES IDX 75 46 74 47 30 49 62 50 42 51 61 52 43 53 46 54 60 55 79 56
REMARK SMILES IDX 44 57 45 58 59 60 80 61 47 62 31 63 32 64 40 65 33 66 34 67
REMARK SMILES IDX 38 68 41 69 35 70 36 71 39 72 37 73 63 74 64 75 72 76 65 77
REMARK SMILES IDX 66 78 70 79 73 80 67 81 68 82 71 83 69 84 48 85 49 86 57 87
REMARK SMILES IDX 50 88 51 89 55 90 58 91 52 92 53 93 56 94 54 95
REMARK H PARENT 15 6 19 29 78 48 46 59
REMARK Flexibility Score: inf
ROOT
ATOM      1  C   UNL A   1      31.787  31.054  26.136  1.00  0.00     0.042 C 
ENDROOT
BRANCH   1   2
ATOM      2  C   UNL A   1      32.181  29.631  25.762  1.00  0.00     0.117 C 
BRANCH   2   3
ATOM      3  N   UNL A   1      33.123  29.596  24.651  1.00  0.00    -0.354 N 
ATOM      4  C   UNL A   1      33.404  28.680  23.668  1.00  0.00     0.248 C 
ATOM      5  O   UNL A   1      34.401  28.991  23.012  1.00  0.00    -0.272 OA
ATOM      6  H   UNL A   1      33.679  30.406  24.592  1.00  0.00     0.163 HD
BRANCH   4   7
ATOM      7  C   UNL A   1      32.549  27.378  23.480  1.00  0.00     0.144 C 
ATOM      8  C   UNL A   1      33.989  23.387  23.159  1.00  0.00     0.257 C 
ATOM      9  O   UNL A   1      34.939  23.360  22.377  1.00  0.00    -0.269 OA
ATOM     10  N   UNL A   1      33.220  24.545  23.285  1.00  0.00    -0.338 N 
ATOM     11  C   UNL A   1      32.895  25.245  22.056  1.00  0.00     0.123 C 
ATOM     12  C   UNL A   1      32.603  25.000  24.522  1.00  0.00     0.123 C 
ATOM     13  C   UNL A   1      33.041  26.748  22.154  1.00  0.00     0.062 C 
ATOM     14  C   UNL A   1      32.752  26.500  24.746  1.00  0.00     0.062 C 
BRANCH   8  15
ATOM     15  C   UNL A   1      33.620  22.183  23.899  1.00  0.00     0.081 A 
ATOM     16  C   UNL A   1      35.295  21.978  25.954  1.00  0.00     0.088 C 
ATOM     17  C   UNL A   1      34.172  21.641  25.053  1.00  0.00     0.113 A 
ATOM     18  O   UNL A   1      33.434  20.572  25.475  1.00  0.00    -0.469 OA
ATOM     19  C   UNL A   1      32.375  20.454  24.642  1.00  0.00     0.196 A 
ATOM     20  C   UNL A   1      32.437  21.413  23.663  1.00  0.00     0.056 A 
ENDBRANCH   8  15
BRANCH   7  21
ATOM     21  N   UNL A   1      31.075  27.629  23.345  1.00  0.00    -0.257 N 
ATOM     22  C   UNL A   1      30.050  26.881  23.891  1.00  0.00     0.110 A 
ATOM     23  N   UNL A   1      30.584  28.692  22.682  1.00  0.00    -0.181 NA
ATOM     24  C   UNL A   1      28.868  27.463  23.503  1.00  0.00     0.042 A 
ATOM     25  C   UNL A   1      29.261  28.569  22.745  1.00  0.00     0.135 A 
ENDBRANCH   7  21
ENDBRANCH   4   7
ENDBRANCH   2   3
ENDBRANCH   1   2
BRANCH   1  26
ATOM     26  C   UNL A   1      32.782  31.752  27.053  1.00  0.00     0.118 C 
BRANCH  26  27
ATOM     27  N   UNL A   1      32.479  33.164  27.246  1.00  0.00    -0.352 N 
ATOM     28  C   UNL A   1      33.021  34.055  28.142  1.00  0.00     0.251 C 
ATOM     29  H   UNL A   1      31.788  33.533  26.651  1.00  0.00     0.163 HD
ATOM     30  O   UNL A   1      32.527  35.170  28.288  1.00  0.00    -0.269 OA
BRANCH  28  31
ATOM     31  C   UNL A   1      34.191  33.655  28.949  1.00  0.00     0.039 A 
ATOM     32  C   UNL A   1      34.029  32.723  29.978  1.00  0.00     0.014 A 
ATOM     33  C   UNL A   1      35.453  34.182  28.667  1.00  0.00     0.014 A 
ATOM     34  C   UNL A   1      35.150  32.253  30.667  1.00  0.00     0.010 A 
ATOM     35  C   UNL A   1      36.573  33.650  29.290  1.00  0.00     0.010 A 
ATOM     36  C   UNL A   1      36.435  32.680  30.296  1.00  0.00    -0.014 A 
BRANCH  36  37
ATOM     37  C   UNL A   1      37.664  32.162  30.944  1.00  0.00     0.031 A 
ATOM     38  C   UNL A   1      38.467  31.098  30.254  1.00  0.00     0.074 A 
ATOM     39  C   UNL A   1      37.989  32.553  32.192  1.00  0.00     0.049 A 
ATOM     40  N   UNL A   1      39.445  30.360  30.714  1.00  0.00    -0.248 NA
ATOM     41  C   UNL A   1      38.088  30.796  28.864  1.00  0.00     0.031 C 
ATOM     42  C   UNL A   1      37.282  33.566  32.975  1.00  0.00     0.029 A 
ATOM     43  N   UNL A   1      38.990  32.125  33.028  1.00  0.00    -0.354 N 
ATOM     44  C   UNL A   1      39.769  29.485  29.687  1.00  0.00     0.074 A 
ATOM     45  C   UNL A   1      38.854  29.750  28.598  1.00  0.00     0.031 C 
ATOM     46  C   UNL A   1      37.882  33.696  34.169  1.00  0.00     0.029 A 
ATOM     47  C   UNL A   1      38.979  32.737  34.256  1.00  0.00     0.049 A 
ATOM     48  H   UNL A   1      39.652  31.443  32.770  1.00  0.00     0.167 HD
ATOM     49  C   UNL A   1      40.754  28.556  29.648  1.00  0.00     0.037 A 
ATOM     50  C   UNL A   1      39.757  32.532  35.337  1.00  0.00     0.037 A 
ATOM     51  C   UNL A   1      41.681  28.322  30.723  1.00  0.00     0.049 A 
ATOM     52  C   UNL A   1      40.824  31.471  35.285  1.00  0.00     0.074 A 
ATOM     53  C   UNL A   1      42.750  27.446  30.766  1.00  0.00     0.029 A 
ATOM     54  N   UNL A   1      41.645  28.972  31.949  1.00  0.00    -0.354 N 
ATOM     55  N   UNL A   1      41.152  30.675  34.297  1.00  0.00    -0.248 NA
ATOM     56  C   UNL A   1      41.623  31.275  36.504  1.00  0.00     0.031 C 
ATOM     57  C   UNL A   1      43.335  27.534  32.034  1.00  0.00     0.029 A 
ATOM     58  C   UNL A   1      42.662  28.502  32.763  1.00  0.00     0.049 A 
ATOM     59  H   UNL A   1      40.993  29.665  32.202  1.00  0.00     0.167 HD
ATOM     60  C   UNL A   1      42.220  29.916  34.756  1.00  0.00     0.074 A 
ATOM     61  C   UNL A   1      42.481  30.340  36.116  1.00  0.00     0.031 C 
ATOM     62  C   UNL A   1      42.924  28.958  34.105  1.00  0.00     0.037 A 
BRANCH  49  63
ATOM     63  C   UNL A   1      40.864  27.721  28.404  1.00  0.00     0.064 A 
ATOM     64  C   UNL A   1      40.205  26.488  28.282  1.00  0.00     0.173 A 
ATOM     65  C   UNL A   1      41.645  28.156  27.323  1.00  0.00     0.173 A 
ATOM     66  F   UNL A   1      39.455  26.019  29.291  1.00  0.00    -0.203 F 
ATOM     67  C   UNL A   1      40.364  25.699  27.145  1.00  0.00     0.198 A 
ATOM     68  C   UNL A   1      41.771  27.382  26.173  1.00  0.00     0.198 A 
ATOM     69  F   UNL A   1      42.289  29.331  27.382  1.00  0.00    -0.203 F 
ATOM     70  F   UNL A   1      39.783  24.493  27.083  1.00  0.00    -0.200 F 
ATOM     71  C   UNL A   1      41.143  26.149  26.090  1.00  0.00     0.200 A 
ATOM     72  F   UNL A   1      42.515  27.824  25.148  1.00  0.00    -0.200 F 
ATOM     73  F   UNL A   1      41.299  25.387  24.999  1.00  0.00    -0.200 F 
ENDBRANCH  49  63
BRANCH  50  74
ATOM     74  C   UNL A   1      39.580  33.375  36.548  1.00  0.00     0.064 A 
ATOM     75  C   UNL A   1      40.266  34.590  36.671  1.00  0.00     0.173 A 
ATOM     76  C   UNL A   1      38.718  33.001  37.590  1.00  0.00     0.173 A 
ATOM     77  F   UNL A   1      41.117  34.979  35.710  1.00  0.00    -0.203 F 
ATOM     78  C   UNL A   1      40.107  35.396  37.796  1.00  0.00     0.198 A 
ATOM     79  C   UNL A   1      38.541  33.821  38.703  1.00  0.00     0.198 A 
ATOM     80  F   UNL A   1      38.036  31.849  37.518  1.00  0.00    -0.203 F 
ATOM     81  F   UNL A   1      40.802  36.537  37.904  1.00  0.00    -0.200 F 
ATOM     82  C   UNL A   1      39.240  35.013  38.808  1.00  0.00     0.200 A 
ATOM     83  F   UNL A   1      37.693  33.454  39.674  1.00  0.00    -0.200 F 
ATOM     84  F   UNL A   1      39.080  35.794  39.887  1.00  0.00    -0.200 F 
ENDBRANCH  50  74
BRANCH  62  85
ATOM     85  C   UNL A   1      44.089  28.343  34.823  1.00  0.00     0.064 A 
ATOM     86  C   UNL A   1      43.966  27.149  35.546  1.00  0.00     0.173 A 
ATOM     87  C   UNL A   1      45.364  28.921  34.715  1.00  0.00     0.173 A 
ATOM     88  F   UNL A   1      42.767  26.568  35.691  1.00  0.00    -0.203 F 
ATOM     89  C   UNL A   1      45.078  26.560  36.142  1.00  0.00     0.198 A 
ATOM     90  C   UNL A   1      46.477  28.316  35.289  1.00  0.00     0.198 A 
ATOM     91  F   UNL A   1      45.533  30.062  34.028  1.00  0.00    -0.203 F 
ATOM     92  F   UNL A   1      44.935  25.433  36.854  1.00  0.00    -0.200 F 
ATOM     93  C   UNL A   1      46.333  27.137  36.004  1.00  0.00     0.200 A 
ATOM     94  F   UNL A   1      47.689  28.867  35.143  1.00  0.00    -0.200 F 
ATOM     95  F   UNL A   1      47.404  26.556  36.562  1.00  0.00    -0.200 F 
ENDBRANCH  62  85
ENDBRANCH  36  37
ENDBRANCH  28  31
ENDBRANCH  26  27
ENDBRANCH   1  26
TORSDOF 12
ENDMDL
