MODEL 1
REMARK VINA RESULT:     -12.4      0.000      0.000
REMARK SMILES Cc1ccc(C)c([C@@H](C)[N@@H+](CC(=O)NCCCNC(=O)c2ccc(-c3c4nc(c(-c5c(F)c(F)c(F)c(F)c5F)c5ccc([nH]5)c(-c5c(F)c(F)c(F)c(F)c5F)c5nc(c(-c6c(F)c(F)c(F)c(F)c6F)c6ccc3[nH]6)C=C5)C=C4)cc2)CC(F)(F)F)c1
REMARK SMILES IDX 15 1 14 2 12 3 13 4 11 6 10 7 8 9 9 10 7 11 1 12 2 13 3 14
REMARK SMILES IDX 89 15 4 16 5 17 6 18 84 19 85 20 86 21 87 22 88 23 16 24
REMARK SMILES IDX 17 25 18 26 19 27 20 29 21 30 22 31 83 32 23 33 82 34 24 35
REMARK SMILES IDX 25 36 26 37 76 38 27 39 81 40 75 41 77 42 28 43 80 44 74 45
REMARK SMILES IDX 73 46 29 48 61 49 41 50 60 51 42 52 45 53 59 54 78 55 43 56
REMARK SMILES IDX 44 57 58 59 79 60 46 61 30 62 31 63 39 64 32 65 33 66 37 67
REMARK SMILES IDX 40 68 34 69 35 70 38 71 36 72 62 73 63 74 71 75 64 76 65 77
REMARK SMILES IDX 69 78 72 79 66 80 67 81 70 82 68 83 47 84 48 85 56 86 49 87
REMARK SMILES IDX 50 88 54 89 57 90 51 91 52 92 55 93 53 94
REMARK H PARENT 14 5 10 8 18 28 77 47 45 58
REMARK Flexibility Score: inf
ROOT
ATOM      1  C   UNL A   1      35.972  22.214  25.825  1.00  0.00     0.118 C 
ENDROOT
BRANCH   1   2
ATOM      2  N   UNL A   1      35.424  20.961  25.326  1.00  0.00    -0.351 N 
ATOM      3  C   UNL A   1      34.148  20.510  25.151  1.00  0.00     0.275 C 
ATOM      4  O   UNL A   1      34.013  19.464  24.509  1.00  0.00    -0.269 OA
ATOM      5  H   UNL A   1      36.112  20.307  25.062  1.00  0.00     0.163 HD
BRANCH   3   6
ATOM      6  C   UNL A   1      32.945  21.220  25.778  1.00  0.00     0.364 C 
BRANCH   6   7
ATOM      7  N   UNL A   1      32.582  22.504  25.127  1.00  0.00    -0.314 N 
ATOM      8  H   UNL A   1      33.441  23.050  25.088  1.00  0.00     0.349 HD
BRANCH   7   9
ATOM      9  C   UNL A   1      31.787  23.417  25.960  1.00  0.00     0.212 C 
ATOM     10  C   UNL A   1      30.487  22.907  26.596  1.00  0.00     0.081 C 
BRANCH   9  11
ATOM     11  C   UNL A   1      31.681  24.868  25.456  1.00  0.00     0.012 A 
ATOM     12  C   UNL A   1      28.850  26.859  23.766  1.00  0.00     0.044 C 
ATOM     13  C   UNL A   1      30.194  26.491  24.324  1.00  0.00    -0.051 A 
ATOM     14  C   UNL A   1      31.283  27.327  24.102  1.00  0.00     0.004 A 
ATOM     15  C   UNL A   1      30.395  25.290  25.018  1.00  0.00     0.013 A 
ATOM     16  C   UNL A   1      32.539  26.974  24.588  1.00  0.00     0.004 A 
ATOM     17  C   UNL A   1      32.758  25.761  25.274  1.00  0.00    -0.042 A 
ATOM     18  C   UNL A   1      34.182  25.513  25.689  1.00  0.00     0.045 C 
ENDBRANCH   9  11
ENDBRANCH   7   9
BRANCH   7  19
ATOM     19  C   UNL A   1      32.329  22.426  23.673  1.00  0.00     0.380 C 
BRANCH  19  20
ATOM     20  C   UNL A   1      33.219  23.054  22.573  1.00  0.00     0.438 C 
ATOM     21  F   UNL A   1      32.994  22.539  21.347  1.00  0.00    -0.165 F 
ATOM     22  F   UNL A   1      32.946  24.383  22.486  1.00  0.00    -0.165 F 
ATOM     23  F   UNL A   1      34.533  22.950  22.850  1.00  0.00    -0.165 F 
ENDBRANCH  19  20
ENDBRANCH   7  19
ENDBRANCH   6   7
ENDBRANCH   3   6
ENDBRANCH   1   2
BRANCH   1  24
ATOM     24  C   UNL A   1      37.307  22.671  25.214  1.00  0.00     0.042 C 
BRANCH  24  25
ATOM     25  C   UNL A   1      38.371  23.136  26.200  1.00  0.00     0.118 C 
BRANCH  25  26
ATOM     26  N   UNL A   1      39.581  22.337  26.274  1.00  0.00    -0.352 N 
ATOM     27  C   UNL A   1      40.867  22.791  26.541  1.00  0.00     0.251 C 
ATOM     28  H   UNL A   1      39.480  21.371  26.118  1.00  0.00     0.163 HD
ATOM     29  O   UNL A   1      41.813  22.029  26.547  1.00  0.00    -0.269 OA
BRANCH  27  30
ATOM     30  C   UNL A   1      41.049  24.218  26.918  1.00  0.00     0.039 A 
ATOM     31  C   UNL A   1      41.432  24.508  28.228  1.00  0.00     0.014 A 
ATOM     32  C   UNL A   1      40.732  25.251  26.030  1.00  0.00     0.014 A 
ATOM     33  C   UNL A   1      41.348  25.820  28.685  1.00  0.00     0.010 A 
ATOM     34  C   UNL A   1      40.562  26.540  26.505  1.00  0.00     0.010 A 
ATOM     35  C   UNL A   1      40.851  26.821  27.838  1.00  0.00    -0.014 A 
BRANCH  35  36
ATOM     36  C   UNL A   1      40.822  28.199  28.312  1.00  0.00     0.031 A 
ATOM     37  C   UNL A   1      41.954  29.033  27.848  1.00  0.00     0.074 A 
ATOM     38  C   UNL A   1      39.803  28.779  28.976  1.00  0.00     0.049 A 
ATOM     39  N   UNL A   1      42.944  29.484  28.547  1.00  0.00    -0.248 NA
ATOM     40  C   UNL A   1      42.042  29.339  26.413  1.00  0.00     0.031 C 
ATOM     41  C   UNL A   1      38.451  28.255  29.160  1.00  0.00     0.029 A 
ATOM     42  N   UNL A   1      39.751  30.020  29.554  1.00  0.00    -0.354 N 
ATOM     43  C   UNL A   1      43.684  30.275  27.675  1.00  0.00     0.074 A 
ATOM     44  C   UNL A   1      43.195  30.003  26.351  1.00  0.00     0.031 C 
ATOM     45  C   UNL A   1      37.661  29.237  29.656  1.00  0.00     0.029 A 
ATOM     46  C   UNL A   1      38.479  30.404  29.953  1.00  0.00     0.049 A 
ATOM     47  H   UNL A   1      40.545  30.589  29.675  1.00  0.00     0.167 HD
ATOM     48  C   UNL A   1      44.450  31.301  28.135  1.00  0.00     0.037 A 
ATOM     49  C   UNL A   1      38.111  31.600  30.473  1.00  0.00     0.037 A 
ATOM     50  C   UNL A   1      44.597  31.259  29.565  1.00  0.00     0.049 A 
ATOM     51  C   UNL A   1      39.306  32.277  31.031  1.00  0.00     0.074 A 
ATOM     52  C   UNL A   1      45.383  30.611  30.488  1.00  0.00     0.029 A 
ATOM     53  N   UNL A   1      43.551  31.819  30.242  1.00  0.00    -0.354 N 
ATOM     54  N   UNL A   1      39.942  31.872  32.094  1.00  0.00    -0.248 NA
ATOM     55  C   UNL A   1      39.982  33.317  30.260  1.00  0.00     0.031 C 
ATOM     56  C   UNL A   1      44.703  30.706  31.741  1.00  0.00     0.029 A 
ATOM     57  C   UNL A   1      43.515  31.403  31.545  1.00  0.00     0.049 A 
ATOM     58  H   UNL A   1      42.904  32.445  29.842  1.00  0.00     0.167 HD
ATOM     59  C   UNL A   1      41.242  32.285  31.889  1.00  0.00     0.074 A 
ATOM     60  C   UNL A   1      41.169  33.318  30.868  1.00  0.00     0.031 C 
ATOM     61  C   UNL A   1      42.287  31.513  32.294  1.00  0.00     0.037 A 
BRANCH  48  62
ATOM     62  C   UNL A   1      44.691  32.593  27.391  1.00  0.00     0.064 A 
ATOM     63  C   UNL A   1      45.908  32.769  26.703  1.00  0.00     0.173 A 
ATOM     64  C   UNL A   1      43.927  33.765  27.585  1.00  0.00     0.173 A 
ATOM     65  F   UNL A   1      46.729  31.728  26.491  1.00  0.00    -0.203 F 
ATOM     66  C   UNL A   1      46.347  34.029  26.287  1.00  0.00     0.198 A 
ATOM     67  C   UNL A   1      44.340  35.011  27.115  1.00  0.00     0.198 A 
ATOM     68  F   UNL A   1      42.819  33.774  28.337  1.00  0.00    -0.203 F 
ATOM     69  F   UNL A   1      47.563  34.164  25.740  1.00  0.00    -0.200 F 
ATOM     70  C   UNL A   1      45.561  35.149  26.491  1.00  0.00     0.200 A 
ATOM     71  F   UNL A   1      43.576  36.089  27.346  1.00  0.00    -0.200 F 
ATOM     72  F   UNL A   1      46.001  36.364  26.137  1.00  0.00    -0.200 F 
ENDBRANCH  48  62
BRANCH  49  73
ATOM     73  C   UNL A   1      36.797  32.277  30.434  1.00  0.00     0.064 A 
ATOM     74  C   UNL A   1      35.925  32.240  31.534  1.00  0.00     0.173 A 
ATOM     75  C   UNL A   1      36.492  33.199  29.417  1.00  0.00     0.173 A 
ATOM     76  F   UNL A   1      36.169  31.419  32.566  1.00  0.00    -0.203 F 
ATOM     77  C   UNL A   1      34.824  33.097  31.624  1.00  0.00     0.198 A 
ATOM     78  C   UNL A   1      35.387  34.048  29.503  1.00  0.00     0.198 A 
ATOM     79  F   UNL A   1      37.316  33.362  28.372  1.00  0.00    -0.203 F 
ATOM     80  F   UNL A   1      34.054  33.081  32.721  1.00  0.00    -0.200 F 
ATOM     81  C   UNL A   1      34.563  34.006  30.614  1.00  0.00     0.200 A 
ATOM     82  F   UNL A   1      35.166  34.951  28.538  1.00  0.00    -0.200 F 
ATOM     83  F   UNL A   1      33.546  34.872  30.730  1.00  0.00    -0.200 F 
ENDBRANCH  49  73
BRANCH  61  84
ATOM     84  C   UNL A   1      42.042  30.588  33.440  1.00  0.00     0.064 A 
ATOM     85  C   UNL A   1      42.171  30.957  34.788  1.00  0.00     0.173 A 
ATOM     86  C   UNL A   1      41.640  29.276  33.158  1.00  0.00     0.173 A 
ATOM     87  F   UNL A   1      42.473  32.216  35.129  1.00  0.00    -0.203 F 
ATOM     88  C   UNL A   1      41.963  30.031  35.806  1.00  0.00     0.198 A 
ATOM     89  C   UNL A   1      41.398  28.363  34.177  1.00  0.00     0.198 A 
ATOM     90  F   UNL A   1      41.464  28.885  31.885  1.00  0.00    -0.203 F 
ATOM     91  F   UNL A   1      42.125  30.391  37.087  1.00  0.00    -0.200 F 
ATOM     92  C   UNL A   1      41.575  28.735  35.500  1.00  0.00     0.200 A 
ATOM     93  F   UNL A   1      40.985  27.124  33.878  1.00  0.00    -0.200 F 
ATOM     94  F   UNL A   1      41.354  27.849  36.481  1.00  0.00    -0.200 F 
ENDBRANCH  61  84
ENDBRANCH  35  36
ENDBRANCH  27  30
ENDBRANCH  25  26
ENDBRANCH  24  25
ENDBRANCH   1  24
TORSDOF 15
ENDMDL
MODEL 2
REMARK VINA RESULT:     -12.4      3.724      9.036
REMARK SMILES Cc1ccc(C)c([C@@H](C)[N@@H+](CC(=O)NCCCNC(=O)c2ccc(-c3c4nc(c(-c5c(F)c(F)c(F)c(F)c5F)c5ccc([nH]5)c(-c5c(F)c(F)c(F)c(F)c5F)c5nc(c(-c6c(F)c(F)c(F)c(F)c6F)c6ccc3[nH]6)C=C5)C=C4)cc2)CC(F)(F)F)c1
REMARK SMILES IDX 15 1 14 2 12 3 13 4 11 6 10 7 8 9 9 10 7 11 1 12 2 13 3 14
REMARK SMILES IDX 89 15 4 16 5 17 6 18 84 19 85 20 86 21 87 22 88 23 16 24
REMARK SMILES IDX 17 25 18 26 19 27 20 29 21 30 22 31 83 32 23 33 82 34 24 35
REMARK SMILES IDX 25 36 26 37 76 38 27 39 81 40 75 41 77 42 28 43 80 44 74 45
REMARK SMILES IDX 73 46 29 48 61 49 41 50 60 51 42 52 45 53 59 54 78 55 43 56
REMARK SMILES IDX 44 57 58 59 79 60 46 61 30 62 31 63 39 64 32 65 33 66 37 67
REMARK SMILES IDX 40 68 34 69 35 70 38 71 36 72 62 73 63 74 71 75 64 76 65 77
REMARK SMILES IDX 69 78 72 79 66 80 67 81 70 82 68 83 47 84 48 85 56 86 49 87
REMARK SMILES IDX 50 88 54 89 57 90 51 91 52 92 55 93 53 94
REMARK H PARENT 14 5 10 8 18 28 77 47 45 58
REMARK Flexibility Score: inf
ROOT
ATOM      1  C   UNL A   1      33.051  28.808  26.321  1.00  0.00     0.118 C 
ENDROOT
BRANCH   1   2
ATOM      2  N   UNL A   1      33.467  29.165  24.972  1.00  0.00    -0.351 N 
ATOM      3  C   UNL A   1      33.713  28.426  23.851  1.00  0.00     0.275 C 
ATOM      4  O   UNL A   1      33.856  29.052  22.796  1.00  0.00    -0.269 OA
ATOM      5  H   UNL A   1      33.598  30.133  24.843  1.00  0.00     0.163 HD
BRANCH   3   6
ATOM      6  C   UNL A   1      33.878  26.906  23.902  1.00  0.00     0.364 C 
BRANCH   6   7
ATOM      7  N   UNL A   1      32.628  26.162  24.201  1.00  0.00    -0.314 N 
ATOM      8  H   UNL A   1      32.167  26.680  24.948  1.00  0.00     0.349 HD
BRANCH   7   9
ATOM      9  C   UNL A   1      32.820  24.890  24.911  1.00  0.00     0.212 C 
ATOM     10  C   UNL A   1      32.444  24.800  26.397  1.00  0.00     0.081 C 
BRANCH   9  11
ATOM     11  C   UNL A   1      34.107  24.116  24.570  1.00  0.00     0.012 A 
ATOM     12  C   UNL A   1      37.577  23.930  26.229  1.00  0.00     0.044 C 
ATOM     13  C   UNL A   1      36.456  23.734  25.251  1.00  0.00    -0.051 A 
ATOM     14  C   UNL A   1      36.712  23.143  24.019  1.00  0.00     0.004 A 
ATOM     15  C   UNL A   1      35.158  24.188  25.526  1.00  0.00     0.013 A 
ATOM     16  C   UNL A   1      35.683  22.991  23.095  1.00  0.00     0.004 A 
ATOM     17  C   UNL A   1      34.377  23.457  23.352  1.00  0.00    -0.042 A 
ATOM     18  C   UNL A   1      33.397  23.255  22.229  1.00  0.00     0.045 C 
ENDBRANCH   9  11
ENDBRANCH   7   9
BRANCH   7  19
ATOM     19  C   UNL A   1      31.563  26.285  23.185  1.00  0.00     0.380 C 
BRANCH  19  20
ATOM     20  C   UNL A   1      30.303  27.176  23.309  1.00  0.00     0.438 C 
ATOM     21  F   UNL A   1      29.163  26.471  23.454  1.00  0.00    -0.165 F 
ATOM     22  F   UNL A   1      30.417  27.953  24.420  1.00  0.00    -0.165 F 
ATOM     23  F   UNL A   1      30.162  28.017  22.267  1.00  0.00    -0.165 F 
ENDBRANCH  19  20
ENDBRANCH   7  19
ENDBRANCH   6   7
ENDBRANCH   3   6
ENDBRANCH   1   2
BRANCH   1  24
ATOM     24  C   UNL A   1      34.043  29.126  27.451  1.00  0.00     0.042 C 
BRANCH  24  25
ATOM     25  C   UNL A   1      34.829  30.424  27.308  1.00  0.00     0.118 C 
BRANCH  25  26
ATOM     26  N   UNL A   1      34.496  31.490  28.236  1.00  0.00    -0.352 N 
ATOM     27  C   UNL A   1      35.135  31.784  29.433  1.00  0.00     0.251 C 
ATOM     28  H   UNL A   1      33.737  32.065  27.990  1.00  0.00     0.163 HD
ATOM     29  O   UNL A   1      34.747  32.688  30.147  1.00  0.00    -0.269 OA
BRANCH  27  30
ATOM     30  C   UNL A   1      36.370  31.032  29.780  1.00  0.00     0.039 A 
ATOM     31  C   UNL A   1      37.583  31.483  29.255  1.00  0.00     0.014 A 
ATOM     32  C   UNL A   1      36.316  29.839  30.507  1.00  0.00     0.014 A 
ATOM     33  C   UNL A   1      38.703  30.660  29.333  1.00  0.00     0.010 A 
ATOM     34  C   UNL A   1      37.403  28.981  30.507  1.00  0.00     0.010 A 
ATOM     35  C   UNL A   1      38.591  29.383  29.903  1.00  0.00    -0.014 A 
BRANCH  35  36
ATOM     36  C   UNL A   1      39.784  28.556  30.027  1.00  0.00     0.031 A 
ATOM     37  C   UNL A   1      40.312  28.442  31.406  1.00  0.00     0.074 A 
ATOM     38  C   UNL A   1      40.317  27.797  29.050  1.00  0.00     0.049 A 
ATOM     39  N   UNL A   1      41.395  28.960  31.884  1.00  0.00    -0.248 NA
ATOM     40  C   UNL A   1      39.495  27.729  32.399  1.00  0.00     0.031 C 
ATOM     41  C   UNL A   1      39.716  27.454  27.763  1.00  0.00     0.029 A 
ATOM     42  N   UNL A   1      41.493  27.094  29.055  1.00  0.00    -0.354 N 
ATOM     43  C   UNL A   1      41.484  28.493  33.192  1.00  0.00     0.074 A 
ATOM     44  C   UNL A   1      40.214  27.901  33.508  1.00  0.00     0.031 C 
ATOM     45  C   UNL A   1      40.448  26.476  27.180  1.00  0.00     0.029 A 
ATOM     46  C   UNL A   1      41.638  26.227  27.982  1.00  0.00     0.049 A 
ATOM     47  H   UNL A   1      42.176  27.195  29.758  1.00  0.00     0.167 HD
ATOM     48  C   UNL A   1      42.687  28.377  33.815  1.00  0.00     0.037 A 
ATOM     49  C   UNL A   1      42.649  25.351  27.768  1.00  0.00     0.037 A 
ATOM     50  C   UNL A   1      43.735  29.035  33.083  1.00  0.00     0.049 A 
ATOM     51  C   UNL A   1      43.833  25.773  28.552  1.00  0.00     0.074 A 
ATOM     52  C   UNL A   1      44.233  30.309  32.942  1.00  0.00     0.029 A 
ATOM     53  N   UNL A   1      44.259  28.279  32.072  1.00  0.00    -0.354 N 
ATOM     54  N   UNL A   1      44.538  26.838  28.290  1.00  0.00    -0.248 NA
ATOM     55  C   UNL A   1      44.131  25.128  29.829  1.00  0.00     0.031 C 
ATOM     56  C   UNL A   1      44.989  30.319  31.730  1.00  0.00     0.029 A 
ATOM     57  C   UNL A   1      44.926  29.051  31.161  1.00  0.00     0.049 A 
ATOM     58  H   UNL A   1      44.166  27.300  32.008  1.00  0.00     0.167 HD
ATOM     59  C   UNL A   1      45.040  27.221  29.516  1.00  0.00     0.074 A 
ATOM     60  C   UNL A   1      44.929  26.050  30.371  1.00  0.00     0.031 C 
ATOM     61  C   UNL A   1      45.164  28.539  29.833  1.00  0.00     0.037 A 
BRANCH  48  62
ATOM     62  C   UNL A   1      43.032  27.307  34.825  1.00  0.00     0.064 A 
ATOM     63  C   UNL A   1      43.301  27.685  36.156  1.00  0.00     0.173 A 
ATOM     64  C   UNL A   1      43.411  25.992  34.477  1.00  0.00     0.173 A 
ATOM     65  F   UNL A   1      43.012  28.923  36.586  1.00  0.00    -0.203 F 
ATOM     66  C   UNL A   1      43.945  26.827  37.051  1.00  0.00     0.198 A 
ATOM     67  C   UNL A   1      43.998  25.119  35.391  1.00  0.00     0.198 A 
ATOM     68  F   UNL A   1      43.340  25.543  33.218  1.00  0.00    -0.203 F 
ATOM     69  F   UNL A   1      44.285  27.269  38.270  1.00  0.00    -0.200 F 
ATOM     70  C   UNL A   1      44.291  25.544  36.669  1.00  0.00     0.200 A 
ATOM     71  F   UNL A   1      44.349  23.887  34.993  1.00  0.00    -0.200 F 
ATOM     72  F   UNL A   1      44.951  24.736  37.510  1.00  0.00    -0.200 F 
ENDBRANCH  48  62
BRANCH  49  73
ATOM     73  C   UNL A   1      42.648  24.083  27.007  1.00  0.00     0.064 A 
ATOM     74  C   UNL A   1      43.193  24.008  25.714  1.00  0.00     0.173 A 
ATOM     75  C   UNL A   1      42.357  22.862  27.642  1.00  0.00     0.173 A 
ATOM     76  F   UNL A   1      43.537  25.125  25.058  1.00  0.00    -0.203 F 
ATOM     77  C   UNL A   1      43.458  22.780  25.102  1.00  0.00     0.198 A 
ATOM     78  C   UNL A   1      42.613  21.636  27.025  1.00  0.00     0.198 A 
ATOM     79  F   UNL A   1      41.915  22.837  28.907  1.00  0.00    -0.203 F 
ATOM     80  F   UNL A   1      44.042  22.747  23.897  1.00  0.00    -0.200 F 
ATOM     81  C   UNL A   1      43.177  21.595  25.763  1.00  0.00     0.200 A 
ATOM     82  F   UNL A   1      42.374  20.496  27.689  1.00  0.00    -0.200 F 
ATOM     83  F   UNL A   1      43.491  20.419  25.203  1.00  0.00    -0.200 F 
ENDBRANCH  49  73
BRANCH  61  84
ATOM     84  C   UNL A   1      45.338  29.496  28.700  1.00  0.00     0.064 A 
ATOM     85  C   UNL A   1      44.274  30.131  28.040  1.00  0.00     0.173 A 
ATOM     86  C   UNL A   1      46.639  29.795  28.279  1.00  0.00     0.173 A 
ATOM     87  F   UNL A   1      43.009  29.951  28.443  1.00  0.00    -0.203 F 
ATOM     88  C   UNL A   1      44.507  30.984  26.964  1.00  0.00     0.198 A 
ATOM     89  C   UNL A   1      46.871  30.676  27.230  1.00  0.00     0.198 A 
ATOM     90  F   UNL A   1      47.692  29.245  28.905  1.00  0.00    -0.203 F 
ATOM     91  F   UNL A   1      43.477  31.554  26.323  1.00  0.00    -0.200 F 
ATOM     92  C   UNL A   1      45.806  31.258  26.561  1.00  0.00     0.200 A 
ATOM     93  F   UNL A   1      48.128  30.967  26.869  1.00  0.00    -0.200 F 
ATOM     94  F   UNL A   1      46.031  32.095  25.540  1.00  0.00    -0.200 F 
ENDBRANCH  61  84
ENDBRANCH  35  36
ENDBRANCH  27  30
ENDBRANCH  25  26
ENDBRANCH  24  25
ENDBRANCH   1  24
TORSDOF 15
ENDMDL
MODEL 3
REMARK VINA RESULT:     -12.4      1.394      2.058
REMARK SMILES Cc1ccc(C)c([C@@H](C)[N@@H+](CC(=O)NCCCNC(=O)c2ccc(-c3c4nc(c(-c5c(F)c(F)c(F)c(F)c5F)c5ccc([nH]5)c(-c5c(F)c(F)c(F)c(F)c5F)c5nc(c(-c6c(F)c(F)c(F)c(F)c6F)c6ccc3[nH]6)C=C5)C=C4)cc2)CC(F)(F)F)c1
REMARK SMILES IDX 15 1 14 2 12 3 13 4 11 6 10 7 8 9 9 10 7 11 1 12 2 13 3 14
REMARK SMILES IDX 89 15 4 16 5 17 6 18 84 19 85 20 86 21 87 22 88 23 16 24
REMARK SMILES IDX 17 25 18 26 19 27 20 29 21 30 22 31 83 32 23 33 82 34 24 35
REMARK SMILES IDX 25 36 26 37 76 38 27 39 81 40 75 41 77 42 28 43 80 44 74 45
REMARK SMILES IDX 73 46 29 48 61 49 41 50 60 51 42 52 45 53 59 54 78 55 43 56
REMARK SMILES IDX 44 57 58 59 79 60 46 61 30 62 31 63 39 64 32 65 33 66 37 67
REMARK SMILES IDX 40 68 34 69 35 70 38 71 36 72 62 73 63 74 71 75 64 76 65 77
REMARK SMILES IDX 69 78 72 79 66 80 67 81 70 82 68 83 47 84 48 85 56 86 49 87
REMARK SMILES IDX 50 88 54 89 57 90 51 91 52 92 55 93 53 94
REMARK H PARENT 14 5 10 8 18 28 77 47 45 58
REMARK Flexibility Score: inf
ROOT
ATOM      1  C   UNL A   1      37.627  22.734  25.778  1.00  0.00     0.118 C 
ENDROOT
BRANCH   1   2
ATOM      2  N   UNL A   1      36.865  22.685  24.538  1.00  0.00    -0.351 N 
ATOM      3  C   UNL A   1      35.852  23.454  24.041  1.00  0.00     0.275 C 
ATOM      4  O   UNL A   1      35.553  23.275  22.857  1.00  0.00    -0.269 OA
ATOM      5  H   UNL A   1      37.134  21.951  23.939  1.00  0.00     0.163 HD
BRANCH   3   6
ATOM      6  C   UNL A   1      35.074  24.436  24.920  1.00  0.00     0.364 C 
BRANCH   6   7
ATOM      7  N   UNL A   1      33.602  24.397  24.728  1.00  0.00    -0.314 N 
ATOM      8  H   UNL A   1      33.443  23.820  23.904  1.00  0.00     0.349 HD
BRANCH   7   9
ATOM      9  C   UNL A   1      33.009  25.646  24.231  1.00  0.00     0.212 C 
ATOM     10  C   UNL A   1      33.513  26.236  22.906  1.00  0.00     0.081 C 
BRANCH   9  11
ATOM     11  C   UNL A   1      32.715  26.721  25.292  1.00  0.00     0.012 A 
ATOM     12  C   UNL A   1      34.956  29.182  27.230  1.00  0.00     0.044 C 
ATOM     13  C   UNL A   1      33.752  28.407  26.779  1.00  0.00    -0.051 A 
ATOM     14  C   UNL A   1      32.569  28.491  27.503  1.00  0.00     0.004 A 
ATOM     15  C   UNL A   1      33.808  27.550  25.671  1.00  0.00     0.013 A 
ATOM     16  C   UNL A   1      31.459  27.748  27.109  1.00  0.00     0.004 A 
ATOM     17  C   UNL A   1      31.506  26.870  26.006  1.00  0.00    -0.042 A 
ATOM     18  C   UNL A   1      30.236  26.108  25.744  1.00  0.00     0.045 C 
ENDBRANCH   9  11
ENDBRANCH   7   9
BRANCH   7  19
ATOM     19  C   UNL A   1      32.861  23.566  25.700  1.00  0.00     0.380 C 
BRANCH  19  20
ATOM     20  C   UNL A   1      31.709  22.592  25.353  1.00  0.00     0.438 C 
ATOM     21  F   UNL A   1      32.138  21.364  24.997  1.00  0.00    -0.165 F 
ATOM     22  F   UNL A   1      30.927  22.420  26.451  1.00  0.00    -0.165 F 
ATOM     23  F   UNL A   1      30.907  23.067  24.381  1.00  0.00    -0.165 F 
ENDBRANCH  19  20
ENDBRANCH   7  19
ENDBRANCH   6   7
ENDBRANCH   3   6
ENDBRANCH   1   2
BRANCH   1  24
ATOM     24  C   UNL A   1      38.816  21.766  25.890  1.00  0.00     0.042 C 
BRANCH  24  25
ATOM     25  C   UNL A   1      39.912  22.161  26.873  1.00  0.00     0.118 C 
BRANCH  25  26
ATOM     26  N   UNL A   1      41.276  22.111  26.378  1.00  0.00    -0.352 N 
ATOM     27  C   UNL A   1      42.183  23.162  26.324  1.00  0.00     0.251 C 
ATOM     28  H   UNL A   1      41.592  21.240  26.047  1.00  0.00     0.163 HD
ATOM     29  O   UNL A   1      43.295  23.007  25.858  1.00  0.00    -0.269 OA
BRANCH  27  30
ATOM     30  C   UNL A   1      41.799  24.460  26.938  1.00  0.00     0.039 A 
ATOM     31  C   UNL A   1      41.173  25.410  26.129  1.00  0.00     0.014 A 
ATOM     32  C   UNL A   1      42.158  24.778  28.251  1.00  0.00     0.014 A 
ATOM     33  C   UNL A   1      41.048  26.717  26.591  1.00  0.00     0.010 A 
ATOM     34  C   UNL A   1      42.117  26.094  28.678  1.00  0.00     0.010 A 
ATOM     35  C   UNL A   1      41.580  27.068  27.840  1.00  0.00    -0.014 A 
BRANCH  35  36
ATOM     36  C   UNL A   1      41.392  28.426  28.334  1.00  0.00     0.031 A 
ATOM     37  C   UNL A   1      42.473  29.369  27.964  1.00  0.00     0.074 A 
ATOM     38  C   UNL A   1      40.281  28.896  28.934  1.00  0.00     0.049 A 
ATOM     39  N   UNL A   1      43.367  29.891  28.738  1.00  0.00    -0.248 NA
ATOM     40  C   UNL A   1      42.629  29.714  26.544  1.00  0.00     0.031 C 
ATOM     41  C   UNL A   1      38.973  28.249  29.015  1.00  0.00     0.029 A 
ATOM     42  N   UNL A   1      40.077  30.114  29.528  1.00  0.00    -0.354 N 
ATOM     43  C   UNL A   1      44.090  30.765  27.933  1.00  0.00     0.074 A 
ATOM     44  C   UNL A   1      43.719  30.481  26.574  1.00  0.00     0.031 C 
ATOM     45  C   UNL A   1      38.066  29.144  29.471  1.00  0.00     0.029 A 
ATOM     46  C   UNL A   1      38.752  30.374  29.843  1.00  0.00     0.049 A 
ATOM     47  H   UNL A   1      40.806  30.750  29.714  1.00  0.00     0.167 HD
ATOM     48  C   UNL A   1      44.725  31.845  28.463  1.00  0.00     0.037 A 
ATOM     49  C   UNL A   1      38.241  31.519  30.356  1.00  0.00     0.037 A 
ATOM     50  C   UNL A   1      44.777  31.784  29.898  1.00  0.00     0.049 A 
ATOM     51  C   UNL A   1      39.328  32.288  31.007  1.00  0.00     0.074 A 
ATOM     52  C   UNL A   1      45.555  31.189  30.863  1.00  0.00     0.029 A 
ATOM     53  N   UNL A   1      43.641  32.232  30.510  1.00  0.00    -0.354 N 
ATOM     54  N   UNL A   1      39.924  31.918  32.106  1.00  0.00    -0.248 NA
ATOM     55  C   UNL A   1      39.958  33.402  30.302  1.00  0.00     0.031 C 
ATOM     56  C   UNL A   1      44.785  31.193  32.067  1.00  0.00     0.029 A 
ATOM     57  C   UNL A   1      43.555  31.785  31.800  1.00  0.00     0.049 A 
ATOM     58  H   UNL A   1      42.968  32.806  30.076  1.00  0.00     0.167 HD
ATOM     59  C   UNL A   1      41.192  32.451  31.999  1.00  0.00     0.074 A 
ATOM     60  C   UNL A   1      41.095  33.496  30.993  1.00  0.00     0.031 C 
ATOM     61  C   UNL A   1      42.273  31.767  32.463  1.00  0.00     0.037 A 
BRANCH  48  62
ATOM     62  C   UNL A   1      44.897  33.171  27.759  1.00  0.00     0.064 A 
ATOM     63  C   UNL A   1      46.186  33.562  27.345  1.00  0.00     0.173 A 
ATOM     64  C   UNL A   1      43.922  34.192  27.758  1.00  0.00     0.173 A 
ATOM     65  F   UNL A   1      47.198  32.681  27.338  1.00  0.00    -0.203 F 
ATOM     66  C   UNL A   1      46.483  34.885  27.005  1.00  0.00     0.198 A 
ATOM     67  C   UNL A   1      44.208  35.497  27.359  1.00  0.00     0.198 A 
ATOM     68  F   UNL A   1      42.692  34.000  28.253  1.00  0.00    -0.203 F 
ATOM     69  F   UNL A   1      47.747  35.234  26.729  1.00  0.00    -0.200 F 
ATOM     70  C   UNL A   1      45.493  35.850  27.010  1.00  0.00     0.200 A 
ATOM     71  F   UNL A   1      43.239  36.424  27.396  1.00  0.00    -0.200 F 
ATOM     72  F   UNL A   1      45.785  37.128  26.730  1.00  0.00    -0.200 F 
ENDBRANCH  48  62
BRANCH  49  73
ATOM     73  C   UNL A   1      36.877  32.076  30.236  1.00  0.00     0.064 A 
ATOM     74  C   UNL A   1      35.995  32.089  31.330  1.00  0.00     0.173 A 
ATOM     75  C   UNL A   1      36.510  32.851  29.121  1.00  0.00     0.173 A 
ATOM     76  F   UNL A   1      36.292  31.410  32.448  1.00  0.00    -0.203 F 
ATOM     77  C   UNL A   1      34.827  32.855  31.320  1.00  0.00     0.198 A 
ATOM     78  C   UNL A   1      35.338  33.609  29.108  1.00  0.00     0.198 A 
ATOM     79  F   UNL A   1      37.331  32.965  28.068  1.00  0.00    -0.203 F 
ATOM     80  F   UNL A   1      34.046  32.896  32.407  1.00  0.00    -0.200 F 
ATOM     81  C   UNL A   1      34.505  33.622  30.213  1.00  0.00     0.200 A 
ATOM     82  F   UNL A   1      35.056  34.378  28.048  1.00  0.00    -0.200 F 
ATOM     83  F   UNL A   1      33.419  34.407  30.227  1.00  0.00    -0.200 F 
ENDBRANCH  49  73
BRANCH  61  84
ATOM     84  C   UNL A   1      42.036  30.797  33.573  1.00  0.00     0.064 A 
ATOM     85  C   UNL A   1      42.091  31.135  34.935  1.00  0.00     0.173 A 
ATOM     86  C   UNL A   1      41.721  29.474  33.241  1.00  0.00     0.173 A 
ATOM     87  F   UNL A   1      42.309  32.399  35.321  1.00  0.00    -0.203 F 
ATOM     88  C   UNL A   1      41.896  30.170  35.919  1.00  0.00     0.198 A 
ATOM     89  C   UNL A   1      41.490  28.521  34.226  1.00  0.00     0.198 A 
ATOM     90  F   UNL A   1      41.616  29.110  31.953  1.00  0.00    -0.203 F 
ATOM     91  F   UNL A   1      41.988  30.503  37.215  1.00  0.00    -0.200 F 
ATOM     92  C   UNL A   1      41.594  28.864  35.564  1.00  0.00     0.200 A 
ATOM     93  F   UNL A   1      41.160  27.269  33.878  1.00  0.00    -0.200 F 
ATOM     94  F   UNL A   1      41.386  27.940  36.512  1.00  0.00    -0.200 F 
ENDBRANCH  61  84
ENDBRANCH  35  36
ENDBRANCH  27  30
ENDBRANCH  25  26
ENDBRANCH  24  25
ENDBRANCH   1  24
TORSDOF 15
ENDMDL
