MODEL 1
REMARK VINA RESULT:     -13.0      0.000      0.000
REMARK SMILES Cc1c(NC(=S)NC(=O)CSc2ccc(Cl)cc2)cccc1C(=O)NCCCNC(=O)c1ccc(-c2c3nc(c(-c4c(F)c(F)c(F)c(F)c4F)c4ccc([nH]4)c(-c4c(F)c(F)c(F)c(F)c4F)c4nc(c(-c5c(F)c(F)c(F)c(F)c5F)c5ccc2[nH]5)C=C4)C=C3)cc1
REMARK SMILES IDX 23 1 24 2 25 3 22 5 1 6 2 7 3 8 19 9 21 10 20 11 4 12 5 14
REMARK SMILES IDX 6 15 7 16 8 17 9 19 10 20 11 21 12 22 13 23 18 24 14 25
REMARK SMILES IDX 17 26 15 27 16 28 26 29 27 30 28 31 29 32 30 33 31 35 32 36
REMARK SMILES IDX 33 37 94 38 34 39 93 40 35 41 36 42 37 43 87 44 38 45 92 46
REMARK SMILES IDX 86 47 88 48 39 49 91 50 85 51 84 52 40 54 72 55 52 56 71 57
REMARK SMILES IDX 53 58 56 59 70 60 89 61 54 62 55 63 69 65 90 66 57 67 41 68
REMARK SMILES IDX 42 69 50 70 43 71 44 72 48 73 51 74 45 75 46 76 49 77 47 78
REMARK SMILES IDX 73 79 74 80 82 81 75 82 76 83 80 84 83 85 77 86 78 87 81 88
REMARK SMILES IDX 79 89 58 90 59 91 67 92 60 93 61 94 65 95 68 96 62 97 63 98
REMARK SMILES IDX 66 99 64 100
REMARK H PARENT 25 4 4 13 7 18 29 34 88 53 56 64
REMARK Flexibility Score: inf
ROOT
ATOM      1  C   UNL A   1      31.799  29.329  25.045  1.00  0.00     0.251 C 
ATOM      2  O   UNL A   1      31.330  29.562  23.920  1.00  0.00    -0.269 OA
ATOM      3  N   UNL A   1      31.866  30.469  25.801  1.00  0.00    -0.352 N 
ATOM      4  H   UNL A   1      31.531  31.239  25.288  1.00  0.00     0.163 HD
ENDROOT
BRANCH   1   5
ATOM      5  C   UNL A   1      32.148  27.884  25.363  1.00  0.00     0.044 A 
ATOM      6  C   UNL A   1      34.089  27.354  23.788  1.00  0.00     0.047 C 
ATOM      7  C   UNL A   1      33.228  27.059  24.968  1.00  0.00    -0.015 A 
ATOM      8  C   UNL A   1      33.439  25.799  25.603  1.00  0.00     0.044 A 
ATOM      9  C   UNL A   1      32.405  25.201  26.306  1.00  0.00     0.026 A 
ATOM     10  C   UNL A   1      31.184  27.270  26.200  1.00  0.00     0.014 A 
ATOM     11  C   UNL A   1      31.269  25.937  26.603  1.00  0.00     0.003 A 
BRANCH   8  12
ATOM     12  N   UNL A   1      34.707  25.192  25.482  1.00  0.00    -0.332 N 
ATOM     13  H   UNL A   1      35.371  25.788  25.064  1.00  0.00     0.169 HD
BRANCH  12  14
ATOM     14  C   UNL A   1      35.219  23.999  25.800  1.00  0.00     0.177 C 
ATOM     15  S   UNL A   1      36.847  23.763  25.463  1.00  0.00    -0.040 S 
BRANCH  14  16
ATOM     16  N   UNL A   1      34.561  22.982  26.417  1.00  0.00    -0.302 N 
ATOM     17  C   UNL A   1      34.119  21.688  26.207  1.00  0.00     0.236 C 
ATOM     18  H   UNL A   1      34.313  23.263  27.328  1.00  0.00     0.172 HD
ATOM     19  O   UNL A   1      33.716  21.090  27.216  1.00  0.00    -0.274 OA
BRANCH  17  20
ATOM     20  C   UNL A   1      34.113  20.969  24.875  1.00  0.00     0.175 C 
BRANCH  20  21
ATOM     21  S   UNL A   1      32.481  20.744  24.117  1.00  0.00    -0.116 SA
BRANCH  21  22
ATOM     22  C   UNL A   1      32.249  22.389  23.500  1.00  0.00     0.008 A 
ATOM     23  C   UNL A   1      33.212  23.006  22.696  1.00  0.00     0.016 A 
ATOM     24  C   UNL A   1      31.051  23.044  23.791  1.00  0.00     0.016 A 
ATOM     25  C   UNL A   1      32.961  24.274  22.167  1.00  0.00     0.021 A 
ATOM     26  C   UNL A   1      30.801  24.307  23.262  1.00  0.00     0.021 A 
ATOM     27  C   UNL A   1      31.754  24.915  22.447  1.00  0.00     0.041 A 
ATOM     28  Cl  UNL A   1      31.433  26.466  21.778  1.00  0.00    -0.084 Cl
ENDBRANCH  21  22
ENDBRANCH  20  21
ENDBRANCH  17  20
ENDBRANCH  14  16
ENDBRANCH  12  14
ENDBRANCH   8  12
ENDBRANCH   1   5
BRANCH   3  29
ATOM     29  C   UNL A   1      32.282  30.893  27.129  1.00  0.00     0.118 C 
BRANCH  29  30
ATOM     30  C   UNL A   1      33.568  30.204  27.571  1.00  0.00     0.042 C 
BRANCH  30  31
ATOM     31  C   UNL A   1      34.850  30.995  27.458  1.00  0.00     0.118 C 
BRANCH  31  32
ATOM     32  N   UNL A   1      35.281  31.574  28.734  1.00  0.00    -0.352 N 
ATOM     33  C   UNL A   1      36.097  30.996  29.691  1.00  0.00     0.251 C 
ATOM     34  H   UNL A   1      34.952  32.481  28.933  1.00  0.00     0.163 HD
ATOM     35  O   UNL A   1      36.434  31.591  30.707  1.00  0.00    -0.269 OA
BRANCH  33  36
ATOM     36  C   UNL A   1      36.646  29.663  29.371  1.00  0.00     0.039 A 
ATOM     37  C   UNL A   1      37.225  28.979  30.440  1.00  0.00     0.014 A 
ATOM     38  C   UNL A   1      37.030  29.422  28.054  1.00  0.00     0.014 A 
ATOM     39  C   UNL A   1      38.401  28.274  30.221  1.00  0.00     0.010 A 
ATOM     40  C   UNL A   1      38.249  28.797  27.853  1.00  0.00     0.010 A 
ATOM     41  C   UNL A   1      38.973  28.301  28.949  1.00  0.00    -0.014 A 
BRANCH  41  42
ATOM     42  C   UNL A   1      40.346  27.873  28.705  1.00  0.00     0.031 A 
ATOM     43  C   UNL A   1      40.594  26.459  28.363  1.00  0.00     0.074 A 
ATOM     44  C   UNL A   1      41.401  28.712  28.830  1.00  0.00     0.049 A 
ATOM     45  N   UNL A   1      41.671  25.819  28.670  1.00  0.00    -0.248 NA
ATOM     46  C   UNL A   1      39.601  25.636  27.688  1.00  0.00     0.031 C 
ATOM     47  C   UNL A   1      42.791  28.425  28.476  1.00  0.00     0.029 A 
ATOM     48  N   UNL A   1      41.467  29.943  29.505  1.00  0.00    -0.354 N 
ATOM     49  C   UNL A   1      41.626  24.599  28.039  1.00  0.00     0.074 A 
ATOM     50  C   UNL A   1      40.293  24.514  27.484  1.00  0.00     0.031 C 
ATOM     51  C   UNL A   1      43.595  29.224  29.191  1.00  0.00     0.029 A 
ATOM     52  C   UNL A   1      42.760  29.990  30.094  1.00  0.00     0.049 A 
ATOM     53  H   UNL A   1      40.764  30.631  29.559  1.00  0.00     0.167 HD
ATOM     54  C   UNL A   1      42.756  23.841  27.965  1.00  0.00     0.037 A 
ATOM     55  C   UNL A   1      42.926  30.093  31.443  1.00  0.00     0.037 A 
ATOM     56  C   UNL A   1      43.878  24.467  28.665  1.00  0.00     0.049 A 
ATOM     57  C   UNL A   1      43.616  28.909  32.083  1.00  0.00     0.074 A 
ATOM     58  C   UNL A   1      44.966  25.225  28.266  1.00  0.00     0.029 A 
ATOM     59  N   UNL A   1      43.813  24.599  30.042  1.00  0.00    -0.354 N 
ATOM     60  N   UNL A   1      44.080  27.878  31.434  1.00  0.00    -0.248 NA
ATOM     61  C   UNL A   1      43.715  28.747  33.535  1.00  0.00     0.031 C 
ATOM     62  C   UNL A   1      45.564  25.798  29.425  1.00  0.00     0.029 A 
ATOM     63  C   UNL A   1      44.840  25.388  30.528  1.00  0.00     0.049 A 
ATOM     64  H   UNL A   1      43.121  24.182  30.604  1.00  0.00     0.167 HD
ATOM     65  C   UNL A   1      44.451  26.911  32.331  1.00  0.00     0.074 A 
ATOM     66  C   UNL A   1      44.202  27.500  33.633  1.00  0.00     0.031 C 
ATOM     67  C   UNL A   1      44.888  25.673  31.953  1.00  0.00     0.037 A 
BRANCH  54  68
ATOM     68  C   UNL A   1      42.897  22.653  27.041  1.00  0.00     0.064 A 
ATOM     69  C   UNL A   1      42.197  21.455  27.293  1.00  0.00     0.173 A 
ATOM     70  C   UNL A   1      43.751  22.611  25.923  1.00  0.00     0.173 A 
ATOM     71  F   UNL A   1      41.252  21.382  28.238  1.00  0.00    -0.203 F 
ATOM     72  C   UNL A   1      42.446  20.279  26.581  1.00  0.00     0.198 A 
ATOM     73  C   UNL A   1      44.053  21.420  25.255  1.00  0.00     0.198 A 
ATOM     74  F   UNL A   1      44.271  23.729  25.401  1.00  0.00    -0.203 F 
ATOM     75  F   UNL A   1      41.753  19.169  26.871  1.00  0.00    -0.200 F 
ATOM     76  C   UNL A   1      43.411  20.249  25.595  1.00  0.00     0.200 A 
ATOM     77  F   UNL A   1      44.973  21.420  24.279  1.00  0.00    -0.200 F 
ATOM     78  F   UNL A   1      43.695  19.107  24.956  1.00  0.00    -0.200 F 
ENDBRANCH  54  68
BRANCH  55  79
ATOM     79  C   UNL A   1      41.860  30.912  32.073  1.00  0.00     0.064 A 
ATOM     80  C   UNL A   1      41.908  32.305  31.871  1.00  0.00     0.173 A 
ATOM     81  C   UNL A   1      40.636  30.346  32.441  1.00  0.00     0.173 A 
ATOM     82  F   UNL A   1      43.066  32.897  31.539  1.00  0.00    -0.203 F 
ATOM     83  C   UNL A   1      40.743  33.064  31.849  1.00  0.00     0.198 A 
ATOM     84  C   UNL A   1      39.477  31.119  32.454  1.00  0.00     0.198 A 
ATOM     85  F   UNL A   1      40.533  29.026  32.652  1.00  0.00    -0.203 F 
ATOM     86  F   UNL A   1      40.792  34.352  31.480  1.00  0.00    -0.200 F 
ATOM     87  C   UNL A   1      39.523  32.460  32.099  1.00  0.00     0.200 A 
ATOM     88  F   UNL A   1      38.297  30.538  32.711  1.00  0.00    -0.200 F 
ATOM     89  F   UNL A   1      38.389  33.158  31.947  1.00  0.00    -0.200 F 
ENDBRANCH  55  79
BRANCH  67  90
ATOM     90  C   UNL A   1      45.359  24.626  32.929  1.00  0.00     0.064 A 
ATOM     91  C   UNL A   1      44.547  23.552  33.333  1.00  0.00     0.173 A 
ATOM     92  C   UNL A   1      46.615  24.714  33.567  1.00  0.00     0.173 A 
ATOM     93  F   UNL A   1      43.289  23.432  32.884  1.00  0.00    -0.203 F 
ATOM     94  C   UNL A   1      44.998  22.581  34.230  1.00  0.00     0.198 A 
ATOM     95  C   UNL A   1      47.041  23.776  34.505  1.00  0.00     0.198 A 
ATOM     96  F   UNL A   1      47.481  25.699  33.286  1.00  0.00    -0.203 F 
ATOM     97  F   UNL A   1      44.216  21.533  34.522  1.00  0.00    -0.200 F 
ATOM     98  C   UNL A   1      46.244  22.695  34.818  1.00  0.00     0.200 A 
ATOM     99  F   UNL A   1      48.236  23.922  35.095  1.00  0.00    -0.200 F 
ATOM    100  F   UNL A   1      46.673  21.768  35.686  1.00  0.00    -0.200 F 
ENDBRANCH  67  90
ENDBRANCH  41  42
ENDBRANCH  33  36
ENDBRANCH  31  32
ENDBRANCH  30  31
ENDBRANCH  29  30
ENDBRANCH   3  29
TORSDOF 16
ENDMDL
MODEL 2
REMARK VINA RESULT:     -12.7      4.062      9.346
REMARK SMILES Cc1c(NC(=S)NC(=O)CSc2ccc(Cl)cc2)cccc1C(=O)NCCCNC(=O)c1ccc(-c2c3nc(c(-c4c(F)c(F)c(F)c(F)c4F)c4ccc([nH]4)c(-c4c(F)c(F)c(F)c(F)c4F)c4nc(c(-c5c(F)c(F)c(F)c(F)c5F)c5ccc2[nH]5)C=C4)C=C3)cc1
REMARK SMILES IDX 23 1 24 2 25 3 22 5 1 6 2 7 3 8 19 9 21 10 20 11 4 12 5 14
REMARK SMILES IDX 6 15 7 16 8 17 9 19 10 20 11 21 12 22 13 23 18 24 14 25
REMARK SMILES IDX 17 26 15 27 16 28 26 29 27 30 28 31 29 32 30 33 31 35 32 36
REMARK SMILES IDX 33 37 94 38 34 39 93 40 35 41 36 42 37 43 87 44 38 45 92 46
REMARK SMILES IDX 86 47 88 48 39 49 91 50 85 51 84 52 40 54 72 55 52 56 71 57
REMARK SMILES IDX 53 58 56 59 70 60 89 61 54 62 55 63 69 65 90 66 57 67 41 68
REMARK SMILES IDX 42 69 50 70 43 71 44 72 48 73 51 74 45 75 46 76 49 77 47 78
REMARK SMILES IDX 73 79 74 80 82 81 75 82 76 83 80 84 83 85 77 86 78 87 81 88
REMARK SMILES IDX 79 89 58 90 59 91 67 92 60 93 61 94 65 95 68 96 62 97 63 98
REMARK SMILES IDX 66 99 64 100
REMARK H PARENT 25 4 4 13 7 18 29 34 88 53 56 64
REMARK Flexibility Score: inf
ROOT
ATOM      1  C   UNL A   1      37.824  21.456  25.331  1.00  0.00     0.251 C 
ATOM      2  O   UNL A   1      37.749  20.264  24.989  1.00  0.00    -0.269 OA
ATOM      3  N   UNL A   1      38.981  21.702  26.021  1.00  0.00    -0.352 N 
ATOM      4  H   UNL A   1      39.511  20.877  26.105  1.00  0.00     0.163 HD
ENDROOT
BRANCH   1   5
ATOM      5  C   UNL A   1      36.691  22.372  24.899  1.00  0.00     0.044 A 
ATOM      6  C   UNL A   1      35.284  22.658  27.011  1.00  0.00     0.047 C 
ATOM      7  C   UNL A   1      35.682  23.044  25.628  1.00  0.00    -0.015 A 
ATOM      8  C   UNL A   1      34.876  24.036  24.994  1.00  0.00     0.044 A 
ATOM      9  C   UNL A   1      34.795  24.075  23.611  1.00  0.00     0.026 A 
ATOM     10  C   UNL A   1      36.655  22.555  23.494  1.00  0.00     0.014 A 
ATOM     11  C   UNL A   1      35.685  23.328  22.855  1.00  0.00     0.003 A 
BRANCH   8  12
ATOM     12  N   UNL A   1      34.172  24.948  25.808  1.00  0.00    -0.332 N 
ATOM     13  H   UNL A   1      34.730  25.314  26.532  1.00  0.00     0.169 HD
BRANCH  12  14
ATOM     14  C   UNL A   1      32.925  25.430  25.829  1.00  0.00     0.177 C 
ATOM     15  S   UNL A   1      32.684  26.924  25.103  1.00  0.00    -0.040 S 
BRANCH  14  16
ATOM     16  N   UNL A   1      31.830  24.802  26.334  1.00  0.00    -0.302 N 
ATOM     17  C   UNL A   1      31.289  23.544  26.521  1.00  0.00     0.236 C 
ATOM     18  H   UNL A   1      31.207  25.477  26.690  1.00  0.00     0.172 HD
ATOM     19  O   UNL A   1      30.288  23.494  27.251  1.00  0.00    -0.274 OA
BRANCH  17  20
ATOM     20  C   UNL A   1      31.830  22.260  25.927  1.00  0.00     0.175 C 
BRANCH  20  21
ATOM     21  S   UNL A   1      31.812  22.169  24.116  1.00  0.00    -0.116 SA
BRANCH  21  22
ATOM     22  C   UNL A   1      32.547  20.569  23.927  1.00  0.00     0.008 A 
ATOM     23  C   UNL A   1      33.585  20.142  24.759  1.00  0.00     0.016 A 
ATOM     24  C   UNL A   1      32.028  19.711  22.955  1.00  0.00     0.016 A 
ATOM     25  C   UNL A   1      34.089  18.846  24.629  1.00  0.00     0.021 A 
ATOM     26  C   UNL A   1      32.528  18.419  22.826  1.00  0.00     0.021 A 
ATOM     27  C   UNL A   1      33.553  17.989  23.667  1.00  0.00     0.041 A 
ATOM     28  Cl  UNL A   1      34.154  16.385  23.519  1.00  0.00    -0.084 Cl
ENDBRANCH  21  22
ENDBRANCH  20  21
ENDBRANCH  17  20
ENDBRANCH  14  16
ENDBRANCH  12  14
ENDBRANCH   8  12
ENDBRANCH   1   5
BRANCH   3  29
ATOM     29  C   UNL A   1      39.668  22.808  26.670  1.00  0.00     0.118 C 
BRANCH  29  30
ATOM     30  C   UNL A   1      41.155  22.527  26.853  1.00  0.00     0.042 C 
BRANCH  30  31
ATOM     31  C   UNL A   1      42.113  23.248  25.934  1.00  0.00     0.118 C 
BRANCH  31  32
ATOM     32  N   UNL A   1      42.768  22.355  24.972  1.00  0.00    -0.352 N 
ATOM     33  C   UNL A   1      44.115  22.291  24.661  1.00  0.00     0.251 C 
ATOM     34  H   UNL A   1      42.179  21.728  24.492  1.00  0.00     0.163 HD
ATOM     35  O   UNL A   1      44.563  21.470  23.870  1.00  0.00    -0.269 OA
BRANCH  33  36
ATOM     36  C   UNL A   1      45.010  23.184  25.423  1.00  0.00     0.039 A 
ATOM     37  C   UNL A   1      45.257  22.804  26.742  1.00  0.00     0.014 A 
ATOM     38  C   UNL A   1      45.097  24.513  25.016  1.00  0.00     0.014 A 
ATOM     39  C   UNL A   1      45.291  23.787  27.722  1.00  0.00     0.010 A 
ATOM     40  C   UNL A   1      45.040  25.483  26.001  1.00  0.00     0.010 A 
ATOM     41  C   UNL A   1      45.050  25.111  27.354  1.00  0.00    -0.014 A 
BRANCH  41  42
ATOM     42  C   UNL A   1      44.748  26.147  28.337  1.00  0.00     0.031 A 
ATOM     43  C   UNL A   1      43.365  26.654  28.422  1.00  0.00     0.074 A 
ATOM     44  C   UNL A   1      45.697  26.689  29.135  1.00  0.00     0.049 A 
ATOM     45  N   UNL A   1      43.057  27.859  28.766  1.00  0.00    -0.248 NA
ATOM     46  C   UNL A   1      42.213  25.841  28.063  1.00  0.00     0.031 C 
ATOM     47  C   UNL A   1      45.478  27.623  30.240  1.00  0.00     0.029 A 
ATOM     48  N   UNL A   1      47.093  26.668  28.976  1.00  0.00    -0.354 N 
ATOM     49  C   UNL A   1      41.692  27.917  28.909  1.00  0.00     0.074 A 
ATOM     50  C   UNL A   1      41.210  26.649  28.409  1.00  0.00     0.031 C 
ATOM     51  C   UNL A   1      46.600  28.329  30.440  1.00  0.00     0.029 A 
ATOM     52  C   UNL A   1      47.550  27.940  29.418  1.00  0.00     0.049 A 
ATOM     53  H   UNL A   1      47.641  25.927  28.630  1.00  0.00     0.167 HD
ATOM     54  C   UNL A   1      41.128  28.989  29.535  1.00  0.00     0.037 A 
ATOM     55  C   UNL A   1      48.219  28.787  28.584  1.00  0.00     0.037 A 
ATOM     56  C   UNL A   1      42.131  29.985  29.917  1.00  0.00     0.049 A 
ATOM     57  C   UNL A   1      47.506  30.092  28.311  1.00  0.00     0.074 A 
ATOM     58  C   UNL A   1      42.796  30.287  31.093  1.00  0.00     0.029 A 
ATOM     59  N   UNL A   1      42.807  30.665  28.918  1.00  0.00    -0.354 N 
ATOM     60  N   UNL A   1      46.372  30.446  28.846  1.00  0.00    -0.248 NA
ATOM     61  C   UNL A   1      47.969  31.044  27.299  1.00  0.00     0.031 C 
ATOM     62  C   UNL A   1      43.869  31.173  30.788  1.00  0.00     0.029 A 
ATOM     63  C   UNL A   1      43.855  31.410  29.427  1.00  0.00     0.049 A 
ATOM     64  H   UNL A   1      42.569  30.624  27.964  1.00  0.00     0.167 HD
ATOM     65  C   UNL A   1      45.917  31.582  28.227  1.00  0.00     0.074 A 
ATOM     66  C   UNL A   1      46.949  31.916  27.265  1.00  0.00     0.031 C 
ATOM     67  C   UNL A   1      44.703  32.145  28.503  1.00  0.00     0.037 A 
BRANCH  54  68
ATOM     68  C   UNL A   1      39.697  29.007  30.019  1.00  0.00     0.064 A 
ATOM     69  C   UNL A   1      38.644  29.348  29.144  1.00  0.00     0.173 A 
ATOM     70  C   UNL A   1      39.301  28.756  31.345  1.00  0.00     0.173 A 
ATOM     71  F   UNL A   1      38.843  29.485  27.828  1.00  0.00    -0.203 F 
ATOM     72  C   UNL A   1      37.339  29.565  29.594  1.00  0.00     0.198 A 
ATOM     73  C   UNL A   1      38.013  29.040  31.810  1.00  0.00     0.198 A 
ATOM     74  F   UNL A   1      40.128  28.169  32.219  1.00  0.00    -0.203 F 
ATOM     75  F   UNL A   1      36.381  29.894  28.715  1.00  0.00    -0.200 F 
ATOM     76  C   UNL A   1      37.034  29.460  30.935  1.00  0.00     0.200 A 
ATOM     77  F   UNL A   1      37.731  28.901  33.114  1.00  0.00    -0.200 F 
ATOM     78  F   UNL A   1      35.798  29.729  31.376  1.00  0.00    -0.200 F 
ENDBRANCH  54  68
BRANCH  55  79
ATOM     79  C   UNL A   1      49.074  28.053  27.618  1.00  0.00     0.064 A 
ATOM     80  C   UNL A   1      50.347  27.644  28.058  1.00  0.00     0.173 A 
ATOM     81  C   UNL A   1      48.518  27.392  26.518  1.00  0.00     0.173 A 
ATOM     82  F   UNL A   1      50.931  28.264  29.096  1.00  0.00    -0.203 F 
ATOM     83  C   UNL A   1      50.948  26.500  27.544  1.00  0.00     0.198 A 
ATOM     84  C   UNL A   1      49.143  26.268  25.982  1.00  0.00     0.198 A 
ATOM     85  F   UNL A   1      47.311  27.743  26.051  1.00  0.00    -0.203 F 
ATOM     86  F   UNL A   1      52.074  26.029  28.099  1.00  0.00    -0.200 F 
ATOM     87  C   UNL A   1      50.323  25.789  26.534  1.00  0.00     0.200 A 
ATOM     88  F   UNL A   1      48.546  25.588  24.993  1.00  0.00    -0.200 F 
ATOM     89  F   UNL A   1      50.831  24.617  26.130  1.00  0.00    -0.200 F 
ENDBRANCH  55  79
BRANCH  67  90
ATOM     90  C   UNL A   1      44.223  33.429  27.876  1.00  0.00     0.064 A 
ATOM     91  C   UNL A   1      44.099  34.623  28.606  1.00  0.00     0.173 A 
ATOM     92  C   UNL A   1      43.779  33.483  26.537  1.00  0.00     0.173 A 
ATOM     93  F   UNL A   1      44.378  34.663  29.917  1.00  0.00    -0.203 F 
ATOM     94  C   UNL A   1      43.663  35.810  28.012  1.00  0.00     0.198 A 
ATOM     95  C   UNL A   1      43.289  34.654  25.962  1.00  0.00     0.198 A 
ATOM     96  F   UNL A   1      43.826  32.409  25.736  1.00  0.00    -0.203 F 
ATOM     97  F   UNL A   1      43.639  36.942  28.729  1.00  0.00    -0.200 F 
ATOM     98  C   UNL A   1      43.256  35.825  26.691  1.00  0.00     0.200 A 
ATOM     99  F   UNL A   1      42.862  34.642  24.692  1.00  0.00    -0.200 F 
ATOM    100  F   UNL A   1      42.828  36.961  26.124  1.00  0.00    -0.200 F 
ENDBRANCH  67  90
ENDBRANCH  41  42
ENDBRANCH  33  36
ENDBRANCH  31  32
ENDBRANCH  30  31
ENDBRANCH  29  30
ENDBRANCH   3  29
TORSDOF 16
ENDMDL
MODEL 3
REMARK VINA RESULT:     -12.6      1.901      2.945
REMARK SMILES Cc1c(NC(=S)NC(=O)CSc2ccc(Cl)cc2)cccc1C(=O)NCCCNC(=O)c1ccc(-c2c3nc(c(-c4c(F)c(F)c(F)c(F)c4F)c4ccc([nH]4)c(-c4c(F)c(F)c(F)c(F)c4F)c4nc(c(-c5c(F)c(F)c(F)c(F)c5F)c5ccc2[nH]5)C=C4)C=C3)cc1
REMARK SMILES IDX 23 1 24 2 25 3 22 5 1 6 2 7 3 8 19 9 21 10 20 11 4 12 5 14
REMARK SMILES IDX 6 15 7 16 8 17 9 19 10 20 11 21 12 22 13 23 18 24 14 25
REMARK SMILES IDX 17 26 15 27 16 28 26 29 27 30 28 31 29 32 30 33 31 35 32 36
REMARK SMILES IDX 33 37 94 38 34 39 93 40 35 41 36 42 37 43 87 44 38 45 92 46
REMARK SMILES IDX 86 47 88 48 39 49 91 50 85 51 84 52 40 54 72 55 52 56 71 57
REMARK SMILES IDX 53 58 56 59 70 60 89 61 54 62 55 63 69 65 90 66 57 67 41 68
REMARK SMILES IDX 42 69 50 70 43 71 44 72 48 73 51 74 45 75 46 76 49 77 47 78
REMARK SMILES IDX 73 79 74 80 82 81 75 82 76 83 80 84 83 85 77 86 78 87 81 88
REMARK SMILES IDX 79 89 58 90 59 91 67 92 60 93 61 94 65 95 68 96 62 97 63 98
REMARK SMILES IDX 66 99 64 100
REMARK H PARENT 25 4 4 13 7 18 29 34 88 53 56 64
REMARK Flexibility Score: inf
ROOT
ATOM      1  C   UNL A   1      31.028  29.248  24.254  1.00  0.00     0.251 C 
ATOM      2  O   UNL A   1      30.000  29.854  23.911  1.00  0.00    -0.269 OA
ATOM      3  N   UNL A   1      31.869  30.060  24.967  1.00  0.00    -0.352 N 
ATOM      4  H   UNL A   1      31.481  30.960  25.055  1.00  0.00     0.163 HD
ENDROOT
BRANCH   1   5
ATOM      5  C   UNL A   1      31.126  27.780  23.869  1.00  0.00     0.044 A 
ATOM      6  C   UNL A   1      30.970  26.543  26.098  1.00  0.00     0.047 C 
ATOM      7  C   UNL A   1      30.935  26.590  24.609  1.00  0.00    -0.015 A 
ATOM      8  C   UNL A   1      30.861  25.332  23.940  1.00  0.00     0.044 A 
ATOM      9  C   UNL A   1      31.355  25.208  22.651  1.00  0.00     0.026 A 
ATOM     10  C   UNL A   1      31.494  27.604  22.512  1.00  0.00     0.014 A 
ATOM     11  C   UNL A   1      31.678  26.348  21.933  1.00  0.00     0.003 A 
BRANCH   8  12
ATOM     12  N   UNL A   1      30.289  24.241  24.627  1.00  0.00    -0.332 N 
ATOM     13  H   UNL A   1      29.305  24.244  24.587  1.00  0.00     0.169 HD
BRANCH  12  14
ATOM     14  C   UNL A   1      30.769  23.203  25.321  1.00  0.00     0.177 C 
ATOM     15  S   UNL A   1      30.140  22.970  26.859  1.00  0.00    -0.040 S 
BRANCH  14  16
ATOM     16  N   UNL A   1      31.676  22.292  24.878  1.00  0.00    -0.302 N 
ATOM     17  C   UNL A   1      33.021  22.151  24.588  1.00  0.00     0.236 C 
ATOM     18  H   UNL A   1      31.218  21.438  24.704  1.00  0.00     0.172 HD
ATOM     19  O   UNL A   1      33.406  20.989  24.387  1.00  0.00    -0.274 OA
BRANCH  17  20
ATOM     20  C   UNL A   1      34.026  23.280  24.519  1.00  0.00     0.175 C 
BRANCH  20  21
ATOM     21  S   UNL A   1      35.374  23.055  23.327  1.00  0.00    -0.116 SA
BRANCH  21  22
ATOM     22  C   UNL A   1      36.677  22.693  24.470  1.00  0.00     0.008 A 
ATOM     23  C   UNL A   1      37.328  21.456  24.463  1.00  0.00     0.016 A 
ATOM     24  C   UNL A   1      37.083  23.696  25.353  1.00  0.00     0.016 A 
ATOM     25  C   UNL A   1      38.401  21.234  25.329  1.00  0.00     0.021 A 
ATOM     26  C   UNL A   1      38.154  23.475  26.215  1.00  0.00     0.021 A 
ATOM     27  C   UNL A   1      38.812  22.247  26.196  1.00  0.00     0.041 A 
ATOM     28  Cl  UNL A   1      40.147  21.985  27.247  1.00  0.00    -0.084 Cl
ENDBRANCH  21  22
ENDBRANCH  20  21
ENDBRANCH  17  20
ENDBRANCH  14  16
ENDBRANCH  12  14
ENDBRANCH   8  12
ENDBRANCH   1   5
BRANCH   3  29
ATOM     29  C   UNL A   1      33.160  30.002  25.635  1.00  0.00     0.118 C 
BRANCH  29  30
ATOM     30  C   UNL A   1      33.085  30.521  27.067  1.00  0.00     0.042 C 
BRANCH  30  31
ATOM     31  C   UNL A   1      34.087  29.970  28.054  1.00  0.00     0.118 C 
BRANCH  31  32
ATOM     32  N   UNL A   1      34.875  31.014  28.716  1.00  0.00    -0.352 N 
ATOM     33  C   UNL A   1      36.210  30.964  29.078  1.00  0.00     0.251 C 
ATOM     34  H   UNL A   1      34.397  31.849  28.929  1.00  0.00     0.163 HD
ATOM     35  O   UNL A   1      36.783  31.918  29.589  1.00  0.00    -0.269 OA
BRANCH  33  36
ATOM     36  C   UNL A   1      36.948  29.741  28.705  1.00  0.00     0.039 A 
ATOM     37  C   UNL A   1      37.404  28.966  29.772  1.00  0.00     0.014 A 
ATOM     38  C   UNL A   1      37.577  29.719  27.463  1.00  0.00     0.014 A 
ATOM     39  C   UNL A   1      38.670  28.402  29.690  1.00  0.00     0.010 A 
ATOM     40  C   UNL A   1      38.872  29.234  27.417  1.00  0.00     0.010 A 
ATOM     41  C   UNL A   1      39.446  28.654  28.558  1.00  0.00    -0.014 A 
BRANCH  41  42
ATOM     42  C   UNL A   1      40.879  28.383  28.523  1.00  0.00     0.031 A 
ATOM     43  C   UNL A   1      41.334  27.054  28.070  1.00  0.00     0.074 A 
ATOM     44  C   UNL A   1      41.800  29.285  28.936  1.00  0.00     0.049 A 
ATOM     45  N   UNL A   1      42.406  26.474  28.492  1.00  0.00    -0.248 NA
ATOM     46  C   UNL A   1      40.567  26.246  27.133  1.00  0.00     0.031 C 
ATOM     47  C   UNL A   1      43.252  29.169  28.812  1.00  0.00     0.029 A 
ATOM     48  N   UNL A   1      41.614  30.416  29.751  1.00  0.00    -0.354 N 
ATOM     49  C   UNL A   1      42.603  25.350  27.726  1.00  0.00     0.074 A 
ATOM     50  C   UNL A   1      41.402  25.226  26.930  1.00  0.00     0.031 C 
ATOM     51  C   UNL A   1      43.830  29.931  29.752  1.00  0.00     0.029 A 
ATOM     52  C   UNL A   1      42.775  30.495  30.568  1.00  0.00     0.049 A 
ATOM     53  H   UNL A   1      40.841  31.026  29.755  1.00  0.00     0.167 HD
ATOM     54  C   UNL A   1      43.805  24.709  27.773  1.00  0.00     0.037 A 
ATOM     55  C   UNL A   1      42.695  30.429  31.928  1.00  0.00     0.037 A 
ATOM     56  C   UNL A   1      44.716  25.331  28.736  1.00  0.00     0.049 A 
ATOM     57  C   UNL A   1      43.390  29.235  32.541  1.00  0.00     0.074 A 
ATOM     58  C   UNL A   1      45.767  26.226  28.635  1.00  0.00     0.029 A 
ATOM     59  N   UNL A   1      44.402  25.271  30.083  1.00  0.00    -0.354 N 
ATOM     60  N   UNL A   1      44.067  28.344  31.873  1.00  0.00    -0.248 NA
ATOM     61  C   UNL A   1      43.256  28.888  33.958  1.00  0.00     0.031 C 
ATOM     62  C   UNL A   1      46.091  26.688  29.942  1.00  0.00     0.029 A 
ATOM     63  C   UNL A   1      45.238  26.072  30.838  1.00  0.00     0.049 A 
ATOM     64  H   UNL A   1      43.674  24.724  30.456  1.00  0.00     0.167 HD
ATOM     65  C   UNL A   1      44.383  27.301  32.704  1.00  0.00     0.074 A 
ATOM     66  C   UNL A   1      43.851  27.686  33.997  1.00  0.00     0.031 C 
ATOM     67  C   UNL A   1      45.010  26.167  32.271  1.00  0.00     0.037 A 
BRANCH  54  68
ATOM     68  C   UNL A   1      44.231  23.673  26.759  1.00  0.00     0.064 A 
ATOM     69  C   UNL A   1      45.131  24.003  25.724  1.00  0.00     0.173 A 
ATOM     70  C   UNL A   1      43.744  22.354  26.715  1.00  0.00     0.173 A 
ATOM     71  F   UNL A   1      45.779  25.174  25.707  1.00  0.00    -0.203 F 
ATOM     72  C   UNL A   1      45.398  23.137  24.660  1.00  0.00     0.198 A 
ATOM     73  C   UNL A   1      43.953  21.513  25.618  1.00  0.00     0.198 A 
ATOM     74  F   UNL A   1      43.103  21.814  27.759  1.00  0.00    -0.203 F 
ATOM     75  F   UNL A   1      46.259  23.509  23.702  1.00  0.00    -0.200 F 
ATOM     76  C   UNL A   1      44.770  21.912  24.581  1.00  0.00     0.200 A 
ATOM     77  F   UNL A   1      43.356  20.312  25.576  1.00  0.00    -0.200 F 
ATOM     78  F   UNL A   1      44.976  21.108  23.530  1.00  0.00    -0.200 F 
ENDBRANCH  54  68
BRANCH  55  79
ATOM     79  C   UNL A   1      41.454  31.061  32.442  1.00  0.00     0.064 A 
ATOM     80  C   UNL A   1      41.404  32.468  32.463  1.00  0.00     0.173 A 
ATOM     81  C   UNL A   1      40.243  30.363  32.467  1.00  0.00     0.173 A 
ATOM     82  F   UNL A   1      42.540  33.182  32.464  1.00  0.00    -0.203 F 
ATOM     83  C   UNL A   1      40.196  33.142  32.318  1.00  0.00     0.198 A 
ATOM     84  C   UNL A   1      39.034  31.045  32.358  1.00  0.00     0.198 A 
ATOM     85  F   UNL A   1      40.231  29.022  32.455  1.00  0.00    -0.203 F 
ATOM     86  F   UNL A   1      40.188  34.474  32.161  1.00  0.00    -0.200 F 
ATOM     87  C   UNL A   1      39.015  32.426  32.222  1.00  0.00     0.200 A 
ATOM     88  F   UNL A   1      37.888  30.353  32.282  1.00  0.00    -0.200 F 
ATOM     89  F   UNL A   1      37.868  33.063  31.949  1.00  0.00    -0.200 F 
ENDBRANCH  55  79
BRANCH  67  90
ATOM     90  C   UNL A   1      45.419  25.043  33.188  1.00  0.00     0.064 A 
ATOM     91  C   UNL A   1      44.517  24.054  33.616  1.00  0.00     0.173 A 
ATOM     92  C   UNL A   1      46.713  24.971  33.747  1.00  0.00     0.173 A 
ATOM     93  F   UNL A   1      43.228  24.089  33.245  1.00  0.00    -0.203 F 
ATOM     94  C   UNL A   1      44.909  23.010  34.457  1.00  0.00     0.198 A 
ATOM     95  C   UNL A   1      47.086  23.961  34.632  1.00  0.00     0.198 A 
ATOM     96  F   UNL A   1      47.665  25.862  33.436  1.00  0.00    -0.203 F 
ATOM     97  F   UNL A   1      44.033  22.047  34.772  1.00  0.00    -0.200 F 
ATOM     98  C   UNL A   1      46.192  22.966  34.967  1.00  0.00     0.200 A 
ATOM     99  F   UNL A   1      48.323  23.955  35.148  1.00  0.00    -0.200 F 
ATOM    100  F   UNL A   1      46.566  21.970  35.783  1.00  0.00    -0.200 F 
ENDBRANCH  67  90
ENDBRANCH  41  42
ENDBRANCH  33  36
ENDBRANCH  31  32
ENDBRANCH  30  31
ENDBRANCH  29  30
ENDBRANCH   3  29
TORSDOF 16
ENDMDL
