MODEL 1
REMARK VINA RESULT:      -9.3      0.000      0.000
REMARK SMILES CCC(CC)([NH2+]Cc1ccc(I)cc1)C(=O)NCCCNC(=O)c1ccc(-c2c3nc(c(-c4c(F)c(F)c(F)c(F)c4F)c4ccc([nH]4)c(-c4c(F)c(F)c(F)c(F)c4F)c4nc(c(-c5c(F)c(F)c(F)c(F)c5F)c5ccc2[nH]5)C=C4)C=C3)cc1
REMARK SMILES IDX 18 1 17 2 15 3 16 4 3 6 2 7 1 8 4 9 5 10 6 11 7 14 8 15 9 16
REMARK SMILES IDX 14 17 10 18 13 19 11 20 12 21 19 22 20 23 21 24 22 25 23 27
REMARK SMILES IDX 24 28 25 29 86 30 26 31 85 32 27 33 28 34 29 35 79 36 30 37
REMARK SMILES IDX 84 38 78 39 80 40 31 41 83 42 77 43 76 44 32 46 64 47 44 48
REMARK SMILES IDX 63 49 45 50 48 51 62 52 81 53 46 54 47 55 61 57 82 58 49 59
REMARK SMILES IDX 33 60 34 61 42 62 35 63 36 64 40 65 43 66 37 67 38 68 41 69
REMARK SMILES IDX 39 70 65 71 66 72 74 73 67 74 68 75 72 76 75 77 69 78 70 79
REMARK SMILES IDX 73 80 71 81 50 82 51 83 59 84 52 85 53 86 57 87 60 88 54 89
REMARK SMILES IDX 55 90 58 91 56 92
REMARK H PARENT 17 5 6 12 6 13 21 26 80 45 48 56
REMARK Flexibility Score: inf
ROOT
ATOM      1  C   UNL A   1      42.767  21.020  26.117  1.00  0.00     0.118 C 
ENDROOT
BRANCH   1   2
ATOM      2  N   UNL A   1      43.656  21.341  25.020  1.00  0.00    -0.351 N 
ATOM      3  C   UNL A   1      44.282  22.495  24.666  1.00  0.00     0.281 C 
ATOM      4  O   UNL A   1      44.462  22.596  23.444  1.00  0.00    -0.268 OA
ATOM      5  H   UNL A   1      43.842  20.583  24.420  1.00  0.00     0.163 HD
BRANCH   3   6
ATOM      6  C   UNL A   1      44.820  23.586  25.678  1.00  0.00     0.175 C 
BRANCH   6   7
ATOM      7  C   UNL A   1      45.933  24.364  24.859  1.00  0.00     0.076 C 
ATOM      8  C   UNL A   1      47.185  24.770  25.641  1.00  0.00     0.011 C 
ENDBRANCH   6   7
BRANCH   6   9
ATOM      9  C   UNL A   1      45.476  22.973  26.943  1.00  0.00     0.076 C 
ATOM     10  C   UNL A   1      44.859  23.385  28.285  1.00  0.00     0.011 C 
ENDBRANCH   6   9
BRANCH   6  11
ATOM     11  N   UNL A   1      43.835  24.672  25.957  1.00  0.00    -0.330 N 
ATOM     12  H   UNL A   1      44.101  25.054  26.864  1.00  0.00     0.347 HD
ATOM     13  H   UNL A   1      42.958  24.167  25.827  1.00  0.00     0.347 HD
BRANCH  11  14
ATOM     14  C   UNL A   1      43.606  25.827  25.099  1.00  0.00     0.298 C 
BRANCH  14  15
ATOM     15  C   UNL A   1      43.781  27.211  25.691  1.00  0.00     0.006 A 
ATOM     16  C   UNL A   1      42.692  28.097  25.694  1.00  0.00     0.010 A 
ATOM     17  C   UNL A   1      44.983  27.669  26.235  1.00  0.00     0.010 A 
ATOM     18  C   UNL A   1      42.727  29.285  26.431  1.00  0.00     0.015 A 
ATOM     19  C   UNL A   1      45.030  28.852  26.980  1.00  0.00     0.015 A 
ATOM     20  C   UNL A   1      43.887  29.633  27.114  1.00  0.00     0.013 A 
ATOM     21  I   UNL A   1      43.905  31.303  28.346  1.00  0.00    -0.044 I 
ENDBRANCH  14  15
ENDBRANCH  11  14
ENDBRANCH   6  11
ENDBRANCH   3   6
ENDBRANCH   1   2
BRANCH   1  22
ATOM     22  C   UNL A   1      41.586  21.992  26.132  1.00  0.00     0.042 C 
BRANCH  22  23
ATOM     23  C   UNL A   1      40.259  21.353  26.516  1.00  0.00     0.118 C 
BRANCH  23  24
ATOM     24  N   UNL A   1      39.159  21.925  25.754  1.00  0.00    -0.352 N 
ATOM     25  C   UNL A   1      38.503  23.126  25.878  1.00  0.00     0.251 C 
ATOM     26  H   UNL A   1      38.829  21.353  25.024  1.00  0.00     0.163 HD
ATOM     27  O   UNL A   1      37.419  23.264  25.317  1.00  0.00    -0.269 OA
BRANCH  25  28
ATOM     28  C   UNL A   1      39.057  24.255  26.669  1.00  0.00     0.039 A 
ATOM     29  C   UNL A   1      38.713  24.353  28.025  1.00  0.00     0.014 A 
ATOM     30  C   UNL A   1      39.823  25.268  26.091  1.00  0.00     0.014 A 
ATOM     31  C   UNL A   1      39.163  25.433  28.794  1.00  0.00     0.010 A 
ATOM     32  C   UNL A   1      40.351  26.292  26.878  1.00  0.00     0.010 A 
ATOM     33  C   UNL A   1      40.007  26.403  28.232  1.00  0.00    -0.014 A 
BRANCH  33  34
ATOM     34  C   UNL A   1      40.499  27.561  29.027  1.00  0.00     0.031 A 
ATOM     35  C   UNL A   1      41.902  27.560  29.576  1.00  0.00     0.074 A 
ATOM     36  C   UNL A   1      39.672  28.587  29.308  1.00  0.00     0.049 A 
ATOM     37  N   UNL A   1      42.487  28.427  30.365  1.00  0.00    -0.248 NA
ATOM     38  C   UNL A   1      42.753  26.416  29.215  1.00  0.00     0.031 C 
ATOM     39  C   UNL A   1      38.278  28.692  28.876  1.00  0.00     0.029 A 
ATOM     40  N   UNL A   1      39.882  29.733  30.033  1.00  0.00    -0.354 N 
ATOM     41  C   UNL A   1      43.756  27.918  30.617  1.00  0.00     0.074 A 
ATOM     42  C   UNL A   1      43.840  26.643  29.937  1.00  0.00     0.031 C 
ATOM     43  C   UNL A   1      37.764  29.848  29.325  1.00  0.00     0.029 A 
ATOM     44  C   UNL A   1      38.779  30.549  30.106  1.00  0.00     0.049 A 
ATOM     45  H   UNL A   1      40.741  29.951  30.461  1.00  0.00     0.167 HD
ATOM     46  C   UNL A   1      44.767  28.470  31.329  1.00  0.00     0.037 A 
ATOM     47  C   UNL A   1      38.605  31.727  30.734  1.00  0.00     0.037 A 
ATOM     48  C   UNL A   1      44.700  29.759  31.965  1.00  0.00     0.049 A 
ATOM     49  C   UNL A   1      39.751  32.333  31.497  1.00  0.00     0.074 A 
ATOM     50  C   UNL A   1      45.691  30.436  32.654  1.00  0.00     0.029 A 
ATOM     51  N   UNL A   1      43.575  30.572  31.984  1.00  0.00    -0.354 N 
ATOM     52  N   UNL A   1      40.963  31.867  31.680  1.00  0.00    -0.248 NA
ATOM     53  C   UNL A   1      39.509  33.635  32.133  1.00  0.00     0.031 C 
ATOM     54  C   UNL A   1      45.158  31.643  33.118  1.00  0.00     0.029 A 
ATOM     55  C   UNL A   1      43.846  31.737  32.683  1.00  0.00     0.049 A 
ATOM     56  H   UNL A   1      42.714  30.352  31.563  1.00  0.00     0.167 HD
ATOM     57  C   UNL A   1      41.633  32.825  32.427  1.00  0.00     0.074 A 
ATOM     58  C   UNL A   1      40.698  33.908  32.651  1.00  0.00     0.031 C 
ATOM     59  C   UNL A   1      42.907  32.809  32.887  1.00  0.00     0.037 A 
BRANCH  46  60
ATOM     60  C   UNL A   1      46.042  27.685  31.451  1.00  0.00     0.064 A 
ATOM     61  C   UNL A   1      46.204  26.692  32.429  1.00  0.00     0.173 A 
ATOM     62  C   UNL A   1      47.102  27.905  30.559  1.00  0.00     0.173 A 
ATOM     63  F   UNL A   1      45.225  26.449  33.314  1.00  0.00    -0.203 F 
ATOM     64  C   UNL A   1      47.392  25.972  32.530  1.00  0.00     0.198 A 
ATOM     65  C   UNL A   1      48.277  27.162  30.644  1.00  0.00     0.198 A 
ATOM     66  F   UNL A   1      46.997  28.837  29.600  1.00  0.00    -0.203 F 
ATOM     67  F   UNL A   1      47.543  25.065  33.506  1.00  0.00    -0.200 F 
ATOM     68  C   UNL A   1      48.424  26.202  31.634  1.00  0.00     0.200 A 
ATOM     69  F   UNL A   1      49.269  27.377  29.769  1.00  0.00    -0.200 F 
ATOM     70  F   UNL A   1      49.565  25.505  31.729  1.00  0.00    -0.200 F 
ENDBRANCH  46  60
BRANCH  47  71
ATOM     71  C   UNL A   1      37.298  32.430  30.642  1.00  0.00     0.064 A 
ATOM     72  C   UNL A   1      36.306  32.227  31.612  1.00  0.00     0.173 A 
ATOM     73  C   UNL A   1      37.014  33.314  29.592  1.00  0.00     0.173 A 
ATOM     74  F   UNL A   1      36.523  31.374  32.624  1.00  0.00    -0.203 F 
ATOM     75  C   UNL A   1      35.072  32.867  31.524  1.00  0.00     0.198 A 
ATOM     76  C   UNL A   1      35.789  33.974  29.519  1.00  0.00     0.198 A 
ATOM     77  F   UNL A   1      37.932  33.545  28.643  1.00  0.00    -0.203 F 
ATOM     78  F   UNL A   1      34.126  32.623  32.440  1.00  0.00    -0.200 F 
ATOM     79  C   UNL A   1      34.817  33.745  30.481  1.00  0.00     0.200 A 
ATOM     80  F   UNL A   1      35.552  34.832  28.519  1.00  0.00    -0.200 F 
ATOM     81  F   UNL A   1      33.631  34.365  30.399  1.00  0.00    -0.200 F 
ENDBRANCH  47  71
BRANCH  59  82
ATOM     82  C   UNL A   1      43.377  34.015  33.647  1.00  0.00     0.064 A 
ATOM     83  C   UNL A   1      43.188  34.132  35.031  1.00  0.00     0.173 A 
ATOM     84  C   UNL A   1      44.056  35.050  32.985  1.00  0.00     0.173 A 
ATOM     85  F   UNL A   1      42.531  33.177  35.706  1.00  0.00    -0.203 F 
ATOM     86  C   UNL A   1      43.638  35.254  35.721  1.00  0.00     0.198 A 
ATOM     87  C   UNL A   1      44.530  36.156  33.683  1.00  0.00     0.198 A 
ATOM     88  F   UNL A   1      44.268  34.982  31.662  1.00  0.00    -0.203 F 
ATOM     89  F   UNL A   1      43.404  35.367  37.036  1.00  0.00    -0.200 F 
ATOM     90  C   UNL A   1      44.313  36.262  35.048  1.00  0.00     0.200 A 
ATOM     91  F   UNL A   1      45.192  37.123  33.033  1.00  0.00    -0.200 F 
ATOM     92  F   UNL A   1      44.750  37.339  35.716  1.00  0.00    -0.200 F 
ENDBRANCH  59  82
ENDBRANCH  33  34
ENDBRANCH  25  28
ENDBRANCH  23  24
ENDBRANCH  22  23
ENDBRANCH   1  22
TORSDOF 15
ENDMDL
MODEL 2
REMARK VINA RESULT:      -9.0      4.346     10.248
REMARK SMILES CCC(CC)([NH2+]Cc1ccc(I)cc1)C(=O)NCCCNC(=O)c1ccc(-c2c3nc(c(-c4c(F)c(F)c(F)c(F)c4F)c4ccc([nH]4)c(-c4c(F)c(F)c(F)c(F)c4F)c4nc(c(-c5c(F)c(F)c(F)c(F)c5F)c5ccc2[nH]5)C=C4)C=C3)cc1
REMARK SMILES IDX 18 1 17 2 15 3 16 4 3 6 2 7 1 8 4 9 5 10 6 11 7 14 8 15 9 16
REMARK SMILES IDX 14 17 10 18 13 19 11 20 12 21 19 22 20 23 21 24 22 25 23 27
REMARK SMILES IDX 24 28 25 29 86 30 26 31 85 32 27 33 28 34 29 35 79 36 30 37
REMARK SMILES IDX 84 38 78 39 80 40 31 41 83 42 77 43 76 44 32 46 64 47 44 48
REMARK SMILES IDX 63 49 45 50 48 51 62 52 81 53 46 54 47 55 61 57 82 58 49 59
REMARK SMILES IDX 33 60 34 61 42 62 35 63 36 64 40 65 43 66 37 67 38 68 41 69
REMARK SMILES IDX 39 70 65 71 66 72 74 73 67 74 68 75 72 76 75 77 69 78 70 79
REMARK SMILES IDX 73 80 71 81 50 82 51 83 59 84 52 85 53 86 57 87 60 88 54 89
REMARK SMILES IDX 55 90 58 91 56 92
REMARK H PARENT 17 5 6 12 6 13 21 26 80 45 48 56
REMARK Flexibility Score: inf
ROOT
ATOM      1  C   UNL A   1      36.427  20.295  25.024  1.00  0.00     0.118 C 
ENDROOT
BRANCH   1   2
ATOM      2  N   UNL A   1      36.597  21.511  25.790  1.00  0.00    -0.351 N 
ATOM      3  C   UNL A   1      36.066  22.755  25.648  1.00  0.00     0.281 C 
ATOM      4  O   UNL A   1      36.818  23.653  26.056  1.00  0.00    -0.268 OA
ATOM      5  H   UNL A   1      37.211  21.421  26.555  1.00  0.00     0.163 HD
BRANCH   3   6
ATOM      6  C   UNL A   1      34.614  23.069  25.106  1.00  0.00     0.175 C 
BRANCH   6   7
ATOM      7  C   UNL A   1      34.743  24.508  24.453  1.00  0.00     0.076 C 
ATOM      8  C   UNL A   1      34.253  25.681  25.306  1.00  0.00     0.011 C 
ENDBRANCH   6   7
BRANCH   6   9
ATOM      9  C   UNL A   1      33.544  23.130  26.228  1.00  0.00     0.076 C 
ATOM     10  C   UNL A   1      33.953  22.527  27.578  1.00  0.00     0.011 C 
ENDBRANCH   6   9
BRANCH   6  11
ATOM     11  N   UNL A   1      34.229  22.236  23.929  1.00  0.00    -0.330 N 
ATOM     12  H   UNL A   1      34.898  21.467  23.908  1.00  0.00     0.347 HD
ATOM     13  H   UNL A   1      34.209  22.946  23.197  1.00  0.00     0.347 HD
BRANCH  11  14
ATOM     14  C   UNL A   1      32.923  21.620  23.738  1.00  0.00     0.298 C 
BRANCH  14  15
ATOM     15  C   UNL A   1      32.736  20.177  24.162  1.00  0.00     0.006 A 
ATOM     16  C   UNL A   1      32.584  19.188  23.178  1.00  0.00     0.010 A 
ATOM     17  C   UNL A   1      32.696  19.767  25.497  1.00  0.00     0.010 A 
ATOM     18  C   UNL A   1      32.647  17.829  23.501  1.00  0.00     0.015 A 
ATOM     19  C   UNL A   1      32.765  18.411  25.834  1.00  0.00     0.015 A 
ATOM     20  C   UNL A   1      32.787  17.447  24.831  1.00  0.00     0.013 A 
ATOM     21  I   UNL A   1      33.048  15.446  25.314  1.00  0.00    -0.044 I 
ENDBRANCH  14  15
ENDBRANCH  11  14
ENDBRANCH   6  11
ENDBRANCH   3   6
ENDBRANCH   1   2
BRANCH   1  22
ATOM     22  C   UNL A   1      37.759  19.546  24.932  1.00  0.00     0.042 C 
BRANCH  22  23
ATOM     23  C   UNL A   1      38.892  20.194  25.715  1.00  0.00     0.118 C 
BRANCH  23  24
ATOM     24  N   UNL A   1      39.984  19.257  25.931  1.00  0.00    -0.352 N 
ATOM     25  C   UNL A   1      41.335  19.463  26.080  1.00  0.00     0.251 C 
ATOM     26  H   UNL A   1      39.709  18.313  25.977  1.00  0.00     0.163 HD
ATOM     27  O   UNL A   1      42.093  18.506  25.953  1.00  0.00    -0.269 OA
BRANCH  25  28
ATOM     28  C   UNL A   1      41.904  20.802  26.383  1.00  0.00     0.039 A 
ATOM     29  C   UNL A   1      42.220  21.108  27.714  1.00  0.00     0.014 A 
ATOM     30  C   UNL A   1      42.043  21.793  25.410  1.00  0.00     0.014 A 
ATOM     31  C   UNL A   1      42.701  22.378  28.054  1.00  0.00     0.010 A 
ATOM     32  C   UNL A   1      42.613  23.025  25.732  1.00  0.00     0.010 A 
ATOM     33  C   UNL A   1      42.925  23.343  27.061  1.00  0.00    -0.014 A 
BRANCH  33  34
ATOM     34  C   UNL A   1      43.435  24.700  27.396  1.00  0.00     0.031 A 
ATOM     35  C   UNL A   1      42.508  25.733  27.984  1.00  0.00     0.074 A 
ATOM     36  C   UNL A   1      44.712  25.028  27.119  1.00  0.00     0.049 A 
ATOM     37  N   UNL A   1      42.735  26.994  28.258  1.00  0.00    -0.248 NA
ATOM     38  C   UNL A   1      41.133  25.299  28.274  1.00  0.00     0.031 C 
ATOM     39  C   UNL A   1      45.701  24.138  26.510  1.00  0.00     0.029 A 
ATOM     40  N   UNL A   1      45.394  26.205  27.305  1.00  0.00    -0.354 N 
ATOM     41  C   UNL A   1      41.529  27.506  28.721  1.00  0.00     0.074 A 
ATOM     42  C   UNL A   1      40.560  26.434  28.646  1.00  0.00     0.031 C 
ATOM     43  C   UNL A   1      46.868  24.791  26.393  1.00  0.00     0.029 A 
ATOM     44  C   UNL A   1      46.702  26.156  26.884  1.00  0.00     0.049 A 
ATOM     45  H   UNL A   1      44.987  27.008  27.703  1.00  0.00     0.167 HD
ATOM     46  C   UNL A   1      41.257  28.748  29.188  1.00  0.00     0.037 A 
ATOM     47  C   UNL A   1      47.656  27.105  26.890  1.00  0.00     0.037 A 
ATOM     48  C   UNL A   1      42.231  29.801  29.308  1.00  0.00     0.049 A 
ATOM     49  C   UNL A   1      47.337  28.469  27.438  1.00  0.00     0.074 A 
ATOM     50  C   UNL A   1      42.071  31.072  29.830  1.00  0.00     0.029 A 
ATOM     51  N   UNL A   1      43.555  29.699  28.904  1.00  0.00    -0.354 N 
ATOM     52  N   UNL A   1      46.207  28.923  27.924  1.00  0.00    -0.248 NA
ATOM     53  C   UNL A   1      48.430  29.452  27.448  1.00  0.00     0.031 C 
ATOM     54  C   UNL A   1      43.288  31.752  29.711  1.00  0.00     0.029 A 
ATOM     55  C   UNL A   1      44.218  30.889  29.154  1.00  0.00     0.049 A 
ATOM     56  H   UNL A   1      43.961  28.899  28.499  1.00  0.00     0.167 HD
ATOM     57  C   UNL A   1      46.457  30.229  28.319  1.00  0.00     0.074 A 
ATOM     58  C   UNL A   1      47.852  30.492  28.032  1.00  0.00     0.031 C 
ATOM     59  C   UNL A   1      45.609  31.130  28.871  1.00  0.00     0.037 A 
BRANCH  46  60
ATOM     60  C   UNL A   1      39.846  29.036  29.616  1.00  0.00     0.064 A 
ATOM     61  C   UNL A   1      38.878  29.487  28.706  1.00  0.00     0.173 A 
ATOM     62  C   UNL A   1      39.448  28.829  30.945  1.00  0.00     0.173 A 
ATOM     63  F   UNL A   1      39.208  29.713  27.425  1.00  0.00    -0.203 F 
ATOM     64  C   UNL A   1      37.574  29.751  29.117  1.00  0.00     0.198 A 
ATOM     65  C   UNL A   1      38.136  29.065  31.347  1.00  0.00     0.198 A 
ATOM     66  F   UNL A   1      40.332  28.392  31.856  1.00  0.00    -0.203 F 
ATOM     67  F   UNL A   1      36.680  30.231  28.240  1.00  0.00    -0.200 F 
ATOM     68  C   UNL A   1      37.202  29.533  30.435  1.00  0.00     0.200 A 
ATOM     69  F   UNL A   1      37.775  28.842  32.618  1.00  0.00    -0.200 F 
ATOM     70  F   UNL A   1      35.945  29.782  30.828  1.00  0.00    -0.200 F 
ENDBRANCH  46  60
BRANCH  47  71
ATOM     71  C   UNL A   1      49.019  26.789  26.386  1.00  0.00     0.064 A 
ATOM     72  C   UNL A   1      49.995  26.263  27.244  1.00  0.00     0.173 A 
ATOM     73  C   UNL A   1      49.372  27.003  25.047  1.00  0.00     0.173 A 
ATOM     74  F   UNL A   1      49.710  26.061  28.539  1.00  0.00    -0.203 F 
ATOM     75  C   UNL A   1      51.279  25.981  26.785  1.00  0.00     0.198 A 
ATOM     76  C   UNL A   1      50.650  26.695  24.582  1.00  0.00     0.198 A 
ATOM     77  F   UNL A   1      48.472  27.500  24.186  1.00  0.00    -0.203 F 
ATOM     78  F   UNL A   1      52.206  25.518  27.635  1.00  0.00    -0.200 F 
ATOM     79  C   UNL A   1      51.604  26.191  25.453  1.00  0.00     0.200 A 
ATOM     80  F   UNL A   1      50.955  26.887  23.293  1.00  0.00    -0.200 F 
ATOM     81  F   UNL A   1      52.839  25.915  25.011  1.00  0.00    -0.200 F 
ENDBRANCH  47  71
BRANCH  59  82
ATOM     82  C   UNL A   1      46.174  32.473  29.233  1.00  0.00     0.064 A 
ATOM     83  C   UNL A   1      46.146  33.549  28.335  1.00  0.00     0.173 A 
ATOM     84  C   UNL A   1      46.719  32.691  30.507  1.00  0.00     0.173 A 
ATOM     85  F   UNL A   1      45.649  33.385  27.100  1.00  0.00    -0.203 F 
ATOM     86  C   UNL A   1      46.667  34.790  28.691  1.00  0.00     0.198 A 
ATOM     87  C   UNL A   1      47.213  33.941  30.869  1.00  0.00     0.198 A 
ATOM     88  F   UNL A   1      46.764  31.695  31.405  1.00  0.00    -0.203 F 
ATOM     89  F   UNL A   1      46.673  35.792  27.801  1.00  0.00    -0.200 F 
ATOM     90  C   UNL A   1      47.195  34.986  29.959  1.00  0.00     0.200 A 
ATOM     91  F   UNL A   1      47.712  34.132  32.099  1.00  0.00    -0.200 F 
ATOM     92  F   UNL A   1      47.691  36.183  30.301  1.00  0.00    -0.200 F 
ENDBRANCH  59  82
ENDBRANCH  33  34
ENDBRANCH  25  28
ENDBRANCH  23  24
ENDBRANCH  22  23
ENDBRANCH   1  22
TORSDOF 15
ENDMDL
MODEL 3
REMARK VINA RESULT:      -8.8      3.569     10.683
REMARK SMILES CCC(CC)([NH2+]Cc1ccc(I)cc1)C(=O)NCCCNC(=O)c1ccc(-c2c3nc(c(-c4c(F)c(F)c(F)c(F)c4F)c4ccc([nH]4)c(-c4c(F)c(F)c(F)c(F)c4F)c4nc(c(-c5c(F)c(F)c(F)c(F)c5F)c5ccc2[nH]5)C=C4)C=C3)cc1
REMARK SMILES IDX 18 1 17 2 15 3 16 4 3 6 2 7 1 8 4 9 5 10 6 11 7 14 8 15 9 16
REMARK SMILES IDX 14 17 10 18 13 19 11 20 12 21 19 22 20 23 21 24 22 25 23 27
REMARK SMILES IDX 24 28 25 29 86 30 26 31 85 32 27 33 28 34 29 35 79 36 30 37
REMARK SMILES IDX 84 38 78 39 80 40 31 41 83 42 77 43 76 44 32 46 64 47 44 48
REMARK SMILES IDX 63 49 45 50 48 51 62 52 81 53 46 54 47 55 61 57 82 58 49 59
REMARK SMILES IDX 33 60 34 61 42 62 35 63 36 64 40 65 43 66 37 67 38 68 41 69
REMARK SMILES IDX 39 70 65 71 66 72 74 73 67 74 68 75 72 76 75 77 69 78 70 79
REMARK SMILES IDX 73 80 71 81 50 82 51 83 59 84 52 85 53 86 57 87 60 88 54 89
REMARK SMILES IDX 55 90 58 91 56 92
REMARK H PARENT 17 5 6 12 6 13 21 26 80 45 48 56
REMARK Flexibility Score: inf
ROOT
ATOM      1  C   UNL A   1      34.057  34.950  29.488  1.00  0.00     0.118 C 
ENDROOT
BRANCH   1   2
ATOM      2  N   UNL A   1      33.672  34.105  30.598  1.00  0.00    -0.351 N 
ATOM      3  C   UNL A   1      34.223  33.911  31.827  1.00  0.00     0.281 C 
ATOM      4  O   UNL A   1      34.030  32.770  32.271  1.00  0.00    -0.268 OA
ATOM      5  H   UNL A   1      32.860  33.572  30.433  1.00  0.00     0.163 HD
BRANCH   3   6
ATOM      6  C   UNL A   1      34.967  35.020  32.675  1.00  0.00     0.175 C 
BRANCH   6   7
ATOM      7  C   UNL A   1      34.866  34.500  34.170  1.00  0.00     0.076 C 
ATOM      8  C   UNL A   1      36.194  34.202  34.871  1.00  0.00     0.011 C 
ENDBRANCH   6   7
BRANCH   6   9
ATOM      9  C   UNL A   1      34.287  36.412  32.589  1.00  0.00     0.076 C 
ATOM     10  C   UNL A   1      32.774  36.434  32.835  1.00  0.00     0.011 C 
ENDBRANCH   6   9
BRANCH   6  11
ATOM     11  N   UNL A   1      36.444  35.038  32.460  1.00  0.00    -0.330 N 
ATOM     12  H   UNL A   1      36.855  34.926  33.387  1.00  0.00     0.347 HD
ATOM     13  H   UNL A   1      36.545  35.906  31.933  1.00  0.00     0.347 HD
BRANCH  11  14
ATOM     14  C   UNL A   1      37.170  34.117  31.597  1.00  0.00     0.298 C 
BRANCH  14  15
ATOM     15  C   UNL A   1      38.066  33.079  32.242  1.00  0.00     0.006 A 
ATOM     16  C   UNL A   1      39.313  33.472  32.753  1.00  0.00     0.010 A 
ATOM     17  C   UNL A   1      37.724  31.729  32.352  1.00  0.00     0.010 A 
ATOM     18  C   UNL A   1      40.068  32.616  33.560  1.00  0.00     0.015 A 
ATOM     19  C   UNL A   1      38.468  30.863  33.162  1.00  0.00     0.015 A 
ATOM     20  C   UNL A   1      39.613  31.325  33.801  1.00  0.00     0.013 A 
ATOM     21  I   UNL A   1      40.632  30.096  35.128  1.00  0.00    -0.044 I 
ENDBRANCH  14  15
ENDBRANCH  11  14
ENDBRANCH   6  11
ENDBRANCH   3   6
ENDBRANCH   1   2
BRANCH   1  22
ATOM     22  C   UNL A   1      34.303  34.095  28.243  1.00  0.00     0.042 C 
BRANCH  22  23
ATOM     23  C   UNL A   1      35.164  32.865  28.493  1.00  0.00     0.118 C 
BRANCH  23  24
ATOM     24  N   UNL A   1      34.409  31.641  28.273  1.00  0.00    -0.352 N 
ATOM     25  C   UNL A   1      34.824  30.359  28.004  1.00  0.00     0.251 C 
ATOM     26  H   UNL A   1      33.432  31.750  28.326  1.00  0.00     0.163 HD
ATOM     27  O   UNL A   1      34.006  29.556  27.565  1.00  0.00    -0.269 OA
BRANCH  25  28
ATOM     28  C   UNL A   1      36.226  29.918  28.222  1.00  0.00     0.039 A 
ATOM     29  C   UNL A   1      36.579  29.410  29.480  1.00  0.00     0.014 A 
ATOM     30  C   UNL A   1      37.220  30.080  27.255  1.00  0.00     0.014 A 
ATOM     31  C   UNL A   1      37.902  29.040  29.750  1.00  0.00     0.010 A 
ATOM     32  C   UNL A   1      38.516  29.621  27.490  1.00  0.00     0.010 A 
ATOM     33  C   UNL A   1      38.881  29.119  28.748  1.00  0.00    -0.014 A 
BRANCH  33  34
ATOM     34  C   UNL A   1      40.294  28.732  29.007  1.00  0.00     0.031 A 
ATOM     35  C   UNL A   1      41.226  29.692  29.701  1.00  0.00     0.074 A 
ATOM     36  C   UNL A   1      40.760  27.547  28.570  1.00  0.00     0.049 A 
ATOM     37  N   UNL A   1      42.510  29.580  29.937  1.00  0.00    -0.248 NA
ATOM     38  C   UNL A   1      40.644  30.960  30.166  1.00  0.00     0.031 C 
ATOM     39  C   UNL A   1      39.976  26.545  27.846  1.00  0.00     0.029 A 
ATOM     40  N   UNL A   1      42.010  26.987  28.661  1.00  0.00    -0.354 N 
ATOM     41  C   UNL A   1      42.890  30.770  30.546  1.00  0.00     0.074 A 
ATOM     42  C   UNL A   1      41.713  31.610  30.600  1.00  0.00     0.031 C 
ATOM     43  C   UNL A   1      40.756  25.485  27.579  1.00  0.00     0.029 A 
ATOM     44  C   UNL A   1      42.102  25.746  28.079  1.00  0.00     0.049 A 
ATOM     45  H   UNL A   1      42.769  27.431  29.102  1.00  0.00     0.167 HD
ATOM     46  C   UNL A   1      44.102  31.124  31.036  1.00  0.00     0.037 A 
ATOM     47  C   UNL A   1      43.154  24.914  27.959  1.00  0.00     0.037 A 
ATOM     48  C   UNL A   1      45.261  30.271  31.026  1.00  0.00     0.049 A 
ATOM     49  C   UNL A   1      44.484  25.319  28.534  1.00  0.00     0.074 A 
ATOM     50  C   UNL A   1      46.516  30.511  31.556  1.00  0.00     0.029 A 
ATOM     51  N   UNL A   1      45.303  29.005  30.459  1.00  0.00    -0.354 N 
ATOM     52  N   UNL A   1      44.815  26.424  29.157  1.00  0.00    -0.248 NA
ATOM     53  C   UNL A   1      45.585  24.354  28.400  1.00  0.00     0.031 C 
ATOM     54  C   UNL A   1      47.328  29.406  31.281  1.00  0.00     0.029 A 
ATOM     55  C   UNL A   1      46.566  28.458  30.616  1.00  0.00     0.049 A 
ATOM     56  H   UNL A   1      44.547  28.563  30.011  1.00  0.00     0.167 HD
ATOM     57  C   UNL A   1      46.149  26.279  29.510  1.00  0.00     0.074 A 
ATOM     58  C   UNL A   1      46.564  24.971  29.047  1.00  0.00     0.031 C 
ATOM     59  C   UNL A   1      46.959  27.151  30.159  1.00  0.00     0.037 A 
BRANCH  46  60
ATOM     60  C   UNL A   1      44.236  32.494  31.637  1.00  0.00     0.064 A 
ATOM     61  C   UNL A   1      44.647  33.597  30.872  1.00  0.00     0.173 A 
ATOM     62  C   UNL A   1      43.920  32.715  32.986  1.00  0.00     0.173 A 
ATOM     63  F   UNL A   1      44.972  33.439  29.580  1.00  0.00    -0.203 F 
ATOM     64  C   UNL A   1      44.767  34.861  31.443  1.00  0.00     0.198 A 
ATOM     65  C   UNL A   1      44.012  33.987  33.546  1.00  0.00     0.198 A 
ATOM     66  F   UNL A   1      43.515  31.697  33.761  1.00  0.00    -0.203 F 
ATOM     67  F   UNL A   1      45.211  35.889  30.705  1.00  0.00    -0.200 F 
ATOM     68  C   UNL A   1      44.443  35.057  32.777  1.00  0.00     0.200 A 
ATOM     69  F   UNL A   1      43.686  34.176  34.832  1.00  0.00    -0.200 F 
ATOM     70  F   UNL A   1      44.554  36.276  33.324  1.00  0.00    -0.200 F 
ENDBRANCH  46  60
BRANCH  47  71
ATOM     71  C   UNL A   1      42.986  23.598  27.289  1.00  0.00     0.064 A 
ATOM     72  C   UNL A   1      43.397  23.411  25.962  1.00  0.00     0.173 A 
ATOM     73  C   UNL A   1      42.415  22.505  27.956  1.00  0.00     0.173 A 
ATOM     74  F   UNL A   1      43.928  24.433  25.276  1.00  0.00    -0.203 F 
ATOM     75  C   UNL A   1      43.225  22.186  25.321  1.00  0.00     0.198 A 
ATOM     76  C   UNL A   1      42.269  21.272  27.323  1.00  0.00     0.198 A 
ATOM     77  F   UNL A   1      42.011  22.632  29.229  1.00  0.00    -0.203 F 
ATOM     78  F   UNL A   1      43.588  22.047  24.039  1.00  0.00    -0.200 F 
ATOM     79  C   UNL A   1      42.668  21.116  26.004  1.00  0.00     0.200 A 
ATOM     80  F   UNL A   1      41.742  20.237  27.990  1.00  0.00    -0.200 F 
ATOM     81  F   UNL A   1      42.508  19.936  25.389  1.00  0.00    -0.200 F 
ENDBRANCH  47  71
BRANCH  59  82
ATOM     82  C   UNL A   1      48.364  26.704  30.439  1.00  0.00     0.064 A 
ATOM     83  C   UNL A   1      48.678  25.926  31.561  1.00  0.00     0.173 A 
ATOM     84  C   UNL A   1      49.401  27.031  29.552  1.00  0.00     0.173 A 
ATOM     85  F   UNL A   1      47.724  25.601  32.446  1.00  0.00    -0.203 F 
ATOM     86  C   UNL A   1      49.986  25.513  31.801  1.00  0.00     0.198 A 
ATOM     87  C   UNL A   1      50.702  26.593  29.780  1.00  0.00     0.198 A 
ATOM     88  F   UNL A   1      49.151  27.769  28.460  1.00  0.00    -0.203 F 
ATOM     89  F   UNL A   1      50.272  24.810  32.906  1.00  0.00    -0.200 F 
ATOM     90  C   UNL A   1      50.995  25.842  30.908  1.00  0.00     0.200 A 
ATOM     91  F   UNL A   1      51.674  26.901  28.910  1.00  0.00    -0.200 F 
ATOM     92  F   UNL A   1      52.252  25.439  31.138  1.00  0.00    -0.200 F 
ENDBRANCH  59  82
ENDBRANCH  33  34
ENDBRANCH  25  28
ENDBRANCH  23  24
ENDBRANCH  22  23
ENDBRANCH   1  22
TORSDOF 15
ENDMDL
