MODEL 1
REMARK VINA RESULT:     -12.2      0.000      0.000
REMARK SMILES CN(CCS(C)(=O)=O)C(=O)Nc1cccc(C(=O)NCCCNC(=O)c2ccc(-c3c4nc(c(-c5c(F)c(F)c(F)c(F)c5F)c5ccc([nH]5)c(-c5c(F)c(F)c(F)c(F)c5F)c5nc(c(-c6c(F)c(F)c(F)c(F)c6F)c6ccc3[nH]6)C=C5)C=C4)cc2)c1
REMARK SMILES IDX 17 1 18 2 19 3 16 5 12 6 13 7 89 8 14 9 15 10 11 11 9 12
REMARK SMILES IDX 10 13 2 15 1 16 3 17 4 18 5 19 6 20 7 21 8 22 20 23 21 24
REMARK SMILES IDX 22 25 23 26 24 27 25 29 26 30 27 31 88 32 28 33 87 34 29 35
REMARK SMILES IDX 30 36 31 37 81 38 32 39 86 40 80 41 82 42 33 43 85 44 79 45
REMARK SMILES IDX 78 46 34 48 66 49 46 50 65 51 47 52 50 53 64 54 83 55 48 56
REMARK SMILES IDX 49 57 63 59 84 60 51 61 35 62 36 63 44 64 37 65 38 66 42 67
REMARK SMILES IDX 45 68 39 69 40 70 43 71 41 72 67 73 68 74 76 75 69 76 70 77
REMARK SMILES IDX 74 78 77 79 71 80 72 81 75 82 73 83 52 84 53 85 61 86 54 87
REMARK SMILES IDX 55 88 59 89 62 90 56 91 57 92 60 93 58 94
REMARK H PARENT 19 4 11 14 23 28 82 47 50 58
REMARK Flexibility Score: inf
ROOT
ATOM      1  C   UNL A   1      32.897  26.804  22.080  1.00  0.00     0.251 C 
ATOM      2  O   UNL A   1      33.272  25.929  21.299  1.00  0.00    -0.269 OA
ATOM      3  N   UNL A   1      33.617  27.986  22.092  1.00  0.00    -0.352 N 
ATOM      4  H   UNL A   1      34.353  28.018  21.440  1.00  0.00     0.163 HD
ENDROOT
BRANCH   1   5
ATOM      5  C   UNL A   1      31.728  26.503  22.979  1.00  0.00     0.041 A 
ATOM      6  C   UNL A   1      30.621  25.272  24.810  1.00  0.00     0.043 A 
ATOM      7  C   UNL A   1      29.465  26.033  24.541  1.00  0.00     0.026 A 
ATOM      8  C   UNL A   1      31.762  25.595  24.058  1.00  0.00     0.040 A 
ATOM      9  C   UNL A   1      29.432  27.014  23.550  1.00  0.00     0.003 A 
ATOM     10  C   UNL A   1      30.554  27.231  22.757  1.00  0.00     0.014 A 
BRANCH   6  11
ATOM     11  N   UNL A   1      30.408  24.274  25.793  1.00  0.00    -0.308 N 
ATOM     12  C   UNL A   1      30.875  23.233  26.507  1.00  0.00     0.321 C 
ATOM     13  O   UNL A   1      30.022  22.786  27.289  1.00  0.00    -0.248 OA
ATOM     14  H   UNL A   1      29.482  24.404  26.099  1.00  0.00     0.171 HD
BRANCH  12  15
ATOM     15  N   UNL A   1      32.082  22.626  26.410  1.00  0.00    -0.327 N 
ATOM     16  C   UNL A   1      32.865  22.433  27.636  1.00  0.00     0.148 C 
BRANCH  15  17
ATOM     17  C   UNL A   1      32.767  22.200  25.231  1.00  0.00     0.137 C 
BRANCH  17  18
ATOM     18  C   UNL A   1      32.272  20.971  24.510  1.00  0.00     0.158 C 
BRANCH  18  19
ATOM     19  S   UNL A   1      32.946  19.335  24.698  1.00  0.00     0.149 S 
ATOM     20  C   UNL A   1      32.492  18.195  23.418  1.00  0.00     0.158 C 
ATOM     21  O   UNL A   1      34.389  19.501  24.544  1.00  0.00    -0.229 OA
ATOM     22  O   UNL A   1      32.425  18.802  25.935  1.00  0.00    -0.229 OA
ENDBRANCH  18  19
ENDBRANCH  17  18
ENDBRANCH  15  17
ENDBRANCH  12  15
ENDBRANCH   6  11
ENDBRANCH   1   5
BRANCH   3  23
ATOM     23  C   UNL A   1      33.480  29.185  22.893  1.00  0.00     0.118 C 
BRANCH  23  24
ATOM     24  C   UNL A   1      33.851  29.053  24.372  1.00  0.00     0.042 C 
BRANCH  24  25
ATOM     25  C   UNL A   1      32.728  29.003  25.410  1.00  0.00     0.118 C 
BRANCH  25  26
ATOM     26  N   UNL A   1      32.406  30.268  26.069  1.00  0.00    -0.352 N 
ATOM     27  C   UNL A   1      33.097  31.098  26.936  1.00  0.00     0.251 C 
ATOM     28  H   UNL A   1      31.505  30.601  25.849  1.00  0.00     0.163 HD
ATOM     29  O   UNL A   1      32.537  32.121  27.310  1.00  0.00    -0.269 OA
BRANCH  27  30
ATOM     30  C   UNL A   1      34.453  30.781  27.478  1.00  0.00     0.039 A 
ATOM     31  C   UNL A   1      35.369  31.830  27.653  1.00  0.00     0.014 A 
ATOM     32  C   UNL A   1      34.863  29.491  27.799  1.00  0.00     0.014 A 
ATOM     33  C   UNL A   1      36.615  31.604  28.263  1.00  0.00     0.010 A 
ATOM     34  C   UNL A   1      36.046  29.282  28.510  1.00  0.00     0.010 A 
ATOM     35  C   UNL A   1      36.935  30.336  28.768  1.00  0.00    -0.014 A 
BRANCH  35  36
ATOM     36  C   UNL A   1      38.164  30.079  29.577  1.00  0.00     0.031 A 
ATOM     37  C   UNL A   1      39.233  29.143  29.070  1.00  0.00     0.074 A 
ATOM     38  C   UNL A   1      38.274  30.591  30.820  1.00  0.00     0.049 A 
ATOM     39  N   UNL A   1      40.285  28.664  29.690  1.00  0.00    -0.248 NA
ATOM     40  C   UNL A   1      39.075  28.648  27.694  1.00  0.00     0.031 C 
ATOM     41  C   UNL A   1      37.297  31.471  31.465  1.00  0.00     0.029 A 
ATOM     42  N   UNL A   1      39.249  30.428  31.778  1.00  0.00    -0.354 N 
ATOM     43  C   UNL A   1      40.891  27.794  28.792  1.00  0.00     0.074 A 
ATOM     44  C   UNL A   1      40.059  27.765  27.609  1.00  0.00     0.031 C 
ATOM     45  C   UNL A   1      37.730  31.787  32.696  1.00  0.00     0.029 A 
ATOM     46  C   UNL A   1      38.988  31.094  32.953  1.00  0.00     0.049 A 
ATOM     47  H   UNL A   1      40.058  29.885  31.636  1.00  0.00     0.167 HD
ATOM     48  C   UNL A   1      42.048  27.099  28.928  1.00  0.00     0.037 A 
ATOM     49  C   UNL A   1      39.672  31.131  34.113  1.00  0.00     0.037 A 
ATOM     50  C   UNL A   1      42.896  27.153  30.091  1.00  0.00     0.049 A 
ATOM     51  C   UNL A   1      40.948  30.344  34.244  1.00  0.00     0.074 A 
ATOM     52  C   UNL A   1      44.120  26.539  30.296  1.00  0.00     0.029 A 
ATOM     53  N   UNL A   1      42.607  27.862  31.247  1.00  0.00    -0.354 N 
ATOM     54  N   UNL A   1      41.542  29.574  33.365  1.00  0.00    -0.248 NA
ATOM     55  C   UNL A   1      41.650  30.431  35.534  1.00  0.00     0.031 C 
ATOM     56  C   UNL A   1      44.547  26.836  31.593  1.00  0.00     0.029 A 
ATOM     57  C   UNL A   1      43.618  27.681  32.178  1.00  0.00     0.049 A 
ATOM     58  H   UNL A   1      41.802  28.412  31.387  1.00  0.00     0.167 HD
ATOM     59  C   UNL A   1      42.699  29.113  33.980  1.00  0.00     0.074 A 
ATOM     60  C   UNL A   1      42.732  29.699  35.303  1.00  0.00     0.031 C 
ATOM     61  C   UNL A   1      43.648  28.278  33.489  1.00  0.00     0.037 A 
BRANCH  48  62
ATOM     62  C   UNL A   1      42.470  26.223  27.782  1.00  0.00     0.064 A 
ATOM     63  C   UNL A   1      41.924  24.943  27.590  1.00  0.00     0.173 A 
ATOM     64  C   UNL A   1      43.413  26.675  26.845  1.00  0.00     0.173 A 
ATOM     65  F   UNL A   1      41.024  24.458  28.460  1.00  0.00    -0.203 F 
ATOM     66  C   UNL A   1      42.334  24.137  26.534  1.00  0.00     0.198 A 
ATOM     67  C   UNL A   1      43.795  25.878  25.767  1.00  0.00     0.198 A 
ATOM     68  F   UNL A   1      43.962  27.893  26.970  1.00  0.00    -0.203 F 
ATOM     69  F   UNL A   1      41.843  22.895  26.411  1.00  0.00    -0.200 F 
ATOM     70  C   UNL A   1      43.265  24.606  25.620  1.00  0.00     0.200 A 
ATOM     71  F   UNL A   1      44.683  26.340  24.876  1.00  0.00    -0.200 F 
ATOM     72  F   UNL A   1      43.656  23.829  24.600  1.00  0.00    -0.200 F 
ENDBRANCH  48  62
BRANCH  49  73
ATOM     73  C   UNL A   1      39.179  31.966  35.242  1.00  0.00     0.064 A 
ATOM     74  C   UNL A   1      39.460  33.339  35.291  1.00  0.00     0.173 A 
ATOM     75  C   UNL A   1      38.430  31.417  36.292  1.00  0.00     0.173 A 
ATOM     76  F   UNL A   1      40.196  33.907  34.325  1.00  0.00    -0.203 F 
ATOM     77  C   UNL A   1      39.027  34.126  36.357  1.00  0.00     0.198 A 
ATOM     78  C   UNL A   1      37.971  32.211  37.342  1.00  0.00     0.198 A 
ATOM     79  F   UNL A   1      38.134  30.108  36.295  1.00  0.00    -0.203 F 
ATOM     80  F   UNL A   1      39.351  35.425  36.402  1.00  0.00    -0.200 F 
ATOM     81  C   UNL A   1      38.276  33.563  37.378  1.00  0.00     0.200 A 
ATOM     82  F   UNL A   1      37.237  31.665  38.322  1.00  0.00    -0.200 F 
ATOM     83  F   UNL A   1      37.857  34.321  38.400  1.00  0.00    -0.200 F 
ENDBRANCH  49  73
BRANCH  61  84
ATOM     84  C   UNL A   1      44.828  27.978  34.369  1.00  0.00     0.064 A 
ATOM     85  C   UNL A   1      44.849  26.865  35.223  1.00  0.00     0.173 A 
ATOM     86  C   UNL A   1      45.973  28.788  34.319  1.00  0.00     0.173 A 
ATOM     87  F   UNL A   1      43.775  26.067  35.318  1.00  0.00    -0.203 F 
ATOM     88  C   UNL A   1      45.964  26.589  36.011  1.00  0.00     0.198 A 
ATOM     89  C   UNL A   1      47.097  28.492  35.085  1.00  0.00     0.198 A 
ATOM     90  F   UNL A   1      46.007  29.862  33.514  1.00  0.00    -0.203 F 
ATOM     91  F   UNL A   1      45.945  25.547  36.852  1.00  0.00    -0.200 F 
ATOM     92  C   UNL A   1      47.090  27.396  35.934  1.00  0.00     0.200 A 
ATOM     93  F   UNL A   1      48.188  29.264  34.997  1.00  0.00    -0.200 F 
ATOM     94  F   UNL A   1      48.165  27.121  36.685  1.00  0.00    -0.200 F 
ENDBRANCH  61  84
ENDBRANCH  35  36
ENDBRANCH  27  30
ENDBRANCH  25  26
ENDBRANCH  24  25
ENDBRANCH  23  24
ENDBRANCH   3  23
TORSDOF 15
ENDMDL
MODEL 2
REMARK VINA RESULT:     -12.2      2.211      3.664
REMARK SMILES CN(CCS(C)(=O)=O)C(=O)Nc1cccc(C(=O)NCCCNC(=O)c2ccc(-c3c4nc(c(-c5c(F)c(F)c(F)c(F)c5F)c5ccc([nH]5)c(-c5c(F)c(F)c(F)c(F)c5F)c5nc(c(-c6c(F)c(F)c(F)c(F)c6F)c6ccc3[nH]6)C=C5)C=C4)cc2)c1
REMARK SMILES IDX 17 1 18 2 19 3 16 5 12 6 13 7 89 8 14 9 15 10 11 11 9 12
REMARK SMILES IDX 10 13 2 15 1 16 3 17 4 18 5 19 6 20 7 21 8 22 20 23 21 24
REMARK SMILES IDX 22 25 23 26 24 27 25 29 26 30 27 31 88 32 28 33 87 34 29 35
REMARK SMILES IDX 30 36 31 37 81 38 32 39 86 40 80 41 82 42 33 43 85 44 79 45
REMARK SMILES IDX 78 46 34 48 66 49 46 50 65 51 47 52 50 53 64 54 83 55 48 56
REMARK SMILES IDX 49 57 63 59 84 60 51 61 35 62 36 63 44 64 37 65 38 66 42 67
REMARK SMILES IDX 45 68 39 69 40 70 43 71 41 72 67 73 68 74 76 75 69 76 70 77
REMARK SMILES IDX 74 78 77 79 71 80 72 81 75 82 73 83 52 84 53 85 61 86 54 87
REMARK SMILES IDX 55 88 59 89 62 90 56 91 57 92 60 93 58 94
REMARK H PARENT 19 4 11 14 23 28 82 47 50 58
REMARK Flexibility Score: inf
ROOT
ATOM      1  C   UNL A   1      32.385  29.024  24.567  1.00  0.00     0.251 C 
ATOM      2  O   UNL A   1      33.277  28.916  23.724  1.00  0.00    -0.269 OA
ATOM      3  N   UNL A   1      32.481  30.085  25.449  1.00  0.00    -0.352 N 
ATOM      4  H   UNL A   1      33.252  30.674  25.291  1.00  0.00     0.163 HD
ENDROOT
BRANCH   1   5
ATOM      5  C   UNL A   1      31.303  27.979  24.596  1.00  0.00     0.041 A 
ATOM      6  C   UNL A   1      30.208  25.971  25.525  1.00  0.00     0.043 A 
ATOM      7  C   UNL A   1      29.251  26.091  24.497  1.00  0.00     0.026 A 
ATOM      8  C   UNL A   1      31.176  26.985  25.590  1.00  0.00     0.040 A 
ATOM      9  C   UNL A   1      29.289  27.125  23.561  1.00  0.00     0.003 A 
ATOM     10  C   UNL A   1      30.325  28.052  23.598  1.00  0.00     0.014 A 
BRANCH   6  11
ATOM     11  N   UNL A   1      30.033  24.802  26.307  1.00  0.00    -0.308 N 
ATOM     12  C   UNL A   1      30.482  23.599  26.708  1.00  0.00     0.321 C 
ATOM     13  O   UNL A   1      29.708  23.057  27.513  1.00  0.00    -0.248 OA
ATOM     14  H   UNL A   1      29.180  24.932  26.782  1.00  0.00     0.171 HD
BRANCH  12  15
ATOM     15  N   UNL A   1      31.590  22.939  26.292  1.00  0.00    -0.327 N 
ATOM     16  C   UNL A   1      32.530  22.448  27.307  1.00  0.00     0.148 C 
BRANCH  15  17
ATOM     17  C   UNL A   1      32.034  22.709  24.954  1.00  0.00     0.137 C 
BRANCH  17  18
ATOM     18  C   UNL A   1      33.516  22.595  24.691  1.00  0.00     0.158 C 
BRANCH  18  19
ATOM     19  S   UNL A   1      34.465  23.715  23.686  1.00  0.00     0.149 S 
ATOM     20  C   UNL A   1      33.888  25.392  23.700  1.00  0.00     0.158 C 
ATOM     21  O   UNL A   1      35.777  23.775  24.325  1.00  0.00    -0.229 OA
ATOM     22  O   UNL A   1      34.364  23.250  22.323  1.00  0.00    -0.229 OA
ENDBRANCH  18  19
ENDBRANCH  17  18
ENDBRANCH  15  17
ENDBRANCH  12  15
ENDBRANCH   6  11
ENDBRANCH   1   5
BRANCH   3  23
ATOM     23  C   UNL A   1      31.647  30.483  26.566  1.00  0.00     0.118 C 
BRANCH  23  24
ATOM     24  C   UNL A   1      31.458  31.989  26.762  1.00  0.00     0.042 C 
BRANCH  24  25
ATOM     25  C   UNL A   1      32.670  32.836  27.154  1.00  0.00     0.118 C 
BRANCH  25  26
ATOM     26  N   UNL A   1      32.378  34.171  27.676  1.00  0.00    -0.352 N 
ATOM     27  C   UNL A   1      33.013  35.004  28.582  1.00  0.00     0.251 C 
ATOM     28  H   UNL A   1      31.555  34.561  27.302  1.00  0.00     0.163 HD
ATOM     29  O   UNL A   1      32.506  36.096  28.802  1.00  0.00    -0.269 OA
BRANCH  27  30
ATOM     30  C   UNL A   1      34.241  34.616  29.340  1.00  0.00     0.039 A 
ATOM     31  C   UNL A   1      34.105  34.199  30.673  1.00  0.00     0.014 A 
ATOM     32  C   UNL A   1      35.521  34.667  28.796  1.00  0.00     0.014 A 
ATOM     33  C   UNL A   1      35.211  33.716  31.393  1.00  0.00     0.010 A 
ATOM     34  C   UNL A   1      36.598  34.081  29.464  1.00  0.00     0.010 A 
ATOM     35  C   UNL A   1      36.459  33.582  30.768  1.00  0.00    -0.014 A 
BRANCH  35  36
ATOM     36  C   UNL A   1      37.622  32.916  31.427  1.00  0.00     0.031 A 
ATOM     37  C   UNL A   1      38.287  31.725  30.785  1.00  0.00     0.074 A 
ATOM     38  C   UNL A   1      38.012  33.303  32.659  1.00  0.00     0.049 A 
ATOM     39  N   UNL A   1      39.195  30.913  31.271  1.00  0.00    -0.248 NA
ATOM     40  C   UNL A   1      37.843  31.376  29.427  1.00  0.00     0.031 C 
ATOM     41  C   UNL A   1      37.430  34.405  33.427  1.00  0.00     0.029 A 
ATOM     42  N   UNL A   1      38.980  32.797  33.497  1.00  0.00    -0.354 N 
ATOM     43  C   UNL A   1      39.404  29.947  30.295  1.00  0.00     0.074 A 
ATOM     44  C   UNL A   1      38.488  30.239  29.213  1.00  0.00     0.031 C 
ATOM     45  C   UNL A   1      38.063  34.507  34.606  1.00  0.00     0.029 A 
ATOM     46  C   UNL A   1      39.062  33.447  34.706  1.00  0.00     0.049 A 
ATOM     47  H   UNL A   1      39.560  32.039  33.253  1.00  0.00     0.167 HD
ATOM     48  C   UNL A   1      40.294  28.924  30.285  1.00  0.00     0.037 A 
ATOM     49  C   UNL A   1      39.838  33.210  35.781  1.00  0.00     0.037 A 
ATOM     50  C   UNL A   1      41.231  28.652  31.345  1.00  0.00     0.049 A 
ATOM     51  C   UNL A   1      40.812  32.062  35.752  1.00  0.00     0.074 A 
ATOM     52  C   UNL A   1      42.216  27.681  31.398  1.00  0.00     0.029 A 
ATOM     53  N   UNL A   1      41.297  29.353  32.540  1.00  0.00    -0.354 N 
ATOM     54  N   UNL A   1      41.043  31.195  34.796  1.00  0.00    -0.248 NA
ATOM     55  C   UNL A   1      41.634  31.860  36.954  1.00  0.00     0.031 C 
ATOM     56  C   UNL A   1      42.845  27.762  32.644  1.00  0.00     0.029 A 
ATOM     57  C   UNL A   1      42.292  28.821  33.346  1.00  0.00     0.049 A 
ATOM     58  H   UNL A   1      40.723  30.116  32.780  1.00  0.00     0.167 HD
ATOM     59  C   UNL A   1      42.054  30.368  35.267  1.00  0.00     0.074 A 
ATOM     60  C   UNL A   1      42.403  30.844  36.589  1.00  0.00     0.031 C 
ATOM     61  C   UNL A   1      42.640  29.309  34.656  1.00  0.00     0.037 A 
BRANCH  48  62
ATOM     62  C   UNL A   1      40.302  28.022  29.082  1.00  0.00     0.064 A 
ATOM     63  C   UNL A   1      41.044  28.333  27.931  1.00  0.00     0.173 A 
ATOM     64  C   UNL A   1      39.582  26.817  29.087  1.00  0.00     0.173 A 
ATOM     65  F   UNL A   1      41.745  29.476  27.869  1.00  0.00    -0.203 F 
ATOM     66  C   UNL A   1      41.031  27.497  26.819  1.00  0.00     0.198 A 
ATOM     67  C   UNL A   1      39.599  25.964  27.985  1.00  0.00     0.198 A 
ATOM     68  F   UNL A   1      38.863  26.462  30.163  1.00  0.00    -0.203 F 
ATOM     69  F   UNL A   1      41.697  27.848  25.710  1.00  0.00    -0.200 F 
ATOM     70  C   UNL A   1      40.313  26.310  26.849  1.00  0.00     0.200 A 
ATOM     71  F   UNL A   1      38.919  24.811  28.022  1.00  0.00    -0.200 F 
ATOM     72  F   UNL A   1      40.305  25.504  25.778  1.00  0.00    -0.200 F 
ENDBRANCH  48  62
BRANCH  49  73
ATOM     73  C   UNL A   1      39.749  34.095  36.974  1.00  0.00     0.064 A 
ATOM     74  C   UNL A   1      38.950  33.738  38.070  1.00  0.00     0.173 A 
ATOM     75  C   UNL A   1      40.444  35.311  37.045  1.00  0.00     0.173 A 
ATOM     76  F   UNL A   1      38.244  32.598  38.041  1.00  0.00    -0.203 F 
ATOM     77  C   UNL A   1      38.837  34.571  39.182  1.00  0.00     0.198 A 
ATOM     78  C   UNL A   1      40.353  36.128  38.169  1.00  0.00     0.198 A 
ATOM     79  F   UNL A   1      41.220  35.701  36.022  1.00  0.00    -0.203 F 
ATOM     80  F   UNL A   1      38.028  34.227  40.194  1.00  0.00    -0.200 F 
ATOM     81  C   UNL A   1      39.544  35.762  39.234  1.00  0.00     0.200 A 
ATOM     82  F   UNL A   1      41.046  37.275  38.220  1.00  0.00    -0.200 F 
ATOM     83  F   UNL A   1      39.436  36.561  40.304  1.00  0.00    -0.200 F 
ENDBRANCH  49  73
BRANCH  61  84
ATOM     84  C   UNL A   1      43.751  28.613  35.390  1.00  0.00     0.064 A 
ATOM     85  C   UNL A   1      45.094  28.975  35.211  1.00  0.00     0.173 A 
ATOM     86  C   UNL A   1      43.462  27.604  36.321  1.00  0.00     0.173 A 
ATOM     87  F   UNL A   1      45.426  29.923  34.322  1.00  0.00    -0.203 F 
ATOM     88  C   UNL A   1      46.108  28.335  35.921  1.00  0.00     0.198 A 
ATOM     89  C   UNL A   1      44.474  26.989  37.052  1.00  0.00     0.198 A 
ATOM     90  F   UNL A   1      42.192  27.225  36.535  1.00  0.00    -0.203 F 
ATOM     91  F   UNL A   1      47.387  28.666  35.701  1.00  0.00    -0.200 F 
ATOM     92  C   UNL A   1      45.797  27.351  36.847  1.00  0.00     0.200 A 
ATOM     93  F   UNL A   1      44.170  26.049  37.957  1.00  0.00    -0.200 F 
ATOM     94  F   UNL A   1      46.773  26.746  37.537  1.00  0.00    -0.200 F 
ENDBRANCH  61  84
ENDBRANCH  35  36
ENDBRANCH  27  30
ENDBRANCH  25  26
ENDBRANCH  24  25
ENDBRANCH  23  24
ENDBRANCH   3  23
TORSDOF 15
ENDMDL
MODEL 3
REMARK VINA RESULT:     -12.2      1.436      7.580
REMARK SMILES CN(CCS(C)(=O)=O)C(=O)Nc1cccc(C(=O)NCCCNC(=O)c2ccc(-c3c4nc(c(-c5c(F)c(F)c(F)c(F)c5F)c5ccc([nH]5)c(-c5c(F)c(F)c(F)c(F)c5F)c5nc(c(-c6c(F)c(F)c(F)c(F)c6F)c6ccc3[nH]6)C=C5)C=C4)cc2)c1
REMARK SMILES IDX 17 1 18 2 19 3 16 5 12 6 13 7 89 8 14 9 15 10 11 11 9 12
REMARK SMILES IDX 10 13 2 15 1 16 3 17 4 18 5 19 6 20 7 21 8 22 20 23 21 24
REMARK SMILES IDX 22 25 23 26 24 27 25 29 26 30 27 31 88 32 28 33 87 34 29 35
REMARK SMILES IDX 30 36 31 37 81 38 32 39 86 40 80 41 82 42 33 43 85 44 79 45
REMARK SMILES IDX 78 46 34 48 66 49 46 50 65 51 47 52 50 53 64 54 83 55 48 56
REMARK SMILES IDX 49 57 63 59 84 60 51 61 35 62 36 63 44 64 37 65 38 66 42 67
REMARK SMILES IDX 45 68 39 69 40 70 43 71 41 72 67 73 68 74 76 75 69 76 70 77
REMARK SMILES IDX 74 78 77 79 71 80 72 81 75 82 73 83 52 84 53 85 61 86 54 87
REMARK SMILES IDX 55 88 59 89 62 90 56 91 57 92 60 93 58 94
REMARK H PARENT 19 4 11 14 23 28 82 47 50 58
REMARK Flexibility Score: inf
ROOT
ATOM      1  C   UNL A   1      32.421  28.917  24.932  1.00  0.00     0.251 C 
ATOM      2  O   UNL A   1      33.593  28.569  24.784  1.00  0.00    -0.269 OA
ATOM      3  N   UNL A   1      32.192  30.253  25.208  1.00  0.00    -0.352 N 
ATOM      4  H   UNL A   1      33.005  30.807  25.229  1.00  0.00     0.163 HD
ENDROOT
BRANCH   1   5
ATOM      5  C   UNL A   1      31.349  27.863  24.845  1.00  0.00     0.041 A 
ATOM      6  C   UNL A   1      30.176  25.848  25.654  1.00  0.00     0.043 A 
ATOM      7  C   UNL A   1      29.336  25.959  24.527  1.00  0.00     0.026 A 
ATOM      8  C   UNL A   1      31.123  26.870  25.822  1.00  0.00     0.040 A 
ATOM      9  C   UNL A   1      29.467  26.992  23.598  1.00  0.00     0.003 A 
ATOM     10  C   UNL A   1      30.486  27.927  23.746  1.00  0.00     0.014 A 
BRANCH   6  11
ATOM     11  N   UNL A   1      29.925  24.679  26.415  1.00  0.00    -0.308 N 
ATOM     12  C   UNL A   1      30.320  23.462  26.832  1.00  0.00     0.321 C 
ATOM     13  O   UNL A   1      29.487  22.936  27.585  1.00  0.00    -0.248 OA
ATOM     14  H   UNL A   1      29.050  24.828  26.839  1.00  0.00     0.171 HD
BRANCH  12  15
ATOM     15  N   UNL A   1      31.434  22.777  26.477  1.00  0.00    -0.327 N 
ATOM     16  C   UNL A   1      32.687  23.073  27.180  1.00  0.00     0.148 C 
BRANCH  15  17
ATOM     17  C   UNL A   1      31.589  21.825  25.424  1.00  0.00     0.137 C 
BRANCH  17  18
ATOM     18  C   UNL A   1      32.688  20.797  25.532  1.00  0.00     0.158 C 
BRANCH  18  19
ATOM     19  S   UNL A   1      32.746  19.265  24.630  1.00  0.00     0.149 S 
ATOM     20  C   UNL A   1      34.373  18.587  24.425  1.00  0.00     0.158 C 
ATOM     21  O   UNL A   1      32.054  18.300  25.480  1.00  0.00    -0.229 OA
ATOM     22  O   UNL A   1      32.236  19.532  23.306  1.00  0.00    -0.229 OA
ENDBRANCH  18  19
ENDBRANCH  17  18
ENDBRANCH  15  17
ENDBRANCH  12  15
ENDBRANCH   6  11
ENDBRANCH   1   5
BRANCH   3  23
ATOM     23  C   UNL A   1      30.968  30.983  25.470  1.00  0.00     0.118 C 
BRANCH  23  24
ATOM     24  C   UNL A   1      31.126  32.333  26.173  1.00  0.00     0.042 C 
BRANCH  24  25
ATOM     25  C   UNL A   1      32.143  32.455  27.310  1.00  0.00     0.118 C 
BRANCH  25  26
ATOM     26  N   UNL A   1      32.723  33.782  27.512  1.00  0.00    -0.352 N 
ATOM     27  C   UNL A   1      33.957  34.230  27.954  1.00  0.00     0.251 C 
ATOM     28  H   UNL A   1      32.104  34.514  27.285  1.00  0.00     0.163 HD
ATOM     29  O   UNL A   1      34.139  35.440  28.002  1.00  0.00    -0.269 OA
BRANCH  27  30
ATOM     30  C   UNL A   1      35.044  33.320  28.427  1.00  0.00     0.039 A 
ATOM     31  C   UNL A   1      36.360  33.807  28.462  1.00  0.00     0.014 A 
ATOM     32  C   UNL A   1      34.821  32.003  28.815  1.00  0.00     0.014 A 
ATOM     33  C   UNL A   1      37.400  33.032  29.004  1.00  0.00     0.010 A 
ATOM     34  C   UNL A   1      35.824  31.276  29.460  1.00  0.00     0.010 A 
ATOM     35  C   UNL A   1      37.126  31.784  29.579  1.00  0.00    -0.014 A 
BRANCH  35  36
ATOM     36  C   UNL A   1      38.155  30.996  30.322  1.00  0.00     0.031 A 
ATOM     37  C   UNL A   1      38.423  31.270  31.781  1.00  0.00     0.074 A 
ATOM     38  C   UNL A   1      38.936  30.114  29.664  1.00  0.00     0.049 A 
ATOM     39  N   UNL A   1      39.381  30.814  32.553  1.00  0.00    -0.248 NA
ATOM     40  C   UNL A   1      37.516  32.213  32.451  1.00  0.00     0.031 C 
ATOM     41  C   UNL A   1      38.828  29.782  28.242  1.00  0.00     0.029 A 
ATOM     42  N   UNL A   1      39.993  29.348  30.099  1.00  0.00    -0.354 N 
ATOM     43  C   UNL A   1      39.206  31.437  33.782  1.00  0.00     0.074 A 
ATOM     44  C   UNL A   1      38.089  32.346  33.637  1.00  0.00     0.031 C 
ATOM     45  C   UNL A   1      39.760  28.868  27.928  1.00  0.00     0.029 A 
ATOM     46  C   UNL A   1      40.568  28.584  29.110  1.00  0.00     0.049 A 
ATOM     47  H   UNL A   1      40.308  29.346  31.032  1.00  0.00     0.167 HD
ATOM     48  C   UNL A   1      39.895  31.254  34.936  1.00  0.00     0.037 A 
ATOM     49  C   UNL A   1      41.634  27.761  29.143  1.00  0.00     0.037 A 
ATOM     50  C   UNL A   1      40.985  30.325  35.093  1.00  0.00     0.049 A 
ATOM     51  C   UNL A   1      42.390  27.581  30.432  1.00  0.00     0.074 A 
ATOM     52  C   UNL A   1      41.701  30.020  36.237  1.00  0.00     0.029 A 
ATOM     53  N   UNL A   1      41.517  29.553  34.071  1.00  0.00    -0.354 N 
ATOM     54  N   UNL A   1      42.175  28.130  31.603  1.00  0.00    -0.248 NA
ATOM     55  C   UNL A   1      43.540  26.665  30.403  1.00  0.00     0.031 C 
ATOM     56  C   UNL A   1      42.698  29.100  35.899  1.00  0.00     0.029 A 
ATOM     57  C   UNL A   1      42.567  28.788  34.555  1.00  0.00     0.049 A 
ATOM     58  H   UNL A   1      41.196  29.547  33.141  1.00  0.00     0.167 HD
ATOM     59  C   UNL A   1      43.138  27.604  32.454  1.00  0.00     0.074 A 
ATOM     60  C   UNL A   1      43.932  26.682  31.670  1.00  0.00     0.031 C 
ATOM     61  C   UNL A   1      43.344  27.864  33.769  1.00  0.00     0.037 A 
BRANCH  48  62
ATOM     62  C   UNL A   1      39.485  32.074  36.128  1.00  0.00     0.064 A 
ATOM     63  C   UNL A   1      40.098  33.302  36.426  1.00  0.00     0.173 A 
ATOM     64  C   UNL A   1      38.447  31.642  36.969  1.00  0.00     0.173 A 
ATOM     65  F   UNL A   1      41.100  33.758  35.660  1.00  0.00    -0.203 F 
ATOM     66  C   UNL A   1      39.718  34.043  37.541  1.00  0.00     0.198 A 
ATOM     67  C   UNL A   1      38.045  32.405  38.064  1.00  0.00     0.198 A 
ATOM     68  F   UNL A   1      37.817  30.483  36.728  1.00  0.00    -0.203 F 
ATOM     69  F   UNL A   1      40.363  35.180  37.838  1.00  0.00    -0.200 F 
ATOM     70  C   UNL A   1      38.688  33.597  38.355  1.00  0.00     0.200 A 
ATOM     71  F   UNL A   1      37.038  31.981  38.841  1.00  0.00    -0.200 F 
ATOM     72  F   UNL A   1      38.321  34.315  39.427  1.00  0.00    -0.200 F 
ENDBRANCH  48  62
BRANCH  49  73
ATOM     73  C   UNL A   1      42.040  27.019  27.918  1.00  0.00     0.064 A 
ATOM     74  C   UNL A   1      41.604  25.704  27.703  1.00  0.00     0.173 A 
ATOM     75  C   UNL A   1      42.870  27.596  26.948  1.00  0.00     0.173 A 
ATOM     76  F   UNL A   1      40.830  25.097  28.614  1.00  0.00    -0.203 F 
ATOM     77  C   UNL A   1      41.999  24.989  26.573  1.00  0.00     0.198 A 
ATOM     78  C   UNL A   1      43.240  26.892  25.804  1.00  0.00     0.198 A 
ATOM     79  F   UNL A   1      43.317  28.851  27.106  1.00  0.00    -0.203 F 
ATOM     80  F   UNL A   1      41.607  23.717  26.417  1.00  0.00    -0.200 F 
ATOM     81  C   UNL A   1      42.810  25.586  25.620  1.00  0.00     0.200 A 
ATOM     82  F   UNL A   1      44.017  27.475  24.880  1.00  0.00    -0.200 F 
ATOM     83  F   UNL A   1      43.187  24.899  24.534  1.00  0.00    -0.200 F 
ENDBRANCH  49  73
BRANCH  61  84
ATOM     84  C   UNL A   1      44.446  27.111  34.459  1.00  0.00     0.064 A 
ATOM     85  C   UNL A   1      44.229  25.854  35.043  1.00  0.00     0.173 A 
ATOM     86  C   UNL A   1      45.748  27.634  34.493  1.00  0.00     0.173 A 
ATOM     87  F   UNL A   1      43.000  25.316  35.050  1.00  0.00    -0.203 F 
ATOM     88  C   UNL A   1      45.270  25.160  35.655  1.00  0.00     0.198 A 
ATOM     89  C   UNL A   1      46.793  26.924  35.078  1.00  0.00     0.198 A 
ATOM     90  F   UNL A   1      46.011  28.831  33.944  1.00  0.00    -0.203 F 
ATOM     91  F   UNL A   1      45.031  23.982  36.245  1.00  0.00    -0.200 F 
ATOM     92  C   UNL A   1      46.552  25.691  35.664  1.00  0.00     0.200 A 
ATOM     93  F   UNL A   1      48.033  27.432  35.071  1.00  0.00    -0.200 F 
ATOM     94  F   UNL A   1      47.554  25.016  36.243  1.00  0.00    -0.200 F 
ENDBRANCH  61  84
ENDBRANCH  35  36
ENDBRANCH  27  30
ENDBRANCH  25  26
ENDBRANCH  24  25
ENDBRANCH  23  24
ENDBRANCH   3  23
TORSDOF 15
ENDMDL
