MODEL 1
REMARK VINA RESULT:     -12.4      0.000      0.000
REMARK SMILES C/C(=N\[NH+]=C1/NC(=O)[C@@H](CC(=O)NCCCNC(=O)c2ccc(-c3c4nc(c(-c5c(F)c(F)c(F)c(F)c5F)c5ccc([nH]5)c(-c5c(F)c(F)c(F)c(F)c5F)c5nc(c(-c6c(F)c(F)c(F)c(F)c6F)c6ccc3[nH]6)C=C5)C=C4)cc2)S1)c1ccc(Br)cc1
REMARK SMILES IDX 14 1 13 2 11 3 12 4 10 6 9 7 4 8 5 9 6 11 83 12 7 13 8 15
REMARK SMILES IDX 3 16 1 17 2 18 84 19 85 20 90 21 86 22 89 23 87 24 88 25
REMARK SMILES IDX 15 26 16 27 17 28 18 29 19 31 20 32 21 33 82 34 22 35 81 36
REMARK SMILES IDX 23 37 24 38 25 39 75 40 26 41 80 42 74 43 76 44 27 45 79 46
REMARK SMILES IDX 73 47 72 48 28 50 60 51 40 52 59 53 41 54 44 55 58 56 77 57
REMARK SMILES IDX 42 58 43 59 57 61 78 62 45 63 29 64 30 65 38 66 31 67 32 68
REMARK SMILES IDX 36 69 39 70 33 71 34 72 37 73 35 74 61 75 62 76 70 77 63 78
REMARK SMILES IDX 64 79 68 80 71 81 65 82 66 83 69 84 67 85 46 86 47 87 55 88
REMARK SMILES IDX 48 89 49 90 53 91 56 92 50 93 51 94 54 95 52 96
REMARK H PARENT 13 5 4 10 6 14 17 30 76 49 44 60
REMARK Flexibility Score: inf
ROOT
ATOM      1  C   UNL A   1      33.787  26.697  24.233  1.00  0.00     0.117 C 
ENDROOT
BRANCH   1   2
ATOM      2  N   UNL A   1      34.279  25.686  25.163  1.00  0.00    -0.356 N 
ATOM      3  C   UNL A   1      34.839  24.460  24.970  1.00  0.00     0.221 C 
ATOM      4  O   UNL A   1      35.207  23.842  25.969  1.00  0.00    -0.275 OA
ATOM      5  H   UNL A   1      34.191  25.939  26.111  1.00  0.00     0.163 HD
BRANCH   3   6
ATOM      6  C   UNL A   1      34.988  23.854  23.586  1.00  0.00     0.127 C 
BRANCH   6   7
ATOM      7  C   UNL A   1      33.799  23.022  23.106  1.00  0.00     0.183 C 
ATOM      8  N   UNL A   1      30.296  24.285  24.064  1.00  0.00    -0.142 N 
ATOM      9  C   UNL A   1      31.447  23.943  23.601  1.00  0.00     0.337 C 
ATOM     10  H   UNL A   1      29.838  23.757  24.756  1.00  0.00     0.343 HD
ATOM     11  N   UNL A   1      31.992  24.397  22.451  1.00  0.00    -0.202 N 
ATOM     12  S   UNL A   1      32.472  22.747  24.340  1.00  0.00    -0.020 SA
ATOM     13  C   UNL A   1      33.085  23.734  21.992  1.00  0.00     0.322 C 
ATOM     14  H   UNL A   1      31.617  25.171  21.971  1.00  0.00     0.316 HD
ATOM     15  O   UNL A   1      33.447  23.725  20.819  1.00  0.00    -0.246 OA
BRANCH   8  16
ATOM     16  N   UNL A   1      29.732  25.445  23.530  1.00  0.00    -0.090 NA
ATOM     17  C   UNL A   1      30.414  26.790  25.514  1.00  0.00     0.071 C 
ATOM     18  C   UNL A   1      29.890  26.599  24.108  1.00  0.00     0.088 C 
BRANCH  18  19
ATOM     19  C   UNL A   1      29.424  27.810  23.339  1.00  0.00    -0.000 A 
ATOM     20  C   UNL A   1      30.384  28.581  22.659  1.00  0.00     0.011 A 
ATOM     21  C   UNL A   1      28.084  28.211  23.297  1.00  0.00     0.011 A 
ATOM     22  C   UNL A   1      30.017  29.730  21.954  1.00  0.00     0.016 A 
ATOM     23  C   UNL A   1      27.715  29.367  22.592  1.00  0.00     0.016 A 
ATOM     24  C   UNL A   1      28.681  30.117  21.923  1.00  0.00     0.018 A 
ATOM     25  Br  UNL A   1      28.176  31.667  20.967  1.00  0.00    -0.051 Br
ENDBRANCH  18  19
ENDBRANCH   8  16
ENDBRANCH   6   7
ENDBRANCH   3   6
ENDBRANCH   1   2
BRANCH   1  26
ATOM     26  C   UNL A   1      33.908  28.118  24.789  1.00  0.00     0.042 C 
BRANCH  26  27
ATOM     27  C   UNL A   1      33.986  28.219  26.307  1.00  0.00     0.118 C 
BRANCH  27  28
ATOM     28  N   UNL A   1      33.724  29.562  26.788  1.00  0.00    -0.352 N 
ATOM     29  C   UNL A   1      34.444  30.353  27.652  1.00  0.00     0.251 C 
ATOM     30  H   UNL A   1      32.900  29.972  26.441  1.00  0.00     0.163 HD
ATOM     31  O   UNL A   1      33.932  31.383  28.082  1.00  0.00    -0.269 OA
BRANCH  29  32
ATOM     32  C   UNL A   1      35.813  29.985  28.094  1.00  0.00     0.039 A 
ATOM     33  C   UNL A   1      36.872  30.168  27.197  1.00  0.00     0.014 A 
ATOM     34  C   UNL A   1      36.066  29.395  29.336  1.00  0.00     0.014 A 
ATOM     35  C   UNL A   1      38.174  29.807  27.558  1.00  0.00     0.010 A 
ATOM     36  C   UNL A   1      37.375  29.111  29.729  1.00  0.00     0.010 A 
ATOM     37  C   UNL A   1      38.443  29.297  28.838  1.00  0.00    -0.014 A 
BRANCH  37  38
ATOM     38  C   UNL A   1      39.825  28.921  29.241  1.00  0.00     0.031 A 
ATOM     39  C   UNL A   1      40.611  29.805  30.174  1.00  0.00     0.074 A 
ATOM     40  C   UNL A   1      40.392  27.804  28.748  1.00  0.00     0.049 A 
ATOM     41  N   UNL A   1      41.840  29.668  30.607  1.00  0.00    -0.248 NA
ATOM     42  C   UNL A   1      39.932  31.011  30.668  1.00  0.00     0.031 C 
ATOM     43  C   UNL A   1      39.753  26.870  27.821  1.00  0.00     0.029 A 
ATOM     44  N   UNL A   1      41.636  27.262  28.961  1.00  0.00    -0.354 N 
ATOM     45  C   UNL A   1      42.084  30.776  31.408  1.00  0.00     0.074 A 
ATOM     46  C   UNL A   1      40.895  31.601  31.358  1.00  0.00     0.031 C 
ATOM     47  C   UNL A   1      40.593  25.853  27.574  1.00  0.00     0.029 A 
ATOM     48  C   UNL A   1      41.844  26.080  28.293  1.00  0.00     0.049 A 
ATOM     49  H   UNL A   1      42.315  27.682  29.539  1.00  0.00     0.167 HD
ATOM     50  C   UNL A   1      43.184  31.069  32.142  1.00  0.00     0.037 A 
ATOM     51  C   UNL A   1      42.920  25.272  28.264  1.00  0.00     0.037 A 
ATOM     52  C   UNL A   1      44.357  30.239  32.221  1.00  0.00     0.049 A 
ATOM     53  C   UNL A   1      44.143  25.634  29.061  1.00  0.00     0.074 A 
ATOM     54  C   UNL A   1      45.500  30.424  32.978  1.00  0.00     0.029 A 
ATOM     55  N   UNL A   1      44.536  29.060  31.512  1.00  0.00    -0.354 N 
ATOM     56  N   UNL A   1      44.341  26.659  29.853  1.00  0.00    -0.248 NA
ATOM     57  C   UNL A   1      45.293  24.724  28.957  1.00  0.00     0.031 C 
ATOM     58  C   UNL A   1      46.388  29.380  32.698  1.00  0.00     0.029 A 
ATOM     59  C   UNL A   1      45.780  28.520  31.796  1.00  0.00     0.049 A 
ATOM     60  H   UNL A   1      43.876  28.665  30.897  1.00  0.00     0.167 HD
ATOM     61  C   UNL A   1      45.622  26.502  30.366  1.00  0.00     0.074 A 
ATOM     62  C   UNL A   1      46.153  25.280  29.800  1.00  0.00     0.031 C 
ATOM     63  C   UNL A   1      46.295  27.300  31.231  1.00  0.00     0.037 A 
BRANCH  50  64
ATOM     64  C   UNL A   1      43.166  32.352  32.925  1.00  0.00     0.064 A 
ATOM     65  C   UNL A   1      42.637  32.412  34.223  1.00  0.00     0.173 A 
ATOM     66  C   UNL A   1      43.695  33.529  32.375  1.00  0.00     0.173 A 
ATOM     67  F   UNL A   1      42.109  31.316  34.789  1.00  0.00    -0.203 F 
ATOM     68  C   UNL A   1      42.602  33.614  34.927  1.00  0.00     0.198 A 
ATOM     69  C   UNL A   1      43.686  34.722  33.095  1.00  0.00     0.198 A 
ATOM     70  F   UNL A   1      44.223  33.523  31.142  1.00  0.00    -0.203 F 
ATOM     71  F   UNL A   1      42.038  33.659  36.142  1.00  0.00    -0.200 F 
ATOM     72  C   UNL A   1      43.130  34.766  34.364  1.00  0.00     0.200 A 
ATOM     73  F   UNL A   1      44.208  35.832  32.555  1.00  0.00    -0.200 F 
ATOM     74  F   UNL A   1      43.094  35.921  35.043  1.00  0.00    -0.200 F 
ENDBRANCH  50  64
BRANCH  51  75
ATOM     75  C   UNL A   1      42.878  24.013  27.475  1.00  0.00     0.064 A 
ATOM     76  C   UNL A   1      42.479  22.810  28.073  1.00  0.00     0.173 A 
ATOM     77  C   UNL A   1      43.228  23.985  26.118  1.00  0.00     0.173 A 
ATOM     78  F   UNL A   1      42.157  22.785  29.375  1.00  0.00    -0.203 F 
ATOM     79  C   UNL A   1      42.443  21.622  27.346  1.00  0.00     0.198 A 
ATOM     80  C   UNL A   1      43.168  22.802  25.386  1.00  0.00     0.198 A 
ATOM     81  F   UNL A   1      43.613  25.112  25.501  1.00  0.00    -0.203 F 
ATOM     82  F   UNL A   1      42.092  20.479  27.950  1.00  0.00    -0.200 F 
ATOM     83  C   UNL A   1      42.782  21.620  26.001  1.00  0.00     0.200 A 
ATOM     84  F   UNL A   1      43.485  22.806  24.084  1.00  0.00    -0.200 F 
ATOM     85  F   UNL A   1      42.741  20.480  25.299  1.00  0.00    -0.200 F 
ENDBRANCH  51  75
BRANCH  63  86
ATOM     86  C   UNL A   1      47.669  26.860  31.645  1.00  0.00     0.064 A 
ATOM     87  C   UNL A   1      48.818  27.330  30.994  1.00  0.00     0.173 A 
ATOM     88  C   UNL A   1      47.838  25.984  32.728  1.00  0.00     0.173 A 
ATOM     89  F   UNL A   1      48.708  28.155  29.942  1.00  0.00    -0.203 F 
ATOM     90  C   UNL A   1      50.087  26.922  31.399  1.00  0.00     0.198 A 
ATOM     91  C   UNL A   1      49.109  25.599  33.146  1.00  0.00     0.198 A 
ATOM     92  F   UNL A   1      46.770  25.509  33.386  1.00  0.00    -0.203 F 
ATOM     93  F   UNL A   1      51.170  27.351  30.735  1.00  0.00    -0.200 F 
ATOM     94  C   UNL A   1      50.231  26.063  32.478  1.00  0.00     0.200 A 
ATOM     95  F   UNL A   1      49.246  24.775  34.196  1.00  0.00    -0.200 F 
ATOM     96  F   UNL A   1      51.453  25.675  32.869  1.00  0.00    -0.200 F 
ENDBRANCH  63  86
ENDBRANCH  37  38
ENDBRANCH  29  32
ENDBRANCH  27  28
ENDBRANCH  26  27
ENDBRANCH   1  26
TORSDOF 13
ENDMDL
MODEL 2
REMARK VINA RESULT:     -12.3      0.137      2.009
REMARK SMILES C/C(=N\[NH+]=C1/NC(=O)[C@@H](CC(=O)NCCCNC(=O)c2ccc(-c3c4nc(c(-c5c(F)c(F)c(F)c(F)c5F)c5ccc([nH]5)c(-c5c(F)c(F)c(F)c(F)c5F)c5nc(c(-c6c(F)c(F)c(F)c(F)c6F)c6ccc3[nH]6)C=C5)C=C4)cc2)S1)c1ccc(Br)cc1
REMARK SMILES IDX 14 1 13 2 11 3 12 4 10 6 9 7 4 8 5 9 6 11 83 12 7 13 8 15
REMARK SMILES IDX 3 16 1 17 2 18 84 19 85 20 90 21 86 22 89 23 87 24 88 25
REMARK SMILES IDX 15 26 16 27 17 28 18 29 19 31 20 32 21 33 82 34 22 35 81 36
REMARK SMILES IDX 23 37 24 38 25 39 75 40 26 41 80 42 74 43 76 44 27 45 79 46
REMARK SMILES IDX 73 47 72 48 28 50 60 51 40 52 59 53 41 54 44 55 58 56 77 57
REMARK SMILES IDX 42 58 43 59 57 61 78 62 45 63 29 64 30 65 38 66 31 67 32 68
REMARK SMILES IDX 36 69 39 70 33 71 34 72 37 73 35 74 61 75 62 76 70 77 63 78
REMARK SMILES IDX 64 79 68 80 71 81 65 82 66 83 69 84 67 85 46 86 47 87 55 88
REMARK SMILES IDX 48 89 49 90 53 91 56 92 50 93 51 94 54 95 52 96
REMARK H PARENT 13 5 4 10 6 14 17 30 76 49 44 60
REMARK Flexibility Score: inf
ROOT
ATOM      1  C   UNL A   1      33.996  26.652  24.209  1.00  0.00     0.117 C 
ENDROOT
BRANCH   1   2
ATOM      2  N   UNL A   1      34.282  25.626  25.207  1.00  0.00    -0.356 N 
ATOM      3  C   UNL A   1      34.720  24.342  25.098  1.00  0.00     0.221 C 
ATOM      4  O   UNL A   1      34.920  23.722  26.143  1.00  0.00    -0.275 OA
ATOM      5  H   UNL A   1      34.131  25.919  26.135  1.00  0.00     0.163 HD
BRANCH   3   6
ATOM      6  C   UNL A   1      34.934  23.677  23.750  1.00  0.00     0.127 C 
BRANCH   6   7
ATOM      7  C   UNL A   1      33.735  22.898  23.208  1.00  0.00     0.183 C 
ATOM      8  N   UNL A   1      30.246  24.284  24.040  1.00  0.00    -0.142 N 
ATOM      9  C   UNL A   1      31.402  23.903  23.620  1.00  0.00     0.337 C 
ATOM     10  H   UNL A   1      29.739  23.764  24.705  1.00  0.00     0.343 HD
ATOM     11  N   UNL A   1      32.011  24.353  22.501  1.00  0.00    -0.202 N 
ATOM     12  S   UNL A   1      32.348  22.658  24.382  1.00  0.00    -0.020 SA
ATOM     13  C   UNL A   1      33.096  23.654  22.077  1.00  0.00     0.322 C 
ATOM     14  H   UNL A   1      31.686  25.147  22.018  1.00  0.00     0.316 HD
ATOM     15  O   UNL A   1      33.507  23.647  20.920  1.00  0.00    -0.246 OA
BRANCH   8  16
ATOM     16  N   UNL A   1      29.750  25.472  23.503  1.00  0.00    -0.090 NA
ATOM     17  C   UNL A   1      30.357  26.752  25.552  1.00  0.00     0.071 C 
ATOM     18  C   UNL A   1      29.909  26.608  24.115  1.00  0.00     0.088 C 
BRANCH  18  19
ATOM     19  C   UNL A   1      29.526  27.849  23.348  1.00  0.00    -0.000 A 
ATOM     20  C   UNL A   1      28.168  28.210  23.297  1.00  0.00     0.011 A 
ATOM     21  C   UNL A   1      30.460  28.637  22.665  1.00  0.00     0.011 A 
ATOM     22  C   UNL A   1      27.748  29.333  22.579  1.00  0.00     0.016 A 
ATOM     23  C   UNL A   1      30.039  29.762  21.941  1.00  0.00     0.016 A 
ATOM     24  C   UNL A   1      28.688  30.105  21.904  1.00  0.00     0.018 A 
ATOM     25  Br  UNL A   1      28.129  31.628  20.935  1.00  0.00    -0.051 Br
ENDBRANCH  18  19
ENDBRANCH   8  16
ENDBRANCH   6   7
ENDBRANCH   3   6
ENDBRANCH   1   2
BRANCH   1  26
ATOM     26  C   UNL A   1      33.608  27.993  24.837  1.00  0.00     0.042 C 
BRANCH  26  27
ATOM     27  C   UNL A   1      34.008  28.169  26.296  1.00  0.00     0.118 C 
BRANCH  27  28
ATOM     28  N   UNL A   1      33.737  29.505  26.790  1.00  0.00    -0.352 N 
ATOM     29  C   UNL A   1      34.455  30.297  27.655  1.00  0.00     0.251 C 
ATOM     30  H   UNL A   1      32.907  29.911  26.451  1.00  0.00     0.163 HD
ATOM     31  O   UNL A   1      33.935  31.319  28.096  1.00  0.00    -0.269 OA
BRANCH  29  32
ATOM     32  C   UNL A   1      35.830  29.939  28.086  1.00  0.00     0.039 A 
ATOM     33  C   UNL A   1      36.879  30.123  27.177  1.00  0.00     0.014 A 
ATOM     34  C   UNL A   1      36.098  29.358  29.328  1.00  0.00     0.014 A 
ATOM     35  C   UNL A   1      38.187  29.771  27.527  1.00  0.00     0.010 A 
ATOM     36  C   UNL A   1      37.413  29.083  29.710  1.00  0.00     0.010 A 
ATOM     37  C   UNL A   1      38.471  29.270  28.807  1.00  0.00    -0.014 A 
BRANCH  37  38
ATOM     38  C   UNL A   1      39.858  28.904  29.200  1.00  0.00     0.031 A 
ATOM     39  C   UNL A   1      40.653  29.803  30.110  1.00  0.00     0.074 A 
ATOM     40  C   UNL A   1      40.423  27.780  28.716  1.00  0.00     0.049 A 
ATOM     41  N   UNL A   1      41.888  29.676  30.530  1.00  0.00    -0.248 NA
ATOM     42  C   UNL A   1      39.977  31.014  30.595  1.00  0.00     0.031 C 
ATOM     43  C   UNL A   1      39.775  26.831  27.811  1.00  0.00     0.029 A 
ATOM     44  N   UNL A   1      41.671  27.245  28.922  1.00  0.00    -0.354 N 
ATOM     45  C   UNL A   1      42.138  30.796  31.311  1.00  0.00     0.074 A 
ATOM     46  C   UNL A   1      40.946  31.617  31.264  1.00  0.00     0.031 C 
ATOM     47  C   UNL A   1      40.616  25.813  27.569  1.00  0.00     0.029 A 
ATOM     48  C   UNL A   1      41.874  26.055  28.268  1.00  0.00     0.049 A 
ATOM     49  H   UNL A   1      42.356  27.675  29.485  1.00  0.00     0.167 HD
ATOM     50  C   UNL A   1      43.246  31.103  32.028  1.00  0.00     0.037 A 
ATOM     51  C   UNL A   1      42.953  25.249  28.238  1.00  0.00     0.037 A 
ATOM     52  C   UNL A   1      44.422  30.278  32.105  1.00  0.00     0.049 A 
ATOM     53  C   UNL A   1      44.184  25.626  29.016  1.00  0.00     0.074 A 
ATOM     54  C   UNL A   1      45.574  30.477  32.845  1.00  0.00     0.029 A 
ATOM     55  N   UNL A   1      44.596  29.089  31.411  1.00  0.00    -0.354 N 
ATOM     56  N   UNL A   1      44.388  26.663  29.790  1.00  0.00    -0.248 NA
ATOM     57  C   UNL A   1      45.335  24.718  28.911  1.00  0.00     0.031 C 
ATOM     58  C   UNL A   1      46.462  29.431  32.569  1.00  0.00     0.029 A 
ATOM     59  C   UNL A   1      45.845  28.557  31.688  1.00  0.00     0.049 A 
ATOM     60  H   UNL A   1      43.930  28.683  30.810  1.00  0.00     0.167 HD
ATOM     61  C   UNL A   1      45.676  26.517  30.290  1.00  0.00     0.074 A 
ATOM     62  C   UNL A   1      46.204  25.288  29.735  1.00  0.00     0.031 C 
ATOM     63  C   UNL A   1      46.357  27.329  31.134  1.00  0.00     0.037 A 
BRANCH  50  64
ATOM     64  C   UNL A   1      43.234  32.397  32.792  1.00  0.00     0.064 A 
ATOM     65  C   UNL A   1      43.694  33.592  32.220  1.00  0.00     0.173 A 
ATOM     66  C   UNL A   1      42.744  32.443  34.106  1.00  0.00     0.173 A 
ATOM     67  F   UNL A   1      44.183  33.598  30.970  1.00  0.00    -0.203 F 
ATOM     68  C   UNL A   1      43.702  34.779  32.949  1.00  0.00     0.198 A 
ATOM     69  C   UNL A   1      42.725  33.638  34.821  1.00  0.00     0.198 A 
ATOM     70  F   UNL A   1      42.283  31.330  34.696  1.00  0.00    -0.203 F 
ATOM     71  F   UNL A   1      44.201  35.896  32.401  1.00  0.00    -0.200 F 
ATOM     72  C   UNL A   1      43.214  34.802  34.247  1.00  0.00     0.200 A 
ATOM     73  F   UNL A   1      42.242  33.662  36.071  1.00  0.00    -0.200 F 
ATOM     74  F   UNL A   1      43.223  35.945  34.947  1.00  0.00    -0.200 F 
ENDBRANCH  50  64
BRANCH  51  75
ATOM     75  C   UNL A   1      42.904  23.979  27.469  1.00  0.00     0.064 A 
ATOM     76  C   UNL A   1      43.248  23.953  26.111  1.00  0.00     0.173 A 
ATOM     77  C   UNL A   1      42.520  22.771  28.069  1.00  0.00     0.173 A 
ATOM     78  F   UNL A   1      43.600  25.089  25.488  1.00  0.00    -0.203 F 
ATOM     79  C   UNL A   1      43.199  22.770  25.377  1.00  0.00     0.198 A 
ATOM     80  C   UNL A   1      42.494  21.584  27.341  1.00  0.00     0.198 A 
ATOM     81  F   UNL A   1      42.185  22.744  29.368  1.00  0.00    -0.203 F 
ATOM     82  F   UNL A   1      43.498  22.780  24.071  1.00  0.00    -0.200 F 
ATOM     83  C   UNL A   1      42.827  21.585  25.995  1.00  0.00     0.200 A 
ATOM     84  F   UNL A   1      42.147  20.439  27.944  1.00  0.00    -0.200 F 
ATOM     85  F   UNL A   1      42.786  20.445  25.291  1.00  0.00    -0.200 F 
ENDBRANCH  51  75
BRANCH  63  86
ATOM     86  C   UNL A   1      47.737  26.899  31.538  1.00  0.00     0.064 A 
ATOM     87  C   UNL A   1      47.945  25.985  32.581  1.00  0.00     0.173 A 
ATOM     88  C   UNL A   1      48.860  27.381  30.851  1.00  0.00     0.173 A 
ATOM     89  F   UNL A   1      46.904  25.508  33.280  1.00  0.00    -0.203 F 
ATOM     90  C   UNL A   1      49.232  25.585  32.935  1.00  0.00     0.198 A 
ATOM     91  C   UNL A   1      50.143  26.960  31.191  1.00  0.00     0.198 A 
ATOM     92  F   UNL A   1      48.714  28.255  29.844  1.00  0.00    -0.203 F 
ATOM     93  F   UNL A   1      49.411  24.744  33.962  1.00  0.00    -0.200 F 
ATOM     94  C   UNL A   1      50.328  26.068  32.236  1.00  0.00     0.200 A 
ATOM     95  F   UNL A   1      51.201  27.421  30.508  1.00  0.00    -0.200 F 
ATOM     96  F   UNL A   1      51.565  25.679  32.575  1.00  0.00    -0.200 F 
ENDBRANCH  63  86
ENDBRANCH  37  38
ENDBRANCH  29  32
ENDBRANCH  27  28
ENDBRANCH  26  27
ENDBRANCH   1  26
TORSDOF 13
ENDMDL
MODEL 3
REMARK VINA RESULT:     -12.1      3.561      5.404
REMARK SMILES C/C(=N\[NH+]=C1/NC(=O)[C@@H](CC(=O)NCCCNC(=O)c2ccc(-c3c4nc(c(-c5c(F)c(F)c(F)c(F)c5F)c5ccc([nH]5)c(-c5c(F)c(F)c(F)c(F)c5F)c5nc(c(-c6c(F)c(F)c(F)c(F)c6F)c6ccc3[nH]6)C=C5)C=C4)cc2)S1)c1ccc(Br)cc1
REMARK SMILES IDX 14 1 13 2 11 3 12 4 10 6 9 7 4 8 5 9 6 11 83 12 7 13 8 15
REMARK SMILES IDX 3 16 1 17 2 18 84 19 85 20 90 21 86 22 89 23 87 24 88 25
REMARK SMILES IDX 15 26 16 27 17 28 18 29 19 31 20 32 21 33 82 34 22 35 81 36
REMARK SMILES IDX 23 37 24 38 25 39 75 40 26 41 80 42 74 43 76 44 27 45 79 46
REMARK SMILES IDX 73 47 72 48 28 50 60 51 40 52 59 53 41 54 44 55 58 56 77 57
REMARK SMILES IDX 42 58 43 59 57 61 78 62 45 63 29 64 30 65 38 66 31 67 32 68
REMARK SMILES IDX 36 69 39 70 33 71 34 72 37 73 35 74 61 75 62 76 70 77 63 78
REMARK SMILES IDX 64 79 68 80 71 81 65 82 66 83 69 84 67 85 46 86 47 87 55 88
REMARK SMILES IDX 48 89 49 90 53 91 56 92 50 93 51 94 54 95 52 96
REMARK H PARENT 13 5 4 10 6 14 17 30 76 49 44 60
REMARK Flexibility Score: inf
ROOT
ATOM      1  C   UNL A   1      31.393  29.957  25.421  1.00  0.00     0.117 C 
ENDROOT
BRANCH   1   2
ATOM      2  N   UNL A   1      30.854  29.886  24.066  1.00  0.00    -0.356 N 
ATOM      3  C   UNL A   1      30.794  28.873  23.158  1.00  0.00     0.221 C 
ATOM      4  O   UNL A   1      30.223  29.103  22.092  1.00  0.00    -0.275 OA
ATOM      5  H   UNL A   1      30.456  30.729  23.750  1.00  0.00     0.163 HD
BRANCH   3   6
ATOM      6  C   UNL A   1      31.424  27.518  23.423  1.00  0.00     0.127 C 
BRANCH   6   7
ATOM      7  C   UNL A   1      32.951  27.510  23.500  1.00  0.00     0.183 C 
ATOM      8  N   UNL A   1      34.562  24.839  25.748  1.00  0.00    -0.142 N 
ATOM      9  C   UNL A   1      34.046  25.628  24.871  1.00  0.00     0.337 C 
ATOM     10  H   UNL A   1      34.949  25.180  26.587  1.00  0.00     0.343 HD
ATOM     11  N   UNL A   1      33.798  25.305  23.583  1.00  0.00    -0.202 N 
ATOM     12  S   UNL A   1      33.660  27.297  25.176  1.00  0.00    -0.020 SA
ATOM     13  C   UNL A   1      33.500  26.332  22.745  1.00  0.00     0.322 C 
ATOM     14  H   UNL A   1      33.831  24.373  23.267  1.00  0.00     0.316 HD
ATOM     15  O   UNL A   1      33.653  26.300  21.528  1.00  0.00    -0.246 OA
BRANCH   8  16
ATOM     16  N   UNL A   1      34.545  23.477  25.446  1.00  0.00    -0.090 NA
ATOM     17  C   UNL A   1      32.587  23.084  26.937  1.00  0.00     0.071 C 
ATOM     18  C   UNL A   1      33.589  22.704  25.869  1.00  0.00     0.088 C 
BRANCH  18  19
ATOM     19  C   UNL A   1      33.554  21.304  25.310  1.00  0.00    -0.000 A 
ATOM     20  C   UNL A   1      34.769  20.611  25.165  1.00  0.00     0.011 A 
ATOM     21  C   UNL A   1      32.368  20.680  24.904  1.00  0.00     0.011 A 
ATOM     22  C   UNL A   1      34.802  19.322  24.626  1.00  0.00     0.016 A 
ATOM     23  C   UNL A   1      32.402  19.388  24.359  1.00  0.00     0.016 A 
ATOM     24  C   UNL A   1      33.616  18.716  24.225  1.00  0.00     0.018 A 
ATOM     25  Br  UNL A   1      33.653  16.971  23.501  1.00  0.00    -0.051 Br
ENDBRANCH  18  19
ENDBRANCH   8  16
ENDBRANCH   6   7
ENDBRANCH   3   6
ENDBRANCH   1   2
BRANCH   1  26
ATOM     26  C   UNL A   1      31.318  31.368  26.011  1.00  0.00     0.042 C 
BRANCH  26  27
ATOM     27  C   UNL A   1      32.397  31.704  27.032  1.00  0.00     0.118 C 
BRANCH  27  28
ATOM     28  N   UNL A   1      32.544  33.133  27.234  1.00  0.00    -0.352 N 
ATOM     29  C   UNL A   1      33.444  33.835  28.001  1.00  0.00     0.251 C 
ATOM     30  H   UNL A   1      31.897  33.688  26.744  1.00  0.00     0.163 HD
ATOM     31  O   UNL A   1      33.258  35.035  28.187  1.00  0.00    -0.269 OA
BRANCH  29  32
ATOM     32  C   UNL A   1      34.620  33.178  28.626  1.00  0.00     0.039 A 
ATOM     33  C   UNL A   1      34.395  32.124  29.519  1.00  0.00     0.014 A 
ATOM     34  C   UNL A   1      35.927  33.624  28.412  1.00  0.00     0.014 A 
ATOM     35  C   UNL A   1      35.471  31.496  30.156  1.00  0.00     0.010 A 
ATOM     36  C   UNL A   1      37.006  32.945  28.981  1.00  0.00     0.010 A 
ATOM     37  C   UNL A   1      36.790  31.884  29.874  1.00  0.00    -0.014 A 
BRANCH  37  38
ATOM     38  C   UNL A   1      37.946  31.217  30.532  1.00  0.00     0.031 A 
ATOM     39  C   UNL A   1      38.293  31.534  31.963  1.00  0.00     0.074 A 
ATOM     40  C   UNL A   1      38.708  30.348  29.840  1.00  0.00     0.049 A 
ATOM     41  N   UNL A   1      39.284  31.087  32.694  1.00  0.00    -0.248 NA
ATOM     42  C   UNL A   1      37.422  32.495  32.655  1.00  0.00     0.031 C 
ATOM     43  C   UNL A   1      38.497  29.966  28.443  1.00  0.00     0.029 A 
ATOM     44  N   UNL A   1      39.813  29.627  30.219  1.00  0.00    -0.354 N 
ATOM     45  C   UNL A   1      39.163  31.725  33.922  1.00  0.00     0.074 A 
ATOM     46  C   UNL A   1      38.036  32.628  33.820  1.00  0.00     0.031 C 
ATOM     47  C   UNL A   1      39.419  29.054  28.095  1.00  0.00     0.029 A 
ATOM     48  C   UNL A   1      40.308  28.815  29.228  1.00  0.00     0.049 A 
ATOM     49  H   UNL A   1      40.212  29.686  31.118  1.00  0.00     0.167 HD
ATOM     50  C   UNL A   1      39.904  31.556  35.045  1.00  0.00     0.037 A 
ATOM     51  C   UNL A   1      41.359  27.973  29.233  1.00  0.00     0.037 A 
ATOM     52  C   UNL A   1      41.006  30.639  35.164  1.00  0.00     0.049 A 
ATOM     53  C   UNL A   1      42.187  27.825  30.480  1.00  0.00     0.074 A 
ATOM     54  C   UNL A   1      41.783  30.357  36.274  1.00  0.00     0.029 A 
ATOM     55  N   UNL A   1      41.489  29.850  34.129  1.00  0.00    -0.354 N 
ATOM     56  N   UNL A   1      42.031  28.397  31.649  1.00  0.00    -0.248 NA
ATOM     57  C   UNL A   1      43.338  26.915  30.405  1.00  0.00     0.031 C 
ATOM     58  C   UNL A   1      42.762  29.429  35.902  1.00  0.00     0.029 A 
ATOM     59  C   UNL A   1      42.569  29.100  34.569  1.00  0.00     0.049 A 
ATOM     60  H   UNL A   1      41.120  29.826  33.217  1.00  0.00     0.167 HD
ATOM     61  C   UNL A   1      43.042  27.894  32.457  1.00  0.00     0.074 A 
ATOM     62  C   UNL A   1      43.803  26.965  31.647  1.00  0.00     0.031 C 
ATOM     63  C   UNL A   1      43.313  28.175  33.755  1.00  0.00     0.037 A 
BRANCH  50  64
ATOM     64  C   UNL A   1      39.539  32.388  36.241  1.00  0.00     0.064 A 
ATOM     65  C   UNL A   1      38.507  32.009  37.112  1.00  0.00     0.173 A 
ATOM     66  C   UNL A   1      40.237  33.572  36.525  1.00  0.00     0.173 A 
ATOM     67  F   UNL A   1      37.801  30.892  36.878  1.00  0.00    -0.203 F 
ATOM     68  C   UNL A   1      38.160  32.804  38.202  1.00  0.00     0.198 A 
ATOM     69  C   UNL A   1      39.907  34.348  37.633  1.00  0.00     0.198 A 
ATOM     70  F   UNL A   1      41.238  33.974  35.729  1.00  0.00    -0.203 F 
ATOM     71  F   UNL A   1      37.133  32.451  38.986  1.00  0.00    -0.200 F 
ATOM     72  C   UNL A   1      38.863  33.970  38.464  1.00  0.00     0.200 A 
ATOM     73  F   UNL A   1      40.595  35.468  37.893  1.00  0.00    -0.200 F 
ATOM     74  F   UNL A   1      38.528  34.735  39.513  1.00  0.00    -0.200 F 
ENDBRANCH  50  64
BRANCH  51  75
ATOM     75  C   UNL A   1      41.669  27.171  28.021  1.00  0.00     0.064 A 
ATOM     76  C   UNL A   1      42.526  27.674  27.033  1.00  0.00     0.173 A 
ATOM     77  C   UNL A   1      41.123  25.895  27.827  1.00  0.00     0.173 A 
ATOM     78  F   UNL A   1      43.053  28.900  27.166  1.00  0.00    -0.203 F 
ATOM     79  C   UNL A   1      42.817  26.934  25.889  1.00  0.00     0.198 A 
ATOM     80  C   UNL A   1      41.434  25.146  26.694  1.00  0.00     0.198 A 
ATOM     81  F   UNL A   1      40.300  25.369  28.746  1.00  0.00    -0.203 F 
ATOM     82  F   UNL A   1      43.611  27.453  24.943  1.00  0.00    -0.200 F 
ATOM     83  C   UNL A   1      42.275  25.669  25.723  1.00  0.00     0.200 A 
ATOM     84  F   UNL A   1      40.918  23.919  26.543  1.00  0.00    -0.200 F 
ATOM     85  F   UNL A   1      42.561  24.954  24.626  1.00  0.00    -0.200 F 
ENDBRANCH  51  75
BRANCH  63  86
ATOM     86  C   UNL A   1      44.460  27.446  34.391  1.00  0.00     0.064 A 
ATOM     87  C   UNL A   1      45.748  28.000  34.436  1.00  0.00     0.173 A 
ATOM     88  C   UNL A   1      44.261  26.195  34.993  1.00  0.00     0.173 A 
ATOM     89  F   UNL A   1      45.994  29.186  33.859  1.00  0.00    -0.203 F 
ATOM     90  C   UNL A   1      46.800  27.316  35.042  1.00  0.00     0.198 A 
ATOM     91  C   UNL A   1      45.309  25.526  35.620  1.00  0.00     0.198 A 
ATOM     92  F   UNL A   1      43.047  25.624  34.980  1.00  0.00    -0.203 F 
ATOM     93  F   UNL A   1      48.031  27.845  35.035  1.00  0.00    -0.200 F 
ATOM     94  C   UNL A   1      46.577  26.084  35.639  1.00  0.00     0.200 A 
ATOM     95  F   UNL A   1      45.090  24.340  36.205  1.00  0.00    -0.200 F 
ATOM     96  F   UNL A   1      47.590  25.430  36.225  1.00  0.00    -0.200 F 
ENDBRANCH  63  86
ENDBRANCH  37  38
ENDBRANCH  29  32
ENDBRANCH  27  28
ENDBRANCH  26  27
ENDBRANCH   1  26
TORSDOF 13
ENDMDL
