MODEL 1
REMARK VINA RESULT:     -12.1      0.000      0.000
REMARK SMILES CC1(C)[C@@H](C(=O)NCCCNC(=O)c2ccc(-c3c4nc(c(-c5c(F)c(F)c(F)c(F)c5F)c5ccc([nH]5)c(-c5c(F)c(F)c(F)c(F)c5F)c5nc(c(-c6c(F)c(F)c(F)c(F)c6F)c6ccc3[nH]6)C=C5)C=C4)cc2)CC[C@@]1(C)C(N)=O
REMARK SMILES IDX 9 1 8 2 7 3 5 4 6 5 4 7 1 8 2 9 3 10 79 11 77 12 78 13 80 14
REMARK SMILES IDX 81 15 82 16 83 17 10 20 11 21 12 22 13 24 14 25 15 26 76 27
REMARK SMILES IDX 16 28 75 29 17 30 18 31 19 32 69 33 20 34 74 35 68 36 70 37
REMARK SMILES IDX 21 38 73 39 67 40 66 41 22 43 54 44 34 45 53 46 35 47 38 48
REMARK SMILES IDX 52 49 71 50 36 51 37 52 51 54 72 55 39 56 23 57 24 58 32 59
REMARK SMILES IDX 25 60 26 61 30 62 33 63 27 64 28 65 31 66 29 67 55 68 56 69
REMARK SMILES IDX 64 70 57 71 58 72 62 73 65 74 59 75 60 76 63 77 61 78 40 79
REMARK SMILES IDX 41 80 49 81 42 82 43 83 47 84 50 85 44 86 45 87 48 88 46 89
REMARK H PARENT 7 6 82 18 82 19 11 23 70 42 38 53
REMARK Flexibility Score: inf
ROOT
ATOM      1  C   UNL A   1      37.778  19.754  25.002  1.00  0.00     0.042 C 
ENDROOT
BRANCH   1   2
ATOM      2  C   UNL A   1      36.731  20.839  24.776  1.00  0.00     0.117 C 
BRANCH   2   3
ATOM      3  N   UNL A   1      35.390  20.334  25.003  1.00  0.00    -0.356 N 
ATOM      4  C   UNL A   1      34.187  20.948  24.809  1.00  0.00     0.223 C 
ATOM      5  O   UNL A   1      33.187  20.381  25.241  1.00  0.00    -0.275 OA
ATOM      6  H   UNL A   1      35.341  19.414  25.346  1.00  0.00     0.163 HD
BRANCH   4   7
ATOM      7  C   UNL A   1      34.159  22.282  24.062  1.00  0.00     0.085 C 
ATOM      8  C   UNL A   1      34.820  23.650  26.128  1.00  0.00     0.013 C 
ATOM      9  C   UNL A   1      33.907  23.572  24.893  1.00  0.00    -0.010 C 
ATOM     10  C   UNL A   1      34.346  24.785  24.008  1.00  0.00     0.013 C 
ATOM     11  C   UNL A   1      32.340  23.573  25.125  1.00  0.00     0.052 C 
ATOM     12  C   UNL A   1      32.992  22.279  23.077  1.00  0.00     0.015 C 
ATOM     13  C   UNL A   1      31.796  22.836  23.851  1.00  0.00     0.018 C 
ATOM     14  C   UNL A   1      31.726  24.991  25.209  1.00  0.00     0.022 C 
BRANCH  11  15
ATOM     15  C   UNL A   1      31.808  22.834  26.384  1.00  0.00     0.223 C 
ATOM     16  N   UNL A   1      30.910  21.828  26.197  1.00  0.00    -0.369 N 
ATOM     17  O   UNL A   1      32.250  23.005  27.519  1.00  0.00    -0.275 OA
ATOM     18  H   UNL A   1      30.536  21.662  25.302  1.00  0.00     0.159 HD
ATOM     19  H   UNL A   1      30.635  21.266  26.957  1.00  0.00     0.159 HD
ENDBRANCH  11  15
ENDBRANCH   4   7
ENDBRANCH   2   3
ENDBRANCH   1   2
BRANCH   1  20
ATOM     20  C   UNL A   1      38.995  20.223  25.797  1.00  0.00     0.118 C 
BRANCH  20  21
ATOM     21  N   UNL A   1      40.031  19.205  25.896  1.00  0.00    -0.352 N 
ATOM     22  C   UNL A   1      41.388  19.330  26.065  1.00  0.00     0.251 C 
ATOM     23  H   UNL A   1      39.707  18.278  25.830  1.00  0.00     0.163 HD
ATOM     24  O   UNL A   1      42.108  18.345  25.945  1.00  0.00    -0.269 OA
BRANCH  22  25
ATOM     25  C   UNL A   1      41.990  20.646  26.368  1.00  0.00     0.039 A 
ATOM     26  C   UNL A   1      42.293  21.503  25.308  1.00  0.00     0.014 A 
ATOM     27  C   UNL A   1      42.278  21.028  27.680  1.00  0.00     0.014 A 
ATOM     28  C   UNL A   1      42.819  22.770  25.568  1.00  0.00     0.010 A 
ATOM     29  C   UNL A   1      42.725  22.321  27.943  1.00  0.00     0.010 A 
ATOM     30  C   UNL A   1      43.001  23.205  26.890  1.00  0.00    -0.014 A 
BRANCH  30  31
ATOM     31  C   UNL A   1      43.464  24.586  27.187  1.00  0.00     0.031 A 
ATOM     32  C   UNL A   1      42.509  25.608  27.737  1.00  0.00     0.074 A 
ATOM     33  C   UNL A   1      44.735  24.935  26.903  1.00  0.00     0.049 A 
ATOM     34  N   UNL A   1      42.712  26.875  27.999  1.00  0.00    -0.248 NA
ATOM     35  C   UNL A   1      41.135  25.154  28.003  1.00  0.00     0.031 C 
ATOM     36  C   UNL A   1      45.745  24.046  26.326  1.00  0.00     0.029 A 
ATOM     37  N   UNL A   1      45.391  26.131  27.052  1.00  0.00    -0.354 N 
ATOM     38  C   UNL A   1      41.495  27.368  28.449  1.00  0.00     0.074 A 
ATOM     39  C   UNL A   1      40.543  26.282  28.371  1.00  0.00     0.031 C 
ATOM     40  C   UNL A   1      46.898  24.720  26.193  1.00  0.00     0.029 A 
ATOM     41  C   UNL A   1      46.697  26.098  26.631  1.00  0.00     0.049 A 
ATOM     42  H   UNL A   1      44.964  26.937  27.424  1.00  0.00     0.167 HD
ATOM     43  C   UNL A   1      41.202  28.609  28.907  1.00  0.00     0.037 A 
ATOM     44  C   UNL A   1      47.628  27.071  26.593  1.00  0.00     0.037 A 
ATOM     45  C   UNL A   1      42.157  29.685  28.998  1.00  0.00     0.049 A 
ATOM     46  C   UNL A   1      47.270  28.448  27.087  1.00  0.00     0.074 A 
ATOM     47  C   UNL A   1      41.973  30.961  29.501  1.00  0.00     0.029 A 
ATOM     48  N   UNL A   1      43.474  29.611  28.569  1.00  0.00    -0.354 N 
ATOM     49  N   UNL A   1      46.135  28.883  27.576  1.00  0.00    -0.248 NA
ATOM     50  C   UNL A   1      48.327  29.467  27.027  1.00  0.00     0.031 C 
ATOM     51  C   UNL A   1      43.161  31.678  29.322  1.00  0.00     0.029 A 
ATOM     52  C   UNL A   1      44.105  30.829  28.769  1.00  0.00     0.049 A 
ATOM     53  H   UNL A   1      43.898  28.812  28.179  1.00  0.00     0.167 HD
ATOM     54  C   UNL A   1      46.350  30.213  27.913  1.00  0.00     0.074 A 
ATOM     55  C   UNL A   1      47.729  30.509  27.586  1.00  0.00     0.031 C 
ATOM     56  C   UNL A   1      45.482  31.109  28.445  1.00  0.00     0.037 A 
BRANCH  43  57
ATOM     57  C   UNL A   1      39.790  28.876  29.345  1.00  0.00     0.064 A 
ATOM     58  C   UNL A   1      39.379  28.681  30.673  1.00  0.00     0.173 A 
ATOM     59  C   UNL A   1      38.843  29.370  28.434  1.00  0.00     0.173 A 
ATOM     60  F   UNL A   1      40.241  28.202  31.583  1.00  0.00    -0.203 F 
ATOM     61  C   UNL A   1      38.070  28.942  31.065  1.00  0.00     0.198 A 
ATOM     62  C   UNL A   1      37.543  29.662  28.838  1.00  0.00     0.198 A 
ATOM     63  F   UNL A   1      39.182  29.582  27.154  1.00  0.00    -0.203 F 
ATOM     64  F   UNL A   1      37.689  28.699  32.327  1.00  0.00    -0.200 F 
ATOM     65  C   UNL A   1      37.154  29.441  30.151  1.00  0.00     0.200 A 
ATOM     66  F   UNL A   1      36.665  30.160  27.956  1.00  0.00    -0.200 F 
ATOM     67  F   UNL A   1      35.896  29.701  30.532  1.00  0.00    -0.200 F 
ENDBRANCH  43  57
BRANCH  44  68
ATOM     68  C   UNL A   1      48.993  26.776  26.083  1.00  0.00     0.064 A 
ATOM     69  C   UNL A   1      49.327  27.013  24.741  1.00  0.00     0.173 A 
ATOM     70  C   UNL A   1      49.986  26.242  26.917  1.00  0.00     0.173 A 
ATOM     71  F   UNL A   1      48.407  27.503  23.899  1.00  0.00    -0.203 F 
ATOM     72  C   UNL A   1      50.594  26.704  24.250  1.00  0.00     0.198 A 
ATOM     73  C   UNL A   1      51.263  25.965  26.432  1.00  0.00     0.198 A 
ATOM     74  F   UNL A   1      49.720  26.002  28.210  1.00  0.00    -0.203 F 
ATOM     75  F   UNL A   1      50.870  26.893  22.952  1.00  0.00    -0.200 F 
ATOM     76  C   UNL A   1      51.562  26.186  25.097  1.00  0.00     0.200 A 
ATOM     77  F   UNL A   1      52.200  25.481  27.257  1.00  0.00    -0.200 F 
ATOM     78  F   UNL A   1      52.782  25.893  24.624  1.00  0.00    -0.200 F 
ENDBRANCH  44  68
BRANCH  56  79
ATOM     79  C   UNL A   1      46.007  32.483  28.747  1.00  0.00     0.064 A 
ATOM     80  C   UNL A   1      45.936  33.525  27.809  1.00  0.00     0.173 A 
ATOM     81  C   UNL A   1      46.556  32.771  30.006  1.00  0.00     0.173 A 
ATOM     82  F   UNL A   1      45.435  33.299  26.585  1.00  0.00    -0.203 F 
ATOM     83  C   UNL A   1      46.422  34.795  28.112  1.00  0.00     0.198 A 
ATOM     84  C   UNL A   1      47.008  34.051  30.317  1.00  0.00     0.198 A 
ATOM     85  F   UNL A   1      46.640  31.814  30.943  1.00  0.00    -0.203 F 
ATOM     86  F   UNL A   1      46.393  35.760  27.182  1.00  0.00    -0.200 F 
ATOM     87  C   UNL A   1      46.949  35.059  29.368  1.00  0.00     0.200 A 
ATOM     88  F   UNL A   1      47.501  34.308  31.537  1.00  0.00    -0.200 F 
ATOM     89  F   UNL A   1      47.407  36.283  29.660  1.00  0.00    -0.200 F 
ENDBRANCH  56  79
ENDBRANCH  30  31
ENDBRANCH  22  25
ENDBRANCH  20  21
ENDBRANCH   1  20
TORSDOF 11
ENDMDL
MODEL 2
REMARK VINA RESULT:     -12.1      5.935     11.267
REMARK SMILES CC1(C)[C@@H](C(=O)NCCCNC(=O)c2ccc(-c3c4nc(c(-c5c(F)c(F)c(F)c(F)c5F)c5ccc([nH]5)c(-c5c(F)c(F)c(F)c(F)c5F)c5nc(c(-c6c(F)c(F)c(F)c(F)c6F)c6ccc3[nH]6)C=C5)C=C4)cc2)CC[C@@]1(C)C(N)=O
REMARK SMILES IDX 9 1 8 2 7 3 5 4 6 5 4 7 1 8 2 9 3 10 79 11 77 12 78 13 80 14
REMARK SMILES IDX 81 15 82 16 83 17 10 20 11 21 12 22 13 24 14 25 15 26 76 27
REMARK SMILES IDX 16 28 75 29 17 30 18 31 19 32 69 33 20 34 74 35 68 36 70 37
REMARK SMILES IDX 21 38 73 39 67 40 66 41 22 43 54 44 34 45 53 46 35 47 38 48
REMARK SMILES IDX 52 49 71 50 36 51 37 52 51 54 72 55 39 56 23 57 24 58 32 59
REMARK SMILES IDX 25 60 26 61 30 62 33 63 27 64 28 65 31 66 29 67 55 68 56 69
REMARK SMILES IDX 64 70 57 71 58 72 62 73 65 74 59 75 60 76 63 77 61 78 40 79
REMARK SMILES IDX 41 80 49 81 42 82 43 83 47 84 50 85 44 86 45 87 48 88 46 89
REMARK H PARENT 7 6 82 18 82 19 11 23 70 42 38 53
REMARK Flexibility Score: inf
ROOT
ATOM      1  C   UNL A   1      31.423  31.852  26.491  1.00  0.00     0.042 C 
ENDROOT
BRANCH   1   2
ATOM      2  C   UNL A   1      31.613  30.376  26.160  1.00  0.00     0.117 C 
BRANCH   2   3
ATOM      3  N   UNL A   1      31.185  30.079  24.806  1.00  0.00    -0.356 N 
ATOM      4  C   UNL A   1      31.022  28.872  24.192  1.00  0.00     0.223 C 
ATOM      5  O   UNL A   1      30.820  28.877  22.981  1.00  0.00    -0.275 OA
ATOM      6  H   UNL A   1      30.981  30.864  24.248  1.00  0.00     0.163 HD
BRANCH   4   7
ATOM      7  C   UNL A   1      31.087  27.604  25.044  1.00  0.00     0.085 C 
ATOM      8  C   UNL A   1      33.651  27.551  25.079  1.00  0.00     0.013 C 
ATOM      9  C   UNL A   1      32.363  26.723  24.934  1.00  0.00    -0.010 C 
ATOM     10  C   UNL A   1      32.374  25.768  26.174  1.00  0.00     0.013 C 
ATOM     11  C   UNL A   1      32.147  25.910  23.591  1.00  0.00     0.052 C 
ATOM     12  C   UNL A   1      29.976  26.651  24.607  1.00  0.00     0.015 C 
ATOM     13  C   UNL A   1      30.586  25.784  23.503  1.00  0.00     0.018 C 
ATOM     14  C   UNL A   1      32.784  24.499  23.610  1.00  0.00     0.022 C 
BRANCH  11  15
ATOM     15  C   UNL A   1      32.662  26.561  22.277  1.00  0.00     0.223 C 
ATOM     16  N   UNL A   1      31.779  26.703  21.252  1.00  0.00    -0.369 N 
ATOM     17  O   UNL A   1      33.771  27.079  22.156  1.00  0.00    -0.275 OA
ATOM     18  H   UNL A   1      30.882  26.302  21.315  1.00  0.00     0.159 HD
ATOM     19  H   UNL A   1      32.035  27.208  20.446  1.00  0.00     0.159 HD
ENDBRANCH  11  15
ENDBRANCH   4   7
ENDBRANCH   2   3
ENDBRANCH   1   2
BRANCH   1  20
ATOM     20  C   UNL A   1      32.645  32.507  27.130  1.00  0.00     0.118 C 
BRANCH  20  21
ATOM     21  N   UNL A   1      32.411  33.893  27.508  1.00  0.00    -0.352 N 
ATOM     22  C   UNL A   1      32.998  34.663  28.481  1.00  0.00     0.251 C 
ATOM     23  H   UNL A   1      31.719  34.354  26.979  1.00  0.00     0.163 HD
ATOM     24  O   UNL A   1      32.529  35.761  28.753  1.00  0.00    -0.269 OA
BRANCH  22  25
ATOM     25  C   UNL A   1      34.179  34.166  29.221  1.00  0.00     0.039 A 
ATOM     26  C   UNL A   1      33.974  33.418  30.383  1.00  0.00     0.014 A 
ATOM     27  C   UNL A   1      35.477  34.451  28.793  1.00  0.00     0.014 A 
ATOM     28  C   UNL A   1      35.069  32.898  31.075  1.00  0.00     0.010 A 
ATOM     29  C   UNL A   1      36.564  33.865  29.437  1.00  0.00     0.010 A 
ATOM     30  C   UNL A   1      36.371  33.082  30.585  1.00  0.00    -0.014 A 
BRANCH  30  31
ATOM     31  C   UNL A   1      37.540  32.450  31.253  1.00  0.00     0.031 A 
ATOM     32  C   UNL A   1      38.284  31.328  30.586  1.00  0.00     0.074 A 
ATOM     33  C   UNL A   1      37.892  32.851  32.491  1.00  0.00     0.049 A 
ATOM     34  N   UNL A   1      39.285  30.614  31.037  1.00  0.00    -0.248 NA
ATOM     35  C   UNL A   1      37.826  30.937  29.243  1.00  0.00     0.031 C 
ATOM     36  C   UNL A   1      37.222  33.900  33.262  1.00  0.00     0.029 A 
ATOM     37  N   UNL A   1      38.895  32.418  33.322  1.00  0.00    -0.354 N 
ATOM     38  C   UNL A   1      39.568  29.688  30.042  1.00  0.00     0.074 A 
ATOM     39  C   UNL A   1      38.598  29.890  28.988  1.00  0.00     0.031 C 
ATOM     40  C   UNL A   1      37.847  34.045  34.441  1.00  0.00     0.029 A 
ATOM     41  C   UNL A   1      38.930  33.071  34.529  1.00  0.00     0.049 A 
ATOM     42  H   UNL A   1      39.528  31.705  33.076  1.00  0.00     0.167 HD
ATOM     43  C   UNL A   1      40.560  28.766  30.002  1.00  0.00     0.037 A 
ATOM     44  C   UNL A   1      39.738  32.899  35.593  1.00  0.00     0.037 A 
ATOM     45  C   UNL A   1      41.533  28.578  31.048  1.00  0.00     0.049 A 
ATOM     46  C   UNL A   1      40.819  31.852  35.531  1.00  0.00     0.074 A 
ATOM     47  C   UNL A   1      42.611  27.711  31.077  1.00  0.00     0.029 A 
ATOM     48  N   UNL A   1      41.541  29.265  32.253  1.00  0.00    -0.354 N 
ATOM     49  N   UNL A   1      41.121  31.031  34.556  1.00  0.00    -0.248 NA
ATOM     50  C   UNL A   1      41.674  31.715  36.718  1.00  0.00     0.031 C 
ATOM     51  C   UNL A   1      43.236  27.830  32.323  1.00  0.00     0.029 A 
ATOM     52  C   UNL A   1      42.589  28.818  33.045  1.00  0.00     0.049 A 
ATOM     53  H   UNL A   1      40.897  29.965  32.509  1.00  0.00     0.167 HD
ATOM     54  C   UNL A   1      42.219  30.303  34.997  1.00  0.00     0.074 A 
ATOM     55  C   UNL A   1      42.539  30.792  36.321  1.00  0.00     0.031 C 
ATOM     56  C   UNL A   1      42.900  29.318  34.361  1.00  0.00     0.037 A 
BRANCH  43  57
ATOM     57  C   UNL A   1      40.645  27.886  28.787  1.00  0.00     0.064 A 
ATOM     58  C   UNL A   1      39.933  26.680  28.698  1.00  0.00     0.173 A 
ATOM     59  C   UNL A   1      41.419  28.271  27.681  1.00  0.00     0.173 A 
ATOM     60  F   UNL A   1      39.186  26.259  29.730  1.00  0.00    -0.203 F 
ATOM     61  C   UNL A   1      40.014  25.880  27.562  1.00  0.00     0.198 A 
ATOM     62  C   UNL A   1      41.471  27.485  26.533  1.00  0.00     0.198 A 
ATOM     63  F   UNL A   1      42.115  29.417  27.708  1.00  0.00    -0.203 F 
ATOM     64  F   UNL A   1      39.366  24.708  27.522  1.00  0.00    -0.200 F 
ATOM     65  C   UNL A   1      40.776  26.286  26.476  1.00  0.00     0.200 A 
ATOM     66  F   UNL A   1      42.194  27.888  25.479  1.00  0.00    -0.200 F 
ATOM     67  F   UNL A   1      40.846  25.520  25.380  1.00  0.00    -0.200 F 
ENDBRANCH  43  57
BRANCH  44  68
ATOM     68  C   UNL A   1      39.568  33.748  36.802  1.00  0.00     0.064 A 
ATOM     69  C   UNL A   1      38.772  33.321  37.874  1.00  0.00     0.173 A 
ATOM     70  C   UNL A   1      40.185  35.003  36.907  1.00  0.00     0.173 A 
ATOM     71  F   UNL A   1      38.144  32.138  37.813  1.00  0.00    -0.203 F 
ATOM     72  C   UNL A   1      38.580  34.129  38.994  1.00  0.00     0.198 A 
ATOM     73  C   UNL A   1      40.019  35.795  38.042  1.00  0.00     0.198 A 
ATOM     74  F   UNL A   1      40.962  35.456  35.911  1.00  0.00    -0.203 F 
ATOM     75  F   UNL A   1      37.773  33.719  39.982  1.00  0.00    -0.200 F 
ATOM     76  C   UNL A   1      39.209  35.361  39.079  1.00  0.00     0.200 A 
ATOM     77  F   UNL A   1      40.643  36.977  38.127  1.00  0.00    -0.200 F 
ATOM     78  F   UNL A   1      39.027  36.136  40.158  1.00  0.00    -0.200 F 
ENDBRANCH  44  68
BRANCH  56  79
ATOM     79  C   UNL A   1      44.086  28.730  35.070  1.00  0.00     0.064 A 
ATOM     80  C   UNL A   1      45.369  29.285  34.950  1.00  0.00     0.173 A 
ATOM     81  C   UNL A   1      43.929  27.618  35.913  1.00  0.00     0.173 A 
ATOM     82  F   UNL A   1      45.578  30.338  34.146  1.00  0.00    -0.203 F 
ATOM     83  C   UNL A   1      46.455  28.729  35.623  1.00  0.00     0.198 A 
ATOM     84  C   UNL A   1      45.010  27.088  36.612  1.00  0.00     0.198 A 
ATOM     85  F   UNL A   1      42.721  27.054  36.070  1.00  0.00    -0.203 F 
ATOM     86  F   UNL A   1      47.682  29.243  35.451  1.00  0.00    -0.200 F 
ATOM     87  C   UNL A   1      46.273  27.638  36.460  1.00  0.00     0.200 A 
ATOM     88  F   UNL A   1      44.828  26.044  37.432  1.00  0.00    -0.200 F 
ATOM     89  F   UNL A   1      47.317  27.111  37.114  1.00  0.00    -0.200 F 
ENDBRANCH  56  79
ENDBRANCH  30  31
ENDBRANCH  22  25
ENDBRANCH  20  21
ENDBRANCH   1  20
TORSDOF 11
ENDMDL
MODEL 3
REMARK VINA RESULT:     -12.1      6.030     11.423
REMARK SMILES CC1(C)[C@@H](C(=O)NCCCNC(=O)c2ccc(-c3c4nc(c(-c5c(F)c(F)c(F)c(F)c5F)c5ccc([nH]5)c(-c5c(F)c(F)c(F)c(F)c5F)c5nc(c(-c6c(F)c(F)c(F)c(F)c6F)c6ccc3[nH]6)C=C5)C=C4)cc2)CC[C@@]1(C)C(N)=O
REMARK SMILES IDX 9 1 8 2 7 3 5 4 6 5 4 7 1 8 2 9 3 10 79 11 77 12 78 13 80 14
REMARK SMILES IDX 81 15 82 16 83 17 10 20 11 21 12 22 13 24 14 25 15 26 76 27
REMARK SMILES IDX 16 28 75 29 17 30 18 31 19 32 69 33 20 34 74 35 68 36 70 37
REMARK SMILES IDX 21 38 73 39 67 40 66 41 22 43 54 44 34 45 53 46 35 47 38 48
REMARK SMILES IDX 52 49 71 50 36 51 37 52 51 54 72 55 39 56 23 57 24 58 32 59
REMARK SMILES IDX 25 60 26 61 30 62 33 63 27 64 28 65 31 66 29 67 55 68 56 69
REMARK SMILES IDX 64 70 57 71 58 72 62 73 65 74 59 75 60 76 63 77 61 78 40 79
REMARK SMILES IDX 41 80 49 81 42 82 43 83 47 84 50 85 44 86 45 87 48 88 46 89
REMARK H PARENT 7 6 82 18 82 19 11 23 70 42 38 53
REMARK Flexibility Score: inf
ROOT
ATOM      1  C   UNL A   1      31.407  32.229  26.477  1.00  0.00     0.042 C 
ENDROOT
BRANCH   1   2
ATOM      2  C   UNL A   1      31.475  30.714  26.313  1.00  0.00     0.117 C 
BRANCH   2   3
ATOM      3  N   UNL A   1      31.012  30.304  25.001  1.00  0.00    -0.356 N 
ATOM      4  C   UNL A   1      31.037  29.071  24.418  1.00  0.00     0.223 C 
ATOM      5  O   UNL A   1      30.749  29.003  23.227  1.00  0.00    -0.275 OA
ATOM      6  H   UNL A   1      30.623  31.021  24.450  1.00  0.00     0.163 HD
BRANCH   4   7
ATOM      7  C   UNL A   1      31.403  27.863  25.281  1.00  0.00     0.085 C 
ATOM      8  C   UNL A   1      33.928  28.249  25.055  1.00  0.00     0.013 C 
ATOM      9  C   UNL A   1      32.796  27.209  25.056  1.00  0.00    -0.010 C 
ATOM     10  C   UNL A   1      33.093  26.313  26.305  1.00  0.00     0.013 C 
ATOM     11  C   UNL A   1      32.595  26.326  23.756  1.00  0.00     0.052 C 
ATOM     12  C   UNL A   1      30.438  26.719  24.975  1.00  0.00     0.015 C 
ATOM     13  C   UNL A   1      31.078  25.932  23.829  1.00  0.00     0.018 C 
ATOM     14  C   UNL A   1      33.465  25.046  23.735  1.00  0.00     0.022 C 
BRANCH  11  15
ATOM     15  C   UNL A   1      32.858  27.010  22.386  1.00  0.00     0.223 C 
ATOM     16  N   UNL A   1      31.881  26.935  21.442  1.00  0.00    -0.369 N 
ATOM     17  O   UNL A   1      33.829  27.728  22.152  1.00  0.00    -0.275 OA
ATOM     18  H   UNL A   1      31.090  26.371  21.596  1.00  0.00     0.159 HD
ATOM     19  H   UNL A   1      31.964  27.447  20.605  1.00  0.00     0.159 HD
ENDBRANCH  11  15
ENDBRANCH   4   7
ENDBRANCH   2   3
ENDBRANCH   1   2
BRANCH   1  20
ATOM     20  C   UNL A   1      32.600  32.826  27.219  1.00  0.00     0.118 C 
BRANCH  20  21
ATOM     21  N   UNL A   1      32.384  34.210  27.616  1.00  0.00    -0.352 N 
ATOM     22  C   UNL A   1      32.988  34.962  28.593  1.00  0.00     0.251 C 
ATOM     23  H   UNL A   1      31.691  34.684  27.100  1.00  0.00     0.163 HD
ATOM     24  O   UNL A   1      32.532  36.062  28.883  1.00  0.00    -0.269 OA
BRANCH  22  25
ATOM     25  C   UNL A   1      34.170  34.444  29.315  1.00  0.00     0.039 A 
ATOM     26  C   UNL A   1      33.978  33.812  30.545  1.00  0.00     0.014 A 
ATOM     27  C   UNL A   1      35.460  34.599  28.803  1.00  0.00     0.014 A 
ATOM     28  C   UNL A   1      35.071  33.273  31.227  1.00  0.00     0.010 A 
ATOM     29  C   UNL A   1      36.538  33.991  29.442  1.00  0.00     0.010 A 
ATOM     30  C   UNL A   1      36.355  33.322  30.661  1.00  0.00    -0.014 A 
BRANCH  30  31
ATOM     31  C   UNL A   1      37.512  32.665  31.324  1.00  0.00     0.031 A 
ATOM     32  C   UNL A   1      38.223  31.522  30.657  1.00  0.00     0.074 A 
ATOM     33  C   UNL A   1      37.883  33.064  32.557  1.00  0.00     0.049 A 
ATOM     34  N   UNL A   1      39.210  30.786  31.105  1.00  0.00    -0.248 NA
ATOM     35  C   UNL A   1      37.747  31.135  29.320  1.00  0.00     0.031 C 
ATOM     36  C   UNL A   1      37.245  34.133  33.327  1.00  0.00     0.029 A 
ATOM     37  N   UNL A   1      38.881  32.610  33.383  1.00  0.00    -0.354 N 
ATOM     38  C   UNL A   1      39.463  29.847  30.114  1.00  0.00     0.074 A 
ATOM     39  C   UNL A   1      38.491  30.068  29.065  1.00  0.00     0.031 C 
ATOM     40  C   UNL A   1      37.882  34.269  34.501  1.00  0.00     0.029 A 
ATOM     41  C   UNL A   1      38.941  33.269  34.586  1.00  0.00     0.049 A 
ATOM     42  H   UNL A   1      39.495  31.881  33.136  1.00  0.00     0.167 HD
ATOM     43  C   UNL A   1      40.432  28.901  30.071  1.00  0.00     0.037 A 
ATOM     44  C   UNL A   1      39.753  33.083  35.645  1.00  0.00     0.037 A 
ATOM     45  C   UNL A   1      41.408  28.695  31.111  1.00  0.00     0.049 A 
ATOM     46  C   UNL A   1      40.807  32.009  35.581  1.00  0.00     0.074 A 
ATOM     47  C   UNL A   1      42.464  27.801  31.137  1.00  0.00     0.029 A 
ATOM     48  N   UNL A   1      41.441  29.388  32.313  1.00  0.00    -0.354 N 
ATOM     49  N   UNL A   1      41.082  31.175  34.608  1.00  0.00    -0.248 NA
ATOM     50  C   UNL A   1      41.667  31.857  36.763  1.00  0.00     0.031 C 
ATOM     51  C   UNL A   1      43.101  27.912  32.378  1.00  0.00     0.029 A 
ATOM     52  C   UNL A   1      42.483  28.919  33.099  1.00  0.00     0.049 A 
ATOM     53  H   UNL A   1      40.817  30.104  32.570  1.00  0.00     0.167 HD
ATOM     54  C   UNL A   1      42.164  30.423  35.046  1.00  0.00     0.074 A 
ATOM     55  C   UNL A   1      42.506  30.911  36.365  1.00  0.00     0.031 C 
ATOM     56  C   UNL A   1      42.816  29.418  34.410  1.00  0.00     0.037 A 
BRANCH  43  57
ATOM     57  C   UNL A   1      40.486  28.013  28.861  1.00  0.00     0.064 A 
ATOM     58  C   UNL A   1      41.259  28.343  27.737  1.00  0.00     0.173 A 
ATOM     59  C   UNL A   1      39.788  26.795  28.839  1.00  0.00     0.173 A 
ATOM     60  F   UNL A   1      41.938  29.499  27.700  1.00  0.00    -0.203 F 
ATOM     61  C   UNL A   1      41.307  27.504  26.627  1.00  0.00     0.198 A 
ATOM     62  C   UNL A   1      39.866  25.942  27.742  1.00  0.00     0.198 A 
ATOM     63  F   UNL A   1      39.040  26.425  29.889  1.00  0.00    -0.203 F 
ATOM     64  F   UNL A   1      42.010  27.866  25.545  1.00  0.00    -0.200 F 
ATOM     65  C   UNL A   1      40.618  26.300  26.633  1.00  0.00     0.200 A 
ATOM     66  F   UNL A   1      39.212  24.772  27.756  1.00  0.00    -0.200 F 
ATOM     67  F   UNL A   1      40.672  25.489  25.567  1.00  0.00    -0.200 F 
ENDBRANCH  43  57
BRANCH  44  68
ATOM     68  C   UNL A   1      39.612  33.942  36.851  1.00  0.00     0.064 A 
ATOM     69  C   UNL A   1      38.831  33.531  37.941  1.00  0.00     0.173 A 
ATOM     70  C   UNL A   1      40.243  35.191  36.936  1.00  0.00     0.173 A 
ATOM     71  F   UNL A   1      38.192  32.353  37.900  1.00  0.00    -0.203 F 
ATOM     72  C   UNL A   1      38.668  34.348  39.058  1.00  0.00     0.198 A 
ATOM     73  C   UNL A   1      40.105  35.993  38.067  1.00  0.00     0.198 A 
ATOM     74  F   UNL A   1      41.007  35.630  35.923  1.00  0.00    -0.203 F 
ATOM     75  F   UNL A   1      37.874  33.953  40.062  1.00  0.00    -0.200 F 
ATOM     76  C   UNL A   1      39.309  35.575  39.122  1.00  0.00     0.200 A 
ATOM     77  F   UNL A   1      40.741  37.170  38.133  1.00  0.00    -0.200 F 
ATOM     78  F   UNL A   1      39.154  36.359  40.199  1.00  0.00    -0.200 F 
ENDBRANCH  44  68
BRANCH  56  79
ATOM     79  C   UNL A   1      43.993  28.805  35.114  1.00  0.00     0.064 A 
ATOM     80  C   UNL A   1      43.841  27.746  36.022  1.00  0.00     0.173 A 
ATOM     81  C   UNL A   1      45.294  29.259  34.848  1.00  0.00     0.173 A 
ATOM     82  F   UNL A   1      42.618  27.284  36.324  1.00  0.00    -0.203 F 
ATOM     83  C   UNL A   1      44.946  27.186  36.659  1.00  0.00     0.198 A 
ATOM     84  C   UNL A   1      46.398  28.673  35.460  1.00  0.00     0.198 A 
ATOM     85  F   UNL A   1      45.496  30.264  33.982  1.00  0.00    -0.203 F 
ATOM     86  F   UNL A   1      44.773  26.211  37.564  1.00  0.00    -0.200 F 
ATOM     87  C   UNL A   1      46.224  27.643  36.371  1.00  0.00     0.200 A 
ATOM     88  F   UNL A   1      47.633  29.106  35.167  1.00  0.00    -0.200 F 
ATOM     89  F   UNL A   1      47.285  27.097  36.978  1.00  0.00    -0.200 F 
ENDBRANCH  56  79
ENDBRANCH  30  31
ENDBRANCH  22  25
ENDBRANCH  20  21
ENDBRANCH   1  20
TORSDOF 11
ENDMDL
