MODEL 1
REMARK VINA RESULT:     -12.3      0.000      0.000
REMARK SMILES CSc1ccccc1NC(=O)[C@@H]1CC=CC[C@H]1C(=O)NCCCNC(=O)c1ccc(-c2c3nc(c(-c4c(F)c(F)c(F)c(F)c4F)c4ccc([nH]4)c(-c4c(F)c(F)c(F)c(F)c4F)c4nc(c(-c5c(F)c(F)c(F)c(F)c5F)c5ccc2[nH]5)C=C4)C=C3)cc1
REMARK SMILES IDX 21 1 20 2 18 3 19 4 17 6 12 7 13 8 14 9 16 10 15 11 10 12
REMARK SMILES IDX 9 13 11 15 8 16 3 17 4 18 5 19 7 20 6 21 2 22 1 23 22 24
REMARK SMILES IDX 23 25 24 26 25 27 26 29 27 30 28 31 89 32 29 33 88 34 30 35
REMARK SMILES IDX 31 36 32 37 82 38 33 39 87 40 81 41 83 42 34 43 86 44 80 45
REMARK SMILES IDX 79 46 35 48 67 49 47 50 66 51 48 52 51 53 65 54 84 55 49 56
REMARK SMILES IDX 50 57 64 59 85 60 52 61 36 62 37 63 45 64 38 65 39 66 43 67
REMARK SMILES IDX 46 68 40 69 41 70 44 71 42 72 68 73 69 74 77 75 70 76 71 77
REMARK SMILES IDX 75 78 78 79 72 80 73 81 76 82 74 83 53 84 54 85 62 86 55 87
REMARK SMILES IDX 56 88 60 89 63 90 57 91 58 92 61 93 59 94
REMARK H PARENT 20 5 9 14 24 28 83 47 51 58
REMARK Flexibility Score: inf
ROOT
ATOM      1  C   UNL A   1      35.560  22.268  26.164  1.00  0.00     0.117 C 
ENDROOT
BRANCH   1   2
ATOM      2  N   UNL A   1      34.596  22.264  27.252  1.00  0.00    -0.356 N 
ATOM      3  C   UNL A   1      33.239  22.169  27.271  1.00  0.00     0.224 C 
ATOM      4  O   UNL A   1      32.707  22.103  28.382  1.00  0.00    -0.275 OA
ATOM      5  H   UNL A   1      35.002  22.345  28.145  1.00  0.00     0.163 HD
BRANCH   3   6
ATOM      6  C   UNL A   1      32.403  22.082  25.999  1.00  0.00     0.095 C 
ATOM      7  C   UNL A   1      31.942  23.451  25.458  1.00  0.00     0.095 C 
ATOM      8  C   UNL A   1      31.082  23.232  24.204  1.00  0.00     0.041 C 
ATOM      9  C   UNL A   1      31.838  22.449  23.174  1.00  0.00    -0.030 C 
ATOM     10  C   UNL A   1      33.151  21.245  24.935  1.00  0.00     0.041 C 
ATOM     11  C   UNL A   1      32.785  21.563  23.511  1.00  0.00    -0.030 C 
BRANCH   7  12
ATOM     12  C   UNL A   1      31.141  24.280  26.441  1.00  0.00     0.228 C 
ATOM     13  N   UNL A   1      31.273  25.638  26.519  1.00  0.00    -0.325 N 
ATOM     14  H   UNL A   1      30.676  26.024  27.200  1.00  0.00     0.169 HD
ATOM     15  O   UNL A   1      30.322  23.743  27.192  1.00  0.00    -0.274 OA
BRANCH  13  16
ATOM     16  C   UNL A   1      32.048  26.637  25.873  1.00  0.00     0.054 A 
ATOM     17  C   UNL A   1      31.458  27.309  24.767  1.00  0.00     0.031 A 
ATOM     18  C   UNL A   1      32.160  28.342  24.123  1.00  0.00     0.017 A 
ATOM     19  C   UNL A   1      33.425  28.728  24.560  1.00  0.00     0.001 A 
ATOM     20  C   UNL A   1      33.343  27.009  26.251  1.00  0.00     0.027 A 
ATOM     21  C   UNL A   1      34.018  28.055  25.616  1.00  0.00     0.002 A 
BRANCH  17  22
ATOM     22  S   UNL A   1      29.841  26.780  24.155  1.00  0.00    -0.127 SA
ATOM     23  C   UNL A   1      29.373  28.131  23.035  1.00  0.00     0.091 C 
ENDBRANCH  17  22
ENDBRANCH  13  16
ENDBRANCH   7  12
ENDBRANCH   3   6
ENDBRANCH   1   2
BRANCH   1  24
ATOM     24  C   UNL A   1      35.909  23.682  25.725  1.00  0.00     0.042 C 
BRANCH  24  25
ATOM     25  C   UNL A   1      37.254  23.793  25.023  1.00  0.00     0.118 C 
BRANCH  25  26
ATOM     26  N   UNL A   1      38.226  22.829  25.521  1.00  0.00    -0.352 N 
ATOM     27  C   UNL A   1      39.355  23.023  26.276  1.00  0.00     0.251 C 
ATOM     28  H   UNL A   1      38.046  21.893  25.277  1.00  0.00     0.163 HD
ATOM     29  O   UNL A   1      40.158  22.104  26.426  1.00  0.00    -0.269 OA
BRANCH  27  30
ATOM     30  C   UNL A   1      39.623  24.338  26.893  1.00  0.00     0.039 A 
ATOM     31  C   UNL A   1      39.195  24.574  28.203  1.00  0.00     0.014 A 
ATOM     32  C   UNL A   1      40.283  25.343  26.182  1.00  0.00     0.014 A 
ATOM     33  C   UNL A   1      39.496  25.788  28.824  1.00  0.00     0.010 A 
ATOM     34  C   UNL A   1      40.663  26.513  26.829  1.00  0.00     0.010 A 
ATOM     35  C   UNL A   1      40.270  26.750  28.155  1.00  0.00    -0.014 A 
BRANCH  35  36
ATOM     36  C   UNL A   1      40.676  28.020  28.809  1.00  0.00     0.031 A 
ATOM     37  C   UNL A   1      42.081  28.182  29.318  1.00  0.00     0.074 A 
ATOM     38  C   UNL A   1      39.761  28.986  29.022  1.00  0.00     0.049 A 
ATOM     39  N   UNL A   1      42.597  29.150  30.031  1.00  0.00    -0.248 NA
ATOM     40  C   UNL A   1      43.023  27.094  29.010  1.00  0.00     0.031 C 
ATOM     41  C   UNL A   1      38.361  28.934  28.600  1.00  0.00     0.029 A 
ATOM     42  N   UNL A   1      39.871  30.196  29.662  1.00  0.00    -0.354 N 
ATOM     43  C   UNL A   1      43.914  28.779  30.271  1.00  0.00     0.074 A 
ATOM     44  C   UNL A   1      44.101  27.472  29.679  1.00  0.00     0.031 C 
ATOM     45  C   UNL A   1      37.747  30.069  28.973  1.00  0.00     0.029 A 
ATOM     46  C   UNL A   1      38.695  30.904  29.707  1.00  0.00     0.049 A 
ATOM     47  H   UNL A   1      40.713  30.524  30.052  1.00  0.00     0.167 HD
ATOM     48  C   UNL A   1      44.886  29.474  30.909  1.00  0.00     0.037 A 
ATOM     49  C   UNL A   1      38.409  32.083  30.290  1.00  0.00     0.037 A 
ATOM     50  C   UNL A   1      44.698  30.783  31.479  1.00  0.00     0.049 A 
ATOM     51  C   UNL A   1      39.496  32.822  31.025  1.00  0.00     0.074 A 
ATOM     52  C   UNL A   1      45.629  31.592  32.103  1.00  0.00     0.029 A 
ATOM     53  N   UNL A   1      43.493  31.470  31.496  1.00  0.00    -0.354 N 
ATOM     54  N   UNL A   1      40.751  32.486  31.200  1.00  0.00    -0.248 NA
ATOM     55  C   UNL A   1      39.129  34.103  31.645  1.00  0.00     0.031 C 
ATOM     56  C   UNL A   1      44.976  32.744  32.551  1.00  0.00     0.029 A 
ATOM     57  C   UNL A   1      43.652  32.684  32.145  1.00  0.00     0.049 A 
ATOM     58  H   UNL A   1      42.650  31.145  31.104  1.00  0.00     0.167 HD
ATOM     59  C   UNL A   1      41.331  33.528  31.912  1.00  0.00     0.074 A 
ATOM     60  C   UNL A   1      40.291  34.511  32.135  1.00  0.00     0.031 C 
ATOM     61  C   UNL A   1      42.610  33.661  32.341  1.00  0.00     0.037 A 
BRANCH  48  62
ATOM     62  C   UNL A   1      46.238  28.831  31.030  1.00  0.00     0.064 A 
ATOM     63  C   UNL A   1      46.580  28.034  32.134  1.00  0.00     0.173 A 
ATOM     64  C   UNL A   1      47.194  28.987  30.015  1.00  0.00     0.173 A 
ATOM     65  F   UNL A   1      45.708  27.860  33.138  1.00  0.00    -0.203 F 
ATOM     66  C   UNL A   1      47.840  27.449  32.232  1.00  0.00     0.198 A 
ATOM     67  C   UNL A   1      48.440  28.371  30.099  1.00  0.00     0.198 A 
ATOM     68  F   UNL A   1      46.918  29.733  28.934  1.00  0.00    -0.203 F 
ATOM     69  F   UNL A   1      48.163  26.739  33.323  1.00  0.00    -0.200 F 
ATOM     70  C   UNL A   1      48.765  27.611  31.212  1.00  0.00     0.200 A 
ATOM     71  F   UNL A   1      49.326  28.515  29.105  1.00  0.00    -0.200 F 
ATOM     72  F   UNL A   1      49.974  27.039  31.305  1.00  0.00    -0.200 F 
ENDBRANCH  48  62
BRANCH  49  73
ATOM     73  C   UNL A   1      37.036  32.648  30.194  1.00  0.00     0.064 A 
ATOM     74  C   UNL A   1      36.652  33.417  29.086  1.00  0.00     0.173 A 
ATOM     75  C   UNL A   1      36.084  32.437  31.201  1.00  0.00     0.173 A 
ATOM     76  F   UNL A   1      37.530  33.661  28.103  1.00  0.00    -0.203 F 
ATOM     77  C   UNL A   1      35.377  33.974  29.002  1.00  0.00     0.198 A 
ATOM     78  C   UNL A   1      34.799  32.967  31.101  1.00  0.00     0.198 A 
ATOM     79  F   UNL A   1      36.394  31.697  32.277  1.00  0.00    -0.203 F 
ATOM     80  F   UNL A   1      35.052  34.744  27.955  1.00  0.00    -0.200 F 
ATOM     81  C   UNL A   1      34.450  33.744  30.007  1.00  0.00     0.200 A 
ATOM     82  F   UNL A   1      33.901  32.724  32.065  1.00  0.00    -0.200 F 
ATOM     83  F   UNL A   1      33.222  34.274  29.923  1.00  0.00    -0.200 F 
ENDBRANCH  49  73
BRANCH  61  84
ATOM     84  C   UNL A   1      42.982  34.933  33.045  1.00  0.00     0.064 A 
ATOM     85  C   UNL A   1      43.433  36.062  32.346  1.00  0.00     0.173 A 
ATOM     86  C   UNL A   1      42.812  35.045  34.435  1.00  0.00     0.173 A 
ATOM     87  F   UNL A   1      43.627  36.002  31.021  1.00  0.00    -0.203 F 
ATOM     88  C   UNL A   1      43.717  37.251  33.015  1.00  0.00     0.198 A 
ATOM     89  C   UNL A   1      43.064  36.244  35.094  1.00  0.00     0.198 A 
ATOM     90  F   UNL A   1      42.376  33.997  35.149  1.00  0.00    -0.203 F 
ATOM     91  F   UNL A   1      44.185  38.305  32.333  1.00  0.00    -0.200 F 
ATOM     92  C   UNL A   1      43.521  37.344  34.385  1.00  0.00     0.200 A 
ATOM     93  F   UNL A   1      42.859  36.336  36.415  1.00  0.00    -0.200 F 
ATOM     94  F   UNL A   1      43.776  38.495  35.023  1.00  0.00    -0.200 F 
ENDBRANCH  61  84
ENDBRANCH  35  36
ENDBRANCH  27  30
ENDBRANCH  25  26
ENDBRANCH  24  25
ENDBRANCH   1  24
TORSDOF 13
ENDMDL
MODEL 2
REMARK VINA RESULT:     -12.3      1.397      2.760
REMARK SMILES CSc1ccccc1NC(=O)[C@@H]1CC=CC[C@H]1C(=O)NCCCNC(=O)c1ccc(-c2c3nc(c(-c4c(F)c(F)c(F)c(F)c4F)c4ccc([nH]4)c(-c4c(F)c(F)c(F)c(F)c4F)c4nc(c(-c5c(F)c(F)c(F)c(F)c5F)c5ccc2[nH]5)C=C4)C=C3)cc1
REMARK SMILES IDX 21 1 20 2 18 3 19 4 17 6 12 7 13 8 14 9 16 10 15 11 10 12
REMARK SMILES IDX 9 13 11 15 8 16 3 17 4 18 5 19 7 20 6 21 2 22 1 23 22 24
REMARK SMILES IDX 23 25 24 26 25 27 26 29 27 30 28 31 89 32 29 33 88 34 30 35
REMARK SMILES IDX 31 36 32 37 82 38 33 39 87 40 81 41 83 42 34 43 86 44 80 45
REMARK SMILES IDX 79 46 35 48 67 49 47 50 66 51 48 52 51 53 65 54 84 55 49 56
REMARK SMILES IDX 50 57 64 59 85 60 52 61 36 62 37 63 45 64 38 65 39 66 43 67
REMARK SMILES IDX 46 68 40 69 41 70 44 71 42 72 68 73 69 74 77 75 70 76 71 77
REMARK SMILES IDX 75 78 78 79 72 80 73 81 76 82 74 83 53 84 54 85 62 86 55 87
REMARK SMILES IDX 56 88 60 89 63 90 57 91 58 92 61 93 59 94
REMARK H PARENT 20 5 9 14 24 28 83 47 51 58
REMARK Flexibility Score: inf
ROOT
ATOM      1  C   UNL A   1      34.970  24.458  24.537  1.00  0.00     0.117 C 
ENDROOT
BRANCH   1   2
ATOM      2  N   UNL A   1      34.420  24.496  23.193  1.00  0.00    -0.356 N 
ATOM      3  C   UNL A   1      33.455  25.266  22.622  1.00  0.00     0.224 C 
ATOM      4  O   UNL A   1      33.275  25.114  21.411  1.00  0.00    -0.275 OA
ATOM      5  H   UNL A   1      34.821  23.840  22.579  1.00  0.00     0.163 HD
BRANCH   3   6
ATOM      6  C   UNL A   1      32.671  26.315  23.401  1.00  0.00     0.095 C 
ATOM      7  C   UNL A   1      31.918  25.751  24.624  1.00  0.00     0.095 C 
ATOM      8  C   UNL A   1      31.139  26.889  25.303  1.00  0.00     0.041 C 
ATOM      9  C   UNL A   1      32.060  28.009  25.681  1.00  0.00    -0.030 C 
ATOM     10  C   UNL A   1      33.596  27.498  23.769  1.00  0.00     0.041 C 
ATOM     11  C   UNL A   1      33.180  28.269  24.992  1.00  0.00    -0.030 C 
BRANCH   7  12
ATOM     12  C   UNL A   1      30.942  24.637  24.305  1.00  0.00     0.228 C 
ATOM     13  N   UNL A   1      31.063  23.390  24.853  1.00  0.00    -0.325 N 
ATOM     14  H   UNL A   1      30.345  22.789  24.550  1.00  0.00     0.169 HD
ATOM     15  O   UNL A   1      29.988  24.837  23.547  1.00  0.00    -0.274 OA
BRANCH  13  16
ATOM     16  C   UNL A   1      31.954  22.739  25.744  1.00  0.00     0.054 A 
ATOM     17  C   UNL A   1      32.707  21.645  25.233  1.00  0.00     0.031 A 
ATOM     18  C   UNL A   1      33.642  20.997  26.057  1.00  0.00     0.017 A 
ATOM     19  C   UNL A   1      33.853  21.416  27.368  1.00  0.00     0.001 A 
ATOM     20  C   UNL A   1      32.149  23.099  27.082  1.00  0.00     0.027 A 
ATOM     21  C   UNL A   1      33.101  22.460  27.881  1.00  0.00     0.002 A 
BRANCH  17  22
ATOM     22  S   UNL A   1      32.401  21.054  23.552  1.00  0.00    -0.127 SA
ATOM     23  C   UNL A   1      32.524  19.251  23.730  1.00  0.00     0.091 C 
ENDBRANCH  17  22
ENDBRANCH  13  16
ENDBRANCH   7  12
ENDBRANCH   3   6
ENDBRANCH   1   2
BRANCH   1  24
ATOM     24  C   UNL A   1      36.220  23.593  24.610  1.00  0.00     0.042 C 
BRANCH  24  25
ATOM     25  C   UNL A   1      36.738  23.382  26.025  1.00  0.00     0.118 C 
BRANCH  25  26
ATOM     26  N   UNL A   1      37.949  22.573  26.062  1.00  0.00    -0.352 N 
ATOM     27  C   UNL A   1      39.238  22.925  26.374  1.00  0.00     0.251 C 
ATOM     28  H   UNL A   1      37.824  21.626  25.825  1.00  0.00     0.163 HD
ATOM     29  O   UNL A   1      40.159  22.141  26.152  1.00  0.00    -0.269 OA
BRANCH  27  30
ATOM     30  C   UNL A   1      39.529  24.251  26.956  1.00  0.00     0.039 A 
ATOM     31  C   UNL A   1      39.201  24.493  28.293  1.00  0.00     0.014 A 
ATOM     32  C   UNL A   1      40.111  25.261  26.185  1.00  0.00     0.014 A 
ATOM     33  C   UNL A   1      39.527  25.719  28.877  1.00  0.00     0.010 A 
ATOM     34  C   UNL A   1      40.518  26.445  26.790  1.00  0.00     0.010 A 
ATOM     35  C   UNL A   1      40.227  26.689  28.141  1.00  0.00    -0.014 A 
BRANCH  35  36
ATOM     36  C   UNL A   1      40.659  27.972  28.749  1.00  0.00     0.031 A 
ATOM     37  C   UNL A   1      42.082  28.143  29.199  1.00  0.00     0.074 A 
ATOM     38  C   UNL A   1      39.754  28.945  28.973  1.00  0.00     0.049 A 
ATOM     39  N   UNL A   1      42.627  29.127  29.869  1.00  0.00    -0.248 NA
ATOM     40  C   UNL A   1      43.011  27.047  28.882  1.00  0.00     0.031 C 
ATOM     41  C   UNL A   1      38.339  28.886  28.606  1.00  0.00     0.029 A 
ATOM     42  N   UNL A   1      39.890  30.169  29.580  1.00  0.00    -0.354 N 
ATOM     43  C   UNL A   1      43.951  28.759  30.067  1.00  0.00     0.074 A 
ATOM     44  C   UNL A   1      44.114  27.438  29.499  1.00  0.00     0.031 C 
ATOM     45  C   UNL A   1      37.741  30.031  28.976  1.00  0.00     0.029 A 
ATOM     46  C   UNL A   1      38.717  30.880  29.654  1.00  0.00     0.049 A 
ATOM     47  H   UNL A   1      40.746  30.505  29.930  1.00  0.00     0.167 HD
ATOM     48  C   UNL A   1      44.947  29.467  30.651  1.00  0.00     0.037 A 
ATOM     49  C   UNL A   1      38.454  32.074  30.219  1.00  0.00     0.037 A 
ATOM     50  C   UNL A   1      44.783  30.789  31.197  1.00  0.00     0.049 A 
ATOM     51  C   UNL A   1      39.570  32.827  30.894  1.00  0.00     0.074 A 
ATOM     52  C   UNL A   1      45.738  31.611  31.766  1.00  0.00     0.029 A 
ATOM     53  N   UNL A   1      43.580  31.479  31.244  1.00  0.00    -0.354 N 
ATOM     54  N   UNL A   1      40.831  32.493  31.029  1.00  0.00    -0.248 NA
ATOM     55  C   UNL A   1      39.228  34.123  31.498  1.00  0.00     0.031 C 
ATOM     56  C   UNL A   1      45.104  32.774  32.211  1.00  0.00     0.029 A 
ATOM     57  C   UNL A   1      43.766  32.707  31.858  1.00  0.00     0.049 A 
ATOM     58  H   UNL A   1      42.723  31.147  30.892  1.00  0.00     0.167 HD
ATOM     59  C   UNL A   1      41.438  33.550  31.694  1.00  0.00     0.074 A 
ATOM     60  C   UNL A   1      40.409  34.540  31.933  1.00  0.00     0.031 C 
ATOM     61  C   UNL A   1      42.733  33.690  32.070  1.00  0.00     0.037 A 
BRANCH  48  62
ATOM     62  C   UNL A   1      46.303  28.824  30.736  1.00  0.00     0.064 A 
ATOM     63  C   UNL A   1      46.683  28.044  31.840  1.00  0.00     0.173 A 
ATOM     64  C   UNL A   1      47.223  28.963  29.686  1.00  0.00     0.173 A 
ATOM     65  F   UNL A   1      45.845  27.887  32.876  1.00  0.00    -0.203 F 
ATOM     66  C   UNL A   1      47.944  27.459  31.904  1.00  0.00     0.198 A 
ATOM     67  C   UNL A   1      48.470  28.346  29.737  1.00  0.00     0.198 A 
ATOM     68  F   UNL A   1      46.911  29.691  28.603  1.00  0.00    -0.203 F 
ATOM     69  F   UNL A   1      48.304  26.767  32.994  1.00  0.00    -0.200 F 
ATOM     70  C   UNL A   1      48.833  27.603  30.850  1.00  0.00     0.200 A 
ATOM     71  F   UNL A   1      49.322  28.473  28.710  1.00  0.00    -0.200 F 
ATOM     72  F   UNL A   1      50.044  27.031  30.911  1.00  0.00    -0.200 F 
ENDBRANCH  48  62
BRANCH  49  73
ATOM     73  C   UNL A   1      37.080  32.639  30.162  1.00  0.00     0.064 A 
ATOM     74  C   UNL A   1      36.663  33.405  29.064  1.00  0.00     0.173 A 
ATOM     75  C   UNL A   1      36.158  32.431  31.198  1.00  0.00     0.173 A 
ATOM     76  F   UNL A   1      37.513  33.647  28.055  1.00  0.00    -0.203 F 
ATOM     77  C   UNL A   1      35.387  33.963  29.017  1.00  0.00     0.198 A 
ATOM     78  C   UNL A   1      34.871  32.961  31.134  1.00  0.00     0.198 A 
ATOM     79  F   UNL A   1      36.499  31.693  32.265  1.00  0.00    -0.203 F 
ATOM     80  F   UNL A   1      35.032  34.731  27.978  1.00  0.00    -0.200 F 
ATOM     81  C   UNL A   1      34.489  33.735  30.049  1.00  0.00     0.200 A 
ATOM     82  F   UNL A   1      34.001  32.720  32.124  1.00  0.00    -0.200 F 
ATOM     83  F   UNL A   1      33.260  34.265  30.000  1.00  0.00    -0.200 F 
ENDBRANCH  49  73
BRANCH  61  84
ATOM     84  C   UNL A   1      43.133  34.978  32.730  1.00  0.00     0.064 A 
ATOM     85  C   UNL A   1      43.530  36.099  31.987  1.00  0.00     0.173 A 
ATOM     86  C   UNL A   1      43.044  35.112  34.125  1.00  0.00     0.173 A 
ATOM     87  F   UNL A   1      43.645  36.018  30.653  1.00  0.00    -0.203 F 
ATOM     88  C   UNL A   1      43.841  37.302  32.618  1.00  0.00     0.198 A 
ATOM     89  C   UNL A   1      43.323  36.325  34.749  1.00  0.00     0.198 A 
ATOM     90  F   UNL A   1      42.662  34.073  34.882  1.00  0.00    -0.203 F 
ATOM     91  F   UNL A   1      44.257  38.348  31.891  1.00  0.00    -0.200 F 
ATOM     92  C   UNL A   1      43.725  37.417  33.995  1.00  0.00     0.200 A 
ATOM     93  F   UNL A   1      43.195  36.438  36.077  1.00  0.00    -0.200 F 
ATOM     94  F   UNL A   1      44.006  38.581  34.597  1.00  0.00    -0.200 F 
ENDBRANCH  61  84
ENDBRANCH  35  36
ENDBRANCH  27  30
ENDBRANCH  25  26
ENDBRANCH  24  25
ENDBRANCH   1  24
TORSDOF 13
ENDMDL
MODEL 3
REMARK VINA RESULT:     -12.2      3.562      6.608
REMARK SMILES CSc1ccccc1NC(=O)[C@@H]1CC=CC[C@H]1C(=O)NCCCNC(=O)c1ccc(-c2c3nc(c(-c4c(F)c(F)c(F)c(F)c4F)c4ccc([nH]4)c(-c4c(F)c(F)c(F)c(F)c4F)c4nc(c(-c5c(F)c(F)c(F)c(F)c5F)c5ccc2[nH]5)C=C4)C=C3)cc1
REMARK SMILES IDX 21 1 20 2 18 3 19 4 17 6 12 7 13 8 14 9 16 10 15 11 10 12
REMARK SMILES IDX 9 13 11 15 8 16 3 17 4 18 5 19 7 20 6 21 2 22 1 23 22 24
REMARK SMILES IDX 23 25 24 26 25 27 26 29 27 30 28 31 89 32 29 33 88 34 30 35
REMARK SMILES IDX 31 36 32 37 82 38 33 39 87 40 81 41 83 42 34 43 86 44 80 45
REMARK SMILES IDX 79 46 35 48 67 49 47 50 66 51 48 52 51 53 65 54 84 55 49 56
REMARK SMILES IDX 50 57 64 59 85 60 52 61 36 62 37 63 45 64 38 65 39 66 43 67
REMARK SMILES IDX 46 68 40 69 41 70 44 71 42 72 68 73 69 74 77 75 70 76 71 77
REMARK SMILES IDX 75 78 78 79 72 80 73 81 76 82 74 83 53 84 54 85 62 86 55 87
REMARK SMILES IDX 56 88 60 89 63 90 57 91 58 92 61 93 59 94
REMARK H PARENT 20 5 9 14 24 28 83 47 51 58
REMARK Flexibility Score: inf
ROOT
ATOM      1  C   UNL A   1      32.642  26.590  26.261  1.00  0.00     0.117 C 
ENDROOT
BRANCH   1   2
ATOM      2  N   UNL A   1      31.609  25.661  26.687  1.00  0.00    -0.356 N 
ATOM      3  C   UNL A   1      31.506  24.307  26.604  1.00  0.00     0.224 C 
ATOM      4  O   UNL A   1      30.526  23.795  27.151  1.00  0.00    -0.275 OA
ATOM      5  H   UNL A   1      30.838  26.093  27.119  1.00  0.00     0.163 HD
BRANCH   3   6
ATOM      6  C   UNL A   1      32.566  23.441  25.934  1.00  0.00     0.095 C 
ATOM      7  C   UNL A   1      32.935  23.897  24.507  1.00  0.00     0.095 C 
ATOM      8  C   UNL A   1      33.979  22.932  23.925  1.00  0.00     0.041 C 
ATOM      9  C   UNL A   1      35.182  22.852  24.815  1.00  0.00    -0.030 C 
ATOM     10  C   UNL A   1      33.803  23.316  26.854  1.00  0.00     0.041 C 
ATOM     11  C   UNL A   1      35.098  23.044  26.139  1.00  0.00    -0.030 C 
BRANCH   7  12
ATOM     12  C   UNL A   1      31.767  23.965  23.545  1.00  0.00     0.228 C 
ATOM     13  N   UNL A   1      31.504  25.083  22.804  1.00  0.00    -0.325 N 
ATOM     14  H   UNL A   1      30.717  24.959  22.224  1.00  0.00     0.169 HD
ATOM     15  O   UNL A   1      31.026  22.991  23.390  1.00  0.00    -0.274 OA
BRANCH  13  16
ATOM     16  C   UNL A   1      32.069  26.376  22.653  1.00  0.00     0.054 A 
ATOM     17  C   UNL A   1      31.242  27.491  22.962  1.00  0.00     0.031 A 
ATOM     18  C   UNL A   1      31.767  28.792  22.880  1.00  0.00     0.017 A 
ATOM     19  C   UNL A   1      33.093  29.007  22.511  1.00  0.00     0.001 A 
ATOM     20  C   UNL A   1      33.378  26.629  22.230  1.00  0.00     0.027 A 
ATOM     21  C   UNL A   1      33.893  27.927  22.178  1.00  0.00     0.002 A 
BRANCH  17  22
ATOM     22  S   UNL A   1      29.505  27.229  23.389  1.00  0.00    -0.127 SA
ATOM     23  C   UNL A   1      28.733  28.803  22.916  1.00  0.00     0.091 C 
ENDBRANCH  17  22
ENDBRANCH  13  16
ENDBRANCH   7  12
ENDBRANCH   3   6
ENDBRANCH   1   2
BRANCH   1  24
ATOM     24  C   UNL A   1      32.241  28.035  26.517  1.00  0.00     0.042 C 
BRANCH  24  25
ATOM     25  C   UNL A   1      33.230  29.053  25.971  1.00  0.00     0.118 C 
BRANCH  25  26
ATOM     26  N   UNL A   1      32.864  30.423  26.302  1.00  0.00    -0.352 N 
ATOM     27  C   UNL A   1      33.433  31.299  27.193  1.00  0.00     0.251 C 
ATOM     28  H   UNL A   1      32.087  30.776  25.813  1.00  0.00     0.163 HD
ATOM     29  O   UNL A   1      32.855  32.345  27.477  1.00  0.00    -0.269 OA
BRANCH  27  30
ATOM     30  C   UNL A   1      34.729  30.980  27.828  1.00  0.00     0.039 A 
ATOM     31  C   UNL A   1      35.697  31.983  27.935  1.00  0.00     0.014 A 
ATOM     32  C   UNL A   1      34.997  29.695  28.305  1.00  0.00     0.014 A 
ATOM     33  C   UNL A   1      36.902  31.717  28.589  1.00  0.00     0.010 A 
ATOM     34  C   UNL A   1      36.155  29.457  29.035  1.00  0.00     0.010 A 
ATOM     35  C   UNL A   1      37.122  30.463  29.182  1.00  0.00    -0.014 A 
BRANCH  35  36
ATOM     36  C   UNL A   1      38.356  30.168  29.952  1.00  0.00     0.031 A 
ATOM     37  C   UNL A   1      39.379  29.221  29.391  1.00  0.00     0.074 A 
ATOM     38  C   UNL A   1      38.513  30.681  31.188  1.00  0.00     0.049 A 
ATOM     39  N   UNL A   1      40.452  28.729  29.956  1.00  0.00    -0.248 NA
ATOM     40  C   UNL A   1      39.146  28.736  28.021  1.00  0.00     0.031 C 
ATOM     41  C   UNL A   1      37.579  31.590  31.853  1.00  0.00     0.029 A 
ATOM     42  N   UNL A   1      39.512  30.498  32.112  1.00  0.00    -0.354 N 
ATOM     43  C   UNL A   1      41.009  27.867  29.020  1.00  0.00     0.074 A 
ATOM     44  C   UNL A   1      40.126  27.857  27.874  1.00  0.00     0.031 C 
ATOM     45  C   UNL A   1      38.058  31.902  33.068  1.00  0.00     0.029 A 
ATOM     46  C   UNL A   1      39.304  31.173  33.290  1.00  0.00     0.049 A 
ATOM     47  H   UNL A   1      40.303  29.936  31.947  1.00  0.00     0.167 HD
ATOM     48  C   UNL A   1      42.164  27.164  29.100  1.00  0.00     0.037 A 
ATOM     49  C   UNL A   1      40.026  31.189  34.426  1.00  0.00     0.037 A 
ATOM     50  C   UNL A   1      43.048  27.194  30.235  1.00  0.00     0.049 A 
ATOM     51  C   UNL A   1      41.288  30.371  34.505  1.00  0.00     0.074 A 
ATOM     52  C   UNL A   1      44.265  26.557  30.396  1.00  0.00     0.029 A 
ATOM     53  N   UNL A   1      42.806  27.898  31.406  1.00  0.00    -0.354 N 
ATOM     54  N   UNL A   1      41.833  29.600  33.594  1.00  0.00    -0.248 NA
ATOM     55  C   UNL A   1      42.036  30.421  35.769  1.00  0.00     0.031 C 
ATOM     56  C   UNL A   1      44.732  26.827  31.686  1.00  0.00     0.029 A 
ATOM     57  C   UNL A   1      43.839  27.688  32.304  1.00  0.00     0.049 A 
ATOM     58  H   UNL A   1      42.018  28.464  31.573  1.00  0.00     0.167 HD
ATOM     59  C   UNL A   1      43.003  29.109  34.158  1.00  0.00     0.074 A 
ATOM     60  C   UNL A   1      43.093  29.671  35.489  1.00  0.00     0.031 C 
ATOM     61  C   UNL A   1      43.923  28.271  33.620  1.00  0.00     0.037 A 
BRANCH  48  62
ATOM     62  C   UNL A   1      42.535  26.298  27.930  1.00  0.00     0.064 A 
ATOM     63  C   UNL A   1      42.005  25.008  27.769  1.00  0.00     0.173 A 
ATOM     64  C   UNL A   1      43.407  26.774  26.939  1.00  0.00     0.173 A 
ATOM     65  F   UNL A   1      41.174  24.499  28.692  1.00  0.00    -0.203 F 
ATOM     66  C   UNL A   1      42.362  24.216  26.680  1.00  0.00     0.198 A 
ATOM     67  C   UNL A   1      43.734  25.994  25.833  1.00  0.00     0.198 A 
ATOM     68  F   UNL A   1      43.937  28.002  27.038  1.00  0.00    -0.203 F 
ATOM     69  F   UNL A   1      41.887  22.967  26.579  1.00  0.00    -0.200 F 
ATOM     70  C   UNL A   1      43.219  24.712  25.710  1.00  0.00     0.200 A 
ATOM     71  F   UNL A   1      44.549  26.481  24.888  1.00  0.00    -0.200 F 
ATOM     72  F   UNL A   1      43.555  23.951  24.659  1.00  0.00    -0.200 F 
ENDBRANCH  48  62
BRANCH  49  73
ATOM     73  C   UNL A   1      39.582  32.016  35.580  1.00  0.00     0.064 A 
ATOM     74  C   UNL A   1      38.659  31.516  36.509  1.00  0.00     0.173 A 
ATOM     75  C   UNL A   1      40.064  33.319  35.777  1.00  0.00     0.173 A 
ATOM     76  F   UNL A   1      38.157  30.283  36.356  1.00  0.00    -0.203 F 
ATOM     77  C   UNL A   1      38.216  32.296  37.576  1.00  0.00     0.198 A 
ATOM     78  C   UNL A   1      39.645  34.085  36.863  1.00  0.00     0.198 A 
ATOM     79  F   UNL A   1      40.960  33.841  34.925  1.00  0.00    -0.203 F 
ATOM     80  F   UNL A   1      37.298  31.810  38.422  1.00  0.00    -0.200 F 
ATOM     81  C   UNL A   1      38.714  33.577  37.756  1.00  0.00     0.200 A 
ATOM     82  F   UNL A   1      40.146  35.315  37.043  1.00  0.00    -0.200 F 
ATOM     83  F   UNL A   1      38.293  34.324  38.785  1.00  0.00    -0.200 F 
ENDBRANCH  49  73
BRANCH  61  84
ATOM     84  C   UNL A   1      45.137  27.948  34.441  1.00  0.00     0.064 A 
ATOM     85  C   UNL A   1      45.189  26.821  35.275  1.00  0.00     0.173 A 
ATOM     86  C   UNL A   1      46.292  28.740  34.333  1.00  0.00     0.173 A 
ATOM     87  F   UNL A   1      44.108  26.042  35.425  1.00  0.00    -0.203 F 
ATOM     88  C   UNL A   1      46.348  26.510  35.983  1.00  0.00     0.198 A 
ATOM     89  C   UNL A   1      47.458  28.405  35.016  1.00  0.00     0.198 A 
ATOM     90  F   UNL A   1      46.297  29.824  33.543  1.00  0.00    -0.203 F 
ATOM     91  F   UNL A   1      46.362  25.451  36.805  1.00  0.00    -0.200 F 
ATOM     92  C   UNL A   1      47.483  27.294  35.844  1.00  0.00     0.200 A 
ATOM     93  F   UNL A   1      48.558  29.155  34.867  1.00  0.00    -0.200 F 
ATOM     94  F   UNL A   1      48.602  26.980  36.511  1.00  0.00    -0.200 F 
ENDBRANCH  61  84
ENDBRANCH  35  36
ENDBRANCH  27  30
ENDBRANCH  25  26
ENDBRANCH  24  25
ENDBRANCH   1  24
TORSDOF 13
ENDMDL
