MODEL 1
REMARK VINA RESULT:     -13.3      0.000      0.000
REMARK SMILES Cc1ccccc1OCC(=O)c1nc(C)c(C(=O)NCCCNC(=O)c2ccc(-c3c4nc(c(-c5c(F)c(F)c(F)c(F)c5F)c5ccc([nH]5)c(-c5c(F)c(F)c(F)c(F)c5F)c5nc(c(-c6c(F)c(F)c(F)c(F)c6F)c6ccc3[nH]6)C=C5)C=C4)cc2)s1
REMARK SMILES IDX 20 1 19 2 17 3 18 4 16 6 12 7 13 8 89 9 14 10 15 11 10 12
REMARK SMILES IDX 11 13 9 14 8 15 7 16 1 17 2 18 3 19 4 20 6 21 5 22 21 23
REMARK SMILES IDX 22 24 23 25 24 26 25 28 26 29 27 30 88 31 28 32 87 33 29 34
REMARK SMILES IDX 30 35 31 36 81 37 32 38 86 39 80 40 82 41 33 42 85 43 79 44
REMARK SMILES IDX 78 45 34 47 66 48 46 49 65 50 47 51 50 52 64 53 83 54 48 55
REMARK SMILES IDX 49 56 63 58 84 59 51 60 35 61 36 62 44 63 37 64 38 65 42 66
REMARK SMILES IDX 45 67 39 68 40 69 43 70 41 71 67 72 68 73 76 74 69 75 70 76
REMARK SMILES IDX 74 77 77 78 71 79 72 80 75 81 73 82 52 83 53 84 61 85 54 86
REMARK SMILES IDX 55 87 59 88 62 89 56 90 57 91 60 92 58 93
REMARK H PARENT 19 5 23 27 82 46 50 57
REMARK Flexibility Score: inf
ROOT
ATOM      1  C   UNL A   1      37.712  21.148  25.344  1.00  0.00     0.118 C 
ENDROOT
BRANCH   1   2
ATOM      2  N   UNL A   1      37.359  21.942  24.190  1.00  0.00    -0.351 N 
ATOM      3  C   UNL A   1      36.232  22.602  23.769  1.00  0.00     0.263 C 
ATOM      4  O   UNL A   1      36.429  23.188  22.693  1.00  0.00    -0.268 OA
ATOM      5  H   UNL A   1      38.105  22.032  23.553  1.00  0.00     0.163 HD
BRANCH   3   6
ATOM      6  C   UNL A   1      34.934  22.648  24.448  1.00  0.00     0.115 A 
ATOM      7  C   UNL A   1      33.002  23.698  25.599  1.00  0.00     0.164 A 
ATOM      8  N   UNL A   1      32.833  22.407  25.473  1.00  0.00    -0.237 NA
ATOM      9  S   UNL A   1      34.456  24.270  24.945  1.00  0.00    -0.105 S 
ATOM     10  C   UNL A   1      33.892  21.796  24.815  1.00  0.00     0.062 A 
ATOM     11  C   UNL A   1      33.628  20.356  24.609  1.00  0.00     0.068 C 
BRANCH   7  12
ATOM     12  C   UNL A   1      31.968  24.515  26.224  1.00  0.00     0.228 C 
ATOM     13  O   UNL A   1      31.428  24.192  27.292  1.00  0.00    -0.288 OA
BRANCH  12  14
ATOM     14  C   UNL A   1      31.449  25.770  25.525  1.00  0.00     0.313 C 
BRANCH  14  15
ATOM     15  O   UNL A   1      32.315  26.745  25.012  1.00  0.00    -0.485 OA
BRANCH  15  16
ATOM     16  C   UNL A   1      32.539  27.958  25.586  1.00  0.00     0.122 A 
ATOM     17  C   UNL A   1      30.848  29.530  24.397  1.00  0.00     0.048 C 
ATOM     18  C   UNL A   1      31.937  29.208  25.379  1.00  0.00    -0.009 A 
ATOM     19  C   UNL A   1      32.352  30.289  26.193  1.00  0.00     0.007 A 
ATOM     20  C   UNL A   1      33.356  30.155  27.151  1.00  0.00     0.001 A 
ATOM     21  C   UNL A   1      33.558  27.845  26.551  1.00  0.00     0.047 A 
ATOM     22  C   UNL A   1      33.971  28.927  27.324  1.00  0.00     0.004 A 
ENDBRANCH  15  16
ENDBRANCH  14  15
ENDBRANCH  12  14
ENDBRANCH   7  12
ENDBRANCH   3   6
ENDBRANCH   1   2
BRANCH   1  23
ATOM     23  C   UNL A   1      39.126  21.448  25.827  1.00  0.00     0.042 C 
BRANCH  23  24
ATOM     24  C   UNL A   1      39.343  22.864  26.332  1.00  0.00     0.118 C 
BRANCH  24  25
ATOM     25  N   UNL A   1      40.763  23.188  26.499  1.00  0.00    -0.352 N 
ATOM     26  C   UNL A   1      41.355  24.420  26.713  1.00  0.00     0.251 C 
ATOM     27  H   UNL A   1      41.380  22.422  26.454  1.00  0.00     0.163 HD
ATOM     28  O   UNL A   1      42.561  24.530  26.847  1.00  0.00    -0.269 OA
BRANCH  26  29
ATOM     29  C   UNL A   1      40.459  25.576  26.916  1.00  0.00     0.039 A 
ATOM     30  C   UNL A   1      40.809  26.766  26.272  1.00  0.00     0.014 A 
ATOM     31  C   UNL A   1      39.561  25.561  27.977  1.00  0.00     0.014 A 
ATOM     32  C   UNL A   1      40.469  27.970  26.873  1.00  0.00     0.010 A 
ATOM     33  C   UNL A   1      39.319  26.751  28.632  1.00  0.00     0.010 A 
ATOM     34  C   UNL A   1      39.842  27.945  28.120  1.00  0.00    -0.014 A 
BRANCH  34  35
ATOM     35  C   UNL A   1      39.837  29.099  29.013  1.00  0.00     0.031 A 
ATOM     36  C   UNL A   1      38.786  30.128  28.894  1.00  0.00     0.074 A 
ATOM     37  C   UNL A   1      40.771  29.192  29.987  1.00  0.00     0.049 A 
ATOM     38  N   UNL A   1      38.921  31.353  29.279  1.00  0.00    -0.248 NA
ATOM     39  C   UNL A   1      37.495  29.858  28.277  1.00  0.00     0.031 C 
ATOM     40  C   UNL A   1      40.774  30.112  31.121  1.00  0.00     0.029 A 
ATOM     41  N   UNL A   1      42.035  28.573  30.035  1.00  0.00    -0.354 N 
ATOM     42  C   UNL A   1      37.688  31.958  29.199  1.00  0.00     0.074 A 
ATOM     43  C   UNL A   1      36.845  31.000  28.521  1.00  0.00     0.031 C 
ATOM     44  C   UNL A   1      42.031  30.230  31.581  1.00  0.00     0.029 A 
ATOM     45  C   UNL A   1      42.892  29.505  30.663  1.00  0.00     0.049 A 
ATOM     46  H   UNL A   1      42.272  27.678  29.700  1.00  0.00     0.167 HD
ATOM     47  C   UNL A   1      37.484  33.153  29.827  1.00  0.00     0.037 A 
ATOM     48  C   UNL A   1      43.972  30.040  30.022  1.00  0.00     0.037 A 
ATOM     49  C   UNL A   1      38.715  33.645  30.442  1.00  0.00     0.049 A 
ATOM     50  C   UNL A   1      43.948  31.546  29.923  1.00  0.00     0.074 A 
ATOM     51  C   UNL A   1      39.208  33.557  31.734  1.00  0.00     0.029 A 
ATOM     52  N   UNL A   1      39.775  34.053  29.641  1.00  0.00    -0.354 N 
ATOM     53  N   UNL A   1      42.870  32.263  30.071  1.00  0.00    -0.248 NA
ATOM     54  C   UNL A   1      45.118  32.351  29.579  1.00  0.00     0.031 C 
ATOM     55  C   UNL A   1      40.589  33.868  31.699  1.00  0.00     0.029 A 
ATOM     56  C   UNL A   1      40.931  34.160  30.391  1.00  0.00     0.049 A 
ATOM     57  H   UNL A   1      39.711  34.240  28.675  1.00  0.00     0.167 HD
ATOM     58  C   UNL A   1      43.160  33.572  29.794  1.00  0.00     0.074 A 
ATOM     59  C   UNL A   1      44.584  33.583  29.522  1.00  0.00     0.031 C 
ATOM     60  C   UNL A   1      42.193  34.536  29.778  1.00  0.00     0.037 A 
BRANCH  47  61
ATOM     61  C   UNL A   1      36.112  33.708  30.146  1.00  0.00     0.064 A 
ATOM     62  C   UNL A   1      35.277  34.211  29.123  1.00  0.00     0.173 A 
ATOM     63  C   UNL A   1      35.588  33.840  31.444  1.00  0.00     0.173 A 
ATOM     64  F   UNL A   1      35.573  34.041  27.829  1.00  0.00    -0.203 F 
ATOM     65  C   UNL A   1      34.098  34.913  29.390  1.00  0.00     0.198 A 
ATOM     66  C   UNL A   1      34.442  34.594  31.718  1.00  0.00     0.198 A 
ATOM     67  F   UNL A   1      36.135  33.194  32.482  1.00  0.00    -0.203 F 
ATOM     68  F   UNL A   1      33.357  35.378  28.376  1.00  0.00    -0.200 F 
ATOM     69  C   UNL A   1      33.705  35.146  30.691  1.00  0.00     0.200 A 
ATOM     70  F   UNL A   1      34.057  34.782  32.990  1.00  0.00    -0.200 F 
ATOM     71  F   UNL A   1      32.608  35.869  30.952  1.00  0.00    -0.200 F 
ENDBRANCH  47  61
BRANCH  48  72
ATOM     72  C   UNL A   1      44.553  29.149  28.985  1.00  0.00     0.064 A 
ATOM     73  C   UNL A   1      45.385  28.091  29.394  1.00  0.00     0.173 A 
ATOM     74  C   UNL A   1      44.031  29.100  27.687  1.00  0.00     0.173 A 
ATOM     75  F   UNL A   1      45.907  28.088  30.632  1.00  0.00    -0.203 F 
ATOM     76  C   UNL A   1      45.596  26.981  28.581  1.00  0.00     0.198 A 
ATOM     77  C   UNL A   1      44.254  27.991  26.870  1.00  0.00     0.198 A 
ATOM     78  F   UNL A   1      43.213  30.067  27.247  1.00  0.00    -0.203 F 
ATOM     79  F   UNL A   1      46.302  25.939  29.043  1.00  0.00    -0.200 F 
ATOM     80  C   UNL A   1      45.008  26.920  27.329  1.00  0.00     0.200 A 
ATOM     81  F   UNL A   1      43.655  27.914  25.674  1.00  0.00    -0.200 F 
ATOM     82  F   UNL A   1      45.127  25.812  26.585  1.00  0.00    -0.200 F 
ENDBRANCH  48  72
BRANCH  60  83
ATOM     83  C   UNL A   1      42.379  35.935  29.261  1.00  0.00     0.064 A 
ATOM     84  C   UNL A   1      43.141  36.910  29.926  1.00  0.00     0.173 A 
ATOM     85  C   UNL A   1      41.898  36.293  27.981  1.00  0.00     0.173 A 
ATOM     86  F   UNL A   1      43.740  36.645  31.095  1.00  0.00    -0.203 F 
ATOM     87  C   UNL A   1      43.356  38.176  29.376  1.00  0.00     0.198 A 
ATOM     88  C   UNL A   1      42.158  37.540  27.414  1.00  0.00     0.198 A 
ATOM     89  F   UNL A   1      41.184  35.432  27.241  1.00  0.00    -0.203 F 
ATOM     90  F   UNL A   1      44.058  39.087  30.064  1.00  0.00    -0.200 F 
ATOM     91  C   UNL A   1      42.874  38.487  28.118  1.00  0.00     0.200 A 
ATOM     92  F   UNL A   1      41.727  37.809  26.173  1.00  0.00    -0.200 F 
ATOM     93  F   UNL A   1      43.117  39.688  27.578  1.00  0.00    -0.200 F 
ENDBRANCH  60  83
ENDBRANCH  34  35
ENDBRANCH  26  29
ENDBRANCH  24  25
ENDBRANCH  23  24
ENDBRANCH   1  23
TORSDOF 14
ENDMDL
MODEL 2
REMARK VINA RESULT:     -13.2      3.847     10.412
REMARK SMILES Cc1ccccc1OCC(=O)c1nc(C)c(C(=O)NCCCNC(=O)c2ccc(-c3c4nc(c(-c5c(F)c(F)c(F)c(F)c5F)c5ccc([nH]5)c(-c5c(F)c(F)c(F)c(F)c5F)c5nc(c(-c6c(F)c(F)c(F)c(F)c6F)c6ccc3[nH]6)C=C5)C=C4)cc2)s1
REMARK SMILES IDX 20 1 19 2 17 3 18 4 16 6 12 7 13 8 89 9 14 10 15 11 10 12
REMARK SMILES IDX 11 13 9 14 8 15 7 16 1 17 2 18 3 19 4 20 6 21 5 22 21 23
REMARK SMILES IDX 22 24 23 25 24 26 25 28 26 29 27 30 88 31 28 32 87 33 29 34
REMARK SMILES IDX 30 35 31 36 81 37 32 38 86 39 80 40 82 41 33 42 85 43 79 44
REMARK SMILES IDX 78 45 34 47 66 48 46 49 65 50 47 51 50 52 64 53 83 54 48 55
REMARK SMILES IDX 49 56 63 58 84 59 51 60 35 61 36 62 44 63 37 64 38 65 42 66
REMARK SMILES IDX 45 67 39 68 40 69 43 70 41 71 67 72 68 73 76 74 69 75 70 76
REMARK SMILES IDX 74 77 77 78 71 79 72 80 75 81 73 82 52 83 53 84 61 85 54 86
REMARK SMILES IDX 55 87 59 88 62 89 56 90 57 91 60 92 58 93
REMARK H PARENT 19 5 23 27 82 46 50 57
REMARK Flexibility Score: inf
ROOT
ATOM      1  C   UNL A   1      32.224  30.307  26.196  1.00  0.00     0.118 C 
ENDROOT
BRANCH   1   2
ATOM      2  N   UNL A   1      31.765  29.073  26.794  1.00  0.00    -0.351 N 
ATOM      3  C   UNL A   1      31.440  27.825  26.326  1.00  0.00     0.263 C 
ATOM      4  O   UNL A   1      31.120  27.066  27.253  1.00  0.00    -0.268 OA
ATOM      5  H   UNL A   1      31.660  29.146  27.771  1.00  0.00     0.163 HD
BRANCH   3   6
ATOM      6  C   UNL A   1      31.444  27.381  24.929  1.00  0.00     0.115 A 
ATOM      7  C   UNL A   1      32.298  26.208  22.915  1.00  0.00     0.164 A 
ATOM      8  N   UNL A   1      31.164  26.812  22.666  1.00  0.00    -0.237 NA
ATOM      9  S   UNL A   1      32.840  26.389  24.509  1.00  0.00    -0.105 S 
ATOM     10  C   UNL A   1      30.655  27.462  23.782  1.00  0.00     0.062 A 
ATOM     11  C   UNL A   1      29.331  28.055  23.490  1.00  0.00     0.068 C 
BRANCH   7  12
ATOM     12  C   UNL A   1      32.959  25.432  21.873  1.00  0.00     0.228 C 
ATOM     13  O   UNL A   1      33.278  25.929  20.782  1.00  0.00    -0.288 OA
BRANCH  12  14
ATOM     14  C   UNL A   1      33.207  23.937  22.063  1.00  0.00     0.313 C 
BRANCH  14  15
ATOM     15  O   UNL A   1      34.392  23.447  22.630  1.00  0.00    -0.485 OA
BRANCH  15  16
ATOM     16  C   UNL A   1      34.458  22.742  23.792  1.00  0.00     0.122 A 
ATOM     17  C   UNL A   1      36.603  23.644  24.944  1.00  0.00     0.048 C 
ATOM     18  C   UNL A   1      35.380  22.778  24.847  1.00  0.00    -0.009 A 
ATOM     19  C   UNL A   1      35.138  21.953  25.971  1.00  0.00     0.007 A 
ATOM     20  C   UNL A   1      34.047  21.088  26.035  1.00  0.00     0.001 A 
ATOM     21  C   UNL A   1      33.367  21.855  23.871  1.00  0.00     0.047 A 
ATOM     22  C   UNL A   1      33.161  21.030  24.973  1.00  0.00     0.004 A 
ENDBRANCH  15  16
ENDBRANCH  14  15
ENDBRANCH  12  14
ENDBRANCH   7  12
ENDBRANCH   3   6
ENDBRANCH   1   2
BRANCH   1  23
ATOM     23  C   UNL A   1      32.987  31.169  27.194  1.00  0.00     0.042 C 
BRANCH  23  24
ATOM     24  C   UNL A   1      34.043  30.433  28.000  1.00  0.00     0.118 C 
BRANCH  24  25
ATOM     25  N   UNL A   1      34.901  31.344  28.764  1.00  0.00    -0.352 N 
ATOM     26  C   UNL A   1      36.134  31.098  29.343  1.00  0.00     0.251 C 
ATOM     27  H   UNL A   1      34.551  32.257  28.882  1.00  0.00     0.163 HD
ATOM     28  O   UNL A   1      36.738  31.969  29.942  1.00  0.00    -0.269 OA
BRANCH  26  29
ATOM     29  C   UNL A   1      36.754  29.784  29.083  1.00  0.00     0.039 A 
ATOM     30  C   UNL A   1      37.103  29.019  30.199  1.00  0.00     0.014 A 
ATOM     31  C   UNL A   1      37.290  29.523  27.826  1.00  0.00     0.014 A 
ATOM     32  C   UNL A   1      38.197  28.170  30.106  1.00  0.00     0.010 A 
ATOM     33  C   UNL A   1      38.442  28.766  27.763  1.00  0.00     0.010 A 
ATOM     34  C   UNL A   1      38.937  28.156  28.923  1.00  0.00    -0.014 A 
BRANCH  34  35
ATOM     35  C   UNL A   1      40.307  27.658  28.867  1.00  0.00     0.031 A 
ATOM     36  C   UNL A   1      40.574  26.253  28.500  1.00  0.00     0.074 A 
ATOM     37  C   UNL A   1      41.335  28.505  29.100  1.00  0.00     0.049 A 
ATOM     38  N   UNL A   1      41.633  25.600  28.846  1.00  0.00    -0.248 NA
ATOM     39  C   UNL A   1      39.627  25.450  27.740  1.00  0.00     0.031 C 
ATOM     40  C   UNL A   1      42.752  28.268  28.837  1.00  0.00     0.029 A 
ATOM     41  N   UNL A   1      41.311  29.717  29.816  1.00  0.00    -0.354 N 
ATOM     42  C   UNL A   1      41.633  24.405  28.165  1.00  0.00     0.074 A 
ATOM     43  C   UNL A   1      40.337  24.339  27.529  1.00  0.00     0.031 C 
ATOM     44  C   UNL A   1      43.480  29.101  29.599  1.00  0.00     0.029 A 
ATOM     45  C   UNL A   1      42.557  29.793  30.480  1.00  0.00     0.049 A 
ATOM     46  H   UNL A   1      40.578  30.375  29.849  1.00  0.00     0.167 HD
ATOM     47  C   UNL A   1      42.776  23.661  28.113  1.00  0.00     0.037 A 
ATOM     48  C   UNL A   1      42.649  29.817  31.842  1.00  0.00     0.037 A 
ATOM     49  C   UNL A   1      43.840  24.268  28.909  1.00  0.00     0.049 A 
ATOM     50  C   UNL A   1      43.467  28.691  32.425  1.00  0.00     0.074 A 
ATOM     51  C   UNL A   1      44.896  25.100  28.570  1.00  0.00     0.029 A 
ATOM     52  N   UNL A   1      43.730  24.313  30.294  1.00  0.00    -0.354 N 
ATOM     53  N   UNL A   1      43.746  27.591  31.783  1.00  0.00    -0.248 NA
ATOM     54  C   UNL A   1      43.971  28.685  33.797  1.00  0.00     0.031 C 
ATOM     55  C   UNL A   1      45.391  25.687  29.759  1.00  0.00     0.029 A 
ATOM     56  C   UNL A   1      44.649  25.201  30.821  1.00  0.00     0.049 A 
ATOM     57  H   UNL A   1      43.089  23.785  30.824  1.00  0.00     0.167 HD
ATOM     58  C   UNL A   1      44.386  26.727  32.629  1.00  0.00     0.074 A 
ATOM     59  C   UNL A   1      44.533  27.466  33.868  1.00  0.00     0.031 C 
ATOM     60  C   UNL A   1      44.713  25.458  32.249  1.00  0.00     0.037 A 
BRANCH  47  61
ATOM     61  C   UNL A   1      43.017  22.566  27.095  1.00  0.00     0.064 A 
ATOM     62  C   UNL A   1      42.316  21.341  27.169  1.00  0.00     0.173 A 
ATOM     63  C   UNL A   1      43.973  22.629  26.066  1.00  0.00     0.173 A 
ATOM     64  F   UNL A   1      41.285  21.171  28.006  1.00  0.00    -0.203 F 
ATOM     65  C   UNL A   1      42.649  20.234  26.382  1.00  0.00     0.198 A 
ATOM     66  C   UNL A   1      44.350  21.507  25.320  1.00  0.00     0.198 A 
ATOM     67  F   UNL A   1      44.532  23.793  25.711  1.00  0.00    -0.203 F 
ATOM     68  F   UNL A   1      41.955  19.095  26.509  1.00  0.00    -0.200 F 
ATOM     69  C   UNL A   1      43.698  20.303  25.490  1.00  0.00     0.200 A 
ATOM     70  F   UNL A   1      45.352  21.604  24.434  1.00  0.00    -0.200 F 
ATOM     71  F   UNL A   1      44.058  19.228  24.777  1.00  0.00    -0.200 F 
ENDBRANCH  47  61
BRANCH  48  72
ATOM     72  C   UNL A   1      41.467  30.417  32.511  1.00  0.00     0.064 A 
ATOM     73  C   UNL A   1      41.309  31.815  32.475  1.00  0.00     0.173 A 
ATOM     74  C   UNL A   1      40.350  29.646  32.852  1.00  0.00     0.173 A 
ATOM     75  F   UNL A   1      42.349  32.599  32.149  1.00  0.00    -0.203 F 
ATOM     76  C   UNL A   1      40.063  32.407  32.663  1.00  0.00     0.198 A 
ATOM     77  C   UNL A   1      39.105  30.244  33.051  1.00  0.00     0.198 A 
ATOM     78  F   UNL A   1      40.431  28.309  32.880  1.00  0.00    -0.203 F 
ATOM     79  F   UNL A   1      39.923  33.732  32.513  1.00  0.00    -0.200 F 
ATOM     80  C   UNL A   1      38.956  31.618  32.925  1.00  0.00     0.200 A 
ATOM     81  F   UNL A   1      38.026  29.479  33.267  1.00  0.00    -0.200 F 
ATOM     82  F   UNL A   1      37.740  32.175  33.009  1.00  0.00    -0.200 F 
ENDBRANCH  48  72
BRANCH  60  83
ATOM     83  C   UNL A   1      45.200  24.378  33.175  1.00  0.00     0.064 A 
ATOM     84  C   UNL A   1      44.427  23.263  33.537  1.00  0.00     0.173 A 
ATOM     85  C   UNL A   1      46.543  24.368  33.616  1.00  0.00     0.173 A 
ATOM     86  F   UNL A   1      43.175  23.109  33.083  1.00  0.00    -0.203 F 
ATOM     87  C   UNL A   1      44.941  22.239  34.336  1.00  0.00     0.198 A 
ATOM     88  C   UNL A   1      47.067  23.320  34.371  1.00  0.00     0.198 A 
ATOM     89  F   UNL A   1      47.384  25.365  33.306  1.00  0.00    -0.203 F 
ATOM     90  F   UNL A   1      44.153  21.213  34.687  1.00  0.00    -0.200 F 
ATOM     91  C   UNL A   1      46.262  22.263  34.744  1.00  0.00     0.200 A 
ATOM     92  F   UNL A   1      48.362  23.332  34.717  1.00  0.00    -0.200 F 
ATOM     93  F   UNL A   1      46.762  21.259  35.477  1.00  0.00    -0.200 F 
ENDBRANCH  60  83
ENDBRANCH  34  35
ENDBRANCH  26  29
ENDBRANCH  24  25
ENDBRANCH  23  24
ENDBRANCH   1  23
TORSDOF 14
ENDMDL
MODEL 3
REMARK VINA RESULT:     -13.1      3.735     10.289
REMARK SMILES Cc1ccccc1OCC(=O)c1nc(C)c(C(=O)NCCCNC(=O)c2ccc(-c3c4nc(c(-c5c(F)c(F)c(F)c(F)c5F)c5ccc([nH]5)c(-c5c(F)c(F)c(F)c(F)c5F)c5nc(c(-c6c(F)c(F)c(F)c(F)c6F)c6ccc3[nH]6)C=C5)C=C4)cc2)s1
REMARK SMILES IDX 20 1 19 2 17 3 18 4 16 6 12 7 13 8 89 9 14 10 15 11 10 12
REMARK SMILES IDX 11 13 9 14 8 15 7 16 1 17 2 18 3 19 4 20 6 21 5 22 21 23
REMARK SMILES IDX 22 24 23 25 24 26 25 28 26 29 27 30 88 31 28 32 87 33 29 34
REMARK SMILES IDX 30 35 31 36 81 37 32 38 86 39 80 40 82 41 33 42 85 43 79 44
REMARK SMILES IDX 78 45 34 47 66 48 46 49 65 50 47 51 50 52 64 53 83 54 48 55
REMARK SMILES IDX 49 56 63 58 84 59 51 60 35 61 36 62 44 63 37 64 38 65 42 66
REMARK SMILES IDX 45 67 39 68 40 69 43 70 41 71 67 72 68 73 76 74 69 75 70 76
REMARK SMILES IDX 74 77 77 78 71 79 72 80 75 81 73 82 52 83 53 84 61 85 54 86
REMARK SMILES IDX 55 87 59 88 62 89 56 90 57 91 60 92 58 93
REMARK H PARENT 19 5 23 27 82 46 50 57
REMARK Flexibility Score: inf
ROOT
ATOM      1  C   UNL A   1      32.137  30.489  26.214  1.00  0.00     0.118 C 
ENDROOT
BRANCH   1   2
ATOM      2  N   UNL A   1      32.921  30.054  25.080  1.00  0.00    -0.351 N 
ATOM      3  C   UNL A   1      33.052  28.883  24.378  1.00  0.00     0.263 C 
ATOM      4  O   UNL A   1      33.849  29.010  23.436  1.00  0.00    -0.268 OA
ATOM      5  H   UNL A   1      33.499  30.769  24.727  1.00  0.00     0.163 HD
BRANCH   3   6
ATOM      6  C   UNL A   1      32.374  27.612  24.651  1.00  0.00     0.115 A 
ATOM      7  C   UNL A   1      32.010  25.414  25.742  1.00  0.00     0.164 A 
ATOM      8  N   UNL A   1      31.059  25.678  24.883  1.00  0.00    -0.237 NA
ATOM      9  S   UNL A   1      33.184  26.627  25.866  1.00  0.00    -0.105 S 
ATOM     10  C   UNL A   1      31.229  26.912  24.270  1.00  0.00     0.062 A 
ATOM     11  C   UNL A   1      30.092  27.220  23.375  1.00  0.00     0.068 C 
BRANCH   7  12
ATOM     12  C   UNL A   1      31.972  24.180  26.519  1.00  0.00     0.228 C 
ATOM     13  O   UNL A   1      31.014  23.890  27.251  1.00  0.00    -0.288 OA
BRANCH  12  14
ATOM     14  C   UNL A   1      33.170  23.232  26.521  1.00  0.00     0.313 C 
BRANCH  14  15
ATOM     15  O   UNL A   1      34.317  23.484  25.755  1.00  0.00    -0.485 OA
BRANCH  15  16
ATOM     16  C   UNL A   1      35.317  22.586  25.545  1.00  0.00     0.122 A 
ATOM     17  C   UNL A   1      34.066  20.369  25.033  1.00  0.00     0.048 C 
ATOM     18  C   UNL A   1      35.287  21.223  25.220  1.00  0.00    -0.009 A 
ATOM     19  C   UNL A   1      36.520  20.564  24.999  1.00  0.00     0.007 A 
ATOM     20  C   UNL A   1      37.745  21.215  25.136  1.00  0.00     0.001 A 
ATOM     21  C   UNL A   1      36.565  23.224  25.688  1.00  0.00     0.047 A 
ATOM     22  C   UNL A   1      37.768  22.552  25.493  1.00  0.00     0.004 A 
ENDBRANCH  15  16
ENDBRANCH  14  15
ENDBRANCH  12  14
ENDBRANCH   7  12
ENDBRANCH   3   6
ENDBRANCH   1   2
BRANCH   1  23
ATOM     23  C   UNL A   1      32.971  31.295  27.202  1.00  0.00     0.042 C 
BRANCH  23  24
ATOM     24  C   UNL A   1      34.109  30.529  27.853  1.00  0.00     0.118 C 
BRANCH  24  25
ATOM     25  N   UNL A   1      34.906  31.368  28.753  1.00  0.00    -0.352 N 
ATOM     26  C   UNL A   1      36.079  31.059  29.420  1.00  0.00     0.251 C 
ATOM     27  H   UNL A   1      34.559  32.277  28.904  1.00  0.00     0.163 HD
ATOM     28  O   UNL A   1      36.638  31.874  30.131  1.00  0.00    -0.269 OA
BRANCH  26  29
ATOM     29  C   UNL A   1      36.704  29.755  29.122  1.00  0.00     0.039 A 
ATOM     30  C   UNL A   1      37.078  28.970  30.217  1.00  0.00     0.014 A 
ATOM     31  C   UNL A   1      37.219  29.523  27.852  1.00  0.00     0.014 A 
ATOM     32  C   UNL A   1      38.176  28.132  30.087  1.00  0.00     0.010 A 
ATOM     33  C   UNL A   1      38.375  28.776  27.752  1.00  0.00     0.010 A 
ATOM     34  C   UNL A   1      38.895  28.147  28.891  1.00  0.00    -0.014 A 
BRANCH  34  35
ATOM     35  C   UNL A   1      40.268  27.660  28.801  1.00  0.00     0.031 A 
ATOM     36  C   UNL A   1      40.537  26.256  28.433  1.00  0.00     0.074 A 
ATOM     37  C   UNL A   1      41.294  28.517  29.003  1.00  0.00     0.049 A 
ATOM     38  N   UNL A   1      41.610  25.614  28.754  1.00  0.00    -0.248 NA
ATOM     39  C   UNL A   1      39.577  25.442  27.702  1.00  0.00     0.031 C 
ATOM     40  C   UNL A   1      42.705  28.291  28.703  1.00  0.00     0.029 A 
ATOM     41  N   UNL A   1      41.278  29.732  29.714  1.00  0.00    -0.354 N 
ATOM     42  C   UNL A   1      41.602  24.415  28.078  1.00  0.00     0.074 A 
ATOM     43  C   UNL A   1      40.290  24.335  27.477  1.00  0.00     0.031 C 
ATOM     44  C   UNL A   1      43.446  29.133  29.441  1.00  0.00     0.029 A 
ATOM     45  C   UNL A   1      42.541  29.822  30.344  1.00  0.00     0.049 A 
ATOM     46  H   UNL A   1      40.542  30.384  29.763  1.00  0.00     0.167 HD
ATOM     47  C   UNL A   1      42.750  23.681  27.998  1.00  0.00     0.037 A 
ATOM     48  C   UNL A   1      42.669  29.853  31.702  1.00  0.00     0.037 A 
ATOM     49  C   UNL A   1      43.830  24.301  28.763  1.00  0.00     0.049 A 
ATOM     50  C   UNL A   1      43.513  28.736  32.269  1.00  0.00     0.074 A 
ATOM     51  C   UNL A   1      44.868  25.140  28.393  1.00  0.00     0.029 A 
ATOM     52  N   UNL A   1      43.756  24.351  30.150  1.00  0.00    -0.354 N 
ATOM     53  N   UNL A   1      43.783  27.636  31.624  1.00  0.00    -0.248 NA
ATOM     54  C   UNL A   1      44.053  28.741  33.626  1.00  0.00     0.031 C 
ATOM     55  C   UNL A   1      45.390  25.737  29.565  1.00  0.00     0.029 A 
ATOM     56  C   UNL A   1      44.681  25.249  30.648  1.00  0.00     0.049 A 
ATOM     57  H   UNL A   1      43.134  23.820  30.700  1.00  0.00     0.167 HD
ATOM     58  C   UNL A   1      44.454  26.781  32.457  1.00  0.00     0.074 A 
ATOM     59  C   UNL A   1      44.627  27.527  33.688  1.00  0.00     0.031 C 
ATOM     60  C   UNL A   1      44.781  25.513  32.073  1.00  0.00     0.037 A 
BRANCH  47  61
ATOM     61  C   UNL A   1      42.973  22.583  26.979  1.00  0.00     0.064 A 
ATOM     62  C   UNL A   1      42.300  21.346  27.088  1.00  0.00     0.173 A 
ATOM     63  C   UNL A   1      43.887  22.658  25.914  1.00  0.00     0.173 A 
ATOM     64  F   UNL A   1      41.305  21.162  27.965  1.00  0.00    -0.203 F 
ATOM     65  C   UNL A   1      42.623  20.240  26.296  1.00  0.00     0.198 A 
ATOM     66  C   UNL A   1      44.257  21.538  25.161  1.00  0.00     0.198 A 
ATOM     67  F   UNL A   1      44.410  23.830  25.529  1.00  0.00    -0.203 F 
ATOM     68  F   UNL A   1      41.958  19.088  26.457  1.00  0.00    -0.200 F 
ATOM     69  C   UNL A   1      43.636  20.323  25.364  1.00  0.00     0.200 A 
ATOM     70  F   UNL A   1      45.222  21.647  24.236  1.00  0.00    -0.200 F 
ATOM     71  F   UNL A   1      43.989  19.249  24.645  1.00  0.00    -0.200 F 
ENDBRANCH  47  61
BRANCH  48  72
ATOM     72  C   UNL A   1      41.500  30.446  32.400  1.00  0.00     0.064 A 
ATOM     73  C   UNL A   1      41.333  31.843  32.369  1.00  0.00     0.173 A 
ATOM     74  C   UNL A   1      40.396  29.668  32.769  1.00  0.00     0.173 A 
ATOM     75  F   UNL A   1      42.360  32.633  32.016  1.00  0.00    -0.203 F 
ATOM     76  C   UNL A   1      40.089  32.427  32.587  1.00  0.00     0.198 A 
ATOM     77  C   UNL A   1      39.153  30.259  32.999  1.00  0.00     0.198 A 
ATOM     78  F   UNL A   1      40.487  28.331  32.795  1.00  0.00    -0.203 F 
ATOM     79  F   UNL A   1      39.937  33.751  32.440  1.00  0.00    -0.200 F 
ATOM     80  C   UNL A   1      38.993  31.632  32.876  1.00  0.00     0.200 A 
ATOM     81  F   UNL A   1      38.085  29.487  33.241  1.00  0.00    -0.200 F 
ATOM     82  F   UNL A   1      37.776  32.181  32.990  1.00  0.00    -0.200 F 
ENDBRANCH  48  72
BRANCH  60  83
ATOM     83  C   UNL A   1      45.302  24.441  32.991  1.00  0.00     0.064 A 
ATOM     84  C   UNL A   1      46.605  24.436  33.513  1.00  0.00     0.173 A 
ATOM     85  C   UNL A   1      44.431  23.446  33.491  1.00  0.00     0.173 A 
ATOM     86  F   UNL A   1      47.484  25.398  33.196  1.00  0.00    -0.203 F 
ATOM     87  C   UNL A   1      47.029  23.467  34.425  1.00  0.00     0.198 A 
ATOM     88  C   UNL A   1      44.843  22.511  34.440  1.00  0.00     0.198 A 
ATOM     89  F   UNL A   1      43.155  23.372  33.088  1.00  0.00    -0.203 F 
ATOM     90  F   UNL A   1      48.294  23.480  34.867  1.00  0.00    -0.200 F 
ATOM     91  C   UNL A   1      46.146  22.512  34.896  1.00  0.00     0.200 A 
ATOM     92  F   UNL A   1      43.963  21.623  34.925  1.00  0.00    -0.200 F 
ATOM     93  F   UNL A   1      46.545  21.609  35.801  1.00  0.00    -0.200 F 
ENDBRANCH  60  83
ENDBRANCH  34  35
ENDBRANCH  26  29
ENDBRANCH  24  25
ENDBRANCH  23  24
ENDBRANCH   1  23
TORSDOF 14
ENDMDL
