MODEL 1
REMARK VINA RESULT:     -12.3      0.000      0.000
REMARK SMILES CC(C)[C@@H](ON1C(=O)c2ccccc2C1=O)C(=O)NCCCNC(=O)c1ccc(-c2c3nc(c(-c4c(F)c(F)c(F)c(F)c4F)c4ccc([nH]4)c(-c4c(F)c(F)c(F)c(F)c4F)c4nc(c(-c5c(F)c(F)c(F)c(F)c5F)c5ccc2[nH]5)C=C4)C=C3)cc1
REMARK SMILES IDX 21 1 20 2 19 3 17 4 18 5 4 7 2 8 1 9 3 10 5 11 6 12 7 13
REMARK SMILES IDX 15 14 8 15 9 16 14 17 16 18 10 19 13 20 11 21 12 22 22 23
REMARK SMILES IDX 23 24 24 25 25 27 26 28 27 29 88 30 28 31 87 32 29 33 30 34
REMARK SMILES IDX 31 35 81 36 32 37 86 38 80 39 82 40 33 41 85 42 79 43 78 44
REMARK SMILES IDX 34 46 66 47 46 48 65 49 47 50 50 51 64 52 83 53 48 54 49 55
REMARK SMILES IDX 63 57 84 58 51 59 35 60 36 61 44 62 37 63 38 64 42 65 45 66
REMARK SMILES IDX 39 67 40 68 43 69 41 70 67 71 68 72 76 73 69 74 70 75 74 76
REMARK SMILES IDX 77 77 71 78 72 79 75 80 73 81 52 82 53 83 61 84 54 85 55 86
REMARK SMILES IDX 59 87 62 88 56 89 57 90 60 91 58 92
REMARK H PARENT 19 6 23 26 82 45 50 56
REMARK Flexibility Score: inf
ROOT
ATOM      1  C   UNL A   1      33.259  29.277  23.563  1.00  0.00     0.042 C 
ENDROOT
BRANCH   1   2
ATOM      2  C   UNL A   1      33.908  28.061  22.913  1.00  0.00     0.117 C 
BRANCH   2   3
ATOM      3  N   UNL A   1      33.051  27.402  21.940  1.00  0.00    -0.354 N 
ATOM      4  C   UNL A   1      31.960  26.593  22.105  1.00  0.00     0.252 C 
ATOM      5  O   UNL A   1      31.358  26.250  21.081  1.00  0.00    -0.272 OA
ATOM      6  H   UNL A   1      33.299  27.565  21.001  1.00  0.00     0.163 HD
BRANCH   4   7
ATOM      7  C   UNL A   1      31.550  26.027  23.481  1.00  0.00     0.241 C 
BRANCH   7   8
ATOM      8  C   UNL A   1      30.055  26.342  23.771  1.00  0.00     0.024 C 
ATOM      9  C   UNL A   1      29.637  26.000  25.206  1.00  0.00     0.011 C 
ATOM     10  C   UNL A   1      29.711  27.818  23.524  1.00  0.00     0.011 C 
ENDBRANCH   7   8
BRANCH   7  11
ATOM     11  O   UNL A   1      31.846  24.627  23.456  1.00  0.00    -0.249 OA
BRANCH  11  12
ATOM     12  N   UNL A   1      33.173  24.357  23.777  1.00  0.00    -0.144 N 
ATOM     13  C   UNL A   1      33.546  24.242  25.081  1.00  0.00     0.285 C 
ATOM     14  C   UNL A   1      34.020  23.719  22.926  1.00  0.00     0.285 C 
ATOM     15  O   UNL A   1      32.915  24.405  26.107  1.00  0.00    -0.266 OA
ATOM     16  C   UNL A   1      34.914  23.739  25.045  1.00  0.00     0.055 A 
ATOM     17  C   UNL A   1      35.194  23.378  23.737  1.00  0.00     0.055 A 
ATOM     18  O   UNL A   1      33.884  23.404  21.759  1.00  0.00    -0.266 OA
ATOM     19  C   UNL A   1      35.824  23.582  26.071  1.00  0.00     0.015 A 
ATOM     20  C   UNL A   1      36.395  22.790  23.393  1.00  0.00     0.015 A 
ATOM     21  C   UNL A   1      37.058  23.020  25.739  1.00  0.00     0.001 A 
ATOM     22  C   UNL A   1      37.336  22.616  24.415  1.00  0.00     0.001 A 
ENDBRANCH  11  12
ENDBRANCH   7  11
ENDBRANCH   4   7
ENDBRANCH   2   3
ENDBRANCH   1   2
BRANCH   1  23
ATOM     23  C   UNL A   1      33.192  29.215  25.083  1.00  0.00     0.118 C 
BRANCH  23  24
ATOM     24  N   UNL A   1      32.654  30.431  25.673  1.00  0.00    -0.352 N 
ATOM     25  C   UNL A   1      33.026  31.133  26.792  1.00  0.00     0.251 C 
ATOM     26  H   UNL A   1      31.890  30.817  25.186  1.00  0.00     0.163 HD
ATOM     27  O   UNL A   1      32.298  32.033  27.206  1.00  0.00    -0.269 OA
BRANCH  25  28
ATOM     28  C   UNL A   1      34.277  30.822  27.521  1.00  0.00     0.039 A 
ATOM     29  C   UNL A   1      35.216  31.844  27.704  1.00  0.00     0.014 A 
ATOM     30  C   UNL A   1      34.569  29.532  27.969  1.00  0.00     0.014 A 
ATOM     31  C   UNL A   1      36.409  31.588  28.385  1.00  0.00     0.010 A 
ATOM     32  C   UNL A   1      35.721  29.294  28.717  1.00  0.00     0.010 A 
ATOM     33  C   UNL A   1      36.656  30.318  28.927  1.00  0.00    -0.014 A 
BRANCH  33  34
ATOM     34  C   UNL A   1      37.891  30.036  29.705  1.00  0.00     0.031 A 
ATOM     35  C   UNL A   1      38.936  29.106  29.156  1.00  0.00     0.074 A 
ATOM     36  C   UNL A   1      38.041  30.565  30.935  1.00  0.00     0.049 A 
ATOM     37  N   UNL A   1      40.030  28.660  29.722  1.00  0.00    -0.248 NA
ATOM     38  C   UNL A   1      38.709  28.584  27.799  1.00  0.00     0.031 C 
ATOM     39  C   UNL A   1      37.083  31.451  31.598  1.00  0.00     0.029 A 
ATOM     40  N   UNL A   1      39.052  30.422  31.852  1.00  0.00    -0.354 N 
ATOM     41  C   UNL A   1      40.606  27.792  28.805  1.00  0.00     0.074 A 
ATOM     42  C   UNL A   1      39.722  27.741  27.659  1.00  0.00     0.031 C 
ATOM     43  C   UNL A   1      37.559  31.787  32.807  1.00  0.00     0.029 A 
ATOM     44  C   UNL A   1      38.837  31.113  33.020  1.00  0.00     0.049 A 
ATOM     45  H   UNL A   1      39.855  29.876  31.689  1.00  0.00     0.167 HD
ATOM     46  C   UNL A   1      41.775  27.115  28.898  1.00  0.00     0.037 A 
ATOM     47  C   UNL A   1      39.583  31.189  34.138  1.00  0.00     0.037 A 
ATOM     48  C   UNL A   1      42.674  27.194  30.020  1.00  0.00     0.049 A 
ATOM     49  C   UNL A   1      40.883  30.437  34.212  1.00  0.00     0.074 A 
ATOM     50  C   UNL A   1      43.909  26.592  30.181  1.00  0.00     0.029 A 
ATOM     51  N   UNL A   1      42.432  27.928  31.172  1.00  0.00    -0.354 N 
ATOM     52  N   UNL A   1      41.440  29.659  33.317  1.00  0.00    -0.248 NA
ATOM     53  C   UNL A   1      41.659  30.577  35.452  1.00  0.00     0.031 C 
ATOM     54  C   UNL A   1      44.402  26.937  31.444  1.00  0.00     0.029 A 
ATOM     55  C   UNL A   1      43.491  27.782  32.054  1.00  0.00     0.049 A 
ATOM     56  H   UNL A   1      41.629  28.472  31.338  1.00  0.00     0.167 HD
ATOM     57  C   UNL A   1      42.640  29.237  33.872  1.00  0.00     0.074 A 
ATOM     58  C   UNL A   1      42.736  29.855  35.179  1.00  0.00     0.031 C 
ATOM     59  C   UNL A   1      43.577  28.412  33.346  1.00  0.00     0.037 A 
BRANCH  46  60
ATOM     60  C   UNL A   1      42.155  26.228  27.750  1.00  0.00     0.064 A 
ATOM     61  C   UNL A   1      43.091  26.636  26.787  1.00  0.00     0.173 A 
ATOM     62  C   UNL A   1      41.606  24.943  27.629  1.00  0.00     0.173 A 
ATOM     63  F   UNL A   1      43.635  27.860  26.851  1.00  0.00    -0.203 F 
ATOM     64  C   UNL A   1      43.443  25.799  25.732  1.00  0.00     0.198 A 
ATOM     65  C   UNL A   1      41.980  24.099  26.588  1.00  0.00     0.198 A 
ATOM     66  F   UNL A   1      40.711  24.503  28.527  1.00  0.00    -0.203 F 
ATOM     67  F   UNL A   1      44.306  26.227  24.800  1.00  0.00    -0.200 F 
ATOM     68  C   UNL A   1      42.893  24.529  25.636  1.00  0.00     0.200 A 
ATOM     69  F   UNL A   1      41.456  22.868  26.502  1.00  0.00    -0.200 F 
ATOM     70  F   UNL A   1      43.238  23.723  24.623  1.00  0.00    -0.200 F 
ENDBRANCH  46  60
BRANCH  47  71
ATOM     71  C   UNL A   1      39.129  32.034  35.271  1.00  0.00     0.064 A 
ATOM     72  C   UNL A   1      39.440  33.400  35.315  1.00  0.00     0.173 A 
ATOM     73  C   UNL A   1      38.378  31.499  36.327  1.00  0.00     0.173 A 
ATOM     74  F   UNL A   1      40.176  33.950  34.338  1.00  0.00    -0.203 F 
ATOM     75  C   UNL A   1      39.030  34.196  36.381  1.00  0.00     0.198 A 
ATOM     76  C   UNL A   1      37.947  32.302  37.381  1.00  0.00     0.198 A 
ATOM     77  F   UNL A   1      38.053  30.198  36.328  1.00  0.00    -0.203 F 
ATOM     78  F   UNL A   1      39.374  35.492  36.418  1.00  0.00    -0.200 F 
ATOM     79  C   UNL A   1      38.279  33.649  37.410  1.00  0.00     0.200 A 
ATOM     80  F   UNL A   1      37.214  31.771  38.369  1.00  0.00    -0.200 F 
ATOM     81  F   UNL A   1      37.882  34.416  38.434  1.00  0.00    -0.200 F 
ENDBRANCH  47  71
BRANCH  59  82
ATOM     82  C   UNL A   1      44.803  28.155  34.169  1.00  0.00     0.064 A 
ATOM     83  C   UNL A   1      44.877  27.074  35.058  1.00  0.00     0.173 A 
ATOM     84  C   UNL A   1      45.932  28.978  34.036  1.00  0.00     0.173 A 
ATOM     85  F   UNL A   1      43.817  26.269  35.230  1.00  0.00    -0.203 F 
ATOM     86  C   UNL A   1      46.030  26.836  35.800  1.00  0.00     0.198 A 
ATOM     87  C   UNL A   1      47.091  28.724  34.762  1.00  0.00     0.198 A 
ATOM     88  F   UNL A   1      45.912  30.022  33.195  1.00  0.00    -0.203 F 
ATOM     89  F   UNL A   1      46.066  25.821  36.673  1.00  0.00    -0.200 F 
ATOM     90  C   UNL A   1      47.138  27.657  35.647  1.00  0.00     0.200 A 
ATOM     91  F   UNL A   1      48.165  29.512  34.606  1.00  0.00    -0.200 F 
ATOM     92  F   UNL A   1      48.249  27.424  36.359  1.00  0.00    -0.200 F 
ENDBRANCH  59  82
ENDBRANCH  33  34
ENDBRANCH  25  28
ENDBRANCH  23  24
ENDBRANCH   1  23
TORSDOF 13
ENDMDL
MODEL 2
REMARK VINA RESULT:     -12.2      4.675      8.666
REMARK SMILES CC(C)[C@@H](ON1C(=O)c2ccccc2C1=O)C(=O)NCCCNC(=O)c1ccc(-c2c3nc(c(-c4c(F)c(F)c(F)c(F)c4F)c4ccc([nH]4)c(-c4c(F)c(F)c(F)c(F)c4F)c4nc(c(-c5c(F)c(F)c(F)c(F)c5F)c5ccc2[nH]5)C=C4)C=C3)cc1
REMARK SMILES IDX 21 1 20 2 19 3 17 4 18 5 4 7 2 8 1 9 3 10 5 11 6 12 7 13
REMARK SMILES IDX 15 14 8 15 9 16 14 17 16 18 10 19 13 20 11 21 12 22 22 23
REMARK SMILES IDX 23 24 24 25 25 27 26 28 27 29 88 30 28 31 87 32 29 33 30 34
REMARK SMILES IDX 31 35 81 36 32 37 86 38 80 39 82 40 33 41 85 42 79 43 78 44
REMARK SMILES IDX 34 46 66 47 46 48 65 49 47 50 50 51 64 52 83 53 48 54 49 55
REMARK SMILES IDX 63 57 84 58 51 59 35 60 36 61 44 62 37 63 38 64 42 65 45 66
REMARK SMILES IDX 39 67 40 68 43 69 41 70 67 71 68 72 76 73 69 74 70 75 74 76
REMARK SMILES IDX 77 77 71 78 72 79 75 80 73 81 52 82 53 83 61 84 54 85 55 86
REMARK SMILES IDX 59 87 62 88 56 89 57 90 60 91 58 92
REMARK H PARENT 19 6 23 26 82 45 50 56
REMARK Flexibility Score: inf
ROOT
ATOM      1  C   UNL A   1      41.844  21.440  26.037  1.00  0.00     0.042 C 
ENDROOT
BRANCH   1   2
ATOM      2  C   UNL A   1      42.334  22.832  25.659  1.00  0.00     0.117 C 
BRANCH   2   3
ATOM      3  N   UNL A   1      43.366  22.820  24.633  1.00  0.00    -0.354 N 
ATOM      4  C   UNL A   1      44.597  23.414  24.590  1.00  0.00     0.252 C 
ATOM      5  O   UNL A   1      45.313  23.148  23.619  1.00  0.00    -0.272 OA
ATOM      6  H   UNL A   1      43.139  22.295  23.831  1.00  0.00     0.163 HD
BRANCH   4   7
ATOM      7  C   UNL A   1      45.047  24.461  25.632  1.00  0.00     0.241 C 
BRANCH   7   8
ATOM      8  C   UNL A   1      46.113  23.851  26.585  1.00  0.00     0.024 C 
ATOM      9  C   UNL A   1      47.526  24.390  26.329  1.00  0.00     0.011 C 
ATOM     10  C   UNL A   1      45.781  24.096  28.064  1.00  0.00     0.011 C 
ENDBRANCH   7   8
BRANCH   7  11
ATOM     11  O   UNL A   1      45.519  25.596  24.897  1.00  0.00    -0.249 OA
BRANCH  11  12
ATOM     12  N   UNL A   1      44.989  26.794  25.369  1.00  0.00    -0.144 N 
ATOM     13  C   UNL A   1      43.654  27.034  25.262  1.00  0.00     0.285 C 
ATOM     14  C   UNL A   1      45.581  27.523  26.352  1.00  0.00     0.285 C 
ATOM     15  O   UNL A   1      42.768  26.388  24.736  1.00  0.00    -0.266 OA
ATOM     16  C   UNL A   1      43.418  28.242  26.044  1.00  0.00     0.055 A 
ATOM     17  C   UNL A   1      44.580  28.520  26.746  1.00  0.00     0.055 A 
ATOM     18  O   UNL A   1      46.667  27.399  26.888  1.00  0.00    -0.266 OA
ATOM     19  C   UNL A   1      42.279  29.012  26.157  1.00  0.00     0.015 A 
ATOM     20  C   UNL A   1      44.647  29.567  27.642  1.00  0.00     0.015 A 
ATOM     21  C   UNL A   1      42.335  30.097  27.033  1.00  0.00     0.001 A 
ATOM     22  C   UNL A   1      43.504  30.364  27.779  1.00  0.00     0.001 A 
ENDBRANCH  11  12
ENDBRANCH   7  11
ENDBRANCH   4   7
ENDBRANCH   2   3
ENDBRANCH   1   2
BRANCH   1  23
ATOM     23  C   UNL A   1      40.530  21.426  26.807  1.00  0.00     0.118 C 
BRANCH  23  24
ATOM     24  N   UNL A   1      39.398  21.851  25.998  1.00  0.00    -0.352 N 
ATOM     25  C   UNL A   1      38.682  23.022  25.990  1.00  0.00     0.251 C 
ATOM     26  H   UNL A   1      39.092  21.182  25.342  1.00  0.00     0.163 HD
ATOM     27  O   UNL A   1      37.638  23.082  25.344  1.00  0.00    -0.269 OA
BRANCH  25  28
ATOM     28  C   UNL A   1      39.131  24.210  26.751  1.00  0.00     0.039 A 
ATOM     29  C   UNL A   1      38.763  24.319  28.097  1.00  0.00     0.014 A 
ATOM     30  C   UNL A   1      39.850  25.244  26.148  1.00  0.00     0.014 A 
ATOM     31  C   UNL A   1      39.167  25.426  28.848  1.00  0.00     0.010 A 
ATOM     32  C   UNL A   1      40.320  26.309  26.915  1.00  0.00     0.010 A 
ATOM     33  C   UNL A   1      39.979  26.415  28.271  1.00  0.00    -0.014 A 
BRANCH  33  34
ATOM     34  C   UNL A   1      40.469  27.573  29.063  1.00  0.00     0.031 A 
ATOM     35  C   UNL A   1      41.860  27.567  29.633  1.00  0.00     0.074 A 
ATOM     36  C   UNL A   1      39.639  28.601  29.327  1.00  0.00     0.049 A 
ATOM     37  N   UNL A   1      42.435  28.435  30.428  1.00  0.00    -0.248 NA
ATOM     38  C   UNL A   1      42.711  26.418  29.285  1.00  0.00     0.031 C 
ATOM     39  C   UNL A   1      38.254  28.710  28.867  1.00  0.00     0.029 A 
ATOM     40  N   UNL A   1      39.838  29.745  30.059  1.00  0.00    -0.354 N 
ATOM     41  C   UNL A   1      43.700  27.927  30.692  1.00  0.00     0.074 A 
ATOM     42  C   UNL A   1      43.797  26.656  30.006  1.00  0.00     0.031 C 
ATOM     43  C   UNL A   1      37.734  29.865  29.311  1.00  0.00     0.029 A 
ATOM     44  C   UNL A   1      38.734  30.560  30.116  1.00  0.00     0.049 A 
ATOM     45  H   UNL A   1      40.691  29.961  30.501  1.00  0.00     0.167 HD
ATOM     46  C   UNL A   1      44.697  28.479  31.423  1.00  0.00     0.037 A 
ATOM     47  C   UNL A   1      38.547  31.732  30.752  1.00  0.00     0.037 A 
ATOM     48  C   UNL A   1      44.616  29.760  32.074  1.00  0.00     0.049 A 
ATOM     49  C   UNL A   1      39.675  32.330  31.547  1.00  0.00     0.074 A 
ATOM     50  C   UNL A   1      45.595  30.431  32.787  1.00  0.00     0.029 A 
ATOM     51  N   UNL A   1      43.489  30.568  32.085  1.00  0.00    -0.354 N 
ATOM     52  N   UNL A   1      40.882  31.863  31.749  1.00  0.00    -0.248 NA
ATOM     53  C   UNL A   1      39.412  33.619  32.201  1.00  0.00     0.031 C 
ATOM     54  C   UNL A   1      45.050  31.631  33.256  1.00  0.00     0.029 A 
ATOM     55  C   UNL A   1      43.744  31.725  32.804  1.00  0.00     0.049 A 
ATOM     56  H   UNL A   1      42.635  30.352  31.646  1.00  0.00     0.167 HD
ATOM     57  C   UNL A   1      41.532  32.809  32.528  1.00  0.00     0.074 A 
ATOM     58  C   UNL A   1      40.587  33.884  32.755  1.00  0.00     0.031 C 
ATOM     59  C   UNL A   1      42.797  32.789  33.012  1.00  0.00     0.037 A 
BRANCH  46  60
ATOM     60  C   UNL A   1      45.972  27.699  31.555  1.00  0.00     0.064 A 
ATOM     61  C   UNL A   1      46.122  26.701  32.529  1.00  0.00     0.173 A 
ATOM     62  C   UNL A   1      47.042  27.928  30.678  1.00  0.00     0.173 A 
ATOM     63  F   UNL A   1      45.133  26.453  33.401  1.00  0.00    -0.203 F 
ATOM     64  C   UNL A   1      47.307  25.978  32.636  1.00  0.00     0.198 A 
ATOM     65  C   UNL A   1      48.215  27.185  30.770  1.00  0.00     0.198 A 
ATOM     66  F   UNL A   1      46.946  28.868  29.725  1.00  0.00    -0.203 F 
ATOM     67  F   UNL A   1      47.445  25.059  33.602  1.00  0.00    -0.200 F 
ATOM     68  C   UNL A   1      48.350  26.216  31.753  1.00  0.00     0.200 A 
ATOM     69  F   UNL A   1      49.218  27.408  29.909  1.00  0.00    -0.200 F 
ATOM     70  F   UNL A   1      49.487  25.514  31.852  1.00  0.00    -0.200 F 
ENDBRANCH  46  60
BRANCH  47  71
ATOM     71  C   UNL A   1      37.243  32.433  30.639  1.00  0.00     0.064 A 
ATOM     72  C   UNL A   1      36.242  32.242  31.601  1.00  0.00     0.173 A 
ATOM     73  C   UNL A   1      36.971  33.303  29.574  1.00  0.00     0.173 A 
ATOM     74  F   UNL A   1      36.449  31.400  32.624  1.00  0.00    -0.203 F 
ATOM     75  C   UNL A   1      35.011  32.884  31.495  1.00  0.00     0.198 A 
ATOM     76  C   UNL A   1      35.748  33.965  29.482  1.00  0.00     0.198 A 
ATOM     77  F   UNL A   1      37.898  33.520  28.630  1.00  0.00    -0.203 F 
ATOM     78  F   UNL A   1      34.057  32.656  32.408  1.00  0.00    -0.200 F 
ATOM     79  C   UNL A   1      34.767  33.750  30.439  1.00  0.00     0.200 A 
ATOM     80  F   UNL A   1      35.519  34.807  28.466  1.00  0.00    -0.200 F 
ATOM     81  F   UNL A   1      33.584  34.371  30.339  1.00  0.00    -0.200 F 
ENDBRANCH  47  71
BRANCH  59  82
ATOM     82  C   UNL A   1      43.245  33.978  33.808  1.00  0.00     0.064 A 
ATOM     83  C   UNL A   1      43.803  35.106  33.191  1.00  0.00     0.173 A 
ATOM     84  C   UNL A   1      43.077  34.003  35.200  1.00  0.00     0.173 A 
ATOM     85  F   UNL A   1      43.998  35.121  31.863  1.00  0.00    -0.203 F 
ATOM     86  C   UNL A   1      44.195  36.211  33.942  1.00  0.00     0.198 A 
ATOM     87  C   UNL A   1      43.448  35.118  35.945  1.00  0.00     0.198 A 
ATOM     88  F   UNL A   1      42.544  32.950  35.837  1.00  0.00    -0.203 F 
ATOM     89  F   UNL A   1      44.762  37.263  33.337  1.00  0.00    -0.200 F 
ATOM     90  C   UNL A   1      44.012  36.219  35.317  1.00  0.00     0.200 A 
ATOM     91  F   UNL A   1      43.262  35.128  37.273  1.00  0.00    -0.200 F 
ATOM     92  F   UNL A   1      44.385  37.285  36.037  1.00  0.00    -0.200 F 
ENDBRANCH  59  82
ENDBRANCH  33  34
ENDBRANCH  25  28
ENDBRANCH  23  24
ENDBRANCH   1  23
TORSDOF 13
ENDMDL
MODEL 3
REMARK VINA RESULT:     -12.2      4.697      8.624
REMARK SMILES CC(C)[C@@H](ON1C(=O)c2ccccc2C1=O)C(=O)NCCCNC(=O)c1ccc(-c2c3nc(c(-c4c(F)c(F)c(F)c(F)c4F)c4ccc([nH]4)c(-c4c(F)c(F)c(F)c(F)c4F)c4nc(c(-c5c(F)c(F)c(F)c(F)c5F)c5ccc2[nH]5)C=C4)C=C3)cc1
REMARK SMILES IDX 21 1 20 2 19 3 17 4 18 5 4 7 2 8 1 9 3 10 5 11 6 12 7 13
REMARK SMILES IDX 15 14 8 15 9 16 14 17 16 18 10 19 13 20 11 21 12 22 22 23
REMARK SMILES IDX 23 24 24 25 25 27 26 28 27 29 88 30 28 31 87 32 29 33 30 34
REMARK SMILES IDX 31 35 81 36 32 37 86 38 80 39 82 40 33 41 85 42 79 43 78 44
REMARK SMILES IDX 34 46 66 47 46 48 65 49 47 50 50 51 64 52 83 53 48 54 49 55
REMARK SMILES IDX 63 57 84 58 51 59 35 60 36 61 44 62 37 63 38 64 42 65 45 66
REMARK SMILES IDX 39 67 40 68 43 69 41 70 67 71 68 72 76 73 69 74 70 75 74 76
REMARK SMILES IDX 77 77 71 78 72 79 75 80 73 81 52 82 53 83 61 84 54 85 55 86
REMARK SMILES IDX 59 87 62 88 56 89 57 90 60 91 58 92
REMARK H PARENT 19 6 23 26 82 45 50 56
REMARK Flexibility Score: inf
ROOT
ATOM      1  C   UNL A   1      41.860  21.443  25.965  1.00  0.00     0.042 C 
ENDROOT
BRANCH   1   2
ATOM      2  C   UNL A   1      42.420  22.824  25.651  1.00  0.00     0.117 C 
BRANCH   2   3
ATOM      3  N   UNL A   1      43.459  22.807  24.632  1.00  0.00    -0.354 N 
ATOM      4  C   UNL A   1      44.685  23.410  24.590  1.00  0.00     0.252 C 
ATOM      5  O   UNL A   1      45.411  23.137  23.627  1.00  0.00    -0.272 OA
ATOM      6  H   UNL A   1      43.242  22.269  23.836  1.00  0.00     0.163 HD
BRANCH   4   7
ATOM      7  C   UNL A   1      45.120  24.475  25.620  1.00  0.00     0.241 C 
BRANCH   7   8
ATOM      8  C   UNL A   1      46.181  23.886  26.591  1.00  0.00     0.024 C 
ATOM      9  C   UNL A   1      47.584  24.466  26.371  1.00  0.00     0.011 C 
ATOM     10  C   UNL A   1      45.811  24.107  28.065  1.00  0.00     0.011 C 
ENDBRANCH   7   8
BRANCH   7  11
ATOM     11  O   UNL A   1      45.590  25.602  24.874  1.00  0.00    -0.249 OA
BRANCH  11  12
ATOM     12  N   UNL A   1      45.041  26.802  25.317  1.00  0.00    -0.144 N 
ATOM     13  C   UNL A   1      43.696  26.998  25.250  1.00  0.00     0.285 C 
ATOM     14  C   UNL A   1      45.645  27.588  26.249  1.00  0.00     0.285 C 
ATOM     15  O   UNL A   1      42.812  26.306  24.784  1.00  0.00    -0.266 OA
ATOM     16  C   UNL A   1      43.451  28.229  25.993  1.00  0.00     0.055 A 
ATOM     17  C   UNL A   1      44.629  28.570  26.639  1.00  0.00     0.055 A 
ATOM     18  O   UNL A   1      46.753  27.518  26.748  1.00  0.00    -0.266 OA
ATOM     19  C   UNL A   1      42.293  28.970  26.118  1.00  0.00     0.015 A 
ATOM     20  C   UNL A   1      44.696  29.654  27.491  1.00  0.00     0.015 A 
ATOM     21  C   UNL A   1      42.348  30.090  26.948  1.00  0.00     0.001 A 
ATOM     22  C   UNL A   1      43.534  30.422  27.639  1.00  0.00     0.001 A 
ENDBRANCH  11  12
ENDBRANCH   7  11
ENDBRANCH   4   7
ENDBRANCH   2   3
ENDBRANCH   1   2
BRANCH   1  23
ATOM     23  C   UNL A   1      40.575  21.459  26.782  1.00  0.00     0.118 C 
BRANCH  23  24
ATOM     24  N   UNL A   1      39.416  21.865  26.002  1.00  0.00    -0.352 N 
ATOM     25  C   UNL A   1      38.684  23.026  26.009  1.00  0.00     0.251 C 
ATOM     26  H   UNL A   1      39.102  21.190  25.356  1.00  0.00     0.163 HD
ATOM     27  O   UNL A   1      37.622  23.070  25.392  1.00  0.00    -0.269 OA
BRANCH  25  28
ATOM     28  C   UNL A   1      39.137  24.223  26.755  1.00  0.00     0.039 A 
ATOM     29  C   UNL A   1      38.781  24.343  28.103  1.00  0.00     0.014 A 
ATOM     30  C   UNL A   1      39.846  25.254  26.136  1.00  0.00     0.014 A 
ATOM     31  C   UNL A   1      39.189  25.459  28.840  1.00  0.00     0.010 A 
ATOM     32  C   UNL A   1      40.320  26.327  26.888  1.00  0.00     0.010 A 
ATOM     33  C   UNL A   1      39.991  26.445  28.246  1.00  0.00    -0.014 A 
BRANCH  33  34
ATOM     34  C   UNL A   1      40.485  27.612  29.023  1.00  0.00     0.031 A 
ATOM     35  C   UNL A   1      41.884  27.618  29.572  1.00  0.00     0.074 A 
ATOM     36  C   UNL A   1      39.653  28.636  29.291  1.00  0.00     0.049 A 
ATOM     37  N   UNL A   1      42.466  28.496  30.352  1.00  0.00    -0.248 NA
ATOM     38  C   UNL A   1      42.738  26.473  29.219  1.00  0.00     0.031 C 
ATOM     39  C   UNL A   1      38.261  28.733  28.851  1.00  0.00     0.029 A 
ATOM     40  N   UNL A   1      39.855  29.786  30.012  1.00  0.00    -0.354 N 
ATOM     41  C   UNL A   1      43.737  27.999  30.601  1.00  0.00     0.074 A 
ATOM     42  C   UNL A   1      43.833  26.723  29.923  1.00  0.00     0.031 C 
ATOM     43  C   UNL A   1      37.739  29.887  29.294  1.00  0.00     0.029 A 
ATOM     44  C   UNL A   1      38.746  30.595  30.080  1.00  0.00     0.049 A 
ATOM     45  H   UNL A   1      40.712  30.011  30.440  1.00  0.00     0.167 HD
ATOM     46  C   UNL A   1      44.742  28.562  31.313  1.00  0.00     0.037 A 
ATOM     47  C   UNL A   1      38.561  31.770  30.710  1.00  0.00     0.037 A 
ATOM     48  C   UNL A   1      44.662  29.848  31.956  1.00  0.00     0.049 A 
ATOM     49  C   UNL A   1      39.697  32.381  31.484  1.00  0.00     0.074 A 
ATOM     50  C   UNL A   1      45.646  30.530  32.650  1.00  0.00     0.029 A 
ATOM     51  N   UNL A   1      43.529  30.648  31.978  1.00  0.00    -0.354 N 
ATOM     52  N   UNL A   1      40.910  31.923  31.671  1.00  0.00    -0.248 NA
ATOM     53  C   UNL A   1      39.435  33.673  32.133  1.00  0.00     0.031 C 
ATOM     54  C   UNL A   1      45.101  31.729  33.118  1.00  0.00     0.029 A 
ATOM     55  C   UNL A   1      43.788  31.812  32.685  1.00  0.00     0.049 A 
ATOM     56  H   UNL A   1      42.671  30.424  31.553  1.00  0.00     0.167 HD
ATOM     57  C   UNL A   1      41.564  32.880  32.434  1.00  0.00     0.074 A 
ATOM     58  C   UNL A   1      40.616  33.950  32.668  1.00  0.00     0.031 C 
ATOM     59  C   UNL A   1      42.837  32.871  32.899  1.00  0.00     0.037 A 
BRANCH  46  60
ATOM     60  C   UNL A   1      46.024  27.792  31.432  1.00  0.00     0.064 A 
ATOM     61  C   UNL A   1      46.185  26.782  32.392  1.00  0.00     0.173 A 
ATOM     62  C   UNL A   1      47.090  28.042  30.555  1.00  0.00     0.173 A 
ATOM     63  F   UNL A   1      45.200  26.514  33.262  1.00  0.00    -0.203 F 
ATOM     64  C   UNL A   1      47.376  26.068  32.486  1.00  0.00     0.198 A 
ATOM     65  C   UNL A   1      48.270  27.308  30.635  1.00  0.00     0.198 A 
ATOM     66  F   UNL A   1      46.983  28.994  29.616  1.00  0.00    -0.203 F 
ATOM     67  F   UNL A   1      47.524  25.137  33.439  1.00  0.00    -0.200 F 
ATOM     68  C   UNL A   1      48.415  26.326  31.605  1.00  0.00     0.200 A 
ATOM     69  F   UNL A   1      49.268  27.551  29.775  1.00  0.00    -0.200 F 
ATOM     70  F   UNL A   1      49.559  25.634  31.692  1.00  0.00    -0.200 F 
ENDBRANCH  46  60
BRANCH  47  71
ATOM     71  C   UNL A   1      37.251  32.461  30.611  1.00  0.00     0.064 A 
ATOM     72  C   UNL A   1      36.267  32.275  31.592  1.00  0.00     0.173 A 
ATOM     73  C   UNL A   1      36.955  33.318  29.542  1.00  0.00     0.173 A 
ATOM     74  F   UNL A   1      36.497  31.445  32.620  1.00  0.00    -0.203 F 
ATOM     75  C   UNL A   1      35.031  32.908  31.499  1.00  0.00     0.198 A 
ATOM     76  C   UNL A   1      35.727  33.971  29.463  1.00  0.00     0.198 A 
ATOM     77  F   UNL A   1      37.866  33.531  28.580  1.00  0.00    -0.203 F 
ATOM     78  F   UNL A   1      34.093  32.683  32.430  1.00  0.00    -0.200 F 
ATOM     79  C   UNL A   1      34.763  33.761  30.439  1.00  0.00     0.200 A 
ATOM     80  F   UNL A   1      35.476  34.801  28.442  1.00  0.00    -0.200 F 
ATOM     81  F   UNL A   1      33.575  34.373  30.351  1.00  0.00    -0.200 F 
ENDBRANCH  47  71
BRANCH  59  82
ATOM     82  C   UNL A   1      43.289  34.069  33.680  1.00  0.00     0.064 A 
ATOM     83  C   UNL A   1      43.204  34.107  35.079  1.00  0.00     0.173 A 
ATOM     84  C   UNL A   1      43.850  35.173  33.022  1.00  0.00     0.173 A 
ATOM     85  F   UNL A   1      42.660  33.081  35.750  1.00  0.00    -0.203 F 
ATOM     86  C   UNL A   1      43.647  35.218  35.791  1.00  0.00     0.198 A 
ATOM     87  C   UNL A   1      44.313  36.272  33.739  1.00  0.00     0.198 A 
ATOM     88  F   UNL A   1      43.957  35.182  31.685  1.00  0.00    -0.203 F 
ATOM     89  F   UNL A   1      43.520  35.252  37.124  1.00  0.00    -0.200 F 
ATOM     90  C   UNL A   1      44.206  36.297  35.121  1.00  0.00     0.200 A 
ATOM     91  F   UNL A   1      44.863  37.310  33.091  1.00  0.00    -0.200 F 
ATOM     92  F   UNL A   1      44.636  37.363  35.809  1.00  0.00    -0.200 F 
ENDBRANCH  59  82
ENDBRANCH  33  34
ENDBRANCH  25  28
ENDBRANCH  23  24
ENDBRANCH   1  23
TORSDOF 13
ENDMDL
