MODEL 1
REMARK VINA RESULT:      -8.9      0.000      0.000
REMARK SMILES C#CCN(CC(=O)NCCCNC(=O)c1ccc(-c2c3nc(c(-c4c(F)c(F)c(F)c(F)c4F)c4ccc([nH]4)c(-c4c(F)c(F)c(F)c(F)c4F)c4nc(c(-c5c(F)c(F)c(F)c(F)c5F)c5ccc2[nH]5)C=C4)C=C3)cc1)C(=O)N(C)[C@H](C)c1cccs1
REMARK SMILES IDX 6 1 7 2 8 3 5 5 4 6 3 7 2 8 1 9 78 10 79 11 80 12 81 13
REMARK SMILES IDX 82 14 83 15 84 16 85 17 88 18 86 19 87 20 9 21 10 22 11 23
REMARK SMILES IDX 12 24 13 25 14 27 15 28 16 29 77 30 17 31 76 32 18 33 19 34
REMARK SMILES IDX 20 35 70 36 21 37 75 38 69 39 71 40 22 41 74 42 68 43 67 44
REMARK SMILES IDX 23 46 55 47 35 48 54 49 36 50 39 51 53 52 72 53 37 54 38 55
REMARK SMILES IDX 52 57 73 58 40 59 24 60 25 61 33 62 26 63 27 64 31 65 34 66
REMARK SMILES IDX 28 67 29 68 32 69 30 70 56 71 57 72 65 73 58 74 59 75 63 76
REMARK SMILES IDX 66 77 60 78 61 79 64 80 62 81 41 82 42 83 50 84 43 85 44 86
REMARK SMILES IDX 48 87 51 88 45 89 46 90 49 91 47 92
REMARK H PARENT 8 4 12 26 71 45 39 56
REMARK Flexibility Score: inf
ROOT
ATOM      1  C   UNL A   1      34.820  33.730  32.663  1.00  0.00     0.239 C 
ATOM      2  O   UNL A   1      34.338  33.202  33.670  1.00  0.00    -0.273 OA
ATOM      3  N   UNL A   1      34.067  33.717  31.527  1.00  0.00    -0.354 N 
ATOM      4  H   UNL A   1      33.329  33.065  31.517  1.00  0.00     0.163 HD
ENDROOT
BRANCH   1   5
ATOM      5  C   UNL A   1      36.146  34.501  32.740  1.00  0.00     0.222 C 
BRANCH   5   6
ATOM      6  N   UNL A   1      37.357  33.689  32.590  1.00  0.00    -0.304 N 
BRANCH   6   7
ATOM      7  C   UNL A   1      37.344  32.740  31.469  1.00  0.00     0.211 C 
BRANCH   7   8
ATOM      8  C   UNL A   1      37.781  33.389  30.165  1.00  0.00    -0.085 C 
ATOM      9  C   UNL A   1      38.156  33.947  29.048  1.00  0.00     0.006 C 
ENDBRANCH   7   8
ENDBRANCH   6   7
BRANCH   6  10
ATOM     10  C   UNL A   1      38.498  33.661  33.378  1.00  0.00     0.321 C 
ATOM     11  O   UNL A   1      39.564  33.967  32.830  1.00  0.00    -0.248 OA
BRANCH  10  12
ATOM     12  N   UNL A   1      38.483  33.333  34.722  1.00  0.00    -0.320 N 
ATOM     13  C   UNL A   1      38.767  34.205  35.855  1.00  0.00     0.149 C 
BRANCH  12  14
ATOM     14  C   UNL A   1      38.058  31.971  35.140  1.00  0.00     0.124 C 
ATOM     15  C   UNL A   1      37.863  31.680  36.633  1.00  0.00     0.037 C 
BRANCH  14  16
ATOM     16  C   UNL A   1      38.869  30.899  34.440  1.00  0.00     0.027 A 
ATOM     17  C   UNL A   1      40.240  30.716  34.513  1.00  0.00     0.017 A 
ATOM     18  S   UNL A   1      38.150  29.742  33.396  1.00  0.00    -0.147 S 
ATOM     19  C   UNL A   1      40.695  29.638  33.703  1.00  0.00     0.012 A 
ATOM     20  C   UNL A   1      39.659  29.025  33.037  1.00  0.00     0.065 A 
ENDBRANCH  14  16
ENDBRANCH  12  14
ENDBRANCH  10  12
ENDBRANCH   6  10
ENDBRANCH   5   6
ENDBRANCH   1   5
BRANCH   3  21
ATOM     21  C   UNL A   1      34.197  34.524  30.333  1.00  0.00     0.117 C 
BRANCH  21  22
ATOM     22  C   UNL A   1      33.749  33.810  29.064  1.00  0.00     0.042 C 
BRANCH  22  23
ATOM     23  C   UNL A   1      34.729  32.766  28.542  1.00  0.00     0.118 C 
BRANCH  23  24
ATOM     24  N   UNL A   1      34.082  31.502  28.217  1.00  0.00    -0.352 N 
ATOM     25  C   UNL A   1      34.596  30.251  28.004  1.00  0.00     0.251 C 
ATOM     26  H   UNL A   1      33.103  31.556  28.137  1.00  0.00     0.163 HD
ATOM     27  O   UNL A   1      33.859  29.379  27.544  1.00  0.00    -0.269 OA
BRANCH  25  28
ATOM     28  C   UNL A   1      36.007  29.921  28.309  1.00  0.00     0.039 A 
ATOM     29  C   UNL A   1      36.957  30.067  27.291  1.00  0.00     0.014 A 
ATOM     30  C   UNL A   1      36.394  29.391  29.543  1.00  0.00     0.014 A 
ATOM     31  C   UNL A   1      38.290  29.720  27.520  1.00  0.00     0.010 A 
ATOM     32  C   UNL A   1      37.738  29.114  29.796  1.00  0.00     0.010 A 
ATOM     33  C   UNL A   1      38.695  29.259  28.782  1.00  0.00    -0.014 A 
BRANCH  33  34
ATOM     34  C   UNL A   1      40.112  28.901  29.044  1.00  0.00     0.031 A 
ATOM     35  C   UNL A   1      41.013  29.857  29.776  1.00  0.00     0.074 A 
ATOM     36  C   UNL A   1      40.599  27.733  28.587  1.00  0.00     0.049 A 
ATOM     37  N   UNL A   1      42.285  29.741  30.066  1.00  0.00    -0.248 NA
ATOM     38  C   UNL A   1      40.411  31.123  30.222  1.00  0.00     0.031 C 
ATOM     39  C   UNL A   1      39.839  26.742  27.824  1.00  0.00     0.029 A 
ATOM     40  N   UNL A   1      41.851  27.183  28.692  1.00  0.00    -0.354 N 
ATOM     41  C   UNL A   1      42.636  30.921  30.707  1.00  0.00     0.074 A 
ATOM     42  C   UNL A   1      41.457  31.761  30.726  1.00  0.00     0.031 C 
ATOM     43  C   UNL A   1      40.632  25.694  27.550  1.00  0.00     0.029 A 
ATOM     44  C   UNL A   1      41.964  25.952  28.093  1.00  0.00     0.049 A 
ATOM     45  H   UNL A   1      42.599  27.628  29.153  1.00  0.00     0.167 HD
ATOM     46  C   UNL A   1      43.828  31.267  31.250  1.00  0.00     0.037 A 
ATOM     47  C   UNL A   1      43.020  25.125  27.997  1.00  0.00     0.037 A 
ATOM     48  C   UNL A   1      44.992  30.419  31.259  1.00  0.00     0.049 A 
ATOM     49  C   UNL A   1      44.325  25.520  28.630  1.00  0.00     0.074 A 
ATOM     50  C   UNL A   1      46.231  30.656  31.829  1.00  0.00     0.029 A 
ATOM     51  N   UNL A   1      45.055  29.164  30.672  1.00  0.00    -0.354 N 
ATOM     52  N   UNL A   1      44.629  26.613  29.286  1.00  0.00    -0.248 NA
ATOM     53  C   UNL A   1      45.432  24.559  28.518  1.00  0.00     0.031 C 
ATOM     54  C   UNL A   1      47.054  29.557  31.561  1.00  0.00     0.029 A 
ATOM     55  C   UNL A   1      46.316  28.619  30.857  1.00  0.00     0.049 A 
ATOM     56  H   UNL A   1      44.315  28.725  30.194  1.00  0.00     0.167 HD
ATOM     57  C   UNL A   1      45.948  26.462  29.689  1.00  0.00     0.074 A 
ATOM     58  C   UNL A   1      46.385  25.165  29.214  1.00  0.00     0.031 C 
ATOM     59  C   UNL A   1      46.728  27.321  30.391  1.00  0.00     0.037 A 
BRANCH  46  60
ATOM     60  C   UNL A   1      43.931  32.621  31.888  1.00  0.00     0.064 A 
ATOM     61  C   UNL A   1      43.738  32.801  33.265  1.00  0.00     0.173 A 
ATOM     62  C   UNL A   1      44.257  33.749  31.119  1.00  0.00     0.173 A 
ATOM     63  F   UNL A   1      43.414  31.756  34.042  1.00  0.00    -0.203 F 
ATOM     64  C   UNL A   1      43.838  34.062  33.846  1.00  0.00     0.198 A 
ATOM     65  C   UNL A   1      44.383  35.005  31.706  1.00  0.00     0.198 A 
ATOM     66  F   UNL A   1      44.458  33.632  29.797  1.00  0.00    -0.203 F 
ATOM     67  F   UNL A   1      43.602  34.216  35.155  1.00  0.00    -0.200 F 
ATOM     68  C   UNL A   1      44.166  35.162  33.068  1.00  0.00     0.200 A 
ATOM     69  F   UNL A   1      44.710  36.065  30.955  1.00  0.00    -0.200 F 
ATOM     70  F   UNL A   1      44.265  36.375  33.627  1.00  0.00    -0.200 F 
ENDBRANCH  46  60
BRANCH  47  71
ATOM     71  C   UNL A   1      42.872  23.817  27.311  1.00  0.00     0.064 A 
ATOM     72  C   UNL A   1      43.236  23.669  25.966  1.00  0.00     0.173 A 
ATOM     73  C   UNL A   1      42.374  22.691  27.982  1.00  0.00     0.173 A 
ATOM     74  F   UNL A   1      43.699  24.723  25.279  1.00  0.00    -0.203 F 
ATOM     75  C   UNL A   1      43.095  22.447  25.312  1.00  0.00     0.198 A 
ATOM     76  C   UNL A   1      42.255  21.463  27.334  1.00  0.00     0.198 A 
ATOM     77  F   UNL A   1      42.015  22.782  29.271  1.00  0.00    -0.203 F 
ATOM     78  F   UNL A   1      43.415  22.342  24.016  1.00  0.00    -0.200 F 
ATOM     79  C   UNL A   1      42.609  21.343  25.998  1.00  0.00     0.200 A 
ATOM     80  F   UNL A   1      41.796  20.396  28.002  1.00  0.00    -0.200 F 
ATOM     81  F   UNL A   1      42.476  20.168  25.370  1.00  0.00    -0.200 F 
ENDBRANCH  47  71
BRANCH  59  82
ATOM     82  C   UNL A   1      48.118  26.868  30.722  1.00  0.00     0.064 A 
ATOM     83  C   UNL A   1      48.384  26.073  31.845  1.00  0.00     0.173 A 
ATOM     84  C   UNL A   1      49.191  27.208  29.884  1.00  0.00     0.173 A 
ATOM     85  F   UNL A   1      47.393  25.734  32.683  1.00  0.00    -0.203 F 
ATOM     86  C   UNL A   1      49.681  25.653  32.132  1.00  0.00     0.198 A 
ATOM     87  C   UNL A   1      50.482  26.765  30.161  1.00  0.00     0.198 A 
ATOM     88  F   UNL A   1      48.986  27.962  28.795  1.00  0.00    -0.203 F 
ATOM     89  F   UNL A   1      49.920  24.930  33.235  1.00  0.00    -0.200 F 
ATOM     90  C   UNL A   1      50.726  25.994  31.287  1.00  0.00     0.200 A 
ATOM     91  F   UNL A   1      51.489  27.088  29.339  1.00  0.00    -0.200 F 
ATOM     92  F   UNL A   1      51.973  25.587  31.563  1.00  0.00    -0.200 F 
ENDBRANCH  59  82
ENDBRANCH  33  34
ENDBRANCH  25  28
ENDBRANCH  23  24
ENDBRANCH  22  23
ENDBRANCH  21  22
ENDBRANCH   3  21
TORSDOF 17
ENDMDL
MODEL 2
REMARK VINA RESULT:      -8.8      3.957      6.869
REMARK SMILES C#CCN(CC(=O)NCCCNC(=O)c1ccc(-c2c3nc(c(-c4c(F)c(F)c(F)c(F)c4F)c4ccc([nH]4)c(-c4c(F)c(F)c(F)c(F)c4F)c4nc(c(-c5c(F)c(F)c(F)c(F)c5F)c5ccc2[nH]5)C=C4)C=C3)cc1)C(=O)N(C)[C@H](C)c1cccs1
REMARK SMILES IDX 6 1 7 2 8 3 5 5 4 6 3 7 2 8 1 9 78 10 79 11 80 12 81 13
REMARK SMILES IDX 82 14 83 15 84 16 85 17 88 18 86 19 87 20 9 21 10 22 11 23
REMARK SMILES IDX 12 24 13 25 14 27 15 28 16 29 77 30 17 31 76 32 18 33 19 34
REMARK SMILES IDX 20 35 70 36 21 37 75 38 69 39 71 40 22 41 74 42 68 43 67 44
REMARK SMILES IDX 23 46 55 47 35 48 54 49 36 50 39 51 53 52 72 53 37 54 38 55
REMARK SMILES IDX 52 57 73 58 40 59 24 60 25 61 33 62 26 63 27 64 31 65 34 66
REMARK SMILES IDX 28 67 29 68 32 69 30 70 56 71 57 72 65 73 58 74 59 75 63 76
REMARK SMILES IDX 66 77 60 78 61 79 64 80 62 81 41 82 42 83 50 84 43 85 44 86
REMARK SMILES IDX 48 87 51 88 45 89 46 90 49 91 47 92
REMARK H PARENT 8 4 12 26 71 45 39 56
REMARK Flexibility Score: inf
ROOT
ATOM      1  C   UNL A   1      33.191  25.887  22.942  1.00  0.00     0.239 C 
ATOM      2  O   UNL A   1      33.974  25.592  22.034  1.00  0.00    -0.273 OA
ATOM      3  N   UNL A   1      33.255  27.155  23.438  1.00  0.00    -0.354 N 
ATOM      4  H   UNL A   1      34.083  27.647  23.232  1.00  0.00     0.163 HD
ENDROOT
BRANCH   1   5
ATOM      5  C   UNL A   1      32.091  24.908  23.378  1.00  0.00     0.222 C 
BRANCH   5   6
ATOM      6  N   UNL A   1      32.484  23.935  24.401  1.00  0.00    -0.304 N 
BRANCH   6   7
ATOM      7  C   UNL A   1      31.697  22.695  24.429  1.00  0.00     0.211 C 
BRANCH   7   8
ATOM      8  C   UNL A   1      31.942  21.835  23.200  1.00  0.00    -0.085 C 
ATOM      9  C   UNL A   1      32.152  21.096  22.147  1.00  0.00     0.006 C 
ENDBRANCH   7   8
ENDBRANCH   6   7
BRANCH   6  10
ATOM     10  C   UNL A   1      33.470  24.033  25.373  1.00  0.00     0.321 C 
ATOM     11  O   UNL A   1      33.333  24.923  26.221  1.00  0.00    -0.248 OA
BRANCH  10  12
ATOM     12  N   UNL A   1      34.558  23.180  25.438  1.00  0.00    -0.320 N 
ATOM     13  C   UNL A   1      34.687  21.960  26.226  1.00  0.00     0.149 C 
BRANCH  12  14
ATOM     14  C   UNL A   1      35.738  23.430  24.569  1.00  0.00     0.124 C 
ATOM     15  C   UNL A   1      35.702  22.948  23.114  1.00  0.00     0.037 C 
BRANCH  14  16
ATOM     16  C   UNL A   1      37.030  23.062  25.271  1.00  0.00     0.027 A 
ATOM     17  C   UNL A   1      37.773  23.870  26.116  1.00  0.00     0.017 A 
ATOM     18  S   UNL A   1      37.777  21.531  25.070  1.00  0.00    -0.147 S 
ATOM     19  C   UNL A   1      38.958  23.234  26.582  1.00  0.00     0.012 A 
ATOM     20  C   UNL A   1      39.085  21.958  26.084  1.00  0.00     0.065 A 
ENDBRANCH  14  16
ENDBRANCH  12  14
ENDBRANCH  10  12
ENDBRANCH   6  10
ENDBRANCH   5   6
ENDBRANCH   1   5
BRANCH   3  21
ATOM     21  C   UNL A   1      32.281  27.882  24.224  1.00  0.00     0.117 C 
BRANCH  21  22
ATOM     22  C   UNL A   1      32.667  28.024  25.691  1.00  0.00     0.042 C 
BRANCH  22  23
ATOM     23  C   UNL A   1      33.992  28.737  25.933  1.00  0.00     0.118 C 
BRANCH  23  24
ATOM     24  N   UNL A   1      33.816  30.088  26.447  1.00  0.00    -0.352 N 
ATOM     25  C   UNL A   1      34.495  30.786  27.409  1.00  0.00     0.251 C 
ATOM     26  H   UNL A   1      33.079  30.589  26.028  1.00  0.00     0.163 HD
ATOM     27  O   UNL A   1      34.027  31.852  27.809  1.00  0.00    -0.269 OA
BRANCH  25  28
ATOM     28  C   UNL A   1      35.769  30.295  27.981  1.00  0.00     0.039 A 
ATOM     29  C   UNL A   1      35.748  29.730  29.263  1.00  0.00     0.014 A 
ATOM     30  C   UNL A   1      36.990  30.458  27.321  1.00  0.00     0.014 A 
ATOM     31  C   UNL A   1      36.934  29.299  29.860  1.00  0.00     0.010 A 
ATOM     32  C   UNL A   1      38.165  29.961  27.886  1.00  0.00     0.010 A 
ATOM     33  C   UNL A   1      38.150  29.393  29.167  1.00  0.00    -0.014 A 
BRANCH  33  34
ATOM     34  C   UNL A   1      39.417  28.924  29.784  1.00  0.00     0.031 A 
ATOM     35  C   UNL A   1      39.958  29.601  31.012  1.00  0.00     0.074 A 
ATOM     36  C   UNL A   1      40.101  27.916  29.213  1.00  0.00     0.049 A 
ATOM     37  N   UNL A   1      41.065  29.361  31.672  1.00  0.00    -0.248 NA
ATOM     38  C   UNL A   1      39.163  30.710  31.561  1.00  0.00     0.031 C 
ATOM     39  C   UNL A   1      39.705  27.210  27.994  1.00  0.00     0.029 A 
ATOM     40  N   UNL A   1      41.279  27.314  29.578  1.00  0.00    -0.354 N 
ATOM     41  C   UNL A   1      41.106  30.298  32.695  1.00  0.00     0.074 A 
ATOM     42  C   UNL A   1      39.938  31.140  32.547  1.00  0.00     0.031 C 
ATOM     43  C   UNL A   1      40.609  26.255  27.725  1.00  0.00     0.029 A 
ATOM     44  C   UNL A   1      41.663  26.300  28.736  1.00  0.00     0.049 A 
ATOM     45  H   UNL A   1      41.799  27.583  30.369  1.00  0.00     0.167 HD
ATOM     46  C   UNL A   1      42.023  30.433  33.683  1.00  0.00     0.037 A 
ATOM     47  C   UNL A   1      42.740  25.496  28.776  1.00  0.00     0.037 A 
ATOM     48  C   UNL A   1      43.168  29.575  33.849  1.00  0.00     0.049 A 
ATOM     49  C   UNL A   1      43.731  25.648  29.897  1.00  0.00     0.074 A 
ATOM     50  C   UNL A   1      44.127  29.596  34.847  1.00  0.00     0.029 A 
ATOM     51  N   UNL A   1      43.504  28.536  32.994  1.00  0.00    -0.354 N 
ATOM     52  N   UNL A   1      43.728  26.499  30.894  1.00  0.00    -0.248 NA
ATOM     53  C   UNL A   1      44.869  24.718  29.905  1.00  0.00     0.031 C 
ATOM     54  C   UNL A   1      45.060  28.589  34.579  1.00  0.00     0.029 A 
ATOM     55  C   UNL A   1      44.661  27.916  33.436  1.00  0.00     0.049 A 
ATOM     56  H   UNL A   1      42.995  28.278  32.191  1.00  0.00     0.167 HD
ATOM     57  C   UNL A   1      44.842  26.192  31.661  1.00  0.00     0.074 A 
ATOM     58  C   UNL A   1      45.494  25.067  31.021  1.00  0.00     0.031 C 
ATOM     59  C   UNL A   1      45.286  26.788  32.795  1.00  0.00     0.037 A 
BRANCH  46  60
ATOM     60  C   UNL A   1      41.821  31.546  34.668  1.00  0.00     0.064 A 
ATOM     61  C   UNL A   1      40.963  31.406  35.769  1.00  0.00     0.173 A 
ATOM     62  C   UNL A   1      42.516  32.758  34.528  1.00  0.00     0.173 A 
ATOM     63  F   UNL A   1      40.267  30.272  35.941  1.00  0.00    -0.203 F 
ATOM     64  C   UNL A   1      40.785  32.447  36.677  1.00  0.00     0.198 A 
ATOM     65  C   UNL A   1      42.356  33.787  35.452  1.00  0.00     0.198 A 
ATOM     66  F   UNL A   1      43.353  32.942  33.496  1.00  0.00    -0.203 F 
ATOM     67  F   UNL A   1      39.924  32.307  37.693  1.00  0.00    -0.200 F 
ATOM     68  C   UNL A   1      41.485  33.633  36.521  1.00  0.00     0.200 A 
ATOM     69  F   UNL A   1      43.042  34.928  35.307  1.00  0.00    -0.200 F 
ATOM     70  F   UNL A   1      41.316  34.633  37.398  1.00  0.00    -0.200 F 
ENDBRANCH  46  60
BRANCH  47  71
ATOM     71  C   UNL A   1      42.914  24.441  27.746  1.00  0.00     0.064 A 
ATOM     72  C   UNL A   1      42.461  23.135  27.975  1.00  0.00     0.173 A 
ATOM     73  C   UNL A   1      43.524  24.716  26.514  1.00  0.00     0.173 A 
ATOM     74  F   UNL A   1      41.889  22.822  29.147  1.00  0.00    -0.203 F 
ATOM     75  C   UNL A   1      42.626  22.137  27.017  1.00  0.00     0.198 A 
ATOM     76  C   UNL A   1      43.668  23.724  25.546  1.00  0.00     0.198 A 
ATOM     77  F   UNL A   1      43.970  25.952  26.247  1.00  0.00    -0.203 F 
ATOM     78  F   UNL A   1      42.219  20.889  27.277  1.00  0.00    -0.200 F 
ATOM     79  C   UNL A   1      43.225  22.434  25.801  1.00  0.00     0.200 A 
ATOM     80  F   UNL A   1      44.236  24.015  24.369  1.00  0.00    -0.200 F 
ATOM     81  F   UNL A   1      43.379  21.475  24.879  1.00  0.00    -0.200 F 
ENDBRANCH  47  71
BRANCH  59  82
ATOM     82  C   UNL A   1      46.511  26.210  33.437  1.00  0.00     0.064 A 
ATOM     83  C   UNL A   1      46.430  25.162  34.365  1.00  0.00     0.173 A 
ATOM     84  C   UNL A   1      47.784  26.691  33.094  1.00  0.00     0.173 A 
ATOM     85  F   UNL A   1      45.235  24.680  34.736  1.00  0.00    -0.203 F 
ATOM     86  C   UNL A   1      47.580  24.631  34.945  1.00  0.00     0.198 A 
ATOM     87  C   UNL A   1      48.932  26.139  33.657  1.00  0.00     0.198 A 
ATOM     88  F   UNL A   1      47.914  27.688  32.207  1.00  0.00    -0.203 F 
ATOM     89  F   UNL A   1      47.477  23.659  35.862  1.00  0.00    -0.200 F 
ATOM     90  C   UNL A   1      48.828  25.116  34.585  1.00  0.00     0.200 A 
ATOM     91  F   UNL A   1      50.138  26.602  33.302  1.00  0.00    -0.200 F 
ATOM     92  F   UNL A   1      49.933  24.601  35.142  1.00  0.00    -0.200 F 
ENDBRANCH  59  82
ENDBRANCH  33  34
ENDBRANCH  25  28
ENDBRANCH  23  24
ENDBRANCH  22  23
ENDBRANCH  21  22
ENDBRANCH   3  21
TORSDOF 17
ENDMDL
MODEL 3
REMARK VINA RESULT:      -8.8      5.347     10.110
REMARK SMILES C#CCN(CC(=O)NCCCNC(=O)c1ccc(-c2c3nc(c(-c4c(F)c(F)c(F)c(F)c4F)c4ccc([nH]4)c(-c4c(F)c(F)c(F)c(F)c4F)c4nc(c(-c5c(F)c(F)c(F)c(F)c5F)c5ccc2[nH]5)C=C4)C=C3)cc1)C(=O)N(C)[C@H](C)c1cccs1
REMARK SMILES IDX 6 1 7 2 8 3 5 5 4 6 3 7 2 8 1 9 78 10 79 11 80 12 81 13
REMARK SMILES IDX 82 14 83 15 84 16 85 17 88 18 86 19 87 20 9 21 10 22 11 23
REMARK SMILES IDX 12 24 13 25 14 27 15 28 16 29 77 30 17 31 76 32 18 33 19 34
REMARK SMILES IDX 20 35 70 36 21 37 75 38 69 39 71 40 22 41 74 42 68 43 67 44
REMARK SMILES IDX 23 46 55 47 35 48 54 49 36 50 39 51 53 52 72 53 37 54 38 55
REMARK SMILES IDX 52 57 73 58 40 59 24 60 25 61 33 62 26 63 27 64 31 65 34 66
REMARK SMILES IDX 28 67 29 68 32 69 30 70 56 71 57 72 65 73 58 74 59 75 63 76
REMARK SMILES IDX 66 77 60 78 61 79 64 80 62 81 41 82 42 83 50 84 43 85 44 86
REMARK SMILES IDX 48 87 51 88 45 89 46 90 49 91 47 92
REMARK H PARENT 8 4 12 26 71 45 39 56
REMARK Flexibility Score: inf
ROOT
ATOM      1  C   UNL A   1      37.192  23.275  25.253  1.00  0.00     0.239 C 
ATOM      2  O   UNL A   1      37.558  24.091  26.103  1.00  0.00    -0.273 OA
ATOM      3  N   UNL A   1      37.811  22.061  25.241  1.00  0.00    -0.354 N 
ATOM      4  H   UNL A   1      38.671  22.021  25.719  1.00  0.00     0.163 HD
ENDROOT
BRANCH   1   5
ATOM      5  C   UNL A   1      35.982  23.569  24.354  1.00  0.00     0.222 C 
BRANCH   5   6
ATOM      6  N   UNL A   1      34.751  23.944  25.056  1.00  0.00    -0.304 N 
BRANCH   6   7
ATOM      7  C   UNL A   1      34.401  25.369  24.997  1.00  0.00     0.211 C 
BRANCH   7   8
ATOM      8  C   UNL A   1      33.818  25.759  23.649  1.00  0.00    -0.085 C 
ATOM      9  C   UNL A   1      33.316  26.093  22.492  1.00  0.00     0.006 C 
ENDBRANCH   7   8
ENDBRANCH   6   7
BRANCH   6  10
ATOM     10  C   UNL A   1      33.890  23.152  25.802  1.00  0.00     0.321 C 
ATOM     11  O   UNL A   1      34.082  23.113  27.023  1.00  0.00    -0.248 OA
BRANCH  10  12
ATOM     12  N   UNL A   1      32.840  22.443  25.246  1.00  0.00    -0.320 N 
ATOM     13  C   UNL A   1      31.521  22.208  25.820  1.00  0.00     0.149 C 
BRANCH  12  14
ATOM     14  C   UNL A   1      32.972  21.897  23.869  1.00  0.00     0.124 C 
ATOM     15  C   UNL A   1      32.105  22.488  22.751  1.00  0.00     0.037 C 
BRANCH  14  16
ATOM     16  C   UNL A   1      32.964  20.382  23.872  1.00  0.00     0.027 A 
ATOM     17  C   UNL A   1      32.237  19.555  23.032  1.00  0.00     0.017 A 
ATOM     18  S   UNL A   1      33.883  19.464  24.993  1.00  0.00    -0.147 S 
ATOM     19  C   UNL A   1      32.426  18.174  23.322  1.00  0.00     0.012 A 
ATOM     20  C   UNL A   1      33.295  17.985  24.371  1.00  0.00     0.065 A 
ENDBRANCH  14  16
ENDBRANCH  12  14
ENDBRANCH  10  12
ENDBRANCH   6  10
ENDBRANCH   5   6
ENDBRANCH   1   5
BRANCH   3  21
ATOM     21  C   UNL A   1      37.387  20.821  24.626  1.00  0.00     0.117 C 
BRANCH  21  22
ATOM     22  C   UNL A   1      38.255  19.627  25.001  1.00  0.00     0.042 C 
BRANCH  22  23
ATOM     23  C   UNL A   1      39.213  19.876  26.160  1.00  0.00     0.118 C 
BRANCH  23  24
ATOM     24  N   UNL A   1      40.396  19.029  26.101  1.00  0.00    -0.352 N 
ATOM     25  C   UNL A   1      41.729  19.339  26.064  1.00  0.00     0.251 C 
ATOM     26  H   UNL A   1      40.204  18.064  26.086  1.00  0.00     0.163 HD
ATOM     27  O   UNL A   1      42.538  18.445  25.813  1.00  0.00    -0.269 OA
BRANCH  25  28
ATOM     28  C   UNL A   1      42.222  20.712  26.315  1.00  0.00     0.039 A 
ATOM     29  C   UNL A   1      42.437  21.108  27.641  1.00  0.00     0.014 A 
ATOM     30  C   UNL A   1      42.390  21.639  25.283  1.00  0.00     0.014 A 
ATOM     31  C   UNL A   1      42.854  22.410  27.927  1.00  0.00     0.010 A 
ATOM     32  C   UNL A   1      42.877  22.916  25.561  1.00  0.00     0.010 A 
ATOM     33  C   UNL A   1      43.097  23.319  26.886  1.00  0.00    -0.014 A 
BRANCH  33  34
ATOM     34  C   UNL A   1      43.556  24.702  27.174  1.00  0.00     0.031 A 
ATOM     35  C   UNL A   1      42.596  25.721  27.720  1.00  0.00     0.074 A 
ATOM     36  C   UNL A   1      44.827  25.050  26.903  1.00  0.00     0.049 A 
ATOM     37  N   UNL A   1      42.798  26.985  27.998  1.00  0.00    -0.248 NA
ATOM     38  C   UNL A   1      41.218  25.268  27.965  1.00  0.00     0.031 C 
ATOM     39  C   UNL A   1      45.842  24.165  26.328  1.00  0.00     0.029 A 
ATOM     40  N   UNL A   1      45.483  26.243  27.070  1.00  0.00    -0.354 N 
ATOM     41  C   UNL A   1      41.574  27.478  28.430  1.00  0.00     0.074 A 
ATOM     42  C   UNL A   1      40.623  26.392  28.337  1.00  0.00     0.031 C 
ATOM     43  C   UNL A   1      46.998  24.838  26.213  1.00  0.00     0.029 A 
ATOM     44  C   UNL A   1      46.798  26.208  26.678  1.00  0.00     0.049 A 
ATOM     45  H   UNL A   1      45.051  27.049  27.435  1.00  0.00     0.167 HD
ATOM     46  C   UNL A   1      41.274  28.719  28.883  1.00  0.00     0.037 A 
ATOM     47  C   UNL A   1      47.738  27.171  26.695  1.00  0.00     0.037 A 
ATOM     48  C   UNL A   1      42.228  29.791  29.006  1.00  0.00     0.049 A 
ATOM     49  C   UNL A   1      47.387  28.533  27.227  1.00  0.00     0.074 A 
ATOM     50  C   UNL A   1      42.035  31.068  29.503  1.00  0.00     0.029 A 
ATOM     51  N   UNL A   1      43.561  29.705  28.630  1.00  0.00    -0.354 N 
ATOM     52  N   UNL A   1      46.241  28.970  27.689  1.00  0.00    -0.248 NA
ATOM     53  C   UNL A   1      48.465  29.532  27.251  1.00  0.00     0.031 C 
ATOM     54  C   UNL A   1      43.243  31.765  29.400  1.00  0.00     0.029 A 
ATOM     55  C   UNL A   1      44.199  30.910  28.875  1.00  0.00     0.049 A 
ATOM     56  H   UNL A   1      43.989  28.906  28.246  1.00  0.00     0.167 HD
ATOM     57  C   UNL A   1      46.464  30.282  28.083  1.00  0.00     0.074 A 
ATOM     58  C   UNL A   1      47.859  30.567  27.818  1.00  0.00     0.031 C 
ATOM     59  C   UNL A   1      45.591  31.170  28.618  1.00  0.00     0.037 A 
BRANCH  46  60
ATOM     60  C   UNL A   1      39.854  28.983  29.289  1.00  0.00     0.064 A 
ATOM     61  C   UNL A   1      38.898  29.432  28.365  1.00  0.00     0.173 A 
ATOM     62  C   UNL A   1      39.434  28.754  30.608  1.00  0.00     0.173 A 
ATOM     63  F   UNL A   1      39.252  29.676  27.094  1.00  0.00    -0.203 F 
ATOM     64  C   UNL A   1      37.582  29.672  28.753  1.00  0.00     0.198 A 
ATOM     65  C   UNL A   1      38.112  28.969  30.987  1.00  0.00     0.198 A 
ATOM     66  F   UNL A   1      40.306  28.319  31.530  1.00  0.00    -0.203 F 
ATOM     67  F   UNL A   1      36.700  30.146  27.864  1.00  0.00    -0.200 F 
ATOM     68  C   UNL A   1      37.189  29.434  30.061  1.00  0.00     0.200 A 
ATOM     69  F   UNL A   1      37.730  28.729  32.249  1.00  0.00    -0.200 F 
ATOM     70  F   UNL A   1      35.922  29.662  30.433  1.00  0.00    -0.200 F 
ENDBRANCH  46  60
BRANCH  47  71
ATOM     71  C   UNL A   1      49.116  26.866  26.235  1.00  0.00     0.064 A 
ATOM     72  C   UNL A   1      49.482  27.054  24.896  1.00  0.00     0.173 A 
ATOM     73  C   UNL A   1      50.094  26.391  27.121  1.00  0.00     0.173 A 
ATOM     74  F   UNL A   1      48.574  27.489  24.010  1.00  0.00    -0.203 F 
ATOM     75  C   UNL A   1      50.770  26.763  24.454  1.00  0.00     0.198 A 
ATOM     76  C   UNL A   1      51.389  26.123  26.683  1.00  0.00     0.198 A 
ATOM     77  F   UNL A   1      49.793  26.198  28.413  1.00  0.00    -0.203 F 
ATOM     78  F   UNL A   1      51.083  26.916  23.161  1.00  0.00    -0.200 F 
ATOM     79  C   UNL A   1      51.725  26.303  25.349  1.00  0.00     0.200 A 
ATOM     80  F   UNL A   1      52.312  25.689  27.552  1.00  0.00    -0.200 F 
ATOM     81  F   UNL A   1      52.965  26.028  24.924  1.00  0.00    -0.200 F 
ENDBRANCH  47  71
BRANCH  59  82
ATOM     82  C   UNL A   1      46.130  32.520  28.989  1.00  0.00     0.064 A 
ATOM     83  C   UNL A   1      46.679  32.769  30.255  1.00  0.00     0.173 A 
ATOM     84  C   UNL A   1      46.125  33.565  28.053  1.00  0.00     0.173 A 
ATOM     85  F   UNL A   1      46.693  31.806  31.187  1.00  0.00    -0.203 F 
ATOM     86  C   UNL A   1      47.184  34.027  30.579  1.00  0.00     0.198 A 
ATOM     87  C   UNL A   1      46.653  34.813  28.373  1.00  0.00     0.198 A 
ATOM     88  F   UNL A   1      45.615  33.373  26.828  1.00  0.00    -0.203 F 
ATOM     89  F   UNL A   1      47.665  34.257  31.808  1.00  0.00    -0.200 F 
ATOM     90  C   UNL A   1      47.176  35.044  29.636  1.00  0.00     0.200 A 
ATOM     91  F   UNL A   1      46.653  35.792  27.459  1.00  0.00    -0.200 F 
ATOM     92  F   UNL A   1      47.664  36.252  29.949  1.00  0.00    -0.200 F 
ENDBRANCH  59  82
ENDBRANCH  33  34
ENDBRANCH  25  28
ENDBRANCH  23  24
ENDBRANCH  22  23
ENDBRANCH  21  22
ENDBRANCH   3  21
TORSDOF 17
ENDMDL
