MODEL 1
REMARK VINA RESULT:     -12.2      0.000      0.000
REMARK SMILES CCN(Cc1ccccn1)C(=O)N1CCC[C@H](C(=O)NCCCNC(=O)c2ccc(-c3c4nc(c(-c5c(F)c(F)c(F)c(F)c5F)c5ccc([nH]5)c(-c5c(F)c(F)c(F)c(F)c5F)c5nc(c(-c6c(F)c(F)c(F)c(F)c6F)c6ccc3[nH]6)C=C5)C=C4)cc2)C1
REMARK SMILES IDX 21 1 20 2 18 3 19 4 17 6 13 7 14 8 90 9 15 10 16 11 11 12
REMARK SMILES IDX 12 13 3 14 2 15 1 16 4 17 5 18 6 19 10 20 7 21 9 22 8 23
REMARK SMILES IDX 22 24 23 25 24 26 25 27 26 29 27 30 28 31 89 32 29 33 88 34
REMARK SMILES IDX 30 35 31 36 32 37 82 38 33 39 87 40 81 41 83 42 34 43 86 44
REMARK SMILES IDX 80 45 79 46 35 48 67 49 47 50 66 51 48 52 51 53 65 54 84 55
REMARK SMILES IDX 49 56 50 57 64 59 85 60 52 61 36 62 37 63 45 64 38 65 39 66
REMARK SMILES IDX 43 67 46 68 40 69 41 70 44 71 42 72 68 73 69 74 77 75 70 76
REMARK SMILES IDX 71 77 75 78 78 79 72 80 73 81 76 82 74 83 53 84 54 85 62 86
REMARK SMILES IDX 55 87 56 88 60 89 63 90 57 91 58 92 61 93 59 94
REMARK H PARENT 20 5 24 28 83 47 51 58
REMARK Flexibility Score: inf
ROOT
ATOM      1  C   UNL A   1      31.758  30.758  26.151  1.00  0.00     0.117 C 
ENDROOT
BRANCH   1   2
ATOM      2  N   UNL A   1      31.649  29.705  27.129  1.00  0.00    -0.356 N 
ATOM      3  C   UNL A   1      31.716  28.358  26.967  1.00  0.00     0.224 C 
ATOM      4  O   UNL A   1      31.740  27.683  28.003  1.00  0.00    -0.275 OA
ATOM      5  H   UNL A   1      31.504  30.007  28.055  1.00  0.00     0.163 HD
BRANCH   3   6
ATOM      6  C   UNL A   1      31.710  27.654  25.602  1.00  0.00     0.098 C 
ATOM      7  N   UNL A   1      31.960  25.113  25.413  1.00  0.00    -0.324 N 
ATOM      8  C   UNL A   1      33.093  25.288  24.516  1.00  0.00     0.121 C 
ATOM      9  C   UNL A   1      31.066  26.262  25.567  1.00  0.00     0.134 C 
ATOM     10  C   UNL A   1      33.890  26.546  24.828  1.00  0.00     0.022 C 
ATOM     11  C   UNL A   1      33.018  27.793  24.828  1.00  0.00     0.017 C 
BRANCH   7  12
ATOM     12  C   UNL A   1      31.955  24.033  26.288  1.00  0.00     0.320 C 
ATOM     13  O   UNL A   1      31.265  24.077  27.308  1.00  0.00    -0.248 OA
BRANCH  12  14
ATOM     14  N   UNL A   1      32.695  22.914  25.954  1.00  0.00    -0.319 N 
BRANCH  14  15
ATOM     15  C   UNL A   1      32.284  22.108  24.802  1.00  0.00     0.118 C 
ATOM     16  C   UNL A   1      32.155  20.617  25.096  1.00  0.00     0.027 C 
ENDBRANCH  14  15
BRANCH  14  17
ATOM     17  C   UNL A   1      33.732  22.331  26.824  1.00  0.00     0.177 C 
BRANCH  17  18
ATOM     18  C   UNL A   1      35.140  22.337  26.247  1.00  0.00     0.060 A 
ATOM     19  C   UNL A   1      35.806  23.556  26.096  1.00  0.00     0.026 A 
ATOM     20  N   UNL A   1      35.656  21.173  25.767  1.00  0.00    -0.259 NA
ATOM     21  C   UNL A   1      36.969  23.601  25.334  1.00  0.00     0.004 A 
ATOM     22  C   UNL A   1      36.793  21.247  25.040  1.00  0.00     0.111 A 
ATOM     23  C   UNL A   1      37.465  22.429  24.778  1.00  0.00     0.020 A 
ENDBRANCH  17  18
ENDBRANCH  14  17
ENDBRANCH  12  14
ENDBRANCH   7  12
ENDBRANCH   3   6
ENDBRANCH   1   2
BRANCH   1  24
ATOM     24  C   UNL A   1      31.441  32.134  26.705  1.00  0.00     0.042 C 
BRANCH  24  25
ATOM     25  C   UNL A   1      32.665  32.836  27.258  1.00  0.00     0.118 C 
BRANCH  25  26
ATOM     26  N   UNL A   1      32.393  34.213  27.658  1.00  0.00    -0.352 N 
ATOM     27  C   UNL A   1      32.977  34.997  28.626  1.00  0.00     0.251 C 
ATOM     28  H   UNL A   1      31.674  34.655  27.150  1.00  0.00     0.163 HD
ATOM     29  O   UNL A   1      32.521  36.102  28.880  1.00  0.00    -0.269 OA
BRANCH  27  30
ATOM     30  C   UNL A   1      34.137  34.488  29.390  1.00  0.00     0.039 A 
ATOM     31  C   UNL A   1      33.918  33.879  30.630  1.00  0.00     0.014 A 
ATOM     32  C   UNL A   1      35.433  34.591  28.885  1.00  0.00     0.014 A 
ATOM     33  C   UNL A   1      34.989  33.310  31.320  1.00  0.00     0.010 A 
ATOM     34  C   UNL A   1      36.472  33.914  29.507  1.00  0.00     0.010 A 
ATOM     35  C   UNL A   1      36.267  33.284  30.742  1.00  0.00    -0.014 A 
BRANCH  35  36
ATOM     36  C   UNL A   1      37.420  32.639  31.419  1.00  0.00     0.031 A 
ATOM     37  C   UNL A   1      38.128  31.492  30.750  1.00  0.00     0.074 A 
ATOM     38  C   UNL A   1      37.772  33.025  32.660  1.00  0.00     0.049 A 
ATOM     39  N   UNL A   1      39.086  30.727  31.209  1.00  0.00    -0.248 NA
ATOM     40  C   UNL A   1      37.667  31.128  29.401  1.00  0.00     0.031 C 
ATOM     41  C   UNL A   1      37.122  34.083  33.435  1.00  0.00     0.029 A 
ATOM     42  N   UNL A   1      38.762  32.564  33.491  1.00  0.00    -0.354 N 
ATOM     43  C   UNL A   1      39.312  29.777  30.222  1.00  0.00     0.074 A 
ATOM     44  C   UNL A   1      38.349  30.018  29.171  1.00  0.00     0.031 C 
ATOM     45  C   UNL A   1      37.755  34.216  34.613  1.00  0.00     0.029 A 
ATOM     46  C   UNL A   1      38.825  33.227  34.691  1.00  0.00     0.049 A 
ATOM     47  H   UNL A   1      39.369  31.828  33.249  1.00  0.00     0.167 HD
ATOM     48  C   UNL A   1      40.260  28.811  30.178  1.00  0.00     0.037 A 
ATOM     49  C   UNL A   1      39.656  33.054  35.736  1.00  0.00     0.037 A 
ATOM     50  C   UNL A   1      41.246  28.610  31.205  1.00  0.00     0.049 A 
ATOM     51  C   UNL A   1      40.715  31.989  35.659  1.00  0.00     0.074 A 
ATOM     52  C   UNL A   1      42.301  27.715  31.228  1.00  0.00     0.029 A 
ATOM     53  N   UNL A   1      41.295  29.320  32.396  1.00  0.00    -0.354 N 
ATOM     54  N   UNL A   1      40.969  31.144  34.689  1.00  0.00    -0.248 NA
ATOM     55  C   UNL A   1      41.606  31.858  36.819  1.00  0.00     0.031 C 
ATOM     56  C   UNL A   1      42.963  27.855  32.452  1.00  0.00     0.029 A 
ATOM     57  C   UNL A   1      42.351  28.870  33.171  1.00  0.00     0.049 A 
ATOM     58  H   UNL A   1      40.672  30.039  32.653  1.00  0.00     0.167 HD
ATOM     59  C   UNL A   1      42.062  30.399  35.108  1.00  0.00     0.074 A 
ATOM     60  C   UNL A   1      42.432  30.903  36.416  1.00  0.00     0.031 C 
ATOM     61  C   UNL A   1      42.704  29.390  34.469  1.00  0.00     0.037 A 
BRANCH  48  62
ATOM     62  C   UNL A   1      40.270  27.909  28.977  1.00  0.00     0.064 A 
ATOM     63  C   UNL A   1      39.564  26.694  28.956  1.00  0.00     0.173 A 
ATOM     64  C   UNL A   1      40.997  28.260  27.830  1.00  0.00     0.173 A 
ATOM     65  F   UNL A   1      38.863  26.303  30.031  1.00  0.00    -0.203 F 
ATOM     66  C   UNL A   1      39.626  25.846  27.854  1.00  0.00     0.198 A 
ATOM     67  C   UNL A   1      41.028  27.426  26.715  1.00  0.00     0.198 A 
ATOM     68  F   UNL A   1      41.686  29.411  27.791  1.00  0.00    -0.203 F 
ATOM     69  F   UNL A   1      39.002  24.661  27.888  1.00  0.00    -0.200 F 
ATOM     70  C   UNL A   1      40.353  26.214  26.732  1.00  0.00     0.200 A 
ATOM     71  F   UNL A   1      41.720  27.789  25.626  1.00  0.00    -0.200 F 
ATOM     72  F   UNL A   1      40.413  25.397  25.672  1.00  0.00    -0.200 F 
ENDBRANCH  48  62
BRANCH  49  73
ATOM     73  C   UNL A   1      39.548  33.946  36.921  1.00  0.00     0.064 A 
ATOM     74  C   UNL A   1      40.187  35.194  36.935  1.00  0.00     0.173 A 
ATOM     75  C   UNL A   1      38.794  33.585  38.046  1.00  0.00     0.173 A 
ATOM     76  F   UNL A   1      40.935  35.575  35.889  1.00  0.00    -0.203 F 
ATOM     77  C   UNL A   1      40.085  36.042  38.036  1.00  0.00     0.198 A 
ATOM     78  C   UNL A   1      38.673  34.445  39.136  1.00  0.00     0.198 A 
ATOM     79  F   UNL A   1      38.159  32.404  38.080  1.00  0.00    -0.203 F 
ATOM     80  F   UNL A   1      40.735  37.214  38.037  1.00  0.00    -0.200 F 
ATOM     81  C   UNL A   1      39.323  35.670  39.132  1.00  0.00     0.200 A 
ATOM     82  F   UNL A   1      37.924  34.088  40.188  1.00  0.00    -0.200 F 
ATOM     83  F   UNL A   1      39.219  36.489  40.187  1.00  0.00    -0.200 F 
ENDBRANCH  49  73
BRANCH  61  84
ATOM     84  C   UNL A   1      43.890  28.784  35.159  1.00  0.00     0.064 A 
ATOM     85  C   UNL A   1      43.754  27.700  36.038  1.00  0.00     0.173 A 
ATOM     86  C   UNL A   1      45.182  29.267  34.903  1.00  0.00     0.173 A 
ATOM     87  F   UNL A   1      42.538  27.212  36.328  1.00  0.00    -0.203 F 
ATOM     88  C   UNL A   1      44.869  27.135  36.653  1.00  0.00     0.198 A 
ATOM     89  C   UNL A   1      46.296  28.680  35.495  1.00  0.00     0.198 A 
ATOM     90  F   UNL A   1      45.365  30.297  34.064  1.00  0.00    -0.203 F 
ATOM     91  F   UNL A   1      44.713  26.129  37.525  1.00  0.00    -0.200 F 
ATOM     92  C   UNL A   1      46.138  27.620  36.375  1.00  0.00     0.200 A 
ATOM     93  F   UNL A   1      47.523  29.140  35.215  1.00  0.00    -0.200 F 
ATOM     94  F   UNL A   1      47.210  27.069  36.960  1.00  0.00    -0.200 F 
ENDBRANCH  61  84
ENDBRANCH  35  36
ENDBRANCH  27  30
ENDBRANCH  25  26
ENDBRANCH  24  25
ENDBRANCH   1  24
TORSDOF 15
ENDMDL
MODEL 2
REMARK VINA RESULT:     -12.0      1.000      2.231
REMARK SMILES CCN(Cc1ccccn1)C(=O)N1CCC[C@H](C(=O)NCCCNC(=O)c2ccc(-c3c4nc(c(-c5c(F)c(F)c(F)c(F)c5F)c5ccc([nH]5)c(-c5c(F)c(F)c(F)c(F)c5F)c5nc(c(-c6c(F)c(F)c(F)c(F)c6F)c6ccc3[nH]6)C=C5)C=C4)cc2)C1
REMARK SMILES IDX 21 1 20 2 18 3 19 4 17 6 13 7 14 8 90 9 15 10 16 11 11 12
REMARK SMILES IDX 12 13 3 14 2 15 1 16 4 17 5 18 6 19 10 20 7 21 9 22 8 23
REMARK SMILES IDX 22 24 23 25 24 26 25 27 26 29 27 30 28 31 89 32 29 33 88 34
REMARK SMILES IDX 30 35 31 36 32 37 82 38 33 39 87 40 81 41 83 42 34 43 86 44
REMARK SMILES IDX 80 45 79 46 35 48 67 49 47 50 66 51 48 52 51 53 65 54 84 55
REMARK SMILES IDX 49 56 50 57 64 59 85 60 52 61 36 62 37 63 45 64 38 65 39 66
REMARK SMILES IDX 43 67 46 68 40 69 41 70 44 71 42 72 68 73 69 74 77 75 70 76
REMARK SMILES IDX 71 77 75 78 78 79 72 80 73 81 76 82 74 83 53 84 54 85 62 86
REMARK SMILES IDX 55 87 56 88 60 89 63 90 57 91 58 92 61 93 59 94
REMARK H PARENT 20 5 24 28 83 47 51 58
REMARK Flexibility Score: inf
ROOT
ATOM      1  C   UNL A   1      31.642  30.587  26.696  1.00  0.00     0.117 C 
ENDROOT
BRANCH   1   2
ATOM      2  N   UNL A   1      32.681  30.102  25.822  1.00  0.00    -0.356 N 
ATOM      3  C   UNL A   1      32.649  29.100  24.907  1.00  0.00     0.224 C 
ATOM      4  O   UNL A   1      33.645  28.990  24.180  1.00  0.00    -0.275 OA
ATOM      5  H   UNL A   1      33.545  30.569  25.901  1.00  0.00     0.163 HD
BRANCH   3   6
ATOM      6  C   UNL A   1      31.496  28.095  24.769  1.00  0.00     0.098 C 
ATOM      7  N   UNL A   1      31.925  25.650  24.147  1.00  0.00    -0.324 N 
ATOM      8  C   UNL A   1      31.006  25.770  23.025  1.00  0.00     0.121 C 
ATOM      9  C   UNL A   1      31.802  26.657  25.203  1.00  0.00     0.134 C 
ATOM     10  C   UNL A   1      31.001  27.170  22.428  1.00  0.00     0.022 C 
ATOM     11  C   UNL A   1      30.703  28.237  23.471  1.00  0.00     0.017 C 
BRANCH   7  12
ATOM     12  C   UNL A   1      33.035  24.823  24.022  1.00  0.00     0.320 C 
ATOM     13  O   UNL A   1      33.963  25.154  23.282  1.00  0.00    -0.248 OA
BRANCH  12  14
ATOM     14  N   UNL A   1      33.083  23.667  24.780  1.00  0.00    -0.319 N 
BRANCH  14  15
ATOM     15  C   UNL A   1      32.150  22.580  24.475  1.00  0.00     0.118 C 
ATOM     16  C   UNL A   1      32.163  22.135  23.017  1.00  0.00     0.027 C 
ENDBRANCH  14  15
BRANCH  14  17
ATOM     17  C   UNL A   1      33.845  23.544  26.035  1.00  0.00     0.177 C 
BRANCH  17  18
ATOM     18  C   UNL A   1      35.214  22.893  25.900  1.00  0.00     0.060 A 
ATOM     19  C   UNL A   1      36.346  23.707  25.806  1.00  0.00     0.026 A 
ATOM     20  N   UNL A   1      35.285  21.544  25.735  1.00  0.00    -0.259 NA
ATOM     21  C   UNL A   1      37.556  23.141  25.419  1.00  0.00     0.004 A 
ATOM     22  C   UNL A   1      36.477  21.021  25.370  1.00  0.00     0.111 A 
ATOM     23  C   UNL A   1      37.623  21.775  25.177  1.00  0.00     0.020 A 
ENDBRANCH  17  18
ENDBRANCH  14  17
ENDBRANCH  12  14
ENDBRANCH   7  12
ENDBRANCH   3   6
ENDBRANCH   1   2
BRANCH   1  24
ATOM     24  C   UNL A   1      31.500  32.096  26.689  1.00  0.00     0.042 C 
BRANCH  24  25
ATOM     25  C   UNL A   1      32.718  32.799  27.252  1.00  0.00     0.118 C 
BRANCH  25  26
ATOM     26  N   UNL A   1      32.447  34.183  27.631  1.00  0.00    -0.352 N 
ATOM     27  C   UNL A   1      33.019  34.975  28.599  1.00  0.00     0.251 C 
ATOM     28  H   UNL A   1      31.739  34.622  27.107  1.00  0.00     0.163 HD
ATOM     29  O   UNL A   1      32.565  36.086  28.832  1.00  0.00    -0.269 OA
BRANCH  27  30
ATOM     30  C   UNL A   1      34.164  34.471  29.388  1.00  0.00     0.039 A 
ATOM     31  C   UNL A   1      33.922  33.873  30.629  1.00  0.00     0.014 A 
ATOM     32  C   UNL A   1      35.469  34.566  28.905  1.00  0.00     0.014 A 
ATOM     33  C   UNL A   1      34.978  33.306  31.343  1.00  0.00     0.010 A 
ATOM     34  C   UNL A   1      36.495  33.893  29.552  1.00  0.00     0.010 A 
ATOM     35  C   UNL A   1      36.267  33.272  30.788  1.00  0.00    -0.014 A 
BRANCH  35  36
ATOM     36  C   UNL A   1      37.406  32.631  31.490  1.00  0.00     0.031 A 
ATOM     37  C   UNL A   1      38.133  31.488  30.837  1.00  0.00     0.074 A 
ATOM     38  C   UNL A   1      37.727  33.016  32.740  1.00  0.00     0.049 A 
ATOM     39  N   UNL A   1      39.083  30.724  31.317  1.00  0.00    -0.248 NA
ATOM     40  C   UNL A   1      37.705  31.124  29.477  1.00  0.00     0.031 C 
ATOM     41  C   UNL A   1      37.056  34.071  33.502  1.00  0.00     0.029 A 
ATOM     42  N   UNL A   1      38.699  32.558  33.593  1.00  0.00    -0.354 N 
ATOM     43  C   UNL A   1      39.335  29.777  30.334  1.00  0.00     0.074 A 
ATOM     44  C   UNL A   1      38.396  30.016  29.261  1.00  0.00     0.031 C 
ATOM     45  C   UNL A   1      37.660  34.204  34.693  1.00  0.00     0.029 A 
ATOM     46  C   UNL A   1      38.732  33.219  34.795  1.00  0.00     0.049 A 
ATOM     47  H   UNL A   1      39.315  31.824  33.365  1.00  0.00     0.167 HD
ATOM     48  C   UNL A   1      40.287  28.814  30.311  1.00  0.00     0.037 A 
ATOM     49  C   UNL A   1      39.539  33.048  35.860  1.00  0.00     0.037 A 
ATOM     50  C   UNL A   1      41.250  28.615  31.361  1.00  0.00     0.049 A 
ATOM     51  C   UNL A   1      40.603  31.986  35.805  1.00  0.00     0.074 A 
ATOM     52  C   UNL A   1      42.307  27.724  31.407  1.00  0.00     0.029 A 
ATOM     53  N   UNL A   1      41.269  29.324  32.553  1.00  0.00    -0.354 N 
ATOM     54  N   UNL A   1      40.883  31.143  34.840  1.00  0.00    -0.248 NA
ATOM     55  C   UNL A   1      41.468  31.857  36.985  1.00  0.00     0.031 C 
ATOM     56  C   UNL A   1      42.940  27.865  32.646  1.00  0.00     0.029 A 
ATOM     57  C   UNL A   1      42.308  28.876  33.352  1.00  0.00     0.049 A 
ATOM     58  H   UNL A   1      40.637  30.040  32.796  1.00  0.00     0.167 HD
ATOM     59  C   UNL A   1      41.969  30.401  35.284  1.00  0.00     0.074 A 
ATOM     60  C   UNL A   1      42.306  30.905  36.600  1.00  0.00     0.031 C 
ATOM     61  C   UNL A   1      42.629  29.396  34.658  1.00  0.00     0.037 A 
BRANCH  48  62
ATOM     62  C   UNL A   1      40.328  27.914  29.109  1.00  0.00     0.064 A 
ATOM     63  C   UNL A   1      41.063  28.247  27.959  1.00  0.00     0.173 A 
ATOM     64  C   UNL A   1      39.621  26.702  29.104  1.00  0.00     0.173 A 
ATOM     65  F   UNL A   1      41.747  29.399  27.906  1.00  0.00    -0.203 F 
ATOM     66  C   UNL A   1      41.049  27.426  26.835  1.00  0.00     0.198 A 
ATOM     67  C   UNL A   1      39.638  25.866  27.991  1.00  0.00     0.198 A 
ATOM     68  F   UNL A   1      38.906  26.330  30.176  1.00  0.00    -0.203 F 
ATOM     69  F   UNL A   1      41.700  27.801  25.726  1.00  0.00    -0.200 F 
ATOM     70  C   UNL A   1      40.342  26.234  26.852  1.00  0.00     0.200 A 
ATOM     71  F   UNL A   1      38.965  24.707  28.013  1.00  0.00    -0.200 F 
ATOM     72  F   UNL A   1      40.328  25.445  25.769  1.00  0.00    -0.200 F 
ENDBRANCH  48  62
BRANCH  49  73
ATOM     73  C   UNL A   1      39.401  33.937  37.042  1.00  0.00     0.064 A 
ATOM     74  C   UNL A   1      38.664  33.526  38.162  1.00  0.00     0.173 A 
ATOM     75  C   UNL A   1      40.014  35.197  37.091  1.00  0.00     0.173 A 
ATOM     76  F   UNL A   1      38.044  32.336  38.155  1.00  0.00    -0.203 F 
ATOM     77  C   UNL A   1      38.534  34.347  39.280  1.00  0.00     0.198 A 
ATOM     78  C   UNL A   1      39.904  36.007  38.220  1.00  0.00     0.198 A 
ATOM     79  F   UNL A   1      40.734  35.635  36.047  1.00  0.00    -0.203 F 
ATOM     80  F   UNL A   1      37.794  33.943  40.322  1.00  0.00    -0.200 F 
ATOM     81  C   UNL A   1      39.160  35.583  39.311  1.00  0.00     0.200 A 
ATOM     82  F   UNL A   1      40.522  37.195  38.252  1.00  0.00    -0.200 F 
ATOM     83  F   UNL A   1      39.043  36.369  40.390  1.00  0.00    -0.200 F 
ENDBRANCH  49  73
BRANCH  61  84
ATOM     84  C   UNL A   1      43.800  28.793  35.375  1.00  0.00     0.064 A 
ATOM     85  C   UNL A   1      45.104  29.274  35.186  1.00  0.00     0.173 A 
ATOM     86  C   UNL A   1      43.609  27.752  36.296  1.00  0.00     0.173 A 
ATOM     87  F   UNL A   1      45.341  30.257  34.305  1.00  0.00    -0.203 F 
ATOM     88  C   UNL A   1      46.178  28.717  35.877  1.00  0.00     0.198 A 
ATOM     89  C   UNL A   1      44.680  27.220  37.007  1.00  0.00     0.198 A 
ATOM     90  F   UNL A   1      42.380  27.263  36.517  1.00  0.00    -0.203 F 
ATOM     91  F   UNL A   1      47.422  29.160  35.648  1.00  0.00    -0.200 F 
ATOM     92  C   UNL A   1      45.964  27.697  36.792  1.00  0.00     0.200 A 
ATOM     93  F   UNL A   1      44.469  26.244  37.902  1.00  0.00    -0.200 F 
ATOM     94  F   UNL A   1      46.996  27.170  37.464  1.00  0.00    -0.200 F 
ENDBRANCH  61  84
ENDBRANCH  35  36
ENDBRANCH  27  30
ENDBRANCH  25  26
ENDBRANCH  24  25
ENDBRANCH   1  24
TORSDOF 15
ENDMDL
MODEL 3
REMARK VINA RESULT:     -11.9      1.150      2.256
REMARK SMILES CCN(Cc1ccccn1)C(=O)N1CCC[C@H](C(=O)NCCCNC(=O)c2ccc(-c3c4nc(c(-c5c(F)c(F)c(F)c(F)c5F)c5ccc([nH]5)c(-c5c(F)c(F)c(F)c(F)c5F)c5nc(c(-c6c(F)c(F)c(F)c(F)c6F)c6ccc3[nH]6)C=C5)C=C4)cc2)C1
REMARK SMILES IDX 21 1 20 2 18 3 19 4 17 6 13 7 14 8 90 9 15 10 16 11 11 12
REMARK SMILES IDX 12 13 3 14 2 15 1 16 4 17 5 18 6 19 10 20 7 21 9 22 8 23
REMARK SMILES IDX 22 24 23 25 24 26 25 27 26 29 27 30 28 31 89 32 29 33 88 34
REMARK SMILES IDX 30 35 31 36 32 37 82 38 33 39 87 40 81 41 83 42 34 43 86 44
REMARK SMILES IDX 80 45 79 46 35 48 67 49 47 50 66 51 48 52 51 53 65 54 84 55
REMARK SMILES IDX 49 56 50 57 64 59 85 60 52 61 36 62 37 63 45 64 38 65 39 66
REMARK SMILES IDX 43 67 46 68 40 69 41 70 44 71 42 72 68 73 69 74 77 75 70 76
REMARK SMILES IDX 71 77 75 78 78 79 72 80 73 81 76 82 74 83 53 84 54 85 62 86
REMARK SMILES IDX 55 87 56 88 60 89 63 90 57 91 58 92 61 93 59 94
REMARK H PARENT 20 5 24 28 83 47 51 58
REMARK Flexibility Score: inf
ROOT
ATOM      1  C   UNL A   1      31.655  30.534  26.396  1.00  0.00     0.117 C 
ENDROOT
BRANCH   1   2
ATOM      2  N   UNL A   1      31.661  30.095  25.022  1.00  0.00    -0.356 N 
ATOM      3  C   UNL A   1      31.309  28.896  24.492  1.00  0.00     0.224 C 
ATOM      4  O   UNL A   1      31.266  28.834  23.257  1.00  0.00    -0.275 OA
ATOM      5  H   UNL A   1      31.966  30.767  24.370  1.00  0.00     0.163 HD
BRANCH   3   6
ATOM      6  C   UNL A   1      31.021  27.637  25.324  1.00  0.00     0.098 C 
ATOM      7  N   UNL A   1      32.551  25.588  25.215  1.00  0.00    -0.324 N 
ATOM      8  C   UNL A   1      31.412  24.751  24.869  1.00  0.00     0.121 C 
ATOM      9  C   UNL A   1      32.249  26.877  25.840  1.00  0.00     0.134 C 
ATOM     10  C   UNL A   1      30.365  25.503  24.061  1.00  0.00     0.022 C 
ATOM     11  C   UNL A   1      29.897  26.769  24.765  1.00  0.00     0.017 C 
BRANCH   7  12
ATOM     12  C   UNL A   1      33.795  25.289  24.672  1.00  0.00     0.320 C 
ATOM     13  O   UNL A   1      34.776  25.188  25.411  1.00  0.00    -0.248 OA
BRANCH  12  14
ATOM     14  N   UNL A   1      33.881  25.063  23.310  1.00  0.00    -0.319 N 
BRANCH  14  15
ATOM     15  C   UNL A   1      33.649  26.179  22.390  1.00  0.00     0.118 C 
ATOM     16  C   UNL A   1      32.665  25.869  21.267  1.00  0.00     0.027 C 
ENDBRANCH  14  15
BRANCH  14  17
ATOM     17  C   UNL A   1      33.951  23.720  22.707  1.00  0.00     0.177 C 
BRANCH  17  18
ATOM     18  C   UNL A   1      34.882  22.743  23.409  1.00  0.00     0.060 A 
ATOM     19  C   UNL A   1      34.334  21.767  24.246  1.00  0.00     0.026 A 
ATOM     20  N   UNL A   1      36.225  22.933  23.311  1.00  0.00    -0.259 NA
ATOM     21  C   UNL A   1      35.177  21.049  25.089  1.00  0.00     0.004 A 
ATOM     22  C   UNL A   1      37.019  22.213  24.136  1.00  0.00     0.111 A 
ATOM     23  C   UNL A   1      36.544  21.288  25.050  1.00  0.00     0.020 A 
ENDBRANCH  17  18
ENDBRANCH  14  17
ENDBRANCH  12  14
ENDBRANCH   7  12
ENDBRANCH   3   6
ENDBRANCH   1   2
BRANCH   1  24
ATOM     24  C   UNL A   1      31.476  32.032  26.551  1.00  0.00     0.042 C 
BRANCH  24  25
ATOM     25  C   UNL A   1      32.649  32.689  27.250  1.00  0.00     0.118 C 
BRANCH  25  26
ATOM     26  N   UNL A   1      32.389  34.082  27.601  1.00  0.00    -0.352 N 
ATOM     27  C   UNL A   1      32.975  34.892  28.546  1.00  0.00     0.251 C 
ATOM     28  H   UNL A   1      31.677  34.513  27.075  1.00  0.00     0.163 HD
ATOM     29  O   UNL A   1      32.529  36.010  28.760  1.00  0.00    -0.269 OA
BRANCH  27  30
ATOM     30  C   UNL A   1      34.127  34.399  29.332  1.00  0.00     0.039 A 
ATOM     31  C   UNL A   1      33.891  33.782  30.565  1.00  0.00     0.014 A 
ATOM     32  C   UNL A   1      35.431  34.524  28.855  1.00  0.00     0.014 A 
ATOM     33  C   UNL A   1      34.956  33.227  31.276  1.00  0.00     0.010 A 
ATOM     34  C   UNL A   1      36.467  33.862  29.497  1.00  0.00     0.010 A 
ATOM     35  C   UNL A   1      36.246  33.223  30.725  1.00  0.00    -0.014 A 
BRANCH  35  36
ATOM     36  C   UNL A   1      37.394  32.594  31.424  1.00  0.00     0.031 A 
ATOM     37  C   UNL A   1      38.129  31.455  30.771  1.00  0.00     0.074 A 
ATOM     38  C   UNL A   1      37.719  32.986  32.670  1.00  0.00     0.049 A 
ATOM     39  N   UNL A   1      39.089  30.702  31.248  1.00  0.00    -0.248 NA
ATOM     40  C   UNL A   1      37.698  31.083  29.414  1.00  0.00     0.031 C 
ATOM     41  C   UNL A   1      37.042  34.037  33.433  1.00  0.00     0.029 A 
ATOM     42  N   UNL A   1      38.699  32.539  33.520  1.00  0.00    -0.354 N 
ATOM     43  C   UNL A   1      39.344  29.754  30.267  1.00  0.00     0.074 A 
ATOM     44  C   UNL A   1      38.398  29.981  29.198  1.00  0.00     0.031 C 
ATOM     45  C   UNL A   1      37.651  34.179  34.621  1.00  0.00     0.029 A 
ATOM     46  C   UNL A   1      38.732  33.205  34.720  1.00  0.00     0.049 A 
ATOM     47  H   UNL A   1      39.320  31.810  33.291  1.00  0.00     0.167 HD
ATOM     48  C   UNL A   1      40.305  28.800  30.242  1.00  0.00     0.037 A 
ATOM     49  C   UNL A   1      39.545  33.044  35.781  1.00  0.00     0.037 A 
ATOM     50  C   UNL A   1      41.274  28.613  31.288  1.00  0.00     0.049 A 
ATOM     51  C   UNL A   1      40.619  31.992  35.725  1.00  0.00     0.074 A 
ATOM     52  C   UNL A   1      42.339  27.732  31.331  1.00  0.00     0.029 A 
ATOM     53  N   UNL A   1      41.293  29.326  32.478  1.00  0.00    -0.354 N 
ATOM     54  N   UNL A   1      40.902  31.148  34.761  1.00  0.00    -0.248 NA
ATOM     55  C   UNL A   1      41.490  31.873  36.901  1.00  0.00     0.031 C 
ATOM     56  C   UNL A   1      42.977  27.882  32.567  1.00  0.00     0.029 A 
ATOM     57  C   UNL A   1      42.340  28.890  33.273  1.00  0.00     0.049 A 
ATOM     58  H   UNL A   1      40.656  30.036  32.722  1.00  0.00     0.167 HD
ATOM     59  C   UNL A   1      41.996  30.418  35.202  1.00  0.00     0.074 A 
ATOM     60  C   UNL A   1      42.335  30.928  36.515  1.00  0.00     0.031 C 
ATOM     61  C   UNL A   1      42.662  29.416  34.576  1.00  0.00     0.037 A 
BRANCH  48  62
ATOM     62  C   UNL A   1      40.348  27.896  29.043  1.00  0.00     0.064 A 
ATOM     63  C   UNL A   1      39.641  26.684  29.003  1.00  0.00     0.173 A 
ATOM     64  C   UNL A   1      41.110  28.245  27.918  1.00  0.00     0.173 A 
ATOM     65  F   UNL A   1      38.907  26.296  30.056  1.00  0.00    -0.203 F 
ATOM     66  C   UNL A   1      39.733  25.834  27.904  1.00  0.00     0.198 A 
ATOM     67  C   UNL A   1      41.172  27.409  26.805  1.00  0.00     0.198 A 
ATOM     68  F   UNL A   1      41.803  29.394  27.897  1.00  0.00    -0.203 F 
ATOM     69  F   UNL A   1      39.106  24.650  27.920  1.00  0.00    -0.200 F 
ATOM     70  C   UNL A   1      40.494  26.199  26.804  1.00  0.00     0.200 A 
ATOM     71  F   UNL A   1      41.897  27.769  25.737  1.00  0.00    -0.200 F 
ATOM     72  F   UNL A   1      40.583  25.380  25.747  1.00  0.00    -0.200 F 
ENDBRANCH  48  62
BRANCH  49  73
ATOM     73  C   UNL A   1      39.405  33.935  36.962  1.00  0.00     0.064 A 
ATOM     74  C   UNL A   1      38.669  33.524  38.083  1.00  0.00     0.173 A 
ATOM     75  C   UNL A   1      40.014  35.197  37.008  1.00  0.00     0.173 A 
ATOM     76  F   UNL A   1      38.053  32.333  38.079  1.00  0.00    -0.203 F 
ATOM     77  C   UNL A   1      38.538  34.347  39.199  1.00  0.00     0.198 A 
ATOM     78  C   UNL A   1      39.902  36.009  38.135  1.00  0.00     0.198 A 
ATOM     79  F   UNL A   1      40.733  35.635  35.963  1.00  0.00    -0.203 F 
ATOM     80  F   UNL A   1      37.800  33.944  40.242  1.00  0.00    -0.200 F 
ATOM     81  C   UNL A   1      39.160  35.586  39.227  1.00  0.00     0.200 A 
ATOM     82  F   UNL A   1      40.516  37.199  38.163  1.00  0.00    -0.200 F 
ATOM     83  F   UNL A   1      39.041  36.374  40.304  1.00  0.00    -0.200 F 
ENDBRANCH  49  73
BRANCH  61  84
ATOM     84  C   UNL A   1      43.843  28.826  35.289  1.00  0.00     0.064 A 
ATOM     85  C   UNL A   1      45.138  29.334  35.110  1.00  0.00     0.173 A 
ATOM     86  C   UNL A   1      43.668  27.770  36.195  1.00  0.00     0.173 A 
ATOM     87  F   UNL A   1      45.359  30.333  34.243  1.00  0.00    -0.203 F 
ATOM     88  C   UNL A   1      46.220  28.789  35.798  1.00  0.00     0.198 A 
ATOM     89  C   UNL A   1      44.746  27.248  36.903  1.00  0.00     0.198 A 
ATOM     90  F   UNL A   1      42.448  27.254  36.406  1.00  0.00    -0.203 F 
ATOM     91  F   UNL A   1      47.456  29.258  35.579  1.00  0.00    -0.200 F 
ATOM     92  C   UNL A   1      46.022  27.753  36.699  1.00  0.00     0.200 A 
ATOM     93  F   UNL A   1      44.552  26.257  37.784  1.00  0.00    -0.200 F 
ATOM     94  F   UNL A   1      47.062  27.236  37.367  1.00  0.00    -0.200 F 
ENDBRANCH  61  84
ENDBRANCH  35  36
ENDBRANCH  27  30
ENDBRANCH  25  26
ENDBRANCH  24  25
ENDBRANCH   1  24
TORSDOF 15
ENDMDL
