MODEL 1
REMARK VINA RESULT:     -13.9      0.000      0.000
REMARK SMILES O=C(NCCCNC(=O)C1(Cc2ccccc2Cl)CCN(c2ncnc3[nH]ccc23)CC1)c1ccc(-c2c3nc(c(-c4c(F)c(F)c(F)c(F)c4F)c4ccc([nH]4)c(-c4c(F)c(F)c(F)c(F)c4F)c4nc(c(-c5c(F)c(F)c(F)c(F)c5F)c5ccc2[nH]5)C=C4)C=C3)cc1
REMARK SMILES IDX 5 1 4 2 3 3 1 4 2 5 33 7 34 8 95 9 35 10 94 11 36 12 37 13
REMARK SMILES IDX 38 14 88 15 39 16 93 17 87 18 89 19 40 20 92 21 86 22 85 23
REMARK SMILES IDX 41 25 73 26 53 27 72 28 54 29 57 30 71 31 90 32 55 33 56 34
REMARK SMILES IDX 70 36 91 37 58 38 42 39 43 40 51 41 44 42 45 43 49 44 52 45
REMARK SMILES IDX 46 46 47 47 50 48 48 49 74 50 75 51 83 52 76 53 77 54 81 55
REMARK SMILES IDX 84 56 78 57 79 58 82 59 80 60 59 61 60 62 68 63 61 64 62 65
REMARK SMILES IDX 66 66 69 67 63 68 64 69 67 70 65 71 6 72 7 73 8 74 9 76
REMARK SMILES IDX 10 77 19 78 32 79 20 80 31 81 21 82 11 83 12 84 13 85 17 86
REMARK SMILES IDX 14 87 16 88 18 89 15 90 22 91 23 92 30 93 24 94 26 95 29 96
REMARK SMILES IDX 25 97 27 98 28 99
REMARK H PARENT 3 6 89 24 57 35 7 75 27 100
REMARK Flexibility Score: inf
ROOT
ATOM      1  C   UNL A   1      31.386  31.344  26.211  1.00  0.00     0.042 C 
ENDROOT
BRANCH   1   2
ATOM      2  C   UNL A   1      32.547  31.961  26.939  1.00  0.00     0.118 C 
BRANCH   2   3
ATOM      3  N   UNL A   1      32.318  33.372  27.197  1.00  0.00    -0.352 N 
ATOM      4  O   UNL A   1      32.443  35.279  28.391  1.00  0.00    -0.269 OA
ATOM      5  C   UNL A   1      32.918  34.170  28.134  1.00  0.00     0.251 C 
ATOM      6  H   UNL A   1      31.645  33.809  26.626  1.00  0.00     0.163 HD
BRANCH   5   7
ATOM      7  C   UNL A   1      34.126  33.698  28.845  1.00  0.00     0.039 A 
ATOM      8  C   UNL A   1      34.031  32.722  29.842  1.00  0.00     0.014 A 
ATOM      9  C   UNL A   1      35.376  34.214  28.494  1.00  0.00     0.014 A 
ATOM     10  C   UNL A   1      35.151  32.365  30.579  1.00  0.00     0.010 A 
ATOM     11  C   UNL A   1      36.522  33.761  29.152  1.00  0.00     0.010 A 
ATOM     12  C   UNL A   1      36.415  32.837  30.203  1.00  0.00    -0.014 A 
BRANCH  12  13
ATOM     13  C   UNL A   1      37.619  32.240  30.829  1.00  0.00     0.031 A 
ATOM     14  C   UNL A   1      38.406  31.166  30.143  1.00  0.00     0.074 A 
ATOM     15  C   UNL A   1      37.981  32.685  32.049  1.00  0.00     0.049 A 
ATOM     16  N   UNL A   1      39.452  30.510  30.579  1.00  0.00    -0.248 NA
ATOM     17  C   UNL A   1      37.961  30.763  28.801  1.00  0.00     0.031 C 
ATOM     18  C   UNL A   1      37.276  33.720  32.811  1.00  0.00     0.029 A 
ATOM     19  N   UNL A   1      39.025  32.330  32.864  1.00  0.00    -0.354 N 
ATOM     20  C   UNL A   1      39.778  29.604  29.579  1.00  0.00     0.074 A 
ATOM     21  C   UNL A   1      38.807  29.781  28.519  1.00  0.00     0.031 C 
ATOM     22  C   UNL A   1      37.920  33.936  33.965  1.00  0.00     0.029 A 
ATOM     23  C   UNL A   1      39.034  33.002  34.062  1.00  0.00     0.049 A 
ATOM     24  H   UNL A   1      39.701  31.659  32.615  1.00  0.00     0.167 HD
ATOM     25  C   UNL A   1      40.796  28.713  29.557  1.00  0.00     0.037 A 
ATOM     26  C   UNL A   1      39.824  32.855  35.141  1.00  0.00     0.037 A 
ATOM     27  C   UNL A   1      41.762  28.562  30.616  1.00  0.00     0.049 A 
ATOM     28  C   UNL A   1      40.916  31.826  35.098  1.00  0.00     0.074 A 
ATOM     29  C   UNL A   1      42.871  27.734  30.659  1.00  0.00     0.029 A 
ATOM     30  N   UNL A   1      41.727  29.243  31.825  1.00  0.00    -0.354 N 
ATOM     31  N   UNL A   1      41.254  31.019  34.122  1.00  0.00    -0.248 NA
ATOM     32  C   UNL A   1      41.734  31.681  36.309  1.00  0.00     0.031 C 
ATOM     33  C   UNL A   1      43.464  27.861  31.918  1.00  0.00     0.029 A 
ATOM     34  C   UNL A   1      42.768  28.819  32.637  1.00  0.00     0.049 A 
ATOM     35  H   UNL A   1      41.062  29.926  32.070  1.00  0.00     0.167 HD
ATOM     36  C   UNL A   1      42.332  30.284  34.591  1.00  0.00     0.074 A 
ATOM     37  C   UNL A   1      42.607  30.759  35.932  1.00  0.00     0.031 C 
ATOM     38  C   UNL A   1      43.027  29.302  33.970  1.00  0.00     0.037 A 
BRANCH  25  39
ATOM     39  C   UNL A   1      40.915  27.803  28.367  1.00  0.00     0.064 A 
ATOM     40  C   UNL A   1      40.224  26.585  28.292  1.00  0.00     0.173 A 
ATOM     41  C   UNL A   1      41.675  28.195  27.253  1.00  0.00     0.173 A 
ATOM     42  F   UNL A   1      39.489  26.160  29.330  1.00  0.00    -0.203 F 
ATOM     43  C   UNL A   1      40.304  25.785  27.154  1.00  0.00     0.198 A 
ATOM     44  C   UNL A   1      41.729  27.407  26.107  1.00  0.00     0.198 A 
ATOM     45  F   UNL A   1      42.349  29.354  27.269  1.00  0.00    -0.203 F 
ATOM     46  F   UNL A   1      39.663  24.608  27.118  1.00  0.00    -0.200 F 
ATOM     47  C   UNL A   1      41.048  26.201  26.060  1.00  0.00     0.200 A 
ATOM     48  F   UNL A   1      42.435  27.820  25.044  1.00  0.00    -0.200 F 
ATOM     49  F   UNL A   1      41.110  25.438  24.960  1.00  0.00    -0.200 F 
ENDBRANCH  25  39
BRANCH  26  50
ATOM     50  C   UNL A   1      39.584  33.677  36.355  1.00  0.00     0.064 A 
ATOM     51  C   UNL A   1      38.787  33.203  37.405  1.00  0.00     0.173 A 
ATOM     52  C   UNL A   1      40.143  34.958  36.488  1.00  0.00     0.173 A 
ATOM     53  F   UNL A   1      38.218  31.992  37.318  1.00  0.00    -0.203 F 
ATOM     54  C   UNL A   1      38.536  33.988  38.527  1.00  0.00     0.198 A 
ATOM     55  C   UNL A   1      39.922  35.727  37.627  1.00  0.00     0.198 A 
ATOM     56  F   UNL A   1      40.922  35.456  35.516  1.00  0.00    -0.203 F 
ATOM     57  F   UNL A   1      37.725  33.533  39.492  1.00  0.00    -0.200 F 
ATOM     58  C   UNL A   1      39.109  35.247  38.641  1.00  0.00     0.200 A 
ATOM     59  F   UNL A   1      40.495  36.933  37.741  1.00  0.00    -0.200 F 
ATOM     60  F   UNL A   1      38.868  36.000  39.723  1.00  0.00    -0.200 F 
ENDBRANCH  26  50
BRANCH  38  61
ATOM     61  C   UNL A   1      44.172  28.690  34.725  1.00  0.00     0.064 A 
ATOM     62  C   UNL A   1      45.455  29.253  34.698  1.00  0.00     0.173 A 
ATOM     63  C   UNL A   1      43.969  27.552  35.520  1.00  0.00     0.173 A 
ATOM     64  F   UNL A   1      45.705  30.330  33.937  1.00  0.00    -0.203 F 
ATOM     65  C   UNL A   1      46.500  28.687  35.423  1.00  0.00     0.198 A 
ATOM     66  C   UNL A   1      45.007  27.009  36.270  1.00  0.00     0.198 A 
ATOM     67  F   UNL A   1      42.759  26.976  35.583  1.00  0.00    -0.203 F 
ATOM     68  F   UNL A   1      47.729  29.214  35.345  1.00  0.00    -0.200 F 
ATOM     69  C   UNL A   1      46.273  27.572  36.217  1.00  0.00     0.200 A 
ATOM     70  F   UNL A   1      44.782  25.941  37.048  1.00  0.00    -0.200 F 
ATOM     71  F   UNL A   1      47.276  27.037  36.925  1.00  0.00    -0.200 F 
ENDBRANCH  38  61
ENDBRANCH  12  13
ENDBRANCH   5   7
ENDBRANCH   2   3
ENDBRANCH   1   2
BRANCH   1  72
ATOM     72  C   UNL A   1      31.728  29.970  25.639  1.00  0.00     0.117 C 
BRANCH  72  73
ATOM     73  N   UNL A   1      32.854  29.952  24.677  1.00  0.00    -0.356 N 
ATOM     74  C   UNL A   1      33.270  28.926  23.821  1.00  0.00     0.226 C 
ATOM     75  H   UNL A   1      33.384  30.780  24.633  1.00  0.00     0.163 HD
ATOM     76  O   UNL A   1      34.189  29.111  23.030  1.00  0.00    -0.274 OA
BRANCH  74  77
ATOM     77  C   UNL A   1      32.505  27.600  23.920  1.00  0.00     0.057 C 
ATOM     78  C   UNL A   1      33.037  26.234  23.348  1.00  0.00     0.039 C 
ATOM     79  C   UNL A   1      32.740  27.294  25.429  1.00  0.00     0.039 C 
ATOM     80  C   UNL A   1      32.127  25.082  23.926  1.00  0.00     0.119 C 
ATOM     81  C   UNL A   1      31.860  26.268  26.071  1.00  0.00     0.119 C 
ATOM     82  N   UNL A   1      32.170  25.032  25.386  1.00  0.00    -0.356 N 
BRANCH  77  83
ATOM     83  C   UNL A   1      31.269  27.853  22.941  1.00  0.00     0.054 C 
BRANCH  83  84
ATOM     84  C   UNL A   1      29.790  28.025  23.204  1.00  0.00    -0.028 A 
ATOM     85  C   UNL A   1      29.102  26.922  23.745  1.00  0.00     0.005 A 
ATOM     86  C   UNL A   1      29.016  29.119  22.760  1.00  0.00     0.044 A 
ATOM     87  C   UNL A   1      27.712  26.924  23.872  1.00  0.00     0.000 A 
ATOM     88  C   UNL A   1      27.631  29.148  22.963  1.00  0.00     0.021 A 
ATOM     89  Cl  UNL A   1      29.678  30.450  21.874  1.00  0.00    -0.084 Cl
ATOM     90  C   UNL A   1      26.978  28.048  23.510  1.00  0.00     0.002 A 
ENDBRANCH  83  84
ENDBRANCH  77  83
BRANCH  82  91
ATOM     91  C   UNL A   1      32.858  24.082  26.122  1.00  0.00     0.141 A 
ATOM     92  N   UNL A   1      32.153  23.334  27.025  1.00  0.00    -0.219 NA
ATOM     93  C   UNL A   1      34.243  23.827  26.040  1.00  0.00     0.061 A 
ATOM     94  C   UNL A   1      32.780  22.389  27.751  1.00  0.00     0.226 A 
ATOM     95  C   UNL A   1      34.748  22.818  26.850  1.00  0.00     0.142 A 
ATOM     96  C   UNL A   1      35.367  24.369  25.350  1.00  0.00     0.033 A 
ATOM     97  N   UNL A   1      34.075  22.056  27.722  1.00  0.00    -0.218 NA
ATOM     98  N   UNL A   1      36.092  22.713  26.622  1.00  0.00    -0.346 N 
ATOM     99  C   UNL A   1      36.485  23.655  25.713  1.00  0.00     0.085 A 
ATOM    100  H   UNL A   1      36.688  22.057  27.051  1.00  0.00     0.167 HD
ENDBRANCH  82  91
ENDBRANCH  74  77
ENDBRANCH  72  73
ENDBRANCH   1  72
TORSDOF 13
ENDMDL
MODEL 2
REMARK VINA RESULT:     -13.9      5.116     10.163
REMARK SMILES O=C(NCCCNC(=O)C1(Cc2ccccc2Cl)CCN(c2ncnc3[nH]ccc23)CC1)c1ccc(-c2c3nc(c(-c4c(F)c(F)c(F)c(F)c4F)c4ccc([nH]4)c(-c4c(F)c(F)c(F)c(F)c4F)c4nc(c(-c5c(F)c(F)c(F)c(F)c5F)c5ccc2[nH]5)C=C4)C=C3)cc1
REMARK SMILES IDX 5 1 4 2 3 3 1 4 2 5 33 7 34 8 95 9 35 10 94 11 36 12 37 13
REMARK SMILES IDX 38 14 88 15 39 16 93 17 87 18 89 19 40 20 92 21 86 22 85 23
REMARK SMILES IDX 41 25 73 26 53 27 72 28 54 29 57 30 71 31 90 32 55 33 56 34
REMARK SMILES IDX 70 36 91 37 58 38 42 39 43 40 51 41 44 42 45 43 49 44 52 45
REMARK SMILES IDX 46 46 47 47 50 48 48 49 74 50 75 51 83 52 76 53 77 54 81 55
REMARK SMILES IDX 84 56 78 57 79 58 82 59 80 60 59 61 60 62 68 63 61 64 62 65
REMARK SMILES IDX 66 66 69 67 63 68 64 69 67 70 65 71 6 72 7 73 8 74 9 76
REMARK SMILES IDX 10 77 19 78 32 79 20 80 31 81 21 82 11 83 12 84 13 85 17 86
REMARK SMILES IDX 14 87 16 88 18 89 15 90 22 91 23 92 30 93 24 94 26 95 29 96
REMARK SMILES IDX 25 97 27 98 28 99
REMARK H PARENT 3 6 89 24 57 35 7 75 27 100
REMARK Flexibility Score: inf
ROOT
ATOM      1  C   UNL A   1      37.224  20.045  24.890  1.00  0.00     0.042 C 
ENDROOT
BRANCH   1   2
ATOM      2  C   UNL A   1      38.479  20.546  25.545  1.00  0.00     0.118 C 
BRANCH   2   3
ATOM      3  N   UNL A   1      39.443  19.475  25.726  1.00  0.00    -0.352 N 
ATOM      4  O   UNL A   1      41.509  18.594  25.916  1.00  0.00    -0.269 OA
ATOM      5  C   UNL A   1      40.773  19.577  26.039  1.00  0.00     0.251 C 
ATOM      6  H   UNL A   1      39.096  18.561  25.608  1.00  0.00     0.163 HD
BRANCH   5   7
ATOM      7  C   UNL A   1      41.328  20.864  26.508  1.00  0.00     0.039 A 
ATOM      8  C   UNL A   1      41.795  21.816  25.596  1.00  0.00     0.014 A 
ATOM      9  C   UNL A   1      41.357  21.141  27.878  1.00  0.00     0.014 A 
ATOM     10  C   UNL A   1      42.413  22.972  26.048  1.00  0.00     0.010 A 
ATOM     11  C   UNL A   1      41.866  22.362  28.327  1.00  0.00     0.010 A 
ATOM     12  C   UNL A   1      42.403  23.283  27.414  1.00  0.00    -0.014 A 
BRANCH  12  13
ATOM     13  C   UNL A   1      42.827  24.637  27.845  1.00  0.00     0.031 A 
ATOM     14  C   UNL A   1      41.827  25.696  28.194  1.00  0.00     0.074 A 
ATOM     15  C   UNL A   1      44.149  24.895  27.901  1.00  0.00     0.049 A 
ATOM     16  N   UNL A   1      42.037  26.940  28.542  1.00  0.00    -0.248 NA
ATOM     17  C   UNL A   1      40.407  25.319  28.138  1.00  0.00     0.031 C 
ATOM     18  C   UNL A   1      45.208  23.937  27.569  1.00  0.00     0.029 A 
ATOM     19  N   UNL A   1      44.831  26.030  28.254  1.00  0.00    -0.354 N 
ATOM     20  C   UNL A   1      40.782  27.503  28.723  1.00  0.00     0.074 A 
ATOM     21  C   UNL A   1      39.811  26.469  28.431  1.00  0.00     0.031 C 
ATOM     22  C   UNL A   1      46.402  24.513  27.760  1.00  0.00     0.029 A 
ATOM     23  C   UNL A   1      46.195  25.902  28.149  1.00  0.00     0.049 A 
ATOM     24  H   UNL A   1      44.387  26.857  28.552  1.00  0.00     0.167 HD
ATOM     25  C   UNL A   1      40.478  28.766  29.102  1.00  0.00     0.037 A 
ATOM     26  C   UNL A   1      47.173  26.812  28.307  1.00  0.00     0.037 A 
ATOM     27  C   UNL A   1      41.459  29.778  29.403  1.00  0.00     0.049 A 
ATOM     28  C   UNL A   1      46.797  28.215  28.683  1.00  0.00     0.074 A 
ATOM     29  C   UNL A   1      41.252  31.069  29.860  1.00  0.00     0.029 A 
ATOM     30  N   UNL A   1      42.831  29.620  29.265  1.00  0.00    -0.354 N 
ATOM     31  N   UNL A   1      45.609  28.719  28.915  1.00  0.00    -0.248 NA
ATOM     32  C   UNL A   1      47.896  29.180  28.814  1.00  0.00     0.031 C 
ATOM     33  C   UNL A   1      42.491  31.713  29.930  1.00  0.00     0.029 A 
ATOM     34  C   UNL A   1      43.478  30.804  29.582  1.00  0.00     0.049 A 
ATOM     35  H   UNL A   1      43.278  28.790  28.982  1.00  0.00     0.167 HD
ATOM     36  C   UNL A   1      45.817  30.051  29.236  1.00  0.00     0.074 A 
ATOM     37  C   UNL A   1      47.248  30.272  29.193  1.00  0.00     0.031 C 
ATOM     38  C   UNL A   1      44.904  31.007  29.534  1.00  0.00     0.037 A 
BRANCH  25  39
ATOM     39  C   UNL A   1      39.027  29.150  29.188  1.00  0.00     0.064 A 
ATOM     40  C   UNL A   1      38.333  29.162  30.406  1.00  0.00     0.173 A 
ATOM     41  C   UNL A   1      38.344  29.583  28.039  1.00  0.00     0.173 A 
ATOM     42  F   UNL A   1      38.936  28.752  31.532  1.00  0.00    -0.203 F 
ATOM     43  C   UNL A   1      37.004  29.577  30.469  1.00  0.00     0.198 A 
ATOM     44  C   UNL A   1      37.027  30.024  28.112  1.00  0.00     0.198 A 
ATOM     45  F   UNL A   1      38.963  29.598  26.850  1.00  0.00    -0.203 F 
ATOM     46  F   UNL A   1      36.350  29.548  31.639  1.00  0.00    -0.200 F 
ATOM     47  C   UNL A   1      36.356  30.016  29.325  1.00  0.00     0.200 A 
ATOM     48  F   UNL A   1      36.407  30.464  27.007  1.00  0.00    -0.200 F 
ATOM     49  F   UNL A   1      35.083  30.430  29.391  1.00  0.00    -0.200 F 
ENDBRANCH  25  39
BRANCH  26  50
ATOM     50  C   UNL A   1      48.589  26.428  28.072  1.00  0.00     0.064 A 
ATOM     51  C   UNL A   1      49.438  26.100  29.138  1.00  0.00     0.173 A 
ATOM     52  C   UNL A   1      49.125  26.386  26.775  1.00  0.00     0.173 A 
ATOM     53  F   UNL A   1      48.977  26.140  30.396  1.00  0.00    -0.203 F 
ATOM     54  C   UNL A   1      50.773  25.772  28.918  1.00  0.00     0.198 A 
ATOM     55  C   UNL A   1      50.450  26.022  26.553  1.00  0.00     0.198 A 
ATOM     56  F   UNL A   1      48.354  26.681  25.719  1.00  0.00    -0.203 F 
ATOM     57  F   UNL A   1      51.577  25.517  29.959  1.00  0.00    -0.200 F 
ATOM     58  C   UNL A   1      51.277  25.727  27.626  1.00  0.00     0.200 A 
ATOM     59  F   UNL A   1      50.926  25.959  25.303  1.00  0.00    -0.200 F 
ATOM     60  F   UNL A   1      52.562  25.409  27.416  1.00  0.00    -0.200 F 
ENDBRANCH  26  50
BRANCH  38  61
ATOM     61  C   UNL A   1      45.427  32.375  29.863  1.00  0.00     0.064 A 
ATOM     62  C   UNL A   1      45.805  32.724  31.168  1.00  0.00     0.173 A 
ATOM     63  C   UNL A   1      45.593  33.333  28.852  1.00  0.00     0.173 A 
ATOM     64  F   UNL A   1      45.647  31.850  32.173  1.00  0.00    -0.203 F 
ATOM     65  C   UNL A   1      46.311  33.989  31.451  1.00  0.00     0.198 A 
ATOM     66  C   UNL A   1      46.132  34.585  29.133  1.00  0.00     0.198 A 
ATOM     67  F   UNL A   1      45.250  33.048  27.586  1.00  0.00    -0.203 F 
ATOM     68  F   UNL A   1      46.622  34.316  32.713  1.00  0.00    -0.200 F 
ATOM     69  C   UNL A   1      46.484  34.915  30.433  1.00  0.00     0.200 A 
ATOM     70  F   UNL A   1      46.312  35.472  28.145  1.00  0.00    -0.200 F 
ATOM     71  F   UNL A   1      46.985  36.127  30.705  1.00  0.00    -0.200 F 
ENDBRANCH  38  61
ENDBRANCH  12  13
ENDBRANCH   5   7
ENDBRANCH   2   3
ENDBRANCH   1   2
BRANCH   1  72
ATOM     72  C   UNL A   1      36.070  21.037  25.018  1.00  0.00     0.117 C 
BRANCH  72  73
ATOM     73  N   UNL A   1      35.552  21.225  26.393  1.00  0.00    -0.356 N 
ATOM     74  C   UNL A   1      34.358  21.818  26.816  1.00  0.00     0.226 C 
ATOM     75  H   UNL A   1      36.132  20.883  27.112  1.00  0.00     0.163 HD
ATOM     76  O   UNL A   1      34.053  21.824  28.004  1.00  0.00    -0.274 OA
BRANCH  74  77
ATOM     77  C   UNL A   1      33.469  22.422  25.720  1.00  0.00     0.057 C 
ATOM     78  C   UNL A   1      32.460  23.605  25.961  1.00  0.00     0.039 C 
ATOM     79  C   UNL A   1      34.552  23.232  24.948  1.00  0.00     0.039 C 
ATOM     80  C   UNL A   1      31.991  24.133  24.551  1.00  0.00     0.119 C 
ATOM     81  C   UNL A   1      34.209  23.700  23.568  1.00  0.00     0.119 C 
ATOM     82  N   UNL A   1      33.111  24.624  23.750  1.00  0.00    -0.356 N 
BRANCH  77  83
ATOM     83  C   UNL A   1      32.444  21.233  25.428  1.00  0.00     0.054 C 
BRANCH  83  84
ATOM     84  C   UNL A   1      32.570  19.972  24.603  1.00  0.00    -0.028 A 
ATOM     85  C   UNL A   1      33.130  18.845  25.235  1.00  0.00     0.005 A 
ATOM     86  C   UNL A   1      32.367  19.901  23.207  1.00  0.00     0.044 A 
ATOM     87  C   UNL A   1      33.437  17.687  24.516  1.00  0.00     0.000 A 
ATOM     88  C   UNL A   1      32.604  18.711  22.508  1.00  0.00     0.021 A 
ATOM     89  Cl  UNL A   1      31.901  21.263  22.247  1.00  0.00    -0.084 Cl
ATOM     90  C   UNL A   1      33.146  17.608  23.159  1.00  0.00     0.002 A 
ENDBRANCH  83  84
ENDBRANCH  77  83
BRANCH  82  91
ATOM     91  C   UNL A   1      33.391  25.960  23.523  1.00  0.00     0.141 A 
ATOM     92  N   UNL A   1      33.463  26.391  22.227  1.00  0.00    -0.219 NA
ATOM     93  C   UNL A   1      33.638  26.927  24.521  1.00  0.00     0.061 A 
ATOM     94  C   UNL A   1      33.720  27.686  21.961  1.00  0.00     0.226 A 
ATOM     95  C   UNL A   1      33.885  28.225  24.094  1.00  0.00     0.142 A 
ATOM     96  C   UNL A   1      33.755  26.956  25.942  1.00  0.00     0.033 A 
ATOM     97  N   UNL A   1      33.935  28.676  22.834  1.00  0.00    -0.218 NA
ATOM     98  N   UNL A   1      34.085  29.011  25.195  1.00  0.00    -0.346 N 
ATOM     99  C   UNL A   1      34.013  28.250  26.329  1.00  0.00     0.085 A 
ATOM    100  H   UNL A   1      34.256  29.980  25.174  1.00  0.00     0.167 HD
ENDBRANCH  82  91
ENDBRANCH  74  77
ENDBRANCH  72  73
ENDBRANCH   1  72
TORSDOF 13
ENDMDL
MODEL 3
REMARK VINA RESULT:     -13.8      0.128      1.098
REMARK SMILES O=C(NCCCNC(=O)C1(Cc2ccccc2Cl)CCN(c2ncnc3[nH]ccc23)CC1)c1ccc(-c2c3nc(c(-c4c(F)c(F)c(F)c(F)c4F)c4ccc([nH]4)c(-c4c(F)c(F)c(F)c(F)c4F)c4nc(c(-c5c(F)c(F)c(F)c(F)c5F)c5ccc2[nH]5)C=C4)C=C3)cc1
REMARK SMILES IDX 5 1 4 2 3 3 1 4 2 5 33 7 34 8 95 9 35 10 94 11 36 12 37 13
REMARK SMILES IDX 38 14 88 15 39 16 93 17 87 18 89 19 40 20 92 21 86 22 85 23
REMARK SMILES IDX 41 25 73 26 53 27 72 28 54 29 57 30 71 31 90 32 55 33 56 34
REMARK SMILES IDX 70 36 91 37 58 38 42 39 43 40 51 41 44 42 45 43 49 44 52 45
REMARK SMILES IDX 46 46 47 47 50 48 48 49 74 50 75 51 83 52 76 53 77 54 81 55
REMARK SMILES IDX 84 56 78 57 79 58 82 59 80 60 59 61 60 62 68 63 61 64 62 65
REMARK SMILES IDX 66 66 69 67 63 68 64 69 67 70 65 71 6 72 7 73 8 74 9 76
REMARK SMILES IDX 10 77 19 78 32 79 20 80 31 81 21 82 11 83 12 84 13 85 17 86
REMARK SMILES IDX 14 87 16 88 18 89 15 90 22 91 23 92 30 93 24 94 26 95 29 96
REMARK SMILES IDX 25 97 27 98 28 99
REMARK H PARENT 3 6 89 24 57 35 7 75 27 100
REMARK Flexibility Score: inf
ROOT
ATOM      1  C   UNL A   1      31.441  31.235  26.118  1.00  0.00     0.042 C 
ENDROOT
BRANCH   1   2
ATOM      2  C   UNL A   1      32.487  31.815  27.027  1.00  0.00     0.118 C 
BRANCH   2   3
ATOM      3  N   UNL A   1      32.291  33.241  27.214  1.00  0.00    -0.352 N 
ATOM      4  O   UNL A   1      32.485  35.207  28.300  1.00  0.00    -0.269 OA
ATOM      5  C   UNL A   1      32.932  34.077  28.090  1.00  0.00     0.251 C 
ATOM      6  H   UNL A   1      31.610  33.660  26.639  1.00  0.00     0.163 HD
BRANCH   5   7
ATOM      7  C   UNL A   1      34.152  33.621  28.791  1.00  0.00     0.039 A 
ATOM      8  C   UNL A   1      34.062  32.770  29.898  1.00  0.00     0.014 A 
ATOM      9  C   UNL A   1      35.405  34.022  28.322  1.00  0.00     0.014 A 
ATOM     10  C   UNL A   1      35.201  32.436  30.616  1.00  0.00     0.010 A 
ATOM     11  C   UNL A   1      36.561  33.582  28.971  1.00  0.00     0.010 A 
ATOM     12  C   UNL A   1      36.465  32.790  30.127  1.00  0.00    -0.014 A 
BRANCH  12  13
ATOM     13  C   UNL A   1      37.670  32.201  30.758  1.00  0.00     0.031 A 
ATOM     14  C   UNL A   1      38.457  31.120  30.083  1.00  0.00     0.074 A 
ATOM     15  C   UNL A   1      38.032  32.658  31.973  1.00  0.00     0.049 A 
ATOM     16  N   UNL A   1      39.504  30.469  30.525  1.00  0.00    -0.248 NA
ATOM     17  C   UNL A   1      38.012  30.703  28.746  1.00  0.00     0.031 C 
ATOM     18  C   UNL A   1      37.327  33.700  32.725  1.00  0.00     0.029 A 
ATOM     19  N   UNL A   1      39.077  32.313  32.791  1.00  0.00    -0.354 N 
ATOM     20  C   UNL A   1      39.830  29.553  29.535  1.00  0.00     0.074 A 
ATOM     21  C   UNL A   1      38.858  29.718  28.473  1.00  0.00     0.031 C 
ATOM     22  C   UNL A   1      37.971  33.929  33.876  1.00  0.00     0.029 A 
ATOM     23  C   UNL A   1      39.086  32.997  33.982  1.00  0.00     0.049 A 
ATOM     24  H   UNL A   1      39.753  31.640  32.549  1.00  0.00     0.167 HD
ATOM     25  C   UNL A   1      40.849  28.662  29.521  1.00  0.00     0.037 A 
ATOM     26  C   UNL A   1      39.877  32.862  35.062  1.00  0.00     0.037 A 
ATOM     27  C   UNL A   1      41.815  28.523  30.581  1.00  0.00     0.049 A 
ATOM     28  C   UNL A   1      40.969  31.833  35.030  1.00  0.00     0.074 A 
ATOM     29  C   UNL A   1      42.925  27.696  30.632  1.00  0.00     0.029 A 
ATOM     30  N   UNL A   1      41.781  29.217  31.783  1.00  0.00    -0.354 N 
ATOM     31  N   UNL A   1      41.308  31.016  34.061  1.00  0.00    -0.248 NA
ATOM     32  C   UNL A   1      41.788  31.701  36.242  1.00  0.00     0.031 C 
ATOM     33  C   UNL A   1      43.518  27.837  31.889  1.00  0.00     0.029 A 
ATOM     34  C   UNL A   1      42.822  28.801  32.599  1.00  0.00     0.049 A 
ATOM     35  H   UNL A   1      41.115  29.902  32.021  1.00  0.00     0.167 HD
ATOM     36  C   UNL A   1      42.386  30.287  34.538  1.00  0.00     0.074 A 
ATOM     37  C   UNL A   1      42.662  30.775  35.874  1.00  0.00     0.031 C 
ATOM     38  C   UNL A   1      43.081  29.299  33.926  1.00  0.00     0.037 A 
BRANCH  25  39
ATOM     39  C   UNL A   1      40.967  27.740  28.341  1.00  0.00     0.064 A 
ATOM     40  C   UNL A   1      40.246  26.541  28.260  1.00  0.00     0.173 A 
ATOM     41  C   UNL A   1      41.761  28.103  27.240  1.00  0.00     0.173 A 
ATOM     42  F   UNL A   1      39.478  26.143  29.286  1.00  0.00    -0.203 F 
ATOM     43  C   UNL A   1      40.328  25.730  27.130  1.00  0.00     0.198 A 
ATOM     44  C   UNL A   1      41.817  27.305  26.101  1.00  0.00     0.198 A 
ATOM     45  F   UNL A   1      42.465  29.244  27.261  1.00  0.00    -0.203 F 
ATOM     46  F   UNL A   1      39.656  24.570  27.089  1.00  0.00    -0.200 F 
ATOM     47  C   UNL A   1      41.105  26.117  26.048  1.00  0.00     0.200 A 
ATOM     48  F   UNL A   1      42.555  27.690  25.050  1.00  0.00    -0.200 F 
ATOM     49  F   UNL A   1      41.168  25.344  24.956  1.00  0.00    -0.200 F 
ENDBRANCH  25  39
BRANCH  26  50
ATOM     50  C   UNL A   1      39.637  33.696  36.268  1.00  0.00     0.064 A 
ATOM     51  C   UNL A   1      38.813  33.246  37.308  1.00  0.00     0.173 A 
ATOM     52  C   UNL A   1      40.222  34.965  36.402  1.00  0.00     0.173 A 
ATOM     53  F   UNL A   1      38.220  32.048  37.220  1.00  0.00    -0.203 F 
ATOM     54  C   UNL A   1      38.563  34.043  38.422  1.00  0.00     0.198 A 
ATOM     55  C   UNL A   1      40.001  35.745  37.533  1.00  0.00     0.198 A 
ATOM     56  F   UNL A   1      41.026  35.440  35.439  1.00  0.00    -0.203 F 
ATOM     57  F   UNL A   1      37.727  33.612  39.377  1.00  0.00    -0.200 F 
ATOM     58  C   UNL A   1      39.162  35.290  38.538  1.00  0.00     0.200 A 
ATOM     59  F   UNL A   1      40.599  36.939  37.649  1.00  0.00    -0.200 F 
ATOM     60  F   UNL A   1      38.922  36.054  39.611  1.00  0.00    -0.200 F 
ENDBRANCH  26  50
BRANCH  38  61
ATOM     61  C   UNL A   1      44.227  28.695  34.687  1.00  0.00     0.064 A 
ATOM     62  C   UNL A   1      44.064  27.538  35.464  1.00  0.00     0.173 A 
ATOM     63  C   UNL A   1      45.509  29.256  34.602  1.00  0.00     0.173 A 
ATOM     64  F   UNL A   1      42.853  26.976  35.593  1.00  0.00    -0.203 F 
ATOM     65  C   UNL A   1      45.141  26.977  36.144  1.00  0.00     0.198 A 
ATOM     66  C   UNL A   1      46.590  28.672  35.256  1.00  0.00     0.198 A 
ATOM     67  F   UNL A   1      45.718  30.360  33.871  1.00  0.00    -0.203 F 
ATOM     68  F   UNL A   1      44.953  25.899  36.917  1.00  0.00    -0.200 F 
ATOM     69  C   UNL A   1      46.405  27.538  36.031  1.00  0.00     0.200 A 
ATOM     70  F   UNL A   1      47.813  29.207  35.134  1.00  0.00    -0.200 F 
ATOM     71  F   UNL A   1      47.443  26.988  36.675  1.00  0.00    -0.200 F 
ENDBRANCH  38  61
ENDBRANCH  12  13
ENDBRANCH   5   7
ENDBRANCH   2   3
ENDBRANCH   1   2
BRANCH   1  72
ATOM     72  C   UNL A   1      31.831  29.853  25.596  1.00  0.00     0.117 C 
BRANCH  72  73
ATOM     73  N   UNL A   1      32.914  29.845  24.586  1.00  0.00    -0.356 N 
ATOM     74  C   UNL A   1      33.299  28.825  23.709  1.00  0.00     0.226 C 
ATOM     75  H   UNL A   1      33.438  30.677  24.522  1.00  0.00     0.163 HD
ATOM     76  O   UNL A   1      34.182  29.019  22.879  1.00  0.00    -0.274 OA
BRANCH  74  77
ATOM     77  C   UNL A   1      32.545  27.495  23.835  1.00  0.00     0.057 C 
ATOM     78  C   UNL A   1      33.084  26.124  23.280  1.00  0.00     0.039 C 
ATOM     79  C   UNL A   1      32.797  27.215  25.346  1.00  0.00     0.039 C 
ATOM     80  C   UNL A   1      32.189  24.974  23.884  1.00  0.00     0.119 C 
ATOM     81  C   UNL A   1      31.931  26.191  26.012  1.00  0.00     0.119 C 
ATOM     82  N   UNL A   1      32.246  24.947  25.344  1.00  0.00    -0.356 N 
BRANCH  77  83
ATOM     83  C   UNL A   1      31.299  27.722  22.863  1.00  0.00     0.054 C 
BRANCH  83  84
ATOM     84  C   UNL A   1      29.831  27.952  23.141  1.00  0.00    -0.028 A 
ATOM     85  C   UNL A   1      29.113  26.889  23.721  1.00  0.00     0.005 A 
ATOM     86  C   UNL A   1      29.089  29.060  22.676  1.00  0.00     0.044 A 
ATOM     87  C   UNL A   1      27.725  26.944  23.866  1.00  0.00     0.000 A 
ATOM     88  C   UNL A   1      27.708  29.142  22.895  1.00  0.00     0.021 A 
ATOM     89  Cl  UNL A   1      29.784  30.342  21.744  1.00  0.00    -0.084 Cl
ATOM     90  C   UNL A   1      27.025  28.082  23.482  1.00  0.00     0.002 A 
ENDBRANCH  83  84
ENDBRANCH  77  83
BRANCH  82  91
ATOM     91  C   UNL A   1      32.948  24.014  26.088  1.00  0.00     0.141 A 
ATOM     92  N   UNL A   1      32.257  23.271  27.006  1.00  0.00    -0.219 NA
ATOM     93  C   UNL A   1      34.335  23.773  26.002  1.00  0.00     0.061 A 
ATOM     94  C   UNL A   1      32.898  22.343  27.741  1.00  0.00     0.226 A 
ATOM     95  C   UNL A   1      34.856  22.780  26.822  1.00  0.00     0.142 A 
ATOM     96  C   UNL A   1      35.449  24.318  25.296  1.00  0.00     0.033 A 
ATOM     97  N   UNL A   1      34.196  22.023  27.709  1.00  0.00    -0.218 NA
ATOM     98  N   UNL A   1      36.199  22.686  26.587  1.00  0.00    -0.346 N 
ATOM     99  C   UNL A   1      36.577  23.620  25.662  1.00  0.00     0.085 A 
ATOM    100  H   UNL A   1      36.805  22.043  27.021  1.00  0.00     0.167 HD
ENDBRANCH  82  91
ENDBRANCH  74  77
ENDBRANCH  72  73
ENDBRANCH   1  72
TORSDOF 13
ENDMDL
