MODEL 1
REMARK VINA RESULT:     -12.8      0.000      0.000
REMARK SMILES Cc1noc(C[N@H+]2CCC[C@@H](c3ccc(C(=O)NCCCNC(=O)c4ccc(-c5c6nc(c(-c7c(F)c(F)c(F)c(F)c7F)c7ccc([nH]7)c(-c7c(F)c(F)c(F)c(F)c7F)c7nc(c(-c8c(F)c(F)c(F)c(F)c8F)c8ccc5[nH]8)C=C7)C=C6)cc4)cc3)C2)n1
REMARK SMILES IDX 19 1 18 2 16 3 17 4 15 6 12 7 13 8 89 9 14 10 88 11 11 12
REMARK SMILES IDX 7 13 8 14 90 15 9 17 10 18 6 19 5 20 1 21 2 22 3 23 91 24
REMARK SMILES IDX 4 25 20 26 21 27 22 28 23 29 24 31 25 32 26 33 87 34 27 35
REMARK SMILES IDX 86 36 28 37 29 38 30 39 80 40 31 41 85 42 79 43 81 44 32 45
REMARK SMILES IDX 84 46 78 47 77 48 33 50 65 51 45 52 64 53 46 54 49 55 63 56
REMARK SMILES IDX 82 57 47 58 48 59 62 61 83 62 50 63 34 64 35 65 43 66 36 67
REMARK SMILES IDX 37 68 41 69 44 70 38 71 39 72 42 73 40 74 66 75 67 76 75 77
REMARK SMILES IDX 68 78 69 79 73 80 76 81 70 82 71 83 74 84 72 85 51 86 52 87
REMARK SMILES IDX 60 88 53 89 54 90 58 91 61 92 55 93 56 94 59 95 57 96
REMARK H PARENT 18 5 7 16 22 30 81 49 49 60
REMARK Flexibility Score: inf
ROOT
ATOM      1  C   UNL A   1      41.948  19.093  27.735  1.00  0.00     0.118 C 
ENDROOT
BRANCH   1   2
ATOM      2  N   UNL A   1      42.466  20.417  28.022  1.00  0.00    -0.352 N 
ATOM      3  C   UNL A   1      41.958  21.667  27.782  1.00  0.00     0.251 C 
ATOM      4  O   UNL A   1      42.599  22.635  28.192  1.00  0.00    -0.269 OA
ATOM      5  H   UNL A   1      43.343  20.418  28.470  1.00  0.00     0.163 HD
BRANCH   3   6
ATOM      6  C   UNL A   1      40.652  21.893  27.109  1.00  0.00     0.039 A 
ATOM      7  C   UNL A   1      38.141  22.477  25.951  1.00  0.00    -0.039 A 
ATOM      8  C   UNL A   1      38.818  23.433  26.722  1.00  0.00     0.005 A 
ATOM      9  C   UNL A   1      38.769  21.250  25.712  1.00  0.00     0.005 A 
ATOM     10  C   UNL A   1      40.052  23.141  27.304  1.00  0.00     0.014 A 
ATOM     11  C   UNL A   1      40.023  20.971  26.270  1.00  0.00     0.014 A 
BRANCH   7  12
ATOM     12  C   UNL A   1      36.762  22.749  25.363  1.00  0.00     0.074 C 
ATOM     13  N   UNL A   1      34.339  22.010  25.444  1.00  0.00    -0.327 N 
ATOM     14  C   UNL A   1      33.936  23.378  25.801  1.00  0.00     0.262 C 
ATOM     15  C   UNL A   1      35.723  21.724  25.868  1.00  0.00     0.270 C 
ATOM     16  H   UNL A   1      34.304  21.940  24.428  1.00  0.00     0.348 HD
ATOM     17  C   UNL A   1      34.887  24.412  25.197  1.00  0.00     0.062 C 
ATOM     18  C   UNL A   1      36.317  24.184  25.671  1.00  0.00     0.020 C 
BRANCH  13  19
ATOM     19  C   UNL A   1      33.395  21.002  26.008  1.00  0.00     0.364 C 
BRANCH  19  20
ATOM     20  C   UNL A   1      33.188  19.775  25.172  1.00  0.00     0.281 A 
ATOM     21  C   UNL A   1      34.025  16.909  23.336  1.00  0.00     0.093 C 
ATOM     22  C   UNL A   1      33.378  17.999  24.089  1.00  0.00     0.169 A 
ATOM     23  N   UNL A   1      32.169  17.881  24.654  1.00  0.00    -0.063 NA
ATOM     24  N   UNL A   1      34.023  19.177  24.347  1.00  0.00    -0.191 NA
ATOM     25  O   UNL A   1      32.036  19.070  25.377  1.00  0.00    -0.333 OA
ENDBRANCH  19  20
ENDBRANCH  13  19
ENDBRANCH   7  12
ENDBRANCH   3   6
ENDBRANCH   1   2
BRANCH   1  26
ATOM     26  C   UNL A   1      42.817  18.376  26.704  1.00  0.00     0.042 C 
BRANCH  26  27
ATOM     27  C   UNL A   1      42.924  19.119  25.377  1.00  0.00     0.118 C 
BRANCH  27  28
ATOM     28  N   UNL A   1      44.131  18.764  24.648  1.00  0.00    -0.352 N 
ATOM     29  C   UNL A   1      45.148  19.565  24.193  1.00  0.00     0.251 C 
ATOM     30  H   UNL A   1      44.234  17.806  24.450  1.00  0.00     0.163 HD
ATOM     31  O   UNL A   1      45.976  19.109  23.410  1.00  0.00    -0.269 OA
BRANCH  29  32
ATOM     32  C   UNL A   1      45.252  20.976  24.629  1.00  0.00     0.039 A 
ATOM     33  C   UNL A   1      45.599  21.241  25.958  1.00  0.00     0.014 A 
ATOM     34  C   UNL A   1      44.961  22.031  23.759  1.00  0.00     0.014 A 
ATOM     35  C   UNL A   1      45.698  22.561  26.402  1.00  0.00     0.010 A 
ATOM     36  C   UNL A   1      45.124  23.348  24.184  1.00  0.00     0.010 A 
ATOM     37  C   UNL A   1      45.484  23.626  25.511  1.00  0.00    -0.014 A 
BRANCH  37  38
ATOM     38  C   UNL A   1      45.625  25.035  25.954  1.00  0.00     0.031 A 
ATOM     39  C   UNL A   1      46.965  25.714  25.902  1.00  0.00     0.074 A 
ATOM     40  C   UNL A   1      44.558  25.683  26.458  1.00  0.00     0.049 A 
ATOM     41  N   UNL A   1      47.305  26.911  26.309  1.00  0.00    -0.248 NA
ATOM     42  C   UNL A   1      48.079  24.933  25.341  1.00  0.00     0.031 C 
ATOM     43  C   UNL A   1      43.216  25.117  26.599  1.00  0.00     0.029 A 
ATOM     44  N   UNL A   1      44.437  26.956  26.958  1.00  0.00    -0.354 N 
ATOM     45  C   UNL A   1      48.668  27.019  26.071  1.00  0.00     0.074 A 
ATOM     46  C   UNL A   1      49.104  25.751  25.524  1.00  0.00     0.031 C 
ATOM     47  C   UNL A   1      42.403  26.043  27.134  1.00  0.00     0.029 A 
ATOM     48  C   UNL A   1      43.173  27.254  27.404  1.00  0.00     0.049 A 
ATOM     49  H   UNL A   1      45.186  27.594  26.994  1.00  0.00     0.167 HD
ATOM     50  C   UNL A   1      49.479  28.085  26.272  1.00  0.00     0.037 A 
ATOM     51  C   UNL A   1      42.692  28.375  27.974  1.00  0.00     0.037 A 
ATOM     52  C   UNL A   1      49.036  29.354  26.789  1.00  0.00     0.049 A 
ATOM     53  C   UNL A   1      43.612  29.547  28.179  1.00  0.00     0.074 A 
ATOM     54  C   UNL A   1      49.766  30.514  26.971  1.00  0.00     0.029 A 
ATOM     55  N   UNL A   1      47.741  29.625  27.206  1.00  0.00    -0.354 N 
ATOM     56  N   UNL A   1      44.886  29.659  27.891  1.00  0.00    -0.248 NA
ATOM     57  C   UNL A   1      43.023  30.752  28.781  1.00  0.00     0.031 C 
ATOM     58  C   UNL A   1      48.922  31.479  27.534  1.00  0.00     0.029 A 
ATOM     59  C   UNL A   1      47.656  30.932  27.662  1.00  0.00     0.049 A 
ATOM     60  H   UNL A   1      46.993  28.986  27.181  1.00  0.00     0.167 HD
ATOM     61  C   UNL A   1      45.246  30.950  28.251  1.00  0.00     0.074 A 
ATOM     62  C   UNL A   1      44.052  31.588  28.766  1.00  0.00     0.031 C 
ATOM     63  C   UNL A   1      46.457  31.552  28.164  1.00  0.00     0.037 A 
BRANCH  50  64
ATOM     64  C   UNL A   1      50.932  27.928  25.928  1.00  0.00     0.064 A 
ATOM     65  C   UNL A   1      51.886  27.600  26.903  1.00  0.00     0.173 A 
ATOM     66  C   UNL A   1      51.370  28.069  24.603  1.00  0.00     0.173 A 
ATOM     67  F   UNL A   1      51.522  27.465  28.186  1.00  0.00    -0.203 F 
ATOM     68  C   UNL A   1      53.230  27.447  26.568  1.00  0.00     0.198 A 
ATOM     69  C   UNL A   1      52.708  27.888  24.267  1.00  0.00     0.198 A 
ATOM     70  F   UNL A   1      50.497  28.376  23.632  1.00  0.00    -0.203 F 
ATOM     71  F   UNL A   1      54.130  27.180  27.523  1.00  0.00    -0.200 F 
ATOM     72  C   UNL A   1      53.638  27.584  25.250  1.00  0.00     0.200 A 
ATOM     73  F   UNL A   1      53.100  28.009  22.990  1.00  0.00    -0.200 F 
ATOM     74  F   UNL A   1      54.931  27.431  24.928  1.00  0.00    -0.200 F 
ENDBRANCH  50  64
BRANCH  51  75
ATOM     75  C   UNL A   1      41.262  28.449  28.366  1.00  0.00     0.064 A 
ATOM     76  C   UNL A   1      40.298  28.943  27.475  1.00  0.00     0.173 A 
ATOM     77  C   UNL A   1      40.827  28.025  29.630  1.00  0.00     0.173 A 
ATOM     78  F   UNL A   1      40.670  29.379  26.263  1.00  0.00    -0.203 F 
ATOM     79  C   UNL A   1      38.957  29.027  27.840  1.00  0.00     0.198 A 
ATOM     80  C   UNL A   1      39.481  28.086  29.984  1.00  0.00     0.198 A 
ATOM     81  F   UNL A   1      41.709  27.540  30.515  1.00  0.00    -0.203 F 
ATOM     82  F   UNL A   1      38.063  29.541  26.984  1.00  0.00    -0.200 F 
ATOM     83  C   UNL A   1      38.548  28.593  29.092  1.00  0.00     0.200 A 
ATOM     84  F   UNL A   1      39.088  27.652  31.190  1.00  0.00    -0.200 F 
ATOM     85  F   UNL A   1      37.256  28.669  29.441  1.00  0.00    -0.200 F 
ENDBRANCH  51  75
BRANCH  63  86
ATOM     86  C   UNL A   1      46.545  32.984  28.604  1.00  0.00     0.064 A 
ATOM     87  C   UNL A   1      46.302  34.040  27.714  1.00  0.00     0.173 A 
ATOM     88  C   UNL A   1      46.835  33.299  29.939  1.00  0.00     0.173 A 
ATOM     89  F   UNL A   1      46.037  33.789  26.424  1.00  0.00    -0.203 F 
ATOM     90  C   UNL A   1      46.370  35.364  28.142  1.00  0.00     0.198 A 
ATOM     91  C   UNL A   1      46.875  34.622  30.369  1.00  0.00     0.198 A 
ATOM     92  F   UNL A   1      47.069  32.323  30.829  1.00  0.00    -0.203 F 
ATOM     93  F   UNL A   1      46.178  36.360  27.266  1.00  0.00    -0.200 F 
ATOM     94  C   UNL A   1      46.649  35.653  29.470  1.00  0.00     0.200 A 
ATOM     95  F   UNL A   1      47.134  34.899  31.654  1.00  0.00    -0.200 F 
ATOM     96  F   UNL A   1      46.707  36.927  29.881  1.00  0.00    -0.200 F 
ENDBRANCH  63  86
ENDBRANCH  37  38
ENDBRANCH  29  32
ENDBRANCH  27  28
ENDBRANCH  26  27
ENDBRANCH   1  26
TORSDOF 13
ENDMDL
MODEL 2
REMARK VINA RESULT:     -12.7      0.358      1.614
REMARK SMILES Cc1noc(C[N@H+]2CCC[C@@H](c3ccc(C(=O)NCCCNC(=O)c4ccc(-c5c6nc(c(-c7c(F)c(F)c(F)c(F)c7F)c7ccc([nH]7)c(-c7c(F)c(F)c(F)c(F)c7F)c7nc(c(-c8c(F)c(F)c(F)c(F)c8F)c8ccc5[nH]8)C=C7)C=C6)cc4)cc3)C2)n1
REMARK SMILES IDX 19 1 18 2 16 3 17 4 15 6 12 7 13 8 89 9 14 10 88 11 11 12
REMARK SMILES IDX 7 13 8 14 90 15 9 17 10 18 6 19 5 20 1 21 2 22 3 23 91 24
REMARK SMILES IDX 4 25 20 26 21 27 22 28 23 29 24 31 25 32 26 33 87 34 27 35
REMARK SMILES IDX 86 36 28 37 29 38 30 39 80 40 31 41 85 42 79 43 81 44 32 45
REMARK SMILES IDX 84 46 78 47 77 48 33 50 65 51 45 52 64 53 46 54 49 55 63 56
REMARK SMILES IDX 82 57 47 58 48 59 62 61 83 62 50 63 34 64 35 65 43 66 36 67
REMARK SMILES IDX 37 68 41 69 44 70 38 71 39 72 42 73 40 74 66 75 67 76 75 77
REMARK SMILES IDX 68 78 69 79 73 80 76 81 70 82 71 83 74 84 72 85 51 86 52 87
REMARK SMILES IDX 60 88 53 89 54 90 58 91 61 92 55 93 56 94 59 95 57 96
REMARK H PARENT 18 5 7 16 22 30 81 49 49 60
REMARK Flexibility Score: inf
ROOT
ATOM      1  C   UNL A   1      41.792  19.207  27.694  1.00  0.00     0.118 C 
ENDROOT
BRANCH   1   2
ATOM      2  N   UNL A   1      42.290  20.534  28.001  1.00  0.00    -0.352 N 
ATOM      3  C   UNL A   1      41.770  21.780  27.767  1.00  0.00     0.251 C 
ATOM      4  O   UNL A   1      42.393  22.752  28.196  1.00  0.00    -0.269 OA
ATOM      5  H   UNL A   1      43.161  20.541  28.461  1.00  0.00     0.163 HD
BRANCH   3   6
ATOM      6  C   UNL A   1      40.471  21.997  27.078  1.00  0.00     0.039 A 
ATOM      7  C   UNL A   1      37.971  22.566  25.888  1.00  0.00    -0.039 A 
ATOM      8  C   UNL A   1      38.642  23.533  26.650  1.00  0.00     0.005 A 
ATOM      9  C   UNL A   1      38.600  21.334  25.674  1.00  0.00     0.005 A 
ATOM     10  C   UNL A   1      39.870  23.248  27.248  1.00  0.00     0.014 A 
ATOM     11  C   UNL A   1      39.848  21.063  26.247  1.00  0.00     0.014 A 
BRANCH   7  12
ATOM     12  C   UNL A   1      36.598  22.830  25.284  1.00  0.00     0.074 C 
ATOM     13  N   UNL A   1      34.161  22.147  25.407  1.00  0.00    -0.327 N 
ATOM     14  C   UNL A   1      33.786  23.542  25.680  1.00  0.00     0.262 C 
ATOM     15  C   UNL A   1      35.538  21.859  25.849  1.00  0.00     0.270 C 
ATOM     16  H   UNL A   1      34.124  22.017  24.396  1.00  0.00     0.348 HD
ATOM     17  C   UNL A   1      34.757  24.518  25.015  1.00  0.00     0.062 C 
ATOM     18  C   UNL A   1      36.183  24.290  25.504  1.00  0.00     0.020 C 
BRANCH  13  19
ATOM     19  C   UNL A   1      33.196  21.194  26.029  1.00  0.00     0.364 C 
BRANCH  19  20
ATOM     20  C   UNL A   1      32.730  20.079  25.142  1.00  0.00     0.281 A 
ATOM     21  C   UNL A   1      32.505  18.080  22.273  1.00  0.00     0.093 C 
ATOM     22  C   UNL A   1      32.440  18.683  23.616  1.00  0.00     0.169 A 
ATOM     23  N   UNL A   1      32.195  17.973  24.725  1.00  0.00    -0.063 NA
ATOM     24  N   UNL A   1      32.729  20.003  23.828  1.00  0.00    -0.191 NA
ATOM     25  O   UNL A   1      32.384  18.906  25.750  1.00  0.00    -0.333 OA
ENDBRANCH  19  20
ENDBRANCH  13  19
ENDBRANCH   7  12
ENDBRANCH   3   6
ENDBRANCH   1   2
BRANCH   1  26
ATOM     26  C   UNL A   1      42.735  18.475  26.740  1.00  0.00     0.042 C 
BRANCH  26  27
ATOM     27  C   UNL A   1      42.839  19.132  25.368  1.00  0.00     0.118 C 
BRANCH  27  28
ATOM     28  N   UNL A   1      44.063  18.758  24.676  1.00  0.00    -0.352 N 
ATOM     29  C   UNL A   1      45.096  19.546  24.235  1.00  0.00     0.251 C 
ATOM     30  H   UNL A   1      44.166  17.797  24.496  1.00  0.00     0.163 HD
ATOM     31  O   UNL A   1      45.942  19.074  23.482  1.00  0.00    -0.269 OA
BRANCH  29  32
ATOM     32  C   UNL A   1      45.197  20.963  24.652  1.00  0.00     0.039 A 
ATOM     33  C   UNL A   1      45.547  21.248  25.976  1.00  0.00     0.014 A 
ATOM     34  C   UNL A   1      44.899  22.006  23.769  1.00  0.00     0.014 A 
ATOM     35  C   UNL A   1      45.643  22.574  26.401  1.00  0.00     0.010 A 
ATOM     36  C   UNL A   1      45.060  23.328  24.175  1.00  0.00     0.010 A 
ATOM     37  C   UNL A   1      45.423  23.625  25.497  1.00  0.00    -0.014 A 
BRANCH  37  38
ATOM     38  C   UNL A   1      45.560  25.042  25.920  1.00  0.00     0.031 A 
ATOM     39  C   UNL A   1      46.901  25.721  25.864  1.00  0.00     0.074 A 
ATOM     40  C   UNL A   1      44.491  25.696  26.410  1.00  0.00     0.049 A 
ATOM     41  N   UNL A   1      47.237  26.924  26.256  1.00  0.00    -0.248 NA
ATOM     42  C   UNL A   1      48.017  24.933  25.319  1.00  0.00     0.031 C 
ATOM     43  C   UNL A   1      43.149  25.131  26.553  1.00  0.00     0.029 A 
ATOM     44  N   UNL A   1      44.367  26.976  26.891  1.00  0.00    -0.354 N 
ATOM     45  C   UNL A   1      48.602  27.029  26.022  1.00  0.00     0.074 A 
ATOM     46  C   UNL A   1      49.041  25.755  25.496  1.00  0.00     0.031 C 
ATOM     47  C   UNL A   1      42.333  26.063  27.070  1.00  0.00     0.029 A 
ATOM     48  C   UNL A   1      43.100  27.279  27.326  1.00  0.00     0.049 A 
ATOM     49  H   UNL A   1      45.115  27.615  26.920  1.00  0.00     0.167 HD
ATOM     50  C   UNL A   1      49.410  28.100  26.212  1.00  0.00     0.037 A 
ATOM     51  C   UNL A   1      42.616  28.407  27.878  1.00  0.00     0.037 A 
ATOM     52  C   UNL A   1      48.964  29.375  26.707  1.00  0.00     0.049 A 
ATOM     53  C   UNL A   1      43.533  29.583  28.069  1.00  0.00     0.074 A 
ATOM     54  C   UNL A   1      49.693  30.539  26.876  1.00  0.00     0.029 A 
ATOM     55  N   UNL A   1      47.667  29.651  27.115  1.00  0.00    -0.354 N 
ATOM     56  N   UNL A   1      44.809  29.693  27.786  1.00  0.00    -0.248 NA
ATOM     57  C   UNL A   1      42.941  30.796  28.651  1.00  0.00     0.031 C 
ATOM     58  C   UNL A   1      48.845  31.511  27.421  1.00  0.00     0.029 A 
ATOM     59  C   UNL A   1      47.578  30.964  27.551  1.00  0.00     0.049 A 
ATOM     60  H   UNL A   1      46.920  29.011  27.096  1.00  0.00     0.167 HD
ATOM     61  C   UNL A   1      45.166  30.989  28.129  1.00  0.00     0.074 A 
ATOM     62  C   UNL A   1      43.969  31.633  28.629  1.00  0.00     0.031 C 
ATOM     63  C   UNL A   1      46.377  31.591  28.039  1.00  0.00     0.037 A 
BRANCH  50  64
ATOM     64  C   UNL A   1      50.866  27.938  25.876  1.00  0.00     0.064 A 
ATOM     65  C   UNL A   1      51.338  28.086  24.564  1.00  0.00     0.173 A 
ATOM     66  C   UNL A   1      51.803  27.669  26.884  1.00  0.00     0.173 A 
ATOM     67  F   UNL A   1      50.481  28.334  23.562  1.00  0.00    -0.203 F 
ATOM     68  C   UNL A   1      52.691  27.944  24.268  1.00  0.00     0.198 A 
ATOM     69  C   UNL A   1      53.159  27.554  26.590  1.00  0.00     0.198 A 
ATOM     70  F   UNL A   1      51.405  27.524  28.157  1.00  0.00    -0.203 F 
ATOM     71  F   UNL A   1      53.112  28.044  23.000  1.00  0.00    -0.200 F 
ATOM     72  C   UNL A   1      53.601  27.685  25.282  1.00  0.00     0.200 A 
ATOM     73  F   UNL A   1      54.039  27.316  27.573  1.00  0.00    -0.200 F 
ATOM     74  F   UNL A   1      54.904  27.554  24.997  1.00  0.00    -0.200 F 
ENDBRANCH  50  64
BRANCH  51  75
ATOM     75  C   UNL A   1      41.183  28.486  28.261  1.00  0.00     0.064 A 
ATOM     76  C   UNL A   1      40.761  28.106  29.542  1.00  0.00     0.173 A 
ATOM     77  C   UNL A   1      40.211  28.947  27.362  1.00  0.00     0.173 A 
ATOM     78  F   UNL A   1      41.652  27.640  30.429  1.00  0.00    -0.203 F 
ATOM     79  C   UNL A   1      39.417  28.166  29.904  1.00  0.00     0.198 A 
ATOM     80  C   UNL A   1      38.871  29.032  27.734  1.00  0.00     0.198 A 
ATOM     81  F   UNL A   1      40.565  29.329  26.127  1.00  0.00    -0.203 F 
ATOM     82  F   UNL A   1      39.035  27.757  31.122  1.00  0.00    -0.200 F 
ATOM     83  C   UNL A   1      38.474  28.634  29.002  1.00  0.00     0.200 A 
ATOM     84  F   UNL A   1      37.965  29.499  26.864  1.00  0.00    -0.200 F 
ATOM     85  F   UNL A   1      37.182  28.698  29.352  1.00  0.00    -0.200 F 
ENDBRANCH  51  75
BRANCH  63  86
ATOM     86  C   UNL A   1      46.461  33.029  28.458  1.00  0.00     0.064 A 
ATOM     87  C   UNL A   1      46.230  34.072  27.550  1.00  0.00     0.173 A 
ATOM     88  C   UNL A   1      46.737  33.363  29.792  1.00  0.00     0.173 A 
ATOM     89  F   UNL A   1      45.979  33.801  26.260  1.00  0.00    -0.203 F 
ATOM     90  C   UNL A   1      46.295  35.402  27.959  1.00  0.00     0.198 A 
ATOM     91  C   UNL A   1      46.774  34.693  30.202  1.00  0.00     0.198 A 
ATOM     92  F   UNL A   1      46.960  32.401  30.698  1.00  0.00    -0.203 F 
ATOM     93  F   UNL A   1      46.113  36.385  27.066  1.00  0.00    -0.200 F 
ATOM     94  C   UNL A   1      46.559  35.710  29.285  1.00  0.00     0.200 A 
ATOM     95  F   UNL A   1      47.019  34.989  31.486  1.00  0.00    -0.200 F 
ATOM     96  F   UNL A   1      46.614  36.990  29.678  1.00  0.00    -0.200 F 
ENDBRANCH  63  86
ENDBRANCH  37  38
ENDBRANCH  29  32
ENDBRANCH  27  28
ENDBRANCH  26  27
ENDBRANCH   1  26
TORSDOF 13
ENDMDL
MODEL 3
REMARK VINA RESULT:     -12.7      6.490     11.225
REMARK SMILES Cc1noc(C[N@H+]2CCC[C@@H](c3ccc(C(=O)NCCCNC(=O)c4ccc(-c5c6nc(c(-c7c(F)c(F)c(F)c(F)c7F)c7ccc([nH]7)c(-c7c(F)c(F)c(F)c(F)c7F)c7nc(c(-c8c(F)c(F)c(F)c(F)c8F)c8ccc5[nH]8)C=C7)C=C6)cc4)cc3)C2)n1
REMARK SMILES IDX 19 1 18 2 16 3 17 4 15 6 12 7 13 8 89 9 14 10 88 11 11 12
REMARK SMILES IDX 7 13 8 14 90 15 9 17 10 18 6 19 5 20 1 21 2 22 3 23 91 24
REMARK SMILES IDX 4 25 20 26 21 27 22 28 23 29 24 31 25 32 26 33 87 34 27 35
REMARK SMILES IDX 86 36 28 37 29 38 30 39 80 40 31 41 85 42 79 43 81 44 32 45
REMARK SMILES IDX 84 46 78 47 77 48 33 50 65 51 45 52 64 53 46 54 49 55 63 56
REMARK SMILES IDX 82 57 47 58 48 59 62 61 83 62 50 63 34 64 35 65 43 66 36 67
REMARK SMILES IDX 37 68 41 69 44 70 38 71 39 72 42 73 40 74 66 75 67 76 75 77
REMARK SMILES IDX 68 78 69 79 73 80 76 81 70 82 71 83 74 84 72 85 51 86 52 87
REMARK SMILES IDX 60 88 53 89 54 90 58 91 61 92 55 93 56 94 59 95 57 96
REMARK H PARENT 18 5 7 16 22 30 81 49 49 60
REMARK Flexibility Score: inf
ROOT
ATOM      1  C   UNL A   1      31.528  30.605  26.223  1.00  0.00     0.118 C 
ENDROOT
BRANCH   1   2
ATOM      2  N   UNL A   1      31.004  30.393  24.886  1.00  0.00    -0.352 N 
ATOM      3  C   UNL A   1      30.944  29.275  24.097  1.00  0.00     0.251 C 
ATOM      4  O   UNL A   1      30.382  29.372  23.006  1.00  0.00    -0.269 OA
ATOM      5  H   UNL A   1      30.623  31.201  24.471  1.00  0.00     0.163 HD
BRANCH   3   6
ATOM      6  C   UNL A   1      31.471  27.953  24.527  1.00  0.00     0.039 A 
ATOM      7  C   UNL A   1      32.649  25.495  25.275  1.00  0.00    -0.039 A 
ATOM      8  C   UNL A   1      33.441  26.621  25.005  1.00  0.00     0.005 A 
ATOM      9  C   UNL A   1      31.258  25.635  25.230  1.00  0.00     0.005 A 
ATOM     10  C   UNL A   1      32.860  27.831  24.624  1.00  0.00     0.014 A 
ATOM     11  C   UNL A   1      30.676  26.859  24.880  1.00  0.00     0.014 A 
BRANCH   7  12
ATOM     12  C   UNL A   1      33.264  24.146  25.625  1.00  0.00     0.074 C 
ATOM     13  N   UNL A   1      33.391  21.723  24.894  1.00  0.00    -0.327 N 
ATOM     14  C   UNL A   1      34.854  21.831  24.797  1.00  0.00     0.262 C 
ATOM     15  C   UNL A   1      32.737  23.030  24.697  1.00  0.00     0.270 C 
ATOM     16  H   UNL A   1      33.175  21.404  25.838  1.00  0.00     0.348 HD
ATOM     17  C   UNL A   1      35.404  22.843  25.804  1.00  0.00     0.062 C 
ATOM     18  C   UNL A   1      34.795  24.222  25.581  1.00  0.00     0.020 C 
BRANCH  13  19
ATOM     19  C   UNL A   1      32.858  20.713  23.934  1.00  0.00     0.364 C 
BRANCH  19  20
ATOM     20  C   UNL A   1      32.921  19.289  24.396  1.00  0.00     0.281 A 
ATOM     21  C   UNL A   1      34.341  16.186  25.193  1.00  0.00     0.093 C 
ATOM     22  C   UNL A   1      33.491  17.376  25.012  1.00  0.00     0.169 A 
ATOM     23  N   UNL A   1      32.415  17.629  25.769  1.00  0.00    -0.063 NA
ATOM     24  N   UNL A   1      33.810  18.359  24.116  1.00  0.00    -0.191 NA
ATOM     25  O   UNL A   1      32.027  18.908  25.358  1.00  0.00    -0.333 OA
ENDBRANCH  19  20
ENDBRANCH  13  19
ENDBRANCH   7  12
ENDBRANCH   3   6
ENDBRANCH   1   2
BRANCH   1  26
ATOM     26  C   UNL A   1      31.397  32.069  26.637  1.00  0.00     0.042 C 
BRANCH  26  27
ATOM     27  C   UNL A   1      32.682  32.655  27.214  1.00  0.00     0.118 C 
BRANCH  27  28
ATOM     28  N   UNL A   1      32.513  34.039  27.627  1.00  0.00    -0.352 N 
ATOM     29  C   UNL A   1      33.123  34.731  28.642  1.00  0.00     0.251 C 
ATOM     30  H   UNL A   1      31.864  34.557  27.100  1.00  0.00     0.163 HD
ATOM     31  O   UNL A   1      32.692  35.831  28.972  1.00  0.00    -0.269 OA
BRANCH  29  32
ATOM     32  C   UNL A   1      34.291  34.161  29.351  1.00  0.00     0.039 A 
ATOM     33  C   UNL A   1      34.066  33.379  30.489  1.00  0.00     0.014 A 
ATOM     34  C   UNL A   1      35.599  34.432  28.938  1.00  0.00     0.014 A 
ATOM     35  C   UNL A   1      35.148  32.834  31.184  1.00  0.00     0.010 A 
ATOM     36  C   UNL A   1      36.673  33.834  29.592  1.00  0.00     0.010 A 
ATOM     37  C   UNL A   1      36.459  33.037  30.726  1.00  0.00    -0.014 A 
BRANCH  37  38
ATOM     38  C   UNL A   1      37.619  32.432  31.428  1.00  0.00     0.031 A 
ATOM     39  C   UNL A   1      38.371  31.292  30.799  1.00  0.00     0.074 A 
ATOM     40  C   UNL A   1      37.955  32.869  32.656  1.00  0.00     0.049 A 
ATOM     41  N   UNL A   1      39.362  30.586  31.283  1.00  0.00    -0.248 NA
ATOM     42  C   UNL A   1      37.936  30.874  29.457  1.00  0.00     0.031 C 
ATOM     43  C   UNL A   1      37.275  33.938  33.386  1.00  0.00     0.029 A 
ATOM     44  N   UNL A   1      38.947  32.458  33.512  1.00  0.00    -0.354 N 
ATOM     45  C   UNL A   1      39.654  29.632  30.317  1.00  0.00     0.074 A 
ATOM     46  C   UNL A   1      38.709  29.821  29.237  1.00  0.00     0.031 C 
ATOM     47  C   UNL A   1      37.878  34.111  34.574  1.00  0.00     0.029 A 
ATOM     48  C   UNL A   1      38.964  33.144  34.701  1.00  0.00     0.049 A 
ATOM     49  H   UNL A   1      39.585  31.741  33.293  1.00  0.00     0.167 HD
ATOM     50  C   UNL A   1      40.634  28.698  30.322  1.00  0.00     0.037 A 
ATOM     51  C   UNL A   1      39.761  33.001  35.777  1.00  0.00     0.037 A 
ATOM     52  C   UNL A   1      41.590  28.533  31.385  1.00  0.00     0.049 A 
ATOM     53  C   UNL A   1      40.847  31.961  35.754  1.00  0.00     0.074 A 
ATOM     54  C   UNL A   1      42.659  27.657  31.457  1.00  0.00     0.029 A 
ATOM     55  N   UNL A   1      41.591  29.263  32.564  1.00  0.00    -0.354 N 
ATOM     56  N   UNL A   1      41.154  31.107  34.808  1.00  0.00    -0.248 NA
ATOM     57  C   UNL A   1      41.702  31.870  36.945  1.00  0.00     0.031 C 
ATOM     58  C   UNL A   1      43.285  27.830  32.696  1.00  0.00     0.029 A 
ATOM     59  C   UNL A   1      42.633  28.845  33.378  1.00  0.00     0.049 A 
ATOM     60  H   UNL A   1      40.949  29.974  32.789  1.00  0.00     0.167 HD
ATOM     61  C   UNL A   1      42.250  30.396  35.277  1.00  0.00     0.074 A 
ATOM     62  C   UNL A   1      42.564  30.929  36.586  1.00  0.00     0.031 C 
ATOM     63  C   UNL A   1      42.935  29.392  34.676  1.00  0.00     0.037 A 
BRANCH  50  64
ATOM     64  C   UNL A   1      40.725  27.780  29.137  1.00  0.00     0.064 A 
ATOM     65  C   UNL A   1      39.874  26.673  28.998  1.00  0.00     0.173 A 
ATOM     66  C   UNL A   1      41.647  28.031  28.110  1.00  0.00     0.173 A 
ATOM     67  F   UNL A   1      38.982  26.383  29.957  1.00  0.00    -0.203 F 
ATOM     68  C   UNL A   1      39.962  25.836  27.889  1.00  0.00     0.198 A 
ATOM     69  C   UNL A   1      41.714  27.208  26.989  1.00  0.00     0.198 A 
ATOM     70  F   UNL A   1      42.480  29.080  28.191  1.00  0.00    -0.203 F 
ATOM     71  F   UNL A   1      39.170  24.759  27.800  1.00  0.00    -0.200 F 
ATOM     72  C   UNL A   1      40.877  26.108  26.882  1.00  0.00     0.200 A 
ATOM     73  F   UNL A   1      42.590  27.479  26.012  1.00  0.00    -0.200 F 
ATOM     74  F   UNL A   1      40.956  25.304  25.812  1.00  0.00    -0.200 F 
ENDBRANCH  50  64
BRANCH  51  75
ATOM     75  C   UNL A   1      39.578  33.887  36.955  1.00  0.00     0.064 A 
ATOM     76  C   UNL A   1      40.160  35.161  36.993  1.00  0.00     0.173 A 
ATOM     77  C   UNL A   1      38.816  33.483  38.061  1.00  0.00     0.173 A 
ATOM     78  F   UNL A   1      40.914  35.582  35.966  1.00  0.00    -0.203 F 
ATOM     79  C   UNL A   1      40.002  35.992  38.099  1.00  0.00     0.198 A 
ATOM     80  C   UNL A   1      38.638  34.325  39.156  1.00  0.00     0.198 A 
ATOM     81  F   UNL A   1      38.234  32.276  38.071  1.00  0.00    -0.203 F 
ATOM     82  F   UNL A   1      40.603  37.189  38.126  1.00  0.00    -0.200 F 
ATOM     83  C   UNL A   1      39.237  35.576  39.178  1.00  0.00     0.200 A 
ATOM     84  F   UNL A   1      37.885  33.925  40.190  1.00  0.00    -0.200 F 
ATOM     85  F   UNL A   1      39.080  36.378  40.240  1.00  0.00    -0.200 F 
ENDBRANCH  51  75
BRANCH  63  86
ATOM     86  C   UNL A   1      44.111  28.827  35.414  1.00  0.00     0.064 A 
ATOM     87  C   UNL A   1      43.977  27.730  36.277  1.00  0.00     0.173 A 
ATOM     88  C   UNL A   1      45.393  29.365  35.224  1.00  0.00     0.173 A 
ATOM     89  F   UNL A   1      42.769  27.192  36.504  1.00  0.00    -0.203 F 
ATOM     90  C   UNL A   1      45.083  27.206  36.943  1.00  0.00     0.198 A 
ATOM     91  C   UNL A   1      46.499  28.821  35.870  1.00  0.00     0.198 A 
ATOM     92  F   UNL A   1      45.573  30.410  34.404  1.00  0.00    -0.203 F 
ATOM     93  F   UNL A   1      44.926  26.185  37.797  1.00  0.00    -0.200 F 
ATOM     94  C   UNL A   1      46.343  27.747  36.733  1.00  0.00     0.200 A 
ATOM     95  F   UNL A   1      47.717  29.338  35.658  1.00  0.00    -0.200 F 
ATOM     96  F   UNL A   1      47.406  27.237  37.369  1.00  0.00    -0.200 F 
ENDBRANCH  63  86
ENDBRANCH  37  38
ENDBRANCH  29  32
ENDBRANCH  27  28
ENDBRANCH  26  27
ENDBRANCH   1  26
TORSDOF 13
ENDMDL
