MODEL 1
REMARK VINA RESULT:     -12.7      0.000      0.000
REMARK SMILES CCC[C@@H]1C[N@@H+](Cc2cc(OC)c3c(c2)OCO3)C[C@H]1C(=O)NCCCNC(=O)c1ccc(-c2c3nc(c(-c4c(F)c(F)c(F)c(F)c4F)c4ccc([nH]4)c(-c4c(F)c(F)c(F)c(F)c4F)c4nc(c(-c5c(F)c(F)c(F)c(F)c5F)c5ccc2[nH]5)C=C4)C=C3)cc1
REMARK SMILES IDX 24 1 23 2 21 3 22 4 20 6 4 7 5 8 6 9 19 10 3 12 2 13 1 14
REMARK SMILES IDX 7 15 8 16 9 17 15 18 10 19 14 20 13 21 16 22 18 23 17 24
REMARK SMILES IDX 11 25 12 26 25 27 26 28 27 29 28 30 29 32 30 33 31 34 92 35
REMARK SMILES IDX 32 36 91 37 33 38 34 39 35 40 85 41 36 42 90 43 84 44 86 45
REMARK SMILES IDX 37 46 89 47 83 48 82 49 38 51 70 52 50 53 69 54 51 55 54 56
REMARK SMILES IDX 68 57 87 58 52 59 53 60 67 62 88 63 55 64 39 65 40 66 48 67
REMARK SMILES IDX 41 68 42 69 46 70 49 71 43 72 44 73 47 74 45 75 71 76 72 77
REMARK SMILES IDX 80 78 73 79 74 80 78 81 81 82 75 83 76 84 79 85 77 86 56 87
REMARK SMILES IDX 57 88 65 89 58 90 59 91 63 92 66 93 60 94 61 95 64 96 62 97
REMARK H PARENT 23 5 6 11 27 31 86 50 54 61
REMARK Flexibility Score: inf
ROOT
ATOM      1  C   UNL A   1      32.049  27.504  26.566  1.00  0.00     0.117 C 
ENDROOT
BRANCH   1   2
ATOM      2  N   UNL A   1      30.904  26.583  26.622  1.00  0.00    -0.356 N 
ATOM      3  C   UNL A   1      30.261  25.691  25.815  1.00  0.00     0.229 C 
ATOM      4  O   UNL A   1      29.500  24.923  26.424  1.00  0.00    -0.275 OA
ATOM      5  H   UNL A   1      30.472  26.623  27.506  1.00  0.00     0.163 HD
BRANCH   3   6
ATOM      6  C   UNL A   1      30.337  25.552  24.276  1.00  0.00     0.142 C 
ATOM      7  C   UNL A   1      31.476  26.417  23.637  1.00  0.00     0.062 C 
ATOM      8  C   UNL A   1      31.811  25.640  22.363  1.00  0.00     0.267 C 
ATOM      9  N   UNL A   1      31.707  24.239  22.744  1.00  0.00    -0.330 N 
ATOM     10  C   UNL A   1      30.576  24.160  23.677  1.00  0.00     0.276 C 
ATOM     11  H   UNL A   1      31.508  23.651  21.935  1.00  0.00     0.348 HD
BRANCH   7  12
ATOM     12  C   UNL A   1      31.249  27.912  23.378  1.00  0.00     0.010 C 
BRANCH  12  13
ATOM     13  C   UNL A   1      30.049  28.180  22.431  1.00  0.00    -0.003 C 
ATOM     14  C   UNL A   1      28.822  28.829  23.061  1.00  0.00     0.004 C 
ENDBRANCH  12  13
ENDBRANCH   7  12
BRANCH   9  15
ATOM     15  C   UNL A   1      32.975  23.584  23.142  1.00  0.00     0.299 C 
BRANCH  15  16
ATOM     16  C   UNL A   1      32.960  22.236  23.853  1.00  0.00     0.014 A 
ATOM     17  C   UNL A   1      33.290  22.144  25.211  1.00  0.00     0.060 A 
ATOM     18  C   UNL A   1      32.558  21.050  23.238  1.00  0.00     0.060 A 
ATOM     19  C   UNL A   1      33.390  20.965  25.952  1.00  0.00     0.165 A 
ATOM     20  C   UNL A   1      32.568  19.881  23.995  1.00  0.00     0.170 A 
ATOM     21  C   UNL A   1      32.993  19.827  25.311  1.00  0.00     0.207 A 
ATOM     22  O   UNL A   1      32.151  18.662  23.548  1.00  0.00    -0.453 OA
ATOM     23  O   UNL A   1      32.915  18.576  25.830  1.00  0.00    -0.450 OA
ATOM     24  C   UNL A   1      32.311  17.864  24.737  1.00  0.00     0.468 C 
BRANCH  19  25
ATOM     25  O   UNL A   1      33.829  21.150  27.226  1.00  0.00    -0.493 OA
ATOM     26  C   UNL A   1      33.252  22.197  27.990  1.00  0.00     0.278 C 
ENDBRANCH  19  25
ENDBRANCH  15  16
ENDBRANCH   9  15
ENDBRANCH   3   6
ENDBRANCH   1   2
BRANCH   1  27
ATOM     27  C   UNL A   1      31.813  29.020  26.812  1.00  0.00     0.042 C 
BRANCH  27  28
ATOM     28  C   UNL A   1      32.489  30.029  25.849  1.00  0.00     0.118 C 
BRANCH  28  29
ATOM     29  N   UNL A   1      32.471  31.389  26.382  1.00  0.00    -0.352 N 
ATOM     30  C   UNL A   1      33.284  32.066  27.257  1.00  0.00     0.251 C 
ATOM     31  H   UNL A   1      31.723  31.932  26.045  1.00  0.00     0.163 HD
ATOM     32  O   UNL A   1      32.868  33.156  27.674  1.00  0.00    -0.269 OA
BRANCH  30  33
ATOM     33  C   UNL A   1      34.632  31.623  27.725  1.00  0.00     0.039 A 
ATOM     34  C   UNL A   1      34.768  30.284  28.134  1.00  0.00     0.014 A 
ATOM     35  C   UNL A   1      35.690  32.496  27.982  1.00  0.00     0.014 A 
ATOM     36  C   UNL A   1      35.919  29.832  28.799  1.00  0.00     0.010 A 
ATOM     37  C   UNL A   1      36.862  32.035  28.630  1.00  0.00     0.010 A 
ATOM     38  C   UNL A   1      36.983  30.703  29.070  1.00  0.00    -0.014 A 
BRANCH  38  39
ATOM     39  C   UNL A   1      38.175  30.219  29.844  1.00  0.00     0.031 A 
ATOM     40  C   UNL A   1      38.414  30.657  31.271  1.00  0.00     0.074 A 
ATOM     41  C   UNL A   1      39.049  29.350  29.293  1.00  0.00     0.049 A 
ATOM     42  N   UNL A   1      39.379  30.317  32.097  1.00  0.00    -0.248 NA
ATOM     43  C   UNL A   1      37.444  31.598  31.846  1.00  0.00     0.031 C 
ATOM     44  C   UNL A   1      38.960  28.809  27.940  1.00  0.00     0.029 A 
ATOM     45  N   UNL A   1      40.189  28.771  29.806  1.00  0.00    -0.354 N 
ATOM     46  C   UNL A   1      39.132  31.001  33.283  1.00  0.00     0.074 A 
ATOM     47  C   UNL A   1      37.947  31.804  33.056  1.00  0.00     0.031 C 
ATOM     48  C   UNL A   1      40.001  27.987  27.724  1.00  0.00     0.029 A 
ATOM     49  C   UNL A   1      40.838  27.944  28.922  1.00  0.00     0.049 A 
ATOM     50  H   UNL A   1      40.509  28.936  30.723  1.00  0.00     0.167 HD
ATOM     51  C   UNL A   1      39.810  30.955  34.457  1.00  0.00     0.037 A 
ATOM     52  C   UNL A   1      41.974  27.227  29.051  1.00  0.00     0.037 A 
ATOM     53  C   UNL A   1      40.976  30.148  34.718  1.00  0.00     0.049 A 
ATOM     54  C   UNL A   1      42.731  27.221  30.352  1.00  0.00     0.074 A 
ATOM     55  C   UNL A   1      41.686  30.012  35.901  1.00  0.00     0.029 A 
ATOM     56  N   UNL A   1      41.608  29.342  33.785  1.00  0.00    -0.354 N 
ATOM     57  N   UNL A   1      42.451  27.832  31.475  1.00  0.00    -0.248 NA
ATOM     58  C   UNL A   1      43.961  26.412  30.404  1.00  0.00     0.031 C 
ATOM     59  C   UNL A   1      42.771  29.158  35.674  1.00  0.00     0.029 A 
ATOM     60  C   UNL A   1      42.713  28.729  34.359  1.00  0.00     0.049 A 
ATOM     61  H   UNL A   1      41.317  29.222  32.852  1.00  0.00     0.167 HD
ATOM     62  C   UNL A   1      43.445  27.460  32.372  1.00  0.00     0.074 A 
ATOM     63  C   UNL A   1      44.335  26.563  31.666  1.00  0.00     0.031 C 
ATOM     64  C   UNL A   1      43.598  27.830  33.666  1.00  0.00     0.037 A 
BRANCH  51  65
ATOM     65  C   UNL A   1      39.310  31.816  35.583  1.00  0.00     0.064 A 
ATOM     66  C   UNL A   1      38.394  31.328  36.526  1.00  0.00     0.173 A 
ATOM     67  C   UNL A   1      39.805  33.118  35.758  1.00  0.00     0.173 A 
ATOM     68  F   UNL A   1      37.893  30.090  36.403  1.00  0.00    -0.203 F 
ATOM     69  C   UNL A   1      37.973  32.122  37.592  1.00  0.00     0.198 A 
ATOM     70  C   UNL A   1      39.399  33.899  36.838  1.00  0.00     0.198 A 
ATOM     71  F   UNL A   1      40.695  33.625  34.892  1.00  0.00    -0.203 F 
ATOM     72  F   UNL A   1      37.072  31.647  38.462  1.00  0.00    -0.200 F 
ATOM     73  C   UNL A   1      38.480  33.403  37.750  1.00  0.00     0.200 A 
ATOM     74  F   UNL A   1      39.902  35.130  36.998  1.00  0.00    -0.200 F 
ATOM     75  F   UNL A   1      38.080  34.161  38.780  1.00  0.00    -0.200 F 
ENDBRANCH  51  65
BRANCH  52  76
ATOM     76  C   UNL A   1      42.467  26.423  27.902  1.00  0.00     0.064 A 
ATOM     77  C   UNL A   1      43.381  26.960  26.985  1.00  0.00     0.173 A 
ATOM     78  C   UNL A   1      42.018  25.112  27.689  1.00  0.00     0.173 A 
ATOM     79  F   UNL A   1      43.813  28.220  27.132  1.00  0.00    -0.203 F 
ATOM     80  C   UNL A   1      43.818  26.218  25.890  1.00  0.00     0.198 A 
ATOM     81  C   UNL A   1      42.474  24.364  26.606  1.00  0.00     0.198 A 
ATOM     82  F   UNL A   1      41.139  24.557  28.536  1.00  0.00    -0.203 F 
ATOM     83  F   UNL A   1      44.660  26.770  25.004  1.00  0.00    -0.200 F 
ATOM     84  C   UNL A   1      43.370  24.919  25.704  1.00  0.00     0.200 A 
ATOM     85  F   UNL A   1      42.041  23.108  26.432  1.00  0.00    -0.200 F 
ATOM     86  F   UNL A   1      43.791  24.207  24.650  1.00  0.00    -0.200 F 
ENDBRANCH  52  76
BRANCH  64  87
ATOM     87  C   UNL A   1      44.757  27.247  34.425  1.00  0.00     0.064 A 
ATOM     88  C   UNL A   1      45.992  27.906  34.501  1.00  0.00     0.173 A 
ATOM     89  C   UNL A   1      44.616  26.033  35.116  1.00  0.00     0.173 A 
ATOM     90  F   UNL A   1      46.182  29.061  33.846  1.00  0.00    -0.203 F 
ATOM     91  C   UNL A   1      47.051  27.362  35.224  1.00  0.00     0.198 A 
ATOM     92  C   UNL A   1      45.671  25.504  35.858  1.00  0.00     0.198 A 
ATOM     93  F   UNL A   1      43.455  25.364  35.079  1.00  0.00    -0.203 F 
ATOM     94  F   UNL A   1      48.235  27.990  35.251  1.00  0.00    -0.200 F 
ATOM     95  C   UNL A   1      46.888  26.165  35.906  1.00  0.00     0.200 A 
ATOM     96  F   UNL A   1      45.509  24.352  36.523  1.00  0.00    -0.200 F 
ATOM     97  F   UNL A   1      47.907  25.646  36.605  1.00  0.00    -0.200 F 
ENDBRANCH  64  87
ENDBRANCH  38  39
ENDBRANCH  30  33
ENDBRANCH  28  29
ENDBRANCH  27  28
ENDBRANCH   1  27
TORSDOF 15
ENDMDL
MODEL 2
REMARK VINA RESULT:     -12.6      1.078      2.168
REMARK SMILES CCC[C@@H]1C[N@@H+](Cc2cc(OC)c3c(c2)OCO3)C[C@H]1C(=O)NCCCNC(=O)c1ccc(-c2c3nc(c(-c4c(F)c(F)c(F)c(F)c4F)c4ccc([nH]4)c(-c4c(F)c(F)c(F)c(F)c4F)c4nc(c(-c5c(F)c(F)c(F)c(F)c5F)c5ccc2[nH]5)C=C4)C=C3)cc1
REMARK SMILES IDX 24 1 23 2 21 3 22 4 20 6 4 7 5 8 6 9 19 10 3 12 2 13 1 14
REMARK SMILES IDX 7 15 8 16 9 17 15 18 10 19 14 20 13 21 16 22 18 23 17 24
REMARK SMILES IDX 11 25 12 26 25 27 26 28 27 29 28 30 29 32 30 33 31 34 92 35
REMARK SMILES IDX 32 36 91 37 33 38 34 39 35 40 85 41 36 42 90 43 84 44 86 45
REMARK SMILES IDX 37 46 89 47 83 48 82 49 38 51 70 52 50 53 69 54 51 55 54 56
REMARK SMILES IDX 68 57 87 58 52 59 53 60 67 62 88 63 55 64 39 65 40 66 48 67
REMARK SMILES IDX 41 68 42 69 46 70 49 71 43 72 44 73 47 74 45 75 71 76 72 77
REMARK SMILES IDX 80 78 73 79 74 80 78 81 81 82 75 83 76 84 79 85 77 86 56 87
REMARK SMILES IDX 57 88 65 89 58 90 59 91 63 92 66 93 60 94 61 95 64 96 62 97
REMARK H PARENT 23 5 6 11 27 31 86 50 54 61
REMARK Flexibility Score: inf
ROOT
ATOM      1  C   UNL A   1      31.867  27.531  26.659  1.00  0.00     0.117 C 
ENDROOT
BRANCH   1   2
ATOM      2  N   UNL A   1      30.694  26.657  26.799  1.00  0.00    -0.356 N 
ATOM      3  C   UNL A   1      30.081  25.642  26.124  1.00  0.00     0.229 C 
ATOM      4  O   UNL A   1      29.256  25.013  26.806  1.00  0.00    -0.275 OA
ATOM      5  H   UNL A   1      30.203  26.867  27.626  1.00  0.00     0.163 HD
BRANCH   3   6
ATOM      6  C   UNL A   1      30.258  25.218  24.647  1.00  0.00     0.142 C 
ATOM      7  C   UNL A   1      30.777  26.382  23.733  1.00  0.00     0.062 C 
ATOM      8  C   UNL A   1      31.507  25.631  22.618  1.00  0.00     0.267 C 
ATOM      9  N   UNL A   1      32.156  24.514  23.286  1.00  0.00    -0.330 N 
ATOM     10  C   UNL A   1      31.219  24.067  24.324  1.00  0.00     0.276 C 
ATOM     11  H   UNL A   1      32.323  23.743  22.639  1.00  0.00     0.348 HD
BRANCH   7  12
ATOM     12  C   UNL A   1      29.793  27.430  23.197  1.00  0.00     0.010 C 
BRANCH  12  13
ATOM     13  C   UNL A   1      30.408  28.854  23.140  1.00  0.00    -0.003 C 
ATOM     14  C   UNL A   1      29.432  30.017  23.271  1.00  0.00     0.004 C 
ENDBRANCH  12  13
ENDBRANCH   7  12
BRANCH   9  15
ATOM     15  C   UNL A   1      33.567  24.731  23.682  1.00  0.00     0.299 C 
BRANCH  15  16
ATOM     16  C   UNL A   1      34.441  23.559  24.112  1.00  0.00     0.014 A 
ATOM     17  C   UNL A   1      33.945  22.250  24.076  1.00  0.00     0.060 A 
ATOM     18  C   UNL A   1      35.777  23.697  24.489  1.00  0.00     0.060 A 
ATOM     19  C   UNL A   1      34.614  21.107  24.517  1.00  0.00     0.165 A 
ATOM     20  C   UNL A   1      36.483  22.550  24.845  1.00  0.00     0.170 A 
ATOM     21  C   UNL A   1      35.917  21.287  24.883  1.00  0.00     0.207 A 
ATOM     22  O   UNL A   1      37.804  22.523  25.180  1.00  0.00    -0.453 OA
ATOM     23  O   UNL A   1      36.803  20.334  25.264  1.00  0.00    -0.450 OA
ATOM     24  C   UNL A   1      38.008  21.110  25.375  1.00  0.00     0.468 C 
BRANCH  19  25
ATOM     25  O   UNL A   1      33.863  19.974  24.465  1.00  0.00    -0.493 OA
ATOM     26  C   UNL A   1      32.901  19.758  25.483  1.00  0.00     0.278 C 
ENDBRANCH  19  25
ENDBRANCH  15  16
ENDBRANCH   9  15
ENDBRANCH   3   6
ENDBRANCH   1   2
BRANCH   1  27
ATOM     27  C   UNL A   1      31.707  29.057  26.907  1.00  0.00     0.042 C 
BRANCH  27  28
ATOM     28  C   UNL A   1      32.415  30.033  25.932  1.00  0.00     0.118 C 
BRANCH  28  29
ATOM     29  N   UNL A   1      32.423  31.402  26.441  1.00  0.00    -0.352 N 
ATOM     30  C   UNL A   1      33.261  32.087  27.286  1.00  0.00     0.251 C 
ATOM     31  H   UNL A   1      31.674  31.947  26.108  1.00  0.00     0.163 HD
ATOM     32  O   UNL A   1      32.865  33.189  27.690  1.00  0.00    -0.269 OA
BRANCH  30  33
ATOM     33  C   UNL A   1      34.613  31.637  27.735  1.00  0.00     0.039 A 
ATOM     34  C   UNL A   1      34.755  30.291  28.115  1.00  0.00     0.014 A 
ATOM     35  C   UNL A   1      35.671  32.507  28.001  1.00  0.00     0.014 A 
ATOM     36  C   UNL A   1      35.913  29.828  28.763  1.00  0.00     0.010 A 
ATOM     37  C   UNL A   1      36.849  32.036  28.631  1.00  0.00     0.010 A 
ATOM     38  C   UNL A   1      36.977  30.696  29.044  1.00  0.00    -0.014 A 
BRANCH  38  39
ATOM     39  C   UNL A   1      38.175  30.199  29.798  1.00  0.00     0.031 A 
ATOM     40  C   UNL A   1      38.446  30.641  31.218  1.00  0.00     0.074 A 
ATOM     41  C   UNL A   1      39.027  29.316  29.237  1.00  0.00     0.049 A 
ATOM     42  N   UNL A   1      39.420  30.292  32.029  1.00  0.00    -0.248 NA
ATOM     43  C   UNL A   1      37.499  31.598  31.806  1.00  0.00     0.031 C 
ATOM     44  C   UNL A   1      38.907  28.769  27.888  1.00  0.00     0.029 A 
ATOM     45  N   UNL A   1      40.168  28.724  29.732  1.00  0.00    -0.354 N 
ATOM     46  C   UNL A   1      39.204  30.985  33.215  1.00  0.00     0.074 A 
ATOM     47  C   UNL A   1      38.026  31.803  33.006  1.00  0.00     0.031 C 
ATOM     48  C   UNL A   1      39.933  27.933  27.658  1.00  0.00     0.029 A 
ATOM     49  C   UNL A   1      40.790  27.883  28.841  1.00  0.00     0.049 A 
ATOM     50  H   UNL A   1      40.507  28.888  30.642  1.00  0.00     0.167 HD
ATOM     51  C   UNL A   1      39.903  30.936  34.378  1.00  0.00     0.037 A 
ATOM     52  C   UNL A   1      41.918  27.151  28.953  1.00  0.00     0.037 A 
ATOM     53  C   UNL A   1      41.062  30.114  34.622  1.00  0.00     0.049 A 
ATOM     54  C   UNL A   1      42.699  27.142  30.240  1.00  0.00     0.074 A 
ATOM     55  C   UNL A   1      41.791  29.974  35.792  1.00  0.00     0.029 A 
ATOM     56  N   UNL A   1      41.666  29.295  33.682  1.00  0.00    -0.354 N 
ATOM     57  N   UNL A   1      42.447  27.762  31.365  1.00  0.00    -0.248 NA
ATOM     58  C   UNL A   1      43.918  26.316  30.274  1.00  0.00     0.031 C 
ATOM     59  C   UNL A   1      42.860  29.104  35.551  1.00  0.00     0.029 A 
ATOM     60  C   UNL A   1      42.773  28.669  34.239  1.00  0.00     0.049 A 
ATOM     61  H   UNL A   1      41.357  29.174  32.755  1.00  0.00     0.167 HD
ATOM     62  C   UNL A   1      43.452  27.381  32.246  1.00  0.00     0.074 A 
ATOM     63  C   UNL A   1      44.316  26.469  31.529  1.00  0.00     0.031 C 
ATOM     64  C   UNL A   1      43.633  27.755  33.535  1.00  0.00     0.037 A 
BRANCH  51  65
ATOM     65  C   UNL A   1      39.435  31.809  35.508  1.00  0.00     0.064 A 
ATOM     66  C   UNL A   1      39.871  33.135  35.637  1.00  0.00     0.173 A 
ATOM     67  C   UNL A   1      38.487  31.335  36.428  1.00  0.00     0.173 A 
ATOM     68  F   UNL A   1      40.776  33.635  34.782  1.00  0.00    -0.203 F 
ATOM     69  C   UNL A   1      39.394  33.948  36.663  1.00  0.00     0.198 A 
ATOM     70  C   UNL A   1      37.994  32.159  37.438  1.00  0.00     0.198 A 
ATOM     71  F   UNL A   1      38.025  30.079  36.337  1.00  0.00    -0.203 F 
ATOM     72  F   UNL A   1      39.850  35.203  36.788  1.00  0.00    -0.200 F 
ATOM     73  C   UNL A   1      38.452  33.462  37.558  1.00  0.00     0.200 A 
ATOM     74  F   UNL A   1      37.073  31.693  38.291  1.00  0.00    -0.200 F 
ATOM     75  F   UNL A   1      37.988  34.249  38.538  1.00  0.00    -0.200 F 
ENDBRANCH  51  65
BRANCH  52  76
ATOM     76  C   UNL A   1      42.380  26.335  27.800  1.00  0.00     0.064 A 
ATOM     77  C   UNL A   1      41.876  25.046  27.580  1.00  0.00     0.173 A 
ATOM     78  C   UNL A   1      43.350  26.821  26.911  1.00  0.00     0.173 A 
ATOM     79  F   UNL A   1      40.971  24.529  28.423  1.00  0.00    -0.203 F 
ATOM     80  C   UNL A   1      42.333  24.268  26.519  1.00  0.00     0.198 A 
ATOM     81  C   UNL A   1      43.789  26.050  25.837  1.00  0.00     0.198 A 
ATOM     82  F   UNL A   1      43.866  28.046  27.084  1.00  0.00    -0.203 F 
ATOM     83  F   UNL A   1      41.866  23.023  26.354  1.00  0.00    -0.200 F 
ATOM     84  C   UNL A   1      43.285  24.772  25.644  1.00  0.00     0.200 A 
ATOM     85  F   UNL A   1      44.705  26.542  24.993  1.00  0.00    -0.200 F 
ATOM     86  F   UNL A   1      43.724  24.023  24.624  1.00  0.00    -0.200 F 
ENDBRANCH  52  76
BRANCH  64  87
ATOM     87  C   UNL A   1      44.797  27.160  34.276  1.00  0.00     0.064 A 
ATOM     88  C   UNL A   1      46.042  27.802  34.326  1.00  0.00     0.173 A 
ATOM     89  C   UNL A   1      44.652  25.952  34.977  1.00  0.00     0.173 A 
ATOM     90  F   UNL A   1      46.237  28.950  33.662  1.00  0.00    -0.203 F 
ATOM     91  C   UNL A   1      47.107  27.246  35.033  1.00  0.00     0.198 A 
ATOM     92  C   UNL A   1      45.713  25.411  35.702  1.00  0.00     0.198 A 
ATOM     93  F   UNL A   1      43.481  25.299  34.965  1.00  0.00    -0.203 F 
ATOM     94  F   UNL A   1      48.300  27.858  35.035  1.00  0.00    -0.200 F 
ATOM     95  C   UNL A   1      46.940  26.056  35.724  1.00  0.00     0.200 A 
ATOM     96  F   UNL A   1      45.546  24.266  36.377  1.00  0.00    -0.200 F 
ATOM     97  F   UNL A   1      47.964  25.526  36.408  1.00  0.00    -0.200 F 
ENDBRANCH  64  87
ENDBRANCH  38  39
ENDBRANCH  30  33
ENDBRANCH  28  29
ENDBRANCH  27  28
ENDBRANCH   1  27
TORSDOF 15
ENDMDL
MODEL 3
REMARK VINA RESULT:     -12.4      4.306      9.930
REMARK SMILES CCC[C@@H]1C[N@@H+](Cc2cc(OC)c3c(c2)OCO3)C[C@H]1C(=O)NCCCNC(=O)c1ccc(-c2c3nc(c(-c4c(F)c(F)c(F)c(F)c4F)c4ccc([nH]4)c(-c4c(F)c(F)c(F)c(F)c4F)c4nc(c(-c5c(F)c(F)c(F)c(F)c5F)c5ccc2[nH]5)C=C4)C=C3)cc1
REMARK SMILES IDX 24 1 23 2 21 3 22 4 20 6 4 7 5 8 6 9 19 10 3 12 2 13 1 14
REMARK SMILES IDX 7 15 8 16 9 17 15 18 10 19 14 20 13 21 16 22 18 23 17 24
REMARK SMILES IDX 11 25 12 26 25 27 26 28 27 29 28 30 29 32 30 33 31 34 92 35
REMARK SMILES IDX 32 36 91 37 33 38 34 39 35 40 85 41 36 42 90 43 84 44 86 45
REMARK SMILES IDX 37 46 89 47 83 48 82 49 38 51 70 52 50 53 69 54 51 55 54 56
REMARK SMILES IDX 68 57 87 58 52 59 53 60 67 62 88 63 55 64 39 65 40 66 48 67
REMARK SMILES IDX 41 68 42 69 46 70 49 71 43 72 44 73 47 74 45 75 71 76 72 77
REMARK SMILES IDX 80 78 73 79 74 80 78 81 81 82 75 83 76 84 79 85 77 86 56 87
REMARK SMILES IDX 57 88 65 89 58 90 59 91 63 92 66 93 60 94 61 95 64 96 62 97
REMARK H PARENT 23 5 6 11 27 31 86 50 54 61
REMARK Flexibility Score: inf
ROOT
ATOM      1  C   UNL A   1      35.661  22.583  23.147  1.00  0.00     0.117 C 
ENDROOT
BRANCH   1   2
ATOM      2  N   UNL A   1      34.837  23.795  23.261  1.00  0.00    -0.356 N 
ATOM      3  C   UNL A   1      33.623  24.171  23.755  1.00  0.00     0.229 C 
ATOM      4  O   UNL A   1      33.489  25.400  23.875  1.00  0.00    -0.275 OA
ATOM      5  H   UNL A   1      35.301  24.566  22.860  1.00  0.00     0.163 HD
BRANCH   3   6
ATOM      6  C   UNL A   1      32.417  23.280  24.136  1.00  0.00     0.142 C 
ATOM      7  C   UNL A   1      32.445  22.818  25.633  1.00  0.00     0.062 C 
ATOM      8  C   UNL A   1      30.962  22.607  25.946  1.00  0.00     0.267 C 
ATOM      9  N   UNL A   1      30.278  23.678  25.238  1.00  0.00    -0.330 N 
ATOM     10  C   UNL A   1      31.003  23.851  23.973  1.00  0.00     0.276 C 
ATOM     11  H   UNL A   1      29.311  23.426  25.032  1.00  0.00     0.348 HD
BRANCH   7  12
ATOM     12  C   UNL A   1      33.315  21.624  26.050  1.00  0.00     0.010 C 
BRANCH  12  13
ATOM     13  C   UNL A   1      32.897  20.305  25.347  1.00  0.00    -0.003 C 
ATOM     14  C   UNL A   1      34.006  19.536  24.638  1.00  0.00     0.004 C 
ENDBRANCH  12  13
ENDBRANCH   7  12
BRANCH   9  15
ATOM     15  C   UNL A   1      29.986  24.893  26.035  1.00  0.00     0.299 C 
BRANCH  15  16
ATOM     16  C   UNL A   1      30.773  26.178  25.807  1.00  0.00     0.014 A 
ATOM     17  C   UNL A   1      30.414  27.060  24.781  1.00  0.00     0.060 A 
ATOM     18  C   UNL A   1      31.827  26.586  26.625  1.00  0.00     0.060 A 
ATOM     19  C   UNL A   1      31.099  28.222  24.421  1.00  0.00     0.165 A 
ATOM     20  C   UNL A   1      32.461  27.791  26.329  1.00  0.00     0.170 A 
ATOM     21  C   UNL A   1      32.127  28.582  25.244  1.00  0.00     0.207 A 
ATOM     22  O   UNL A   1      33.464  28.342  27.069  1.00  0.00    -0.453 OA
ATOM     23  O   UNL A   1      32.890  29.701  25.165  1.00  0.00    -0.450 OA
ATOM     24  C   UNL A   1      33.678  29.580  26.361  1.00  0.00     0.468 C 
BRANCH  19  25
ATOM     25  O   UNL A   1      30.594  28.842  23.321  1.00  0.00    -0.493 OA
ATOM     26  C   UNL A   1      29.884  30.056  23.499  1.00  0.00     0.278 C 
ENDBRANCH  19  25
ENDBRANCH  15  16
ENDBRANCH   9  15
ENDBRANCH   3   6
ENDBRANCH   1   2
BRANCH   1  27
ATOM     27  C   UNL A   1      36.940  22.452  24.021  1.00  0.00     0.042 C 
BRANCH  27  28
ATOM     28  C   UNL A   1      36.816  21.741  25.393  1.00  0.00     0.118 C 
BRANCH  28  29
ATOM     29  N   UNL A   1      37.962  20.877  25.664  1.00  0.00    -0.352 N 
ATOM     30  C   UNL A   1      39.235  21.117  26.118  1.00  0.00     0.251 C 
ATOM     31  H   UNL A   1      37.784  19.925  25.487  1.00  0.00     0.163 HD
ATOM     32  O   UNL A   1      40.042  20.181  26.035  1.00  0.00    -0.269 OA
BRANCH  30  33
ATOM     33  C   UNL A   1      39.724  22.391  26.726  1.00  0.00     0.039 A 
ATOM     34  C   UNL A   1      39.245  23.595  26.180  1.00  0.00     0.014 A 
ATOM     35  C   UNL A   1      40.773  22.461  27.643  1.00  0.00     0.014 A 
ATOM     36  C   UNL A   1      39.811  24.834  26.523  1.00  0.00     0.010 A 
ATOM     37  C   UNL A   1      41.328  23.711  28.009  1.00  0.00     0.010 A 
ATOM     38  C   UNL A   1      40.872  24.914  27.436  1.00  0.00    -0.014 A 
BRANCH  38  39
ATOM     39  C   UNL A   1      41.509  26.239  27.736  1.00  0.00     0.031 A 
ATOM     40  C   UNL A   1      42.903  26.567  27.251  1.00  0.00     0.074 A 
ATOM     41  C   UNL A   1      40.839  27.188  28.424  1.00  0.00     0.049 A 
ATOM     42  N   UNL A   1      43.599  27.673  27.397  1.00  0.00    -0.248 NA
ATOM     43  C   UNL A   1      43.606  25.518  26.501  1.00  0.00     0.031 C 
ATOM     44  C   UNL A   1      39.483  27.049  28.948  1.00  0.00     0.029 A 
ATOM     45  N   UNL A   1      41.211  28.459  28.803  1.00  0.00    -0.354 N 
ATOM     46  C   UNL A   1      44.816  27.452  26.762  1.00  0.00     0.074 A 
ATOM     47  C   UNL A   1      44.777  26.093  26.260  1.00  0.00     0.031 C 
ATOM     48  C   UNL A   1      39.139  28.180  29.587  1.00  0.00     0.029 A 
ATOM     49  C   UNL A   1      40.251  29.127  29.523  1.00  0.00     0.049 A 
ATOM     50  H   UNL A   1      42.085  28.852  28.578  1.00  0.00     0.167 HD
ATOM     51  C   UNL A   1      45.862  28.300  26.592  1.00  0.00     0.037 A 
ATOM     52  C   UNL A   1      40.253  30.359  30.072  1.00  0.00     0.037 A 
ATOM     53  C   UNL A   1      45.917  29.662  27.059  1.00  0.00     0.049 A 
ATOM     54  C   UNL A   1      41.441  31.269  29.903  1.00  0.00     0.074 A 
ATOM     55  C   UNL A   1      46.924  30.598  26.878  1.00  0.00     0.029 A 
ATOM     56  N   UNL A   1      44.929  30.287  27.801  1.00  0.00    -0.354 N 
ATOM     57  N   UNL A   1      42.558  31.059  29.254  1.00  0.00    -0.248 NA
ATOM     58  C   UNL A   1      41.359  32.597  30.536  1.00  0.00     0.031 C 
ATOM     59  C   UNL A   1      46.566  31.774  27.545  1.00  0.00     0.029 A 
ATOM     60  C   UNL A   1      45.315  31.585  28.108  1.00  0.00     0.049 A 
ATOM     61  H   UNL A   1      44.077  29.873  28.072  1.00  0.00     0.167 HD
ATOM     62  C   UNL A   1      43.295  32.231  29.373  1.00  0.00     0.074 A 
ATOM     63  C   UNL A   1      42.498  33.154  30.150  1.00  0.00     0.031 C 
ATOM     64  C   UNL A   1      44.524  32.512  28.875  1.00  0.00     0.037 A 
BRANCH  51  65
ATOM     65  C   UNL A   1      47.065  27.780  25.857  1.00  0.00     0.064 A 
ATOM     66  C   UNL A   1      47.128  27.787  24.457  1.00  0.00     0.173 A 
ATOM     67  C   UNL A   1      48.193  27.335  26.564  1.00  0.00     0.173 A 
ATOM     68  F   UNL A   1      46.076  28.204  23.736  1.00  0.00    -0.203 F 
ATOM     69  C   UNL A   1      48.268  27.345  23.789  1.00  0.00     0.198 A 
ATOM     70  C   UNL A   1      49.340  26.916  25.893  1.00  0.00     0.198 A 
ATOM     71  F   UNL A   1      48.190  27.324  27.906  1.00  0.00    -0.203 F 
ATOM     72  F   UNL A   1      48.293  27.329  22.448  1.00  0.00    -0.200 F 
ATOM     73  C   UNL A   1      49.374  26.916  24.506  1.00  0.00     0.200 A 
ATOM     74  F   UNL A   1      50.414  26.517  26.588  1.00  0.00    -0.200 F 
ATOM     75  F   UNL A   1      50.473  26.499  23.862  1.00  0.00    -0.200 F 
ENDBRANCH  51  65
BRANCH  52  76
ATOM     76  C   UNL A   1      39.065  30.826  30.833  1.00  0.00     0.064 A 
ATOM     77  C   UNL A   1      38.031  31.528  30.199  1.00  0.00     0.173 A 
ATOM     78  C   UNL A   1      38.952  30.597  32.212  1.00  0.00     0.173 A 
ATOM     79  F   UNL A   1      38.111  31.796  28.888  1.00  0.00    -0.203 F 
ATOM     80  C   UNL A   1      36.933  31.994  30.918  1.00  0.00     0.198 A 
ATOM     81  C   UNL A   1      37.843  31.044  32.926  1.00  0.00     0.198 A 
ATOM     82  F   UNL A   1      39.919  29.935  32.864  1.00  0.00    -0.203 F 
ATOM     83  F   UNL A   1      35.978  32.699  30.296  1.00  0.00    -0.200 F 
ATOM     84  C   UNL A   1      36.836  31.747  32.280  1.00  0.00     0.200 A 
ATOM     85  F   UNL A   1      37.751  30.800  34.240  1.00  0.00    -0.200 F 
ATOM     86  F   UNL A   1      35.780  32.196  32.971  1.00  0.00    -0.200 F 
ENDBRANCH  52  76
BRANCH  64  87
ATOM     87  C   UNL A   1      45.081  33.884  29.126  1.00  0.00     0.064 A 
ATOM     88  C   UNL A   1      44.812  34.956  28.264  1.00  0.00     0.173 A 
ATOM     89  C   UNL A   1      45.863  34.137  30.265  1.00  0.00     0.173 A 
ATOM     90  F   UNL A   1      44.083  34.763  27.155  1.00  0.00    -0.203 F 
ATOM     91  C   UNL A   1      45.322  36.227  28.520  1.00  0.00     0.198 A 
ATOM     92  C   UNL A   1      46.351  35.416  30.530  1.00  0.00     0.198 A 
ATOM     93  F   UNL A   1      46.147  33.148  31.124  1.00  0.00    -0.203 F 
ATOM     94  F   UNL A   1      45.084  37.229  27.661  1.00  0.00    -0.200 F 
ATOM     95  C   UNL A   1      46.085  36.457  29.655  1.00  0.00     0.200 A 
ATOM     96  F   UNL A   1      47.081  35.637  31.632  1.00  0.00    -0.200 F 
ATOM     97  F   UNL A   1      46.570  37.682  29.902  1.00  0.00    -0.200 F 
ENDBRANCH  64  87
ENDBRANCH  38  39
ENDBRANCH  30  33
ENDBRANCH  28  29
ENDBRANCH  27  28
ENDBRANCH   1  27
TORSDOF 15
ENDMDL
