MODEL 1
REMARK VINA RESULT:     -12.6      0.000      0.000
REMARK SMILES COc1ccc(C(=O)N2CCC[C@H](C(=O)NCCCNC(=O)c3ccc(-c4c5nc(c(-c6c(F)c(F)c(F)c(F)c6F)c6ccc([nH]6)c(-c6c(F)c(F)c(F)c(F)c6F)c6nc(c(-c7c(F)c(F)c(F)c(F)c7F)c7ccc4[nH]7)C=C6)C=C5)cc3)C2)cc1
REMARK SMILES IDX 17 1 16 2 14 3 15 4 13 6 9 7 10 8 86 9 11 10 12 11 7 12 8 13
REMARK SMILES IDX 6 14 3 15 4 16 88 17 5 18 87 19 2 20 1 21 18 22 19 23 20 24
REMARK SMILES IDX 21 25 22 27 23 28 24 29 85 30 25 31 84 32 26 33 27 34 28 35
REMARK SMILES IDX 78 36 29 37 83 38 77 39 79 40 30 41 82 42 76 43 75 44 31 46
REMARK SMILES IDX 63 47 43 48 62 49 44 50 47 51 61 52 80 53 45 54 46 55 60 57
REMARK SMILES IDX 81 58 48 59 32 60 33 61 41 62 34 63 35 64 39 65 42 66 36 67
REMARK SMILES IDX 37 68 40 69 38 70 64 71 65 72 73 73 66 74 67 75 71 76 74 77
REMARK SMILES IDX 68 78 69 79 72 80 70 81 49 82 50 83 58 84 51 85 52 86 56 87
REMARK SMILES IDX 59 88 53 89 54 90 57 91 55 92
REMARK H PARENT 16 5 20 26 79 45 47 56
REMARK Flexibility Score: inf
ROOT
ATOM      1  C   UNL A   1      31.523  30.669  26.565  1.00  0.00     0.117 C 
ENDROOT
BRANCH   1   2
ATOM      2  N   UNL A   1      31.843  30.061  25.296  1.00  0.00    -0.356 N 
ATOM      3  C   UNL A   1      32.099  28.767  24.980  1.00  0.00     0.224 C 
ATOM      4  O   UNL A   1      32.167  28.505  23.773  1.00  0.00    -0.275 OA
ATOM      5  H   UNL A   1      31.883  30.687  24.537  1.00  0.00     0.163 HD
BRANCH   3   6
ATOM      6  C   UNL A   1      32.358  27.653  26.005  1.00  0.00     0.098 C 
ATOM      7  N   UNL A   1      33.341  25.493  25.161  1.00  0.00    -0.338 N 
ATOM      8  C   UNL A   1      32.198  24.728  25.636  1.00  0.00     0.120 C 
ATOM      9  C   UNL A   1      33.609  26.788  25.789  1.00  0.00     0.133 C 
ATOM     10  C   UNL A   1      30.915  25.540  25.691  1.00  0.00     0.022 C 
ATOM     11  C   UNL A   1      31.095  26.877  26.397  1.00  0.00     0.017 C 
BRANCH   7  12
ATOM     12  C   UNL A   1      34.078  24.994  24.089  1.00  0.00     0.253 C 
ATOM     13  O   UNL A   1      33.704  25.106  22.923  1.00  0.00    -0.269 OA
BRANCH  12  14
ATOM     14  C   UNL A   1      35.301  24.198  24.366  1.00  0.00     0.040 A 
ATOM     15  C   UNL A   1      37.203  22.280  25.048  1.00  0.00     0.118 A 
ATOM     16  C   UNL A   1      36.759  22.373  23.729  1.00  0.00     0.047 A 
ATOM     17  C   UNL A   1      36.772  23.198  26.005  1.00  0.00     0.047 A 
ATOM     18  C   UNL A   1      35.792  23.323  23.388  1.00  0.00     0.017 A 
ATOM     19  C   UNL A   1      35.811  24.150  25.668  1.00  0.00     0.017 A 
BRANCH  15  20
ATOM     20  O   UNL A   1      38.059  21.257  25.353  1.00  0.00    -0.497 OA
ATOM     21  C   UNL A   1      39.220  21.731  26.041  1.00  0.00     0.278 C 
ENDBRANCH  15  20
ENDBRANCH  12  14
ENDBRANCH   7  12
ENDBRANCH   3   6
ENDBRANCH   1   2
BRANCH   1  22
ATOM     22  C   UNL A   1      31.504  32.186  26.536  1.00  0.00     0.042 C 
BRANCH  22  23
ATOM     23  C   UNL A   1      32.647  32.813  27.312  1.00  0.00     0.118 C 
BRANCH  23  24
ATOM     24  N   UNL A   1      32.389  34.201  27.684  1.00  0.00    -0.352 N 
ATOM     25  C   UNL A   1      32.986  35.011  28.623  1.00  0.00     0.251 C 
ATOM     26  H   UNL A   1      31.664  34.632  27.176  1.00  0.00     0.163 HD
ATOM     27  O   UNL A   1      32.537  36.125  28.844  1.00  0.00    -0.269 OA
BRANCH  25  28
ATOM     28  C   UNL A   1      34.151  34.522  29.393  1.00  0.00     0.039 A 
ATOM     29  C   UNL A   1      33.934  33.935  30.644  1.00  0.00     0.014 A 
ATOM     30  C   UNL A   1      35.446  34.629  28.888  1.00  0.00     0.014 A 
ATOM     31  C   UNL A   1      35.008  33.383  31.345  1.00  0.00     0.010 A 
ATOM     32  C   UNL A   1      36.490  33.974  29.526  1.00  0.00     0.010 A 
ATOM     33  C   UNL A   1      36.287  33.356  30.768  1.00  0.00    -0.014 A 
BRANCH  33  34
ATOM     34  C   UNL A   1      37.441  32.717  31.448  1.00  0.00     0.031 A 
ATOM     35  C   UNL A   1      38.142  31.559  30.793  1.00  0.00     0.074 A 
ATOM     36  C   UNL A   1      37.797  33.116  32.685  1.00  0.00     0.049 A 
ATOM     37  N   UNL A   1      39.079  30.778  31.268  1.00  0.00    -0.248 NA
ATOM     38  C   UNL A   1      37.698  31.201  29.435  1.00  0.00     0.031 C 
ATOM     39  C   UNL A   1      37.155  34.187  33.449  1.00  0.00     0.029 A 
ATOM     40  N   UNL A   1      38.781  32.656  33.524  1.00  0.00    -0.354 N 
ATOM     41  C   UNL A   1      39.306  29.823  30.286  1.00  0.00     0.074 A 
ATOM     42  C   UNL A   1      38.370  30.081  29.215  1.00  0.00     0.031 C 
ATOM     43  C   UNL A   1      37.781  34.323  34.629  1.00  0.00     0.029 A 
ATOM     44  C   UNL A   1      38.840  33.322  34.723  1.00  0.00     0.049 A 
ATOM     45  H   UNL A   1      39.388  31.917  33.287  1.00  0.00     0.167 HD
ATOM     46  C   UNL A   1      40.234  28.838  30.263  1.00  0.00     0.037 A 
ATOM     47  C   UNL A   1      39.653  33.140  35.781  1.00  0.00     0.037 A 
ATOM     48  C   UNL A   1      41.200  28.622  31.306  1.00  0.00     0.049 A 
ATOM     49  C   UNL A   1      40.698  32.060  35.717  1.00  0.00     0.074 A 
ATOM     50  C   UNL A   1      42.231  27.701  31.353  1.00  0.00     0.029 A 
ATOM     51  N   UNL A   1      41.257  29.350  32.487  1.00  0.00    -0.354 N 
ATOM     52  N   UNL A   1      40.946  31.203  34.758  1.00  0.00    -0.248 NA
ATOM     53  C   UNL A   1      41.582  31.926  36.883  1.00  0.00     0.031 C 
ATOM     54  C   UNL A   1      42.891  27.848  32.578  1.00  0.00     0.029 A 
ATOM     55  C   UNL A   1      42.299  28.889  33.274  1.00  0.00     0.049 A 
ATOM     56  H   UNL A   1      40.647  30.083  32.729  1.00  0.00     0.167 HD
ATOM     57  C   UNL A   1      42.028  30.448  35.188  1.00  0.00     0.074 A 
ATOM     58  C   UNL A   1      42.400  30.959  36.492  1.00  0.00     0.031 C 
ATOM     59  C   UNL A   1      42.658  29.424  34.562  1.00  0.00     0.037 A 
BRANCH  46  60
ATOM     60  C   UNL A   1      40.257  27.933  29.065  1.00  0.00     0.064 A 
ATOM     61  C   UNL A   1      40.985  28.257  27.910  1.00  0.00     0.173 A 
ATOM     62  C   UNL A   1      39.556  26.718  29.077  1.00  0.00     0.173 A 
ATOM     63  F   UNL A   1      41.661  29.415  27.841  1.00  0.00    -0.203 F 
ATOM     64  C   UNL A   1      40.983  27.417  26.800  1.00  0.00     0.198 A 
ATOM     65  C   UNL A   1      39.583  25.864  27.977  1.00  0.00     0.198 A 
ATOM     66  F   UNL A   1      38.847  26.356  30.156  1.00  0.00    -0.203 F 
ATOM     67  F   UNL A   1      41.639  27.777  25.689  1.00  0.00    -0.200 F 
ATOM     68  C   UNL A   1      40.288  26.218  26.837  1.00  0.00     0.200 A 
ATOM     69  F   UNL A   1      38.920  24.700  28.019  1.00  0.00    -0.200 F 
ATOM     70  F   UNL A   1      40.291  25.408  25.770  1.00  0.00    -0.200 F 
ENDBRANCH  46  60
BRANCH  47  71
ATOM     71  C   UNL A   1      39.538  34.025  36.969  1.00  0.00     0.064 A 
ATOM     72  C   UNL A   1      38.807  33.621  38.094  1.00  0.00     0.173 A 
ATOM     73  C   UNL A   1      40.153  35.285  37.009  1.00  0.00     0.173 A 
ATOM     74  F   UNL A   1      38.184  32.433  38.096  1.00  0.00    -0.203 F 
ATOM     75  C   UNL A   1      38.675  34.452  39.205  1.00  0.00     0.198 A 
ATOM     76  C   UNL A   1      40.044  36.103  38.131  1.00  0.00     0.198 A 
ATOM     77  F   UNL A   1      40.870  35.716  35.960  1.00  0.00    -0.203 F 
ATOM     78  F   UNL A   1      37.932  34.058  40.249  1.00  0.00    -0.200 F 
ATOM     79  C   UNL A   1      39.299  35.690  39.225  1.00  0.00     0.200 A 
ATOM     80  F   UNL A   1      40.659  37.293  38.152  1.00  0.00    -0.200 F 
ATOM     81  F   UNL A   1      39.175  36.487  40.294  1.00  0.00    -0.200 F 
ENDBRANCH  47  71
BRANCH  59  82
ATOM     82  C   UNL A   1      43.838  28.815  35.260  1.00  0.00     0.064 A 
ATOM     83  C   UNL A   1      43.695  27.722  36.126  1.00  0.00     0.173 A 
ATOM     84  C   UNL A   1      45.132  29.302  35.018  1.00  0.00     0.173 A 
ATOM     85  F   UNL A   1      42.476  27.231  36.399  1.00  0.00    -0.203 F 
ATOM     86  C   UNL A   1      44.805  27.151  36.743  1.00  0.00     0.198 A 
ATOM     87  C   UNL A   1      46.241  28.710  35.614  1.00  0.00     0.198 A 
ATOM     88  F   UNL A   1      45.319  30.341  34.192  1.00  0.00    -0.203 F 
ATOM     89  F   UNL A   1      44.642  26.133  37.601  1.00  0.00    -0.200 F 
ATOM     90  C   UNL A   1      46.076  27.639  36.480  1.00  0.00     0.200 A 
ATOM     91  F   UNL A   1      47.470  29.174  35.349  1.00  0.00    -0.200 F 
ATOM     92  F   UNL A   1      47.143  27.082  37.068  1.00  0.00    -0.200 F 
ENDBRANCH  59  82
ENDBRANCH  33  34
ENDBRANCH  25  28
ENDBRANCH  23  24
ENDBRANCH  22  23
ENDBRANCH   1  22
TORSDOF 13
ENDMDL
MODEL 2
REMARK VINA RESULT:     -12.5      1.066      1.723
REMARK SMILES COc1ccc(C(=O)N2CCC[C@H](C(=O)NCCCNC(=O)c3ccc(-c4c5nc(c(-c6c(F)c(F)c(F)c(F)c6F)c6ccc([nH]6)c(-c6c(F)c(F)c(F)c(F)c6F)c6nc(c(-c7c(F)c(F)c(F)c(F)c7F)c7ccc4[nH]7)C=C6)C=C5)cc3)C2)cc1
REMARK SMILES IDX 17 1 16 2 14 3 15 4 13 6 9 7 10 8 86 9 11 10 12 11 7 12 8 13
REMARK SMILES IDX 6 14 3 15 4 16 88 17 5 18 87 19 2 20 1 21 18 22 19 23 20 24
REMARK SMILES IDX 21 25 22 27 23 28 24 29 85 30 25 31 84 32 26 33 27 34 28 35
REMARK SMILES IDX 78 36 29 37 83 38 77 39 79 40 30 41 82 42 76 43 75 44 31 46
REMARK SMILES IDX 63 47 43 48 62 49 44 50 47 51 61 52 80 53 45 54 46 55 60 57
REMARK SMILES IDX 81 58 48 59 32 60 33 61 41 62 34 63 35 64 39 65 42 66 36 67
REMARK SMILES IDX 37 68 40 69 38 70 64 71 65 72 73 73 66 74 67 75 71 76 74 77
REMARK SMILES IDX 68 78 69 79 72 80 70 81 49 82 50 83 58 84 51 85 52 86 56 87
REMARK SMILES IDX 59 88 53 89 54 90 57 91 55 92
REMARK H PARENT 16 5 20 26 79 45 47 56
REMARK Flexibility Score: inf
ROOT
ATOM      1  C   UNL A   1      31.676  30.553  26.557  1.00  0.00     0.117 C 
ENDROOT
BRANCH   1   2
ATOM      2  N   UNL A   1      32.617  30.209  25.518  1.00  0.00    -0.356 N 
ATOM      3  C   UNL A   1      32.614  29.177  24.636  1.00  0.00     0.224 C 
ATOM      4  O   UNL A   1      33.459  29.230  23.735  1.00  0.00    -0.275 OA
ATOM      5  H   UNL A   1      33.384  30.819  25.436  1.00  0.00     0.163 HD
BRANCH   3   6
ATOM      6  C   UNL A   1      31.687  27.956  24.724  1.00  0.00     0.098 C 
ATOM      7  N   UNL A   1      32.250  25.956  23.300  1.00  0.00    -0.338 N 
ATOM      8  C   UNL A   1      30.971  26.023  22.610  1.00  0.00     0.120 C 
ATOM      9  C   UNL A   1      32.350  26.573  24.624  1.00  0.00     0.133 C 
ATOM     10  C   UNL A   1      30.390  27.426  22.560  1.00  0.00     0.022 C 
ATOM     11  C   UNL A   1      30.392  28.111  23.919  1.00  0.00     0.017 C 
BRANCH   7  12
ATOM     12  C   UNL A   1      33.334  25.376  22.642  1.00  0.00     0.253 C 
ATOM     13  O   UNL A   1      33.879  25.905  21.676  1.00  0.00    -0.269 OA
BRANCH  12  14
ATOM     14  C   UNL A   1      33.775  24.016  23.046  1.00  0.00     0.040 A 
ATOM     15  C   UNL A   1      34.451  21.651  24.353  1.00  0.00     0.118 A 
ATOM     16  C   UNL A   1      33.177  21.797  23.805  1.00  0.00     0.047 A 
ATOM     17  C   UNL A   1      35.417  22.641  24.171  1.00  0.00     0.047 A 
ATOM     18  C   UNL A   1      32.830  22.989  23.165  1.00  0.00     0.017 A 
ATOM     19  C   UNL A   1      35.076  23.829  23.528  1.00  0.00     0.017 A 
BRANCH  15  20
ATOM     20  O   UNL A   1      34.700  20.514  25.073  1.00  0.00    -0.497 OA
ATOM     21  C   UNL A   1      33.756  19.483  24.772  1.00  0.00     0.278 C 
ENDBRANCH  15  20
ENDBRANCH  12  14
ENDBRANCH   7  12
ENDBRANCH   3   6
ENDBRANCH   1   2
BRANCH   1  22
ATOM     22  C   UNL A   1      31.458  32.047  26.721  1.00  0.00     0.042 C 
BRANCH  22  23
ATOM     23  C   UNL A   1      32.682  32.773  27.245  1.00  0.00     0.118 C 
BRANCH  23  24
ATOM     24  N   UNL A   1      32.403  34.154  27.630  1.00  0.00    -0.352 N 
ATOM     25  C   UNL A   1      32.986  34.963  28.578  1.00  0.00     0.251 C 
ATOM     26  H   UNL A   1      31.672  34.579  27.125  1.00  0.00     0.163 HD
ATOM     27  O   UNL A   1      32.520  36.068  28.810  1.00  0.00    -0.269 OA
BRANCH  25  28
ATOM     28  C   UNL A   1      34.157  34.484  29.346  1.00  0.00     0.039 A 
ATOM     29  C   UNL A   1      33.945  33.866  30.583  1.00  0.00     0.014 A 
ATOM     30  C   UNL A   1      35.452  34.630  28.853  1.00  0.00     0.014 A 
ATOM     31  C   UNL A   1      35.027  33.323  31.279  1.00  0.00     0.010 A 
ATOM     32  C   UNL A   1      36.507  33.986  29.484  1.00  0.00     0.010 A 
ATOM     33  C   UNL A   1      36.310  33.336  30.711  1.00  0.00    -0.014 A 
BRANCH  33  34
ATOM     34  C   UNL A   1      37.473  32.709  31.386  1.00  0.00     0.031 A 
ATOM     35  C   UNL A   1      38.208  31.585  30.708  1.00  0.00     0.074 A 
ATOM     36  C   UNL A   1      37.809  33.086  32.635  1.00  0.00     0.049 A 
ATOM     37  N   UNL A   1      39.159  30.815  31.172  1.00  0.00    -0.248 NA
ATOM     38  C   UNL A   1      37.784  31.250  29.338  1.00  0.00     0.031 C 
ATOM     39  C   UNL A   1      37.135  34.122  33.419  1.00  0.00     0.029 A 
ATOM     40  N   UNL A   1      38.797  32.629  33.471  1.00  0.00    -0.354 N 
ATOM     41  C   UNL A   1      39.418  29.891  30.169  1.00  0.00     0.074 A 
ATOM     42  C   UNL A   1      38.484  30.153  29.097  1.00  0.00     0.031 C 
ATOM     43  C   UNL A   1      37.748  34.243  34.608  1.00  0.00     0.029 A 
ATOM     44  C   UNL A   1      38.829  33.267  34.687  1.00  0.00     0.049 A 
ATOM     45  H   UNL A   1      39.424  31.911  33.221  1.00  0.00     0.167 HD
ATOM     46  C   UNL A   1      40.370  28.929  30.130  1.00  0.00     0.037 A 
ATOM     47  C   UNL A   1      39.638  33.078  35.746  1.00  0.00     0.037 A 
ATOM     48  C   UNL A   1      41.332  28.711  31.176  1.00  0.00     0.049 A 
ATOM     49  C   UNL A   1      40.710  32.026  35.666  1.00  0.00     0.074 A 
ATOM     50  C   UNL A   1      42.384  27.814  31.210  1.00  0.00     0.029 A 
ATOM     51  N   UNL A   1      41.361  29.410  32.375  1.00  0.00    -0.354 N 
ATOM     52  N   UNL A   1      40.987  31.198  34.688  1.00  0.00    -0.248 NA
ATOM     53  C   UNL A   1      41.588  31.884  36.836  1.00  0.00     0.031 C 
ATOM     54  C   UNL A   1      43.030  27.946  32.443  1.00  0.00     0.029 A 
ATOM     55  C   UNL A   1      42.407  28.955  33.159  1.00  0.00     0.049 A 
ATOM     56  H   UNL A   1      40.732  30.123  32.629  1.00  0.00     0.167 HD
ATOM     57  C   UNL A   1      42.083  30.460  35.109  1.00  0.00     0.074 A 
ATOM     58  C   UNL A   1      42.431  30.947  36.428  1.00  0.00     0.031 C 
ATOM     59  C   UNL A   1      42.743  29.467  34.464  1.00  0.00     0.037 A 
BRANCH  46  60
ATOM     60  C   UNL A   1      40.424  28.055  28.910  1.00  0.00     0.064 A 
ATOM     61  C   UNL A   1      41.182  28.409  27.784  1.00  0.00     0.173 A 
ATOM     62  C   UNL A   1      39.725  26.839  28.874  1.00  0.00     0.173 A 
ATOM     63  F   UNL A   1      41.857  29.568  27.761  1.00  0.00    -0.203 F 
ATOM     64  C   UNL A   1      41.209  27.597  26.653  1.00  0.00     0.198 A 
ATOM     65  C   UNL A   1      39.781  26.013  27.754  1.00  0.00     0.198 A 
ATOM     66  F   UNL A   1      38.989  26.449  29.926  1.00  0.00    -0.203 F 
ATOM     67  F   UNL A   1      41.893  27.986  25.568  1.00  0.00    -0.200 F 
ATOM     68  C   UNL A   1      40.515  26.397  26.642  1.00  0.00     0.200 A 
ATOM     69  F   UNL A   1      39.120  24.848  27.749  1.00  0.00    -0.200 F 
ATOM     70  F   UNL A   1      40.546  25.614  25.555  1.00  0.00    -0.200 F 
ENDBRANCH  46  60
BRANCH  47  71
ATOM     71  C   UNL A   1      39.492  33.930  36.955  1.00  0.00     0.064 A 
ATOM     72  C   UNL A   1      40.101  35.191  37.020  1.00  0.00     0.173 A 
ATOM     73  C   UNL A   1      38.747  33.509  38.065  1.00  0.00     0.173 A 
ATOM     74  F   UNL A   1      40.841  35.630  35.991  1.00  0.00    -0.203 F 
ATOM     75  C   UNL A   1      39.988  35.989  38.157  1.00  0.00     0.198 A 
ATOM     76  C   UNL A   1      38.611  34.319  39.191  1.00  0.00     0.198 A 
ATOM     77  F   UNL A   1      38.138  32.313  38.051  1.00  0.00    -0.203 F 
ATOM     78  F   UNL A   1      40.618  37.171  38.208  1.00  0.00    -0.200 F 
ATOM     79  C   UNL A   1      39.238  35.554  39.239  1.00  0.00     0.200 A 
ATOM     80  F   UNL A   1      37.874  33.901  40.229  1.00  0.00    -0.200 F 
ATOM     81  F   UNL A   1      39.127  36.323  40.331  1.00  0.00    -0.200 F 
ENDBRANCH  47  71
BRANCH  59  82
ATOM     82  C   UNL A   1      43.931  28.869  35.157  1.00  0.00     0.064 A 
ATOM     83  C   UNL A   1      43.803  27.772  36.020  1.00  0.00     0.173 A 
ATOM     84  C   UNL A   1      45.219  29.372  34.913  1.00  0.00     0.173 A 
ATOM     85  F   UNL A   1      42.591  27.267  36.295  1.00  0.00    -0.203 F 
ATOM     86  C   UNL A   1      44.922  27.212  36.632  1.00  0.00     0.198 A 
ATOM     87  C   UNL A   1      46.336  28.791  35.504  1.00  0.00     0.198 A 
ATOM     88  F   UNL A   1      45.393  30.415  34.089  1.00  0.00    -0.203 F 
ATOM     89  F   UNL A   1      44.772  26.191  37.488  1.00  0.00    -0.200 F 
ATOM     90  C   UNL A   1      46.186  27.716  36.368  1.00  0.00     0.200 A 
ATOM     91  F   UNL A   1      47.559  29.270  35.238  1.00  0.00    -0.200 F 
ATOM     92  F   UNL A   1      47.261  27.169  36.951  1.00  0.00    -0.200 F 
ENDBRANCH  59  82
ENDBRANCH  33  34
ENDBRANCH  25  28
ENDBRANCH  23  24
ENDBRANCH  22  23
ENDBRANCH   1  22
TORSDOF 13
ENDMDL
MODEL 3
REMARK VINA RESULT:     -12.4      0.795      1.892
REMARK SMILES COc1ccc(C(=O)N2CCC[C@H](C(=O)NCCCNC(=O)c3ccc(-c4c5nc(c(-c6c(F)c(F)c(F)c(F)c6F)c6ccc([nH]6)c(-c6c(F)c(F)c(F)c(F)c6F)c6nc(c(-c7c(F)c(F)c(F)c(F)c7F)c7ccc4[nH]7)C=C6)C=C5)cc3)C2)cc1
REMARK SMILES IDX 17 1 16 2 14 3 15 4 13 6 9 7 10 8 86 9 11 10 12 11 7 12 8 13
REMARK SMILES IDX 6 14 3 15 4 16 88 17 5 18 87 19 2 20 1 21 18 22 19 23 20 24
REMARK SMILES IDX 21 25 22 27 23 28 24 29 85 30 25 31 84 32 26 33 27 34 28 35
REMARK SMILES IDX 78 36 29 37 83 38 77 39 79 40 30 41 82 42 76 43 75 44 31 46
REMARK SMILES IDX 63 47 43 48 62 49 44 50 47 51 61 52 80 53 45 54 46 55 60 57
REMARK SMILES IDX 81 58 48 59 32 60 33 61 41 62 34 63 35 64 39 65 42 66 36 67
REMARK SMILES IDX 37 68 40 69 38 70 64 71 65 72 73 73 66 74 67 75 71 76 74 77
REMARK SMILES IDX 68 78 69 79 72 80 70 81 49 82 50 83 58 84 51 85 52 86 56 87
REMARK SMILES IDX 59 88 53 89 54 90 57 91 55 92
REMARK H PARENT 16 5 20 26 79 45 47 56
REMARK Flexibility Score: inf
ROOT
ATOM      1  C   UNL A   1      31.652  30.605  26.474  1.00  0.00     0.117 C 
ENDROOT
BRANCH   1   2
ATOM      2  N   UNL A   1      32.580  30.258  25.425  1.00  0.00    -0.356 N 
ATOM      3  C   UNL A   1      32.562  29.228  24.541  1.00  0.00     0.224 C 
ATOM      4  O   UNL A   1      33.399  29.280  23.631  1.00  0.00    -0.275 OA
ATOM      5  H   UNL A   1      33.350  30.864  25.338  1.00  0.00     0.163 HD
BRANCH   3   6
ATOM      6  C   UNL A   1      31.629  28.013  24.635  1.00  0.00     0.098 C 
ATOM      7  N   UNL A   1      32.390  25.869  23.552  1.00  0.00    -0.338 N 
ATOM      8  C   UNL A   1      31.227  25.837  22.679  1.00  0.00     0.120 C 
ATOM      9  C   UNL A   1      32.296  26.638  24.795  1.00  0.00     0.133 C 
ATOM     10  C   UNL A   1      30.664  27.216  22.380  1.00  0.00     0.022 C 
ATOM     11  C   UNL A   1      30.467  28.055  23.636  1.00  0.00     0.017 C 
BRANCH   7  12
ATOM     12  C   UNL A   1      33.557  25.232  23.133  1.00  0.00     0.253 C 
ATOM     13  O   UNL A   1      34.043  25.413  22.018  1.00  0.00    -0.269 OA
BRANCH  12  14
ATOM     14  C   UNL A   1      34.175  24.210  24.016  1.00  0.00     0.040 A 
ATOM     15  C   UNL A   1      35.774  22.301  25.263  1.00  0.00     0.118 A 
ATOM     16  C   UNL A   1      35.900  23.643  25.618  1.00  0.00     0.047 A 
ATOM     17  C   UNL A   1      34.793  21.897  24.359  1.00  0.00     0.047 A 
ATOM     18  C   UNL A   1      35.111  24.605  24.981  1.00  0.00     0.017 A 
ATOM     19  C   UNL A   1      34.001  22.853  23.725  1.00  0.00     0.017 A 
BRANCH  15  20
ATOM     20  O   UNL A   1      36.652  21.416  25.828  1.00  0.00    -0.497 OA
ATOM     21  C   UNL A   1      37.507  20.823  24.846  1.00  0.00     0.278 C 
ENDBRANCH  15  20
ENDBRANCH  12  14
ENDBRANCH   7  12
ENDBRANCH   3   6
ENDBRANCH   1   2
BRANCH   1  22
ATOM     22  C   UNL A   1      31.458  32.099  26.657  1.00  0.00     0.042 C 
BRANCH  22  23
ATOM     23  C   UNL A   1      32.662  32.786  27.273  1.00  0.00     0.118 C 
BRANCH  23  24
ATOM     24  N   UNL A   1      32.400  34.175  27.638  1.00  0.00    -0.352 N 
ATOM     25  C   UNL A   1      32.997  34.992  28.572  1.00  0.00     0.251 C 
ATOM     26  H   UNL A   1      31.672  34.601  27.130  1.00  0.00     0.163 HD
ATOM     27  O   UNL A   1      32.544  36.105  28.790  1.00  0.00    -0.269 OA
BRANCH  25  28
ATOM     28  C   UNL A   1      34.165  34.511  29.342  1.00  0.00     0.039 A 
ATOM     29  C   UNL A   1      33.952  33.903  30.583  1.00  0.00     0.014 A 
ATOM     30  C   UNL A   1      35.461  34.646  28.845  1.00  0.00     0.014 A 
ATOM     31  C   UNL A   1      35.031  33.358  31.282  1.00  0.00     0.010 A 
ATOM     32  C   UNL A   1      36.513  33.999  29.479  1.00  0.00     0.010 A 
ATOM     33  C   UNL A   1      36.313  33.359  30.711  1.00  0.00    -0.014 A 
BRANCH  33  34
ATOM     34  C   UNL A   1      37.474  32.730  31.389  1.00  0.00     0.031 A 
ATOM     35  C   UNL A   1      38.201  31.598  30.717  1.00  0.00     0.074 A 
ATOM     36  C   UNL A   1      37.812  33.113  32.635  1.00  0.00     0.049 A 
ATOM     37  N   UNL A   1      39.149  30.825  31.186  1.00  0.00    -0.248 NA
ATOM     38  C   UNL A   1      37.775  31.257  29.350  1.00  0.00     0.031 C 
ATOM     39  C   UNL A   1      37.144  34.157  33.415  1.00  0.00     0.029 A 
ATOM     40  N   UNL A   1      38.798  32.655  33.474  1.00  0.00    -0.354 N 
ATOM     41  C   UNL A   1      39.402  29.894  30.187  1.00  0.00     0.074 A 
ATOM     42  C   UNL A   1      38.469  30.155  29.115  1.00  0.00     0.031 C 
ATOM     43  C   UNL A   1      37.759  34.281  34.602  1.00  0.00     0.029 A 
ATOM     44  C   UNL A   1      38.835  33.300  34.686  1.00  0.00     0.049 A 
ATOM     45  H   UNL A   1      39.421  31.932  33.228  1.00  0.00     0.167 HD
ATOM     46  C   UNL A   1      40.349  28.926  30.154  1.00  0.00     0.037 A 
ATOM     47  C   UNL A   1      39.644  33.113  35.746  1.00  0.00     0.037 A 
ATOM     48  C   UNL A   1      41.310  28.709  31.200  1.00  0.00     0.049 A 
ATOM     49  C   UNL A   1      40.710  32.054  35.671  1.00  0.00     0.074 A 
ATOM     50  C   UNL A   1      42.358  27.807  31.238  1.00  0.00     0.029 A 
ATOM     51  N   UNL A   1      41.344  29.416  32.395  1.00  0.00    -0.354 N 
ATOM     52  N   UNL A   1      40.981  31.219  34.697  1.00  0.00    -0.248 NA
ATOM     53  C   UNL A   1      41.588  31.915  36.841  1.00  0.00     0.031 C 
ATOM     54  C   UNL A   1      43.006  27.943  32.471  1.00  0.00     0.029 A 
ATOM     55  C   UNL A   1      42.389  28.960  33.181  1.00  0.00     0.049 A 
ATOM     56  H   UNL A   1      40.719  30.133  32.646  1.00  0.00     0.167 HD
ATOM     57  C   UNL A   1      42.074  30.478  35.122  1.00  0.00     0.074 A 
ATOM     58  C   UNL A   1      42.426  30.971  36.438  1.00  0.00     0.031 C 
ATOM     59  C   UNL A   1      42.728  29.477  34.483  1.00  0.00     0.037 A 
BRANCH  46  60
ATOM     60  C   UNL A   1      40.397  28.046  28.939  1.00  0.00     0.064 A 
ATOM     61  C   UNL A   1      39.685  26.839  28.875  1.00  0.00     0.173 A 
ATOM     62  C   UNL A   1      41.150  28.422  27.817  1.00  0.00     0.173 A 
ATOM     63  F   UNL A   1      38.961  26.425  29.926  1.00  0.00    -0.203 F 
ATOM     64  C   UNL A   1      39.753  26.024  27.748  1.00  0.00     0.198 A 
ATOM     65  C   UNL A   1      41.189  27.621  26.678  1.00  0.00     0.198 A 
ATOM     66  F   UNL A   1      41.846  29.569  27.822  1.00  0.00    -0.203 F 
ATOM     67  F   UNL A   1      39.111  24.848  27.734  1.00  0.00    -0.200 F 
ATOM     68  C   UNL A   1      40.499  26.419  26.648  1.00  0.00     0.200 A 
ATOM     69  F   UNL A   1      41.902  28.010  25.612  1.00  0.00    -0.200 F 
ATOM     70  F   UNL A   1      40.560  25.636  25.562  1.00  0.00    -0.200 F 
ENDBRANCH  46  60
BRANCH  47  71
ATOM     71  C   UNL A   1      39.504  33.972  36.949  1.00  0.00     0.064 A 
ATOM     72  C   UNL A   1      38.771  33.535  38.061  1.00  0.00     0.173 A 
ATOM     73  C   UNL A   1      40.094  35.243  37.018  1.00  0.00     0.173 A 
ATOM     74  F   UNL A   1      38.171  32.335  38.036  1.00  0.00    -0.203 F 
ATOM     75  C   UNL A   1      38.615  34.341  39.186  1.00  0.00     0.198 A 
ATOM     76  C   UNL A   1      39.961  36.038  38.154  1.00  0.00     0.198 A 
ATOM     77  F   UNL A   1      40.811  35.707  35.984  1.00  0.00    -0.203 F 
ATOM     78  F   UNL A   1      37.872  33.914  40.217  1.00  0.00    -0.200 F 
ATOM     79  C   UNL A   1      39.216  35.590  39.234  1.00  0.00     0.200 A 
ATOM     80  F   UNL A   1      40.554  37.239  38.202  1.00  0.00    -0.200 F 
ATOM     81  F   UNL A   1      39.068  36.365  40.317  1.00  0.00    -0.200 F 
ENDBRANCH  47  71
BRANCH  59  82
ATOM     82  C   UNL A   1      43.914  28.877  35.178  1.00  0.00     0.064 A 
ATOM     83  C   UNL A   1      45.210  29.371  34.978  1.00  0.00     0.173 A 
ATOM     84  C   UNL A   1      43.740  27.827  36.093  1.00  0.00     0.173 A 
ATOM     85  F   UNL A   1      45.427  30.365  34.102  1.00  0.00    -0.203 F 
ATOM     86  C   UNL A   1      46.296  28.820  35.654  1.00  0.00     0.198 A 
ATOM     87  C   UNL A   1      44.824  27.299  36.788  1.00  0.00     0.198 A 
ATOM     88  F   UNL A   1      42.518  27.326  36.323  1.00  0.00    -0.203 F 
ATOM     89  F   UNL A   1      47.533  29.279  35.416  1.00  0.00    -0.200 F 
ATOM     90  C   UNL A   1      46.101  27.791  36.563  1.00  0.00     0.200 A 
ATOM     91  F   UNL A   1      44.632  26.313  37.676  1.00  0.00    -0.200 F 
ATOM     92  F   UNL A   1      47.145  27.269  37.219  1.00  0.00    -0.200 F 
ENDBRANCH  59  82
ENDBRANCH  33  34
ENDBRANCH  25  28
ENDBRANCH  23  24
ENDBRANCH  22  23
ENDBRANCH   1  22
TORSDOF 13
ENDMDL
