MODEL 1
REMARK VINA RESULT:     -12.9      0.000      0.000
REMARK SMILES CCN1C(=O)/C(=C2/SC(=S)N([C@@H](C)C(=O)NCCCNC(=O)c3ccc(-c4c5nc(c(-c6c(F)c(F)c(F)c(F)c6F)c6ccc([nH]6)c(-c6c(F)c(F)c(F)c(F)c6F)c6nc(c(-c7c(F)c(F)c(F)c(F)c7F)c7ccc4[nH]7)C=C6)C=C5)cc3)C2=O)c2cc(Br)ccc21
REMARK SMILES IDX 18 1 17 2 16 3 14 4 15 5 12 7 13 8 11 9 3 10 4 11 94 12 5 13
REMARK SMILES IDX 6 14 88 15 93 16 7 17 89 18 92 19 8 20 86 21 90 22 9 23
REMARK SMILES IDX 87 24 91 25 10 26 2 27 1 28 19 29 20 30 21 31 22 33 23 34
REMARK SMILES IDX 24 35 85 36 25 37 84 38 26 39 27 40 28 41 78 42 29 43 83 44
REMARK SMILES IDX 77 45 79 46 30 47 82 48 76 49 75 50 31 52 63 53 43 54 62 55
REMARK SMILES IDX 44 56 47 57 61 58 80 59 45 60 46 61 60 63 81 64 48 65 32 66
REMARK SMILES IDX 33 67 41 68 34 69 35 70 39 71 42 72 36 73 37 74 40 75 38 76
REMARK SMILES IDX 64 77 65 78 73 79 66 80 67 81 71 82 74 83 68 84 69 85 72 86
REMARK SMILES IDX 70 87 49 88 50 89 58 90 51 91 52 92 56 93 59 94 53 95 54 96
REMARK SMILES IDX 57 97 55 98
REMARK H PARENT 16 6 20 32 79 51 47 62
REMARK Flexibility Score: inf
ROOT
ATOM      1  C   UNL A   1      49.205  23.396  34.286  1.00  0.00     0.042 C 
ENDROOT
BRANCH   1   2
ATOM      2  C   UNL A   1      48.900  22.266  35.269  1.00  0.00     0.117 C 
BRANCH   2   3
ATOM      3  N   UNL A   1      48.542  21.036  34.579  1.00  0.00    -0.354 N 
ATOM      4  C   UNL A   1      47.416  20.271  34.512  1.00  0.00     0.242 C 
ATOM      5  O   UNL A   1      47.536  19.234  33.848  1.00  0.00    -0.273 OA
ATOM      6  H   UNL A   1      49.280  20.674  34.037  1.00  0.00     0.163 HD
BRANCH   4   7
ATOM      7  C   UNL A   1      46.063  20.588  35.209  1.00  0.00     0.178 C 
ATOM      8  C   UNL A   1      45.558  21.998  34.927  1.00  0.00     0.042 C 
BRANCH   7   9
ATOM      9  N   UNL A   1      46.060  20.127  36.611  1.00  0.00    -0.280 N 
ATOM     10  N   UNL A   1      43.932  16.436  40.449  1.00  0.00    -0.308 N 
ATOM     11  C   UNL A   1      44.143  17.005  39.177  1.00  0.00     0.260 C 
ATOM     12  C   UNL A   1      45.014  16.692  41.310  1.00  0.00     0.052 A 
ATOM     13  O   UNL A   1      43.378  17.024  38.238  1.00  0.00    -0.269 OA
ATOM     14  C   UNL A   1      45.485  17.693  39.269  1.00  0.00     0.069 C 
ATOM     15  C   UNL A   1      45.971  17.466  40.649  1.00  0.00     0.014 A 
ATOM     16  C   UNL A   1      45.187  16.321  42.637  1.00  0.00     0.028 A 
ATOM     17  C   UNL A   1      46.033  18.488  38.333  1.00  0.00     0.093 C 
ATOM     18  C   UNL A   1      47.098  17.895  41.331  1.00  0.00     0.026 A 
ATOM     19  C   UNL A   1      46.291  16.817  43.340  1.00  0.00     0.018 A 
ATOM     20  S   UNL A   1      47.344  19.572  38.682  1.00  0.00    -0.053 SA
ATOM     21  C   UNL A   1      45.622  18.828  36.922  1.00  0.00     0.267 C 
ATOM     22  C   UNL A   1      47.222  17.621  42.686  1.00  0.00     0.018 A 
ATOM     23  C   UNL A   1      46.617  20.781  37.671  1.00  0.00     0.149 C 
ATOM     24  O   UNL A   1      45.068  18.053  36.161  1.00  0.00    -0.268 OA
ATOM     25  Br  UNL A   1      48.637  18.452  43.607  1.00  0.00    -0.051 Br
ATOM     26  S   UNL A   1      46.541  22.373  38.142  1.00  0.00    -0.052 S 
BRANCH  10  27
ATOM     27  C   UNL A   1      42.724  15.719  40.818  1.00  0.00     0.122 C 
ATOM     28  C   UNL A   1      42.426  14.481  39.975  1.00  0.00     0.028 C 
ENDBRANCH  10  27
ENDBRANCH   7   9
ENDBRANCH   4   7
ENDBRANCH   2   3
ENDBRANCH   1   2
BRANCH   1  29
ATOM     29  C   UNL A   1      48.418  24.675  34.548  1.00  0.00     0.118 C 
BRANCH  29  30
ATOM     30  N   UNL A   1      48.245  24.947  35.969  1.00  0.00    -0.352 N 
ATOM     31  C   UNL A   1      47.368  25.776  36.633  1.00  0.00     0.251 C 
ATOM     32  H   UNL A   1      48.861  24.452  36.557  1.00  0.00     0.163 HD
ATOM     33  O   UNL A   1      47.528  25.975  37.836  1.00  0.00    -0.269 OA
BRANCH  31  34
ATOM     34  C   UNL A   1      46.255  26.457  35.927  1.00  0.00     0.039 A 
ATOM     35  C   UNL A   1      44.966  25.928  35.908  1.00  0.00     0.014 A 
ATOM     36  C   UNL A   1      46.495  27.688  35.302  1.00  0.00     0.014 A 
ATOM     37  C   UNL A   1      43.979  26.516  35.120  1.00  0.00     0.010 A 
ATOM     38  C   UNL A   1      45.473  28.337  34.597  1.00  0.00     0.010 A 
ATOM     39  C   UNL A   1      44.214  27.734  34.460  1.00  0.00    -0.014 A 
BRANCH  39  40
ATOM     40  C   UNL A   1      43.122  28.359  33.662  1.00  0.00     0.031 A 
ATOM     41  C   UNL A   1      42.887  27.974  32.224  1.00  0.00     0.074 A 
ATOM     42  C   UNL A   1      42.295  29.244  34.256  1.00  0.00     0.049 A 
ATOM     43  N   UNL A   1      41.978  28.417  31.389  1.00  0.00    -0.248 NA
ATOM     44  C   UNL A   1      43.787  26.966  31.640  1.00  0.00     0.031 C 
ATOM     45  C   UNL A   1      42.408  29.702  35.643  1.00  0.00     0.029 A 
ATOM     46  N   UNL A   1      41.179  29.891  33.786  1.00  0.00    -0.354 N 
ATOM     47  C   UNL A   1      42.210  27.764  30.185  1.00  0.00     0.074 A 
ATOM     48  C   UNL A   1      43.357  26.905  30.386  1.00  0.00     0.031 C 
ATOM     49  C   UNL A   1      41.369  30.499  35.930  1.00  0.00     0.029 A 
ATOM     50  C   UNL A   1      40.554  30.669  34.732  1.00  0.00     0.049 A 
ATOM     51  H   UNL A   1      40.856  29.808  32.860  1.00  0.00     0.167 HD
ATOM     52  C   UNL A   1      41.520  27.861  29.025  1.00  0.00     0.037 A 
ATOM     53  C   UNL A   1      39.455  31.443  34.648  1.00  0.00     0.037 A 
ATOM     54  C   UNL A   1      40.349  28.671  28.833  1.00  0.00     0.049 A 
ATOM     55  C   UNL A   1      38.720  31.537  33.341  1.00  0.00     0.074 A 
ATOM     56  C   UNL A   1      39.576  28.803  27.693  1.00  0.00     0.029 A 
ATOM     57  N   UNL A   1      39.773  29.471  29.806  1.00  0.00    -0.354 N 
ATOM     58  N   UNL A   1      38.958  30.914  32.214  1.00  0.00    -0.248 NA
ATOM     59  C   UNL A   1      37.571  32.452  33.291  1.00  0.00     0.031 C 
ATOM     60  C   UNL A   1      38.545  29.705  27.969  1.00  0.00     0.029 A 
ATOM     61  C   UNL A   1      38.658  30.108  29.289  1.00  0.00     0.049 A 
ATOM     62  H   UNL A   1      40.107  29.571  30.727  1.00  0.00     0.167 HD
ATOM     63  C   UNL A   1      37.985  31.347  31.326  1.00  0.00     0.074 A 
ATOM     64  C   UNL A   1      37.138  32.272  32.050  1.00  0.00     0.031 C 
ATOM     65  C   UNL A   1      37.815  31.014  30.024  1.00  0.00     0.037 A 
BRANCH  52  66
ATOM     66  C   UNL A   1      41.988  27.051  27.856  1.00  0.00     0.064 A 
ATOM     67  C   UNL A   1      41.433  25.794  27.589  1.00  0.00     0.173 A 
ATOM     68  C   UNL A   1      42.916  27.569  26.943  1.00  0.00     0.173 A 
ATOM     69  F   UNL A   1      40.494  25.293  28.405  1.00  0.00    -0.203 F 
ATOM     70  C   UNL A   1      41.833  25.056  26.478  1.00  0.00     0.198 A 
ATOM     71  C   UNL A   1      43.293  26.841  25.817  1.00  0.00     0.198 A 
ATOM     72  F   UNL A   1      43.433  28.794  27.126  1.00  0.00    -0.203 F 
ATOM     73  F   UNL A   1      41.316  23.839  26.257  1.00  0.00    -0.200 F 
ATOM     74  C   UNL A   1      42.765  25.578  25.594  1.00  0.00     0.200 A 
ATOM     75  F   UNL A   1      44.158  27.367  24.938  1.00  0.00    -0.200 F 
ATOM     76  F   UNL A   1      43.143  24.870  24.521  1.00  0.00    -0.200 F 
ENDBRANCH  52  66
BRANCH  53  77
ATOM     77  C   UNL A   1      38.984  32.180  35.849  1.00  0.00     0.064 A 
ATOM     78  C   UNL A   1      38.179  31.554  36.809  1.00  0.00     0.173 A 
ATOM     79  C   UNL A   1      39.357  33.514  36.079  1.00  0.00     0.173 A 
ATOM     80  F   UNL A   1      37.780  30.286  36.623  1.00  0.00    -0.203 F 
ATOM     81  C   UNL A   1      37.765  32.231  37.954  1.00  0.00     0.198 A 
ATOM     82  C   UNL A   1      38.966  34.181  37.238  1.00  0.00     0.198 A 
ATOM     83  F   UNL A   1      40.127  34.158  35.191  1.00  0.00    -0.203 F 
ATOM     84  F   UNL A   1      36.973  31.616  38.843  1.00  0.00    -0.200 F 
ATOM     85  C   UNL A   1      38.167  33.540  38.173  1.00  0.00     0.200 A 
ATOM     86  F   UNL A   1      39.372  35.440  37.453  1.00  0.00    -0.200 F 
ATOM     87  F   UNL A   1      37.782  34.184  39.283  1.00  0.00    -0.200 F 
ENDBRANCH  53  77
BRANCH  65  88
ATOM     88  C   UNL A   1      36.661  31.629  29.293  1.00  0.00     0.064 A 
ATOM     89  C   UNL A   1      35.534  30.872  28.944  1.00  0.00     0.173 A 
ATOM     90  C   UNL A   1      36.645  33.004  29.014  1.00  0.00     0.173 A 
ATOM     91  F   UNL A   1      35.506  29.552  29.182  1.00  0.00    -0.203 F 
ATOM     92  C   UNL A   1      34.436  31.469  28.329  1.00  0.00     0.198 A 
ATOM     93  C   UNL A   1      35.537  33.601  28.423  1.00  0.00     0.198 A 
ATOM     94  F   UNL A   1      37.697  33.771  29.340  1.00  0.00    -0.203 F 
ATOM     95  F   UNL A   1      33.380  30.722  27.977  1.00  0.00    -0.200 F 
ATOM     96  C   UNL A   1      34.435  32.833  28.079  1.00  0.00     0.200 A 
ATOM     97  F   UNL A   1      35.530  34.922  28.198  1.00  0.00    -0.200 F 
ATOM     98  F   UNL A   1      33.370  33.409  27.504  1.00  0.00    -0.200 F 
ENDBRANCH  65  88
ENDBRANCH  39  40
ENDBRANCH  31  34
ENDBRANCH  29  30
ENDBRANCH   1  29
TORSDOF 12
ENDMDL
MODEL 2
REMARK VINA RESULT:     -12.8      7.294     14.914
REMARK SMILES CCN1C(=O)/C(=C2/SC(=S)N([C@@H](C)C(=O)NCCCNC(=O)c3ccc(-c4c5nc(c(-c6c(F)c(F)c(F)c(F)c6F)c6ccc([nH]6)c(-c6c(F)c(F)c(F)c(F)c6F)c6nc(c(-c7c(F)c(F)c(F)c(F)c7F)c7ccc4[nH]7)C=C6)C=C5)cc3)C2=O)c2cc(Br)ccc21
REMARK SMILES IDX 18 1 17 2 16 3 14 4 15 5 12 7 13 8 11 9 3 10 4 11 94 12 5 13
REMARK SMILES IDX 6 14 88 15 93 16 7 17 89 18 92 19 8 20 86 21 90 22 9 23
REMARK SMILES IDX 87 24 91 25 10 26 2 27 1 28 19 29 20 30 21 31 22 33 23 34
REMARK SMILES IDX 24 35 85 36 25 37 84 38 26 39 27 40 28 41 78 42 29 43 83 44
REMARK SMILES IDX 77 45 79 46 30 47 82 48 76 49 75 50 31 52 63 53 43 54 62 55
REMARK SMILES IDX 44 56 47 57 61 58 80 59 45 60 46 61 60 63 81 64 48 65 32 66
REMARK SMILES IDX 33 67 41 68 34 69 35 70 39 71 42 72 36 73 37 74 40 75 38 76
REMARK SMILES IDX 64 77 65 78 73 79 66 80 67 81 71 82 74 83 68 84 69 85 72 86
REMARK SMILES IDX 70 87 49 88 50 89 58 90 51 91 52 92 56 93 59 94 53 95 54 96
REMARK SMILES IDX 57 97 55 98
REMARK H PARENT 16 6 20 32 79 51 47 62
REMARK Flexibility Score: inf
ROOT
ATOM      1  C   UNL A   1      31.990  30.065  25.000  1.00  0.00     0.042 C 
ENDROOT
BRANCH   1   2
ATOM      2  C   UNL A   1      30.829  29.106  24.740  1.00  0.00     0.117 C 
BRANCH   2   3
ATOM      3  N   UNL A   1      30.872  28.565  23.390  1.00  0.00    -0.354 N 
ATOM      4  C   UNL A   1      30.655  27.334  22.847  1.00  0.00     0.242 C 
ATOM      5  O   UNL A   1      30.861  27.264  21.629  1.00  0.00    -0.273 OA
ATOM      6  H   UNL A   1      31.112  29.240  22.715  1.00  0.00     0.163 HD
BRANCH   4   7
ATOM      7  C   UNL A   1      30.215  26.064  23.629  1.00  0.00     0.178 C 
ATOM      8  C   UNL A   1      29.080  26.326  24.611  1.00  0.00     0.042 C 
BRANCH   7   9
ATOM      9  N   UNL A   1      31.382  25.302  24.116  1.00  0.00    -0.280 N 
ATOM     10  N   UNL A   1      34.028  20.223  24.395  1.00  0.00    -0.308 N 
ATOM     11  C   UNL A   1      33.051  21.154  23.991  1.00  0.00     0.260 C 
ATOM     12  C   UNL A   1      35.239  20.861  24.719  1.00  0.00     0.052 A 
ATOM     13  O   UNL A   1      31.892  20.938  23.713  1.00  0.00    -0.269 OA
ATOM     14  C   UNL A   1      33.724  22.504  24.092  1.00  0.00     0.069 C 
ATOM     15  C   UNL A   1      35.099  22.243  24.572  1.00  0.00     0.014 A 
ATOM     16  C   UNL A   1      36.430  20.306  25.169  1.00  0.00     0.028 A 
ATOM     17  C   UNL A   1      33.128  23.699  23.937  1.00  0.00     0.093 C 
ATOM     18  C   UNL A   1      36.154  23.079  24.903  1.00  0.00     0.026 A 
ATOM     19  C   UNL A   1      37.465  21.159  25.570  1.00  0.00     0.018 A 
ATOM     20  S   UNL A   1      33.849  25.178  24.490  1.00  0.00    -0.053 SA
ATOM     21  C   UNL A   1      31.740  24.093  23.496  1.00  0.00     0.267 C 
ATOM     22  C   UNL A   1      37.305  22.538  25.457  1.00  0.00     0.018 A 
ATOM     23  C   UNL A   1      32.298  25.737  25.029  1.00  0.00     0.149 C 
ATOM     24  O   UNL A   1      31.082  23.485  22.669  1.00  0.00    -0.268 OA
ATOM     25  Br  UNL A   1      38.588  23.743  26.126  1.00  0.00    -0.051 Br
ATOM     26  S   UNL A   1      32.110  26.489  26.500  1.00  0.00    -0.052 S 
BRANCH  10  27
ATOM     27  C   UNL A   1      33.783  18.795  24.497  1.00  0.00     0.122 C 
ATOM     28  C   UNL A   1      32.903  18.374  25.672  1.00  0.00     0.028 C 
ENDBRANCH  10  27
ENDBRANCH   7   9
ENDBRANCH   4   7
ENDBRANCH   2   3
ENDBRANCH   1   2
BRANCH   1  29
ATOM     29  C   UNL A   1      32.172  30.434  26.467  1.00  0.00     0.118 C 
BRANCH  29  30
ATOM     30  N   UNL A   1      32.145  31.874  26.693  1.00  0.00    -0.352 N 
ATOM     31  C   UNL A   1      32.959  32.690  27.447  1.00  0.00     0.251 C 
ATOM     32  H   UNL A   1      31.418  32.346  26.225  1.00  0.00     0.163 HD
ATOM     33  O   UNL A   1      32.630  33.861  27.626  1.00  0.00    -0.269 OA
BRANCH  31  34
ATOM     34  C   UNL A   1      34.205  32.181  28.071  1.00  0.00     0.039 A 
ATOM     35  C   UNL A   1      34.361  30.839  28.409  1.00  0.00     0.014 A 
ATOM     36  C   UNL A   1      35.271  33.066  28.283  1.00  0.00     0.014 A 
ATOM     37  C   UNL A   1      35.484  30.421  29.120  1.00  0.00     0.010 A 
ATOM     38  C   UNL A   1      36.448  32.623  28.903  1.00  0.00     0.010 A 
ATOM     39  C   UNL A   1      36.548  31.304  29.370  1.00  0.00    -0.014 A 
BRANCH  39  40
ATOM     40  C   UNL A   1      37.754  30.813  30.095  1.00  0.00     0.031 A 
ATOM     41  C   UNL A   1      37.987  31.154  31.544  1.00  0.00     0.074 A 
ATOM     42  C   UNL A   1      38.623  30.002  29.455  1.00  0.00     0.049 A 
ATOM     43  N   UNL A   1      38.981  30.804  32.324  1.00  0.00    -0.248 NA
ATOM     44  C   UNL A   1      36.982  32.000  32.208  1.00  0.00     0.031 C 
ATOM     45  C   UNL A   1      38.515  29.592  28.054  1.00  0.00     0.029 A 
ATOM     46  N   UNL A   1      39.747  29.353  29.903  1.00  0.00    -0.354 N 
ATOM     47  C   UNL A   1      38.734  31.401  33.554  1.00  0.00     0.074 A 
ATOM     48  C   UNL A   1      37.506  32.153  33.418  1.00  0.00     0.031 C 
ATOM     49  C   UNL A   1      39.486  28.710  27.776  1.00  0.00     0.029 A 
ATOM     50  C   UNL A   1      40.330  28.547  28.954  1.00  0.00     0.049 A 
ATOM     51  H   UNL A   1      40.102  29.454  30.815  1.00  0.00     0.167 HD
ATOM     52  C   UNL A   1      39.458  31.317  34.695  1.00  0.00     0.037 A 
ATOM     53  C   UNL A   1      41.429  27.770  29.016  1.00  0.00     0.037 A 
ATOM     54  C   UNL A   1      40.650  30.530  34.853  1.00  0.00     0.049 A 
ATOM     55  C   UNL A   1      42.215  27.709  30.295  1.00  0.00     0.074 A 
ATOM     56  C   UNL A   1      41.427  30.371  35.987  1.00  0.00     0.029 A 
ATOM     57  N   UNL A   1      41.226  29.760  33.857  1.00  0.00    -0.354 N 
ATOM     58  N   UNL A   1      41.966  28.283  31.445  1.00  0.00    -0.248 NA
ATOM     59  C   UNL A   1      43.443  26.900  30.280  1.00  0.00     0.031 C 
ATOM     60  C   UNL A   1      42.491  29.522  35.669  1.00  0.00     0.029 A 
ATOM     61  C   UNL A   1      42.357  29.129  34.348  1.00  0.00     0.049 A 
ATOM     62  H   UNL A   1      40.883  29.674  32.938  1.00  0.00     0.167 HD
ATOM     63  C   UNL A   1      42.993  27.898  32.294  1.00  0.00     0.074 A 
ATOM     64  C   UNL A   1      43.860  27.022  31.534  1.00  0.00     0.031 C 
ATOM     65  C   UNL A   1      43.202  28.247  33.586  1.00  0.00     0.037 A 
BRANCH  52  66
ATOM     66  C   UNL A   1      38.978  32.075  35.893  1.00  0.00     0.064 A 
ATOM     67  C   UNL A   1      38.161  31.460  36.849  1.00  0.00     0.173 A 
ATOM     68  C   UNL A   1      39.412  33.384  36.142  1.00  0.00     0.173 A 
ATOM     69  F   UNL A   1      37.777  30.186  36.677  1.00  0.00    -0.203 F 
ATOM     70  C   UNL A   1      37.747  32.147  37.987  1.00  0.00     0.198 A 
ATOM     71  C   UNL A   1      39.020  34.059  37.295  1.00  0.00     0.198 A 
ATOM     72  F   UNL A   1      40.241  33.995  35.282  1.00  0.00    -0.203 F 
ATOM     73  F   UNL A   1      36.938  31.553  38.875  1.00  0.00    -0.200 F 
ATOM     74  C   UNL A   1      38.175  33.447  38.208  1.00  0.00     0.200 A 
ATOM     75  F   UNL A   1      39.473  35.299  37.532  1.00  0.00    -0.200 F 
ATOM     76  F   UNL A   1      37.782  34.105  39.308  1.00  0.00    -0.200 F 
ENDBRANCH  52  66
BRANCH  53  77
ATOM     77  C   UNL A   1      41.837  26.981  27.825  1.00  0.00     0.064 A 
ATOM     78  C   UNL A   1      42.504  27.587  26.753  1.00  0.00     0.173 A 
ATOM     79  C   UNL A   1      41.598  25.600  27.748  1.00  0.00     0.173 A 
ATOM     80  F   UNL A   1      42.736  28.909  26.771  1.00  0.00    -0.203 F 
ATOM     81  C   UNL A   1      42.919  26.844  25.650  1.00  0.00     0.198 A 
ATOM     82  C   UNL A   1      42.039  24.852  26.659  1.00  0.00     0.198 A 
ATOM     83  F   UNL A   1      40.965  24.971  28.749  1.00  0.00    -0.203 F 
ATOM     84  F   UNL A   1      43.531  27.454  24.626  1.00  0.00    -0.200 F 
ATOM     85  C   UNL A   1      42.696  25.476  25.608  1.00  0.00     0.200 A 
ATOM     86  F   UNL A   1      41.837  23.528  26.631  1.00  0.00    -0.200 F 
ATOM     87  F   UNL A   1      43.111  24.759  24.555  1.00  0.00    -0.200 F 
ENDBRANCH  53  77
BRANCH  65  88
ATOM     88  C   UNL A   1      44.399  27.671  34.279  1.00  0.00     0.064 A 
ATOM     89  C   UNL A   1      45.614  28.368  34.335  1.00  0.00     0.173 A 
ATOM     90  C   UNL A   1      44.306  26.451  34.965  1.00  0.00     0.173 A 
ATOM     91  F   UNL A   1      45.754  29.534  33.687  1.00  0.00    -0.203 F 
ATOM     92  C   UNL A   1      46.698  27.857  35.043  1.00  0.00     0.198 A 
ATOM     93  C   UNL A   1      45.382  25.956  35.693  1.00  0.00     0.198 A 
ATOM     94  F   UNL A   1      43.159  25.753  34.950  1.00  0.00    -0.203 F 
ATOM     95  F   UNL A   1      47.860  28.525  35.059  1.00  0.00    -0.200 F 
ATOM     96  C   UNL A   1      46.578  26.658  35.729  1.00  0.00     0.200 A 
ATOM     97  F   UNL A   1      45.260  24.806  36.370  1.00  0.00    -0.200 F 
ATOM     98  F   UNL A   1      47.617  26.177  36.426  1.00  0.00    -0.200 F 
ENDBRANCH  65  88
ENDBRANCH  39  40
ENDBRANCH  31  34
ENDBRANCH  29  30
ENDBRANCH   1  29
TORSDOF 12
ENDMDL
MODEL 3
REMARK VINA RESULT:     -12.7      8.644     13.548
REMARK SMILES CCN1C(=O)/C(=C2/SC(=S)N([C@@H](C)C(=O)NCCCNC(=O)c3ccc(-c4c5nc(c(-c6c(F)c(F)c(F)c(F)c6F)c6ccc([nH]6)c(-c6c(F)c(F)c(F)c(F)c6F)c6nc(c(-c7c(F)c(F)c(F)c(F)c7F)c7ccc4[nH]7)C=C6)C=C5)cc3)C2=O)c2cc(Br)ccc21
REMARK SMILES IDX 18 1 17 2 16 3 14 4 15 5 12 7 13 8 11 9 3 10 4 11 94 12 5 13
REMARK SMILES IDX 6 14 88 15 93 16 7 17 89 18 92 19 8 20 86 21 90 22 9 23
REMARK SMILES IDX 87 24 91 25 10 26 2 27 1 28 19 29 20 30 21 31 22 33 23 34
REMARK SMILES IDX 24 35 85 36 25 37 84 38 26 39 27 40 28 41 78 42 29 43 83 44
REMARK SMILES IDX 77 45 79 46 30 47 82 48 76 49 75 50 31 52 63 53 43 54 62 55
REMARK SMILES IDX 44 56 47 57 61 58 80 59 45 60 46 61 60 63 81 64 48 65 32 66
REMARK SMILES IDX 33 67 41 68 34 69 35 70 39 71 42 72 36 73 37 74 40 75 38 76
REMARK SMILES IDX 64 77 65 78 73 79 66 80 67 81 71 82 74 83 68 84 69 85 72 86
REMARK SMILES IDX 70 87 49 88 50 89 58 90 51 91 52 92 56 93 59 94 53 95 54 96
REMARK SMILES IDX 57 97 55 98
REMARK H PARENT 16 6 20 32 79 51 47 62
REMARK Flexibility Score: inf
ROOT
ATOM      1  C   UNL A   1      35.530  21.456  26.116  1.00  0.00     0.042 C 
ENDROOT
BRANCH   1   2
ATOM      2  C   UNL A   1      34.680  20.748  25.062  1.00  0.00     0.117 C 
BRANCH   2   3
ATOM      3  N   UNL A   1      33.269  20.754  25.416  1.00  0.00    -0.354 N 
ATOM      4  C   UNL A   1      32.162  21.371  24.917  1.00  0.00     0.242 C 
ATOM      5  O   UNL A   1      31.123  21.165  25.558  1.00  0.00    -0.273 OA
ATOM      6  H   UNL A   1      33.068  20.184  26.193  1.00  0.00     0.163 HD
BRANCH   4   7
ATOM      7  C   UNL A   1      32.126  22.298  23.669  1.00  0.00     0.178 C 
ATOM      8  C   UNL A   1      32.874  21.723  22.473  1.00  0.00     0.042 C 
BRANCH   7   9
ATOM      9  N   UNL A   1      32.395  23.702  24.036  1.00  0.00    -0.280 N 
ATOM     10  N   UNL A   1      30.410  29.078  24.242  1.00  0.00    -0.308 N 
ATOM     11  C   UNL A   1      30.361  27.686  24.028  1.00  0.00     0.260 C 
ATOM     12  C   UNL A   1      31.394  29.415  25.188  1.00  0.00     0.052 A 
ATOM     13  O   UNL A   1      29.676  27.083  23.232  1.00  0.00    -0.269 OA
ATOM     14  C   UNL A   1      31.435  27.110  24.922  1.00  0.00     0.069 C 
ATOM     15  C   UNL A   1      32.056  28.261  25.614  1.00  0.00     0.014 A 
ATOM     16  C   UNL A   1      31.763  30.667  25.662  1.00  0.00     0.028 A 
ATOM     17  C   UNL A   1      31.843  25.828  24.944  1.00  0.00     0.093 C 
ATOM     18  C   UNL A   1      33.114  28.364  26.502  1.00  0.00     0.026 A 
ATOM     19  C   UNL A   1      32.879  30.772  26.502  1.00  0.00     0.018 A 
ATOM     20  S   UNL A   1      33.346  25.342  25.663  1.00  0.00    -0.053 SA
ATOM     21  C   UNL A   1      31.326  24.585  24.264  1.00  0.00     0.267 C 
ATOM     22  C   UNL A   1      33.559  29.619  26.892  1.00  0.00     0.018 A 
ATOM     23  C   UNL A   1      33.612  24.226  24.361  1.00  0.00     0.149 C 
ATOM     24  O   UNL A   1      30.149  24.367  24.030  1.00  0.00    -0.268 OA
ATOM     25  Br  UNL A   1      35.157  29.698  27.884  1.00  0.00    -0.051 Br
ATOM     26  S   UNL A   1      35.101  24.077  23.637  1.00  0.00    -0.052 S 
BRANCH  10  27
ATOM     27  C   UNL A   1      29.572  30.029  23.534  1.00  0.00     0.122 C 
ATOM     28  C   UNL A   1      29.813  30.106  22.028  1.00  0.00     0.028 C 
ENDBRANCH  10  27
ENDBRANCH   7   9
ENDBRANCH   4   7
ENDBRANCH   2   3
ENDBRANCH   1   2
BRANCH   1  29
ATOM     29  C   UNL A   1      36.891  21.916  25.609  1.00  0.00     0.118 C 
BRANCH  29  30
ATOM     30  N   UNL A   1      37.935  20.922  25.819  1.00  0.00    -0.352 N 
ATOM     31  C   UNL A   1      39.257  21.057  26.183  1.00  0.00     0.251 C 
ATOM     32  H   UNL A   1      37.646  19.991  25.677  1.00  0.00     0.163 HD
ATOM     33  O   UNL A   1      39.995  20.076  26.127  1.00  0.00    -0.269 OA
BRANCH  31  34
ATOM     34  C   UNL A   1      39.815  22.362  26.613  1.00  0.00     0.039 A 
ATOM     35  C   UNL A   1      39.350  23.566  26.089  1.00  0.00     0.014 A 
ATOM     36  C   UNL A   1      40.804  22.388  27.606  1.00  0.00     0.014 A 
ATOM     37  C   UNL A   1      39.990  24.762  26.407  1.00  0.00     0.010 A 
ATOM     38  C   UNL A   1      41.376  23.603  28.006  1.00  0.00     0.010 A 
ATOM     39  C   UNL A   1      41.006  24.801  27.377  1.00  0.00    -0.014 A 
BRANCH  39  40
ATOM     40  C   UNL A   1      41.638  26.104  27.726  1.00  0.00     0.031 A 
ATOM     41  C   UNL A   1      43.018  26.459  27.234  1.00  0.00     0.074 A 
ATOM     42  C   UNL A   1      40.939  27.004  28.449  1.00  0.00     0.049 A 
ATOM     43  N   UNL A   1      43.712  27.552  27.441  1.00  0.00    -0.248 NA
ATOM     44  C   UNL A   1      43.716  25.462  26.406  1.00  0.00     0.031 C 
ATOM     45  C   UNL A   1      39.593  26.789  28.985  1.00  0.00     0.029 A 
ATOM     46  N   UNL A   1      41.245  28.287  28.831  1.00  0.00    -0.354 N 
ATOM     47  C   UNL A   1      44.927  27.366  26.795  1.00  0.00     0.074 A 
ATOM     48  C   UNL A   1      44.890  26.048  26.200  1.00  0.00     0.031 C 
ATOM     49  C   UNL A   1      39.164  27.919  29.564  1.00  0.00     0.029 A 
ATOM     50  C   UNL A   1      40.227  28.916  29.507  1.00  0.00     0.049 A 
ATOM     51  H   UNL A   1      42.110  28.716  28.639  1.00  0.00     0.167 HD
ATOM     52  C   UNL A   1      45.971  28.222  26.693  1.00  0.00     0.037 A 
ATOM     53  C   UNL A   1      40.155  30.154  30.034  1.00  0.00     0.037 A 
ATOM     54  C   UNL A   1      45.995  29.552  27.236  1.00  0.00     0.049 A 
ATOM     55  C   UNL A   1      41.337  31.074  29.914  1.00  0.00     0.074 A 
ATOM     56  C   UNL A   1      47.006  30.493  27.153  1.00  0.00     0.029 A 
ATOM     57  N   UNL A   1      44.958  30.135  27.945  1.00  0.00    -0.354 N 
ATOM     58  N   UNL A   1      42.476  30.877  29.301  1.00  0.00    -0.248 NA
ATOM     59  C   UNL A   1      41.225  32.385  30.570  1.00  0.00     0.031 C 
ATOM     60  C   UNL A   1      46.591  31.639  27.836  1.00  0.00     0.029 A 
ATOM     61  C   UNL A   1      45.309  31.422  28.315  1.00  0.00     0.049 A 
ATOM     62  H   UNL A   1      44.100  29.700  28.155  1.00  0.00     0.167 HD
ATOM     63  C   UNL A   1      43.213  32.038  29.483  1.00  0.00     0.074 A 
ATOM     64  C   UNL A   1      42.383  32.946  30.247  1.00  0.00     0.031 C 
ATOM     65  C   UNL A   1      44.469  32.321  29.061  1.00  0.00     0.037 A 
BRANCH  52  66
ATOM     66  C   UNL A   1      47.184  27.769  25.943  1.00  0.00     0.064 A 
ATOM     67  C   UNL A   1      48.285  27.234  26.622  1.00  0.00     0.173 A 
ATOM     68  C   UNL A   1      47.213  27.774  24.542  1.00  0.00     0.173 A 
ATOM     69  F   UNL A   1      48.269  27.154  27.961  1.00  0.00    -0.203 F 
ATOM     70  C   UNL A   1      49.400  26.771  25.927  1.00  0.00     0.198 A 
ATOM     71  C   UNL A   1      48.316  27.283  23.849  1.00  0.00     0.198 A 
ATOM     72  F   UNL A   1      46.158  28.224  23.847  1.00  0.00    -0.203 F 
ATOM     73  F   UNL A   1      50.459  26.292  26.596  1.00  0.00    -0.200 F 
ATOM     74  C   UNL A   1      49.416  26.798  24.541  1.00  0.00     0.200 A 
ATOM     75  F   UNL A   1      48.311  27.265  22.508  1.00  0.00    -0.200 F 
ATOM     76  F   UNL A   1      50.485  26.344  23.874  1.00  0.00    -0.200 F 
ENDBRANCH  52  66
BRANCH  53  77
ATOM     77  C   UNL A   1      38.908  30.589  30.714  1.00  0.00     0.064 A 
ATOM     78  C   UNL A   1      38.726  30.382  32.088  1.00  0.00     0.173 A 
ATOM     79  C   UNL A   1      37.888  31.252  30.014  1.00  0.00     0.173 A 
ATOM     80  F   UNL A   1      39.664  29.734  32.796  1.00  0.00    -0.203 F 
ATOM     81  C   UNL A   1      37.574  30.820  32.737  1.00  0.00     0.198 A 
ATOM     82  C   UNL A   1      36.749  31.715  30.668  1.00  0.00     0.198 A 
ATOM     83  F   UNL A   1      38.014  31.476  28.698  1.00  0.00    -0.203 F 
ATOM     84  F   UNL A   1      37.414  30.584  34.045  1.00  0.00    -0.200 F 
ATOM     85  C   UNL A   1      36.591  31.495  32.028  1.00  0.00     0.200 A 
ATOM     86  F   UNL A   1      35.810  32.383  29.984  1.00  0.00    -0.200 F 
ATOM     87  F   UNL A   1      35.491  31.932  32.656  1.00  0.00    -0.200 F 
ENDBRANCH  53  77
BRANCH  65  88
ATOM     88  C   UNL A   1      45.026  33.672  29.391  1.00  0.00     0.064 A 
ATOM     89  C   UNL A   1      45.802  33.880  30.539  1.00  0.00     0.173 A 
ATOM     90  C   UNL A   1      44.855  34.749  28.507  1.00  0.00     0.173 A 
ATOM     91  F   UNL A   1      45.987  32.884  31.419  1.00  0.00    -0.203 F 
ATOM     92  C   UNL A   1      46.376  35.122  30.799  1.00  0.00     0.198 A 
ATOM     93  C   UNL A   1      45.451  35.980  28.755  1.00  0.00     0.198 A 
ATOM     94  F   UNL A   1      44.130  34.595  27.388  1.00  0.00    -0.203 F 
ATOM     95  F   UNL A   1      47.090  35.307  31.918  1.00  0.00    -0.200 F 
ATOM     96  C   UNL A   1      46.209  36.166  29.902  1.00  0.00     0.200 A 
ATOM     97  F   UNL A   1      45.303  36.984  27.880  1.00  0.00    -0.200 F 
ATOM     98  F   UNL A   1      46.777  37.355  30.144  1.00  0.00    -0.200 F 
ENDBRANCH  65  88
ENDBRANCH  39  40
ENDBRANCH  31  34
ENDBRANCH  29  30
ENDBRANCH   1  29
TORSDOF 12
ENDMDL
