MODEL 1
REMARK VINA RESULT:     -12.2      0.000      0.000
REMARK SMILES CC[C@H](CNC(=O)[C@H]1CSc2ccccc21)C(=O)NCCCNC(=O)c1ccc(-c2c3nc(c(-c4c(F)c(F)c(F)c(F)c4F)c4ccc([nH]4)c(-c4c(F)c(F)c(F)c(F)c4F)c4nc(c(-c5c(F)c(F)c(F)c(F)c5F)c5ccc2[nH]5)C=C4)C=C3)cc1
REMARK SMILES IDX 20 1 19 2 17 3 18 4 3 6 2 7 1 8 4 9 5 10 6 11 7 13 8 14 9 15
REMARK SMILES IDX 16 16 10 17 11 18 15 19 12 20 14 21 13 22 21 23 22 24 23 25
REMARK SMILES IDX 24 26 25 28 26 29 27 30 88 31 28 32 87 33 29 34 30 35 31 36
REMARK SMILES IDX 81 37 32 38 86 39 80 40 82 41 33 42 85 43 79 44 78 45 34 47
REMARK SMILES IDX 66 48 46 49 65 50 47 51 50 52 64 53 83 54 48 55 49 56 63 58
REMARK SMILES IDX 84 59 51 60 35 61 36 62 44 63 37 64 38 65 42 66 45 67 39 68
REMARK SMILES IDX 40 69 43 70 41 71 67 72 68 73 76 74 69 75 70 76 74 77 77 78
REMARK SMILES IDX 71 79 72 80 75 81 73 82 52 83 53 84 61 85 54 86 55 87 59 88
REMARK SMILES IDX 62 89 56 90 57 91 60 92 58 93
REMARK H PARENT 19 5 5 12 23 27 82 46 50 57
REMARK Flexibility Score: inf
ROOT
ATOM      1  C   UNL A   1      33.093  26.673  25.192  1.00  0.00     0.117 C 
ENDROOT
BRANCH   1   2
ATOM      2  N   UNL A   1      33.589  26.697  23.829  1.00  0.00    -0.356 N 
ATOM      3  C   UNL A   1      33.006  26.507  22.621  1.00  0.00     0.224 C 
ATOM      4  O   UNL A   1      33.776  26.494  21.652  1.00  0.00    -0.275 OA
ATOM      5  H   UNL A   1      34.552  26.893  23.769  1.00  0.00     0.163 HD
BRANCH   3   6
ATOM      6  C   UNL A   1      31.505  26.305  22.381  1.00  0.00     0.097 C 
BRANCH   6   7
ATOM      7  C   UNL A   1      30.681  27.605  22.234  1.00  0.00     0.012 C 
ATOM      8  C   UNL A   1      29.528  27.819  23.207  1.00  0.00     0.005 C 
ENDBRANCH   6   7
BRANCH   6   9
ATOM      9  C   UNL A   1      30.850  25.149  23.164  1.00  0.00     0.129 C 
BRANCH   9  10
ATOM     10  N   UNL A   1      31.303  23.817  22.806  1.00  0.00    -0.355 N 
ATOM     11  C   UNL A   1      32.083  22.881  23.398  1.00  0.00     0.228 C 
ATOM     12  H   UNL A   1      30.963  23.526  21.929  1.00  0.00     0.163 HD
ATOM     13  O   UNL A   1      32.086  21.776  22.832  1.00  0.00    -0.274 OA
BRANCH  11  14
ATOM     14  C   UNL A   1      33.003  23.083  24.610  1.00  0.00     0.120 C 
ATOM     15  C   UNL A   1      32.672  22.513  25.989  1.00  0.00     0.093 C 
ATOM     16  C   UNL A   1      34.442  22.673  24.359  1.00  0.00    -0.021 A 
ATOM     17  S   UNL A   1      33.614  20.977  26.197  1.00  0.00    -0.125 SA
ATOM     18  C   UNL A   1      34.881  21.591  25.130  1.00  0.00     0.011 A 
ATOM     19  C   UNL A   1      35.329  23.321  23.504  1.00  0.00     0.006 A 
ATOM     20  C   UNL A   1      36.194  21.153  25.081  1.00  0.00     0.015 A 
ATOM     21  C   UNL A   1      36.657  22.892  23.454  1.00  0.00     0.000 A 
ATOM     22  C   UNL A   1      37.089  21.818  24.243  1.00  0.00     0.001 A 
ENDBRANCH  11  14
ENDBRANCH   9  10
ENDBRANCH   6   9
ENDBRANCH   3   6
ENDBRANCH   1   2
BRANCH   1  23
ATOM     23  C   UNL A   1      32.373  27.972  25.533  1.00  0.00     0.042 C 
BRANCH  23  24
ATOM     24  C   UNL A   1      33.092  29.229  25.060  1.00  0.00     0.118 C 
BRANCH  24  25
ATOM     25  N   UNL A   1      32.617  30.428  25.733  1.00  0.00    -0.352 N 
ATOM     26  C   UNL A   1      33.071  31.130  26.823  1.00  0.00     0.251 C 
ATOM     27  H   UNL A   1      31.809  30.815  25.324  1.00  0.00     0.163 HD
ATOM     28  O   UNL A   1      32.339  32.011  27.279  1.00  0.00    -0.269 OA
BRANCH  26  29
ATOM     29  C   UNL A   1      34.376  30.869  27.490  1.00  0.00     0.039 A 
ATOM     30  C   UNL A   1      35.312  31.866  27.755  1.00  0.00     0.014 A 
ATOM     31  C   UNL A   1      34.631  29.574  27.972  1.00  0.00     0.014 A 
ATOM     32  C   UNL A   1      36.535  31.553  28.352  1.00  0.00     0.010 A 
ATOM     33  C   UNL A   1      35.810  29.283  28.673  1.00  0.00     0.010 A 
ATOM     34  C   UNL A   1      36.795  30.264  28.845  1.00  0.00    -0.014 A 
BRANCH  34  35
ATOM     35  C   UNL A   1      38.065  30.007  29.583  1.00  0.00     0.031 A 
ATOM     36  C   UNL A   1      38.274  30.506  30.987  1.00  0.00     0.074 A 
ATOM     37  C   UNL A   1      39.024  29.258  28.998  1.00  0.00     0.049 A 
ATOM     38  N   UNL A   1      39.279  30.283  31.801  1.00  0.00    -0.248 NA
ATOM     39  C   UNL A   1      37.234  31.377  31.554  1.00  0.00     0.031 C 
ATOM     40  C   UNL A   1      38.965  28.740  27.630  1.00  0.00     0.029 A 
ATOM     41  N   UNL A   1      40.210  28.763  29.485  1.00  0.00    -0.354 N 
ATOM     42  C   UNL A   1      38.997  30.991  32.962  1.00  0.00     0.074 A 
ATOM     43  C   UNL A   1      37.746  31.681  32.740  1.00  0.00     0.031 C 
ATOM     44  C   UNL A   1      40.013  27.931  27.419  1.00  0.00     0.029 A 
ATOM     45  C   UNL A   1      40.852  27.917  28.612  1.00  0.00     0.049 A 
ATOM     46  H   UNL A   1      40.566  28.994  30.374  1.00  0.00     0.167 HD
ATOM     47  C   UNL A   1      39.707  31.044  34.114  1.00  0.00     0.037 A 
ATOM     48  C   UNL A   1      41.983  27.198  28.755  1.00  0.00     0.037 A 
ATOM     49  C   UNL A   1      40.935  30.332  34.352  1.00  0.00     0.049 A 
ATOM     50  C   UNL A   1      42.751  27.277  30.043  1.00  0.00     0.074 A 
ATOM     51  C   UNL A   1      41.703  30.301  35.504  1.00  0.00     0.029 A 
ATOM     52  N   UNL A   1      41.575  29.523  33.425  1.00  0.00    -0.354 N 
ATOM     53  N   UNL A   1      42.452  27.924  31.141  1.00  0.00    -0.248 NA
ATOM     54  C   UNL A   1      44.019  26.535  30.110  1.00  0.00     0.031 C 
ATOM     55  C   UNL A   1      42.824  29.503  35.264  1.00  0.00     0.029 A 
ATOM     56  C   UNL A   1      42.736  29.004  33.975  1.00  0.00     0.049 A 
ATOM     57  H   UNL A   1      41.252  29.345  32.513  1.00  0.00     0.167 HD
ATOM     58  C   UNL A   1      43.485  27.663  32.031  1.00  0.00     0.074 A 
ATOM     59  C   UNL A   1      44.412  26.784  31.352  1.00  0.00     0.031 C 
ATOM     60  C   UNL A   1      43.648  28.123  33.293  1.00  0.00     0.037 A 
BRANCH  47  61
ATOM     61  C   UNL A   1      39.173  31.895  35.228  1.00  0.00     0.064 A 
ATOM     62  C   UNL A   1      38.359  31.355  36.235  1.00  0.00     0.173 A 
ATOM     63  C   UNL A   1      39.551  33.242  35.339  1.00  0.00     0.173 A 
ATOM     64  F   UNL A   1      37.967  30.074  36.172  1.00  0.00    -0.203 F 
ATOM     65  C   UNL A   1      37.930  32.137  37.305  1.00  0.00     0.198 A 
ATOM     66  C   UNL A   1      39.141  34.014  36.423  1.00  0.00     0.198 A 
ATOM     67  F   UNL A   1      40.340  33.802  34.410  1.00  0.00    -0.203 F 
ATOM     68  F   UNL A   1      37.131  31.608  38.241  1.00  0.00    -0.200 F 
ATOM     69  C   UNL A   1      38.329  33.463  37.402  1.00  0.00     0.200 A 
ATOM     70  F   UNL A   1      39.540  35.290  36.525  1.00  0.00    -0.200 F 
ATOM     71  F   UNL A   1      37.930  34.208  38.443  1.00  0.00    -0.200 F 
ENDBRANCH  47  61
BRANCH  48  72
ATOM     72  C   UNL A   1      42.433  26.312  27.649  1.00  0.00     0.064 A 
ATOM     73  C   UNL A   1      43.361  26.765  26.701  1.00  0.00     0.173 A 
ATOM     74  C   UNL A   1      41.978  24.991  27.538  1.00  0.00     0.173 A 
ATOM     75  F   UNL A   1      43.809  28.028  26.754  1.00  0.00    -0.203 F 
ATOM     76  C   UNL A   1      43.817  25.929  25.685  1.00  0.00     0.198 A 
ATOM     77  C   UNL A   1      42.454  24.148  26.537  1.00  0.00     0.198 A 
ATOM     78  F   UNL A   1      41.091  24.510  28.422  1.00  0.00    -0.203 F 
ATOM     79  F   UNL A   1      44.685  26.394  24.776  1.00  0.00    -0.200 F 
ATOM     80  C   UNL A   1      43.371  24.618  25.610  1.00  0.00     0.200 A 
ATOM     81  F   UNL A   1      42.032  22.877  26.478  1.00  0.00    -0.200 F 
ATOM     82  F   UNL A   1      43.824  23.809  24.642  1.00  0.00    -0.200 F 
ENDBRANCH  48  72
BRANCH  60  83
ATOM     83  C   UNL A   1      44.868  27.684  34.044  1.00  0.00     0.064 A 
ATOM     84  C   UNL A   1      46.037  28.457  34.046  1.00  0.00     0.173 A 
ATOM     85  C   UNL A   1      44.834  26.535  34.849  1.00  0.00     0.173 A 
ATOM     86  F   UNL A   1      46.119  29.557  33.283  1.00  0.00    -0.203 F 
ATOM     87  C   UNL A   1      47.130  28.096  34.829  1.00  0.00     0.198 A 
ATOM     88  C   UNL A   1      45.921  26.189  35.647  1.00  0.00     0.198 A 
ATOM     89  F   UNL A   1      43.735  25.768  34.885  1.00  0.00    -0.203 F 
ATOM     90  F   UNL A   1      48.244  28.842  34.806  1.00  0.00    -0.200 F 
ATOM     91  C   UNL A   1      47.067  26.970  35.636  1.00  0.00     0.200 A 
ATOM     92  F   UNL A   1      45.854  25.108  36.435  1.00  0.00    -0.200 F 
ATOM     93  F   UNL A   1      48.112  26.637  36.407  1.00  0.00    -0.200 F 
ENDBRANCH  60  83
ENDBRANCH  34  35
ENDBRANCH  26  29
ENDBRANCH  24  25
ENDBRANCH  23  24
ENDBRANCH   1  23
TORSDOF 14
ENDMDL
MODEL 2
REMARK VINA RESULT:     -12.1      4.042      9.309
REMARK SMILES CC[C@H](CNC(=O)[C@H]1CSc2ccccc21)C(=O)NCCCNC(=O)c1ccc(-c2c3nc(c(-c4c(F)c(F)c(F)c(F)c4F)c4ccc([nH]4)c(-c4c(F)c(F)c(F)c(F)c4F)c4nc(c(-c5c(F)c(F)c(F)c(F)c5F)c5ccc2[nH]5)C=C4)C=C3)cc1
REMARK SMILES IDX 20 1 19 2 17 3 18 4 3 6 2 7 1 8 4 9 5 10 6 11 7 13 8 14 9 15
REMARK SMILES IDX 16 16 10 17 11 18 15 19 12 20 14 21 13 22 21 23 22 24 23 25
REMARK SMILES IDX 24 26 25 28 26 29 27 30 88 31 28 32 87 33 29 34 30 35 31 36
REMARK SMILES IDX 81 37 32 38 86 39 80 40 82 41 33 42 85 43 79 44 78 45 34 47
REMARK SMILES IDX 66 48 46 49 65 50 47 51 50 52 64 53 83 54 48 55 49 56 63 58
REMARK SMILES IDX 84 59 51 60 35 61 36 62 44 63 37 64 38 65 42 66 45 67 39 68
REMARK SMILES IDX 40 69 43 70 41 71 67 72 68 73 76 74 69 75 70 76 74 77 77 78
REMARK SMILES IDX 71 79 72 80 75 81 73 82 52 83 53 84 61 85 54 86 55 87 59 88
REMARK SMILES IDX 62 89 56 90 57 91 60 92 58 93
REMARK H PARENT 19 5 5 12 23 27 82 46 50 57
REMARK Flexibility Score: inf
ROOT
ATOM      1  C   UNL A   1      34.836  22.358  23.820  1.00  0.00     0.117 C 
ENDROOT
BRANCH   1   2
ATOM      2  N   UNL A   1      33.715  21.490  24.125  1.00  0.00    -0.356 N 
ATOM      3  C   UNL A   1      32.441  21.719  24.525  1.00  0.00     0.224 C 
ATOM      4  O   UNL A   1      31.779  20.711  24.801  1.00  0.00    -0.275 OA
ATOM      5  H   UNL A   1      33.922  20.534  24.017  1.00  0.00     0.163 HD
BRANCH   3   6
ATOM      6  C   UNL A   1      31.787  23.099  24.662  1.00  0.00     0.097 C 
BRANCH   6   7
ATOM      7  C   UNL A   1      31.130  23.383  26.032  1.00  0.00     0.012 C 
ATOM      8  C   UNL A   1      32.043  23.444  27.250  1.00  0.00     0.005 C 
ENDBRANCH   6   7
BRANCH   6   9
ATOM      9  C   UNL A   1      31.046  23.617  23.412  1.00  0.00     0.129 C 
BRANCH   9  10
ATOM     10  N   UNL A   1      31.896  24.089  22.334  1.00  0.00    -0.355 N 
ATOM     11  C   UNL A   1      32.456  25.279  22.009  1.00  0.00     0.228 C 
ATOM     12  H   UNL A   1      32.117  23.378  21.689  1.00  0.00     0.163 HD
ATOM     13  O   UNL A   1      33.278  25.227  21.080  1.00  0.00    -0.274 OA
BRANCH  11  14
ATOM     14  C   UNL A   1      32.109  26.652  22.602  1.00  0.00     0.120 C 
ATOM     15  C   UNL A   1      30.754  27.320  22.375  1.00  0.00     0.093 C 
ATOM     16  C   UNL A   1      32.338  26.745  24.099  1.00  0.00    -0.021 A 
ATOM     17  S   UNL A   1      29.731  27.017  23.840  1.00  0.00    -0.125 SA
ATOM     18  C   UNL A   1      31.176  26.942  24.853  1.00  0.00     0.011 A 
ATOM     19  C   UNL A   1      33.579  26.720  24.730  1.00  0.00     0.006 A 
ATOM     20  C   UNL A   1      31.227  27.134  26.224  1.00  0.00     0.015 A 
ATOM     21  C   UNL A   1      33.641  26.922  26.111  1.00  0.00     0.000 A 
ATOM     22  C   UNL A   1      32.472  27.134  26.853  1.00  0.00     0.001 A 
ENDBRANCH  11  14
ENDBRANCH   9  10
ENDBRANCH   6   9
ENDBRANCH   3   6
ENDBRANCH   1   2
BRANCH   1  23
ATOM     23  C   UNL A   1      35.147  23.282  24.992  1.00  0.00     0.042 C 
BRANCH  23  24
ATOM     24  C   UNL A   1      35.646  22.563  26.239  1.00  0.00     0.118 C 
BRANCH  24  25
ATOM     25  N   UNL A   1      36.644  21.549  25.935  1.00  0.00    -0.352 N 
ATOM     26  C   UNL A   1      38.013  21.586  25.836  1.00  0.00     0.251 C 
ATOM     27  H   UNL A   1      36.261  20.658  25.766  1.00  0.00     0.163 HD
ATOM     28  O   UNL A   1      38.579  20.594  25.370  1.00  0.00    -0.269 OA
BRANCH  26  29
ATOM     29  C   UNL A   1      38.841  22.757  26.239  1.00  0.00     0.039 A 
ATOM     30  C   UNL A   1      38.573  24.060  25.828  1.00  0.00     0.014 A 
ATOM     31  C   UNL A   1      39.879  22.551  27.164  1.00  0.00     0.014 A 
ATOM     32  C   UNL A   1      39.408  25.112  26.211  1.00  0.00     0.010 A 
ATOM     33  C   UNL A   1      40.647  23.625  27.638  1.00  0.00     0.010 A 
ATOM     34  C   UNL A   1      40.441  24.918  27.143  1.00  0.00    -0.014 A 
BRANCH  34  35
ATOM     35  C   UNL A   1      41.229  26.095  27.613  1.00  0.00     0.031 A 
ATOM     36  C   UNL A   1      42.643  26.329  27.155  1.00  0.00     0.074 A 
ATOM     37  C   UNL A   1      40.637  26.999  28.421  1.00  0.00     0.049 A 
ATOM     38  N   UNL A   1      43.426  27.354  27.392  1.00  0.00    -0.248 NA
ATOM     39  C   UNL A   1      43.268  25.281  26.336  1.00  0.00     0.031 C 
ATOM     40  C   UNL A   1      39.284  26.877  28.968  1.00  0.00     0.029 A 
ATOM     41  N   UNL A   1      41.070  28.217  28.888  1.00  0.00    -0.354 N 
ATOM     42  C   UNL A   1      44.632  27.068  26.765  1.00  0.00     0.074 A 
ATOM     43  C   UNL A   1      44.494  25.759  26.165  1.00  0.00     0.031 C 
ATOM     44  C   UNL A   1      38.965  28.007  29.615  1.00  0.00     0.029 A 
ATOM     45  C   UNL A   1      40.109  28.913  29.583  1.00  0.00     0.049 A 
ATOM     46  H   UNL A   1      41.982  28.558  28.741  1.00  0.00     0.167 HD
ATOM     47  C   UNL A   1      45.746  27.835  26.680  1.00  0.00     0.037 A 
ATOM     48  C   UNL A   1      40.135  30.146  30.126  1.00  0.00     0.037 A 
ATOM     49  C   UNL A   1      45.877  29.152  27.247  1.00  0.00     0.049 A 
ATOM     50  C   UNL A   1      41.383  30.974  30.019  1.00  0.00     0.074 A 
ATOM     51  C   UNL A   1      46.958  30.014  27.179  1.00  0.00     0.029 A 
ATOM     52  N   UNL A   1      44.896  29.799  27.983  1.00  0.00    -0.354 N 
ATOM     53  N   UNL A   1      42.501  30.701  29.394  1.00  0.00    -0.248 NA
ATOM     54  C   UNL A   1      41.379  32.277  30.702  1.00  0.00     0.031 C 
ATOM     55  C   UNL A   1      46.645  31.168  27.901  1.00  0.00     0.029 A 
ATOM     56  C   UNL A   1      45.355  31.043  28.388  1.00  0.00     0.049 A 
ATOM     57  H   UNL A   1      44.007  29.430  28.186  1.00  0.00     0.167 HD
ATOM     58  C   UNL A   1      43.329  31.796  29.598  1.00  0.00     0.074 A 
ATOM     59  C   UNL A   1      42.580  32.748  30.390  1.00  0.00     0.031 C 
ATOM     60  C   UNL A   1      44.599  31.985  29.170  1.00  0.00     0.037 A 
BRANCH  47  61
ATOM     61  C   UNL A   1      46.924  27.282  25.936  1.00  0.00     0.064 A 
ATOM     62  C   UNL A   1      47.105  27.529  24.567  1.00  0.00     0.173 A 
ATOM     63  C   UNL A   1      47.927  26.572  26.615  1.00  0.00     0.173 A 
ATOM     64  F   UNL A   1      46.174  28.199  23.872  1.00  0.00    -0.203 F 
ATOM     65  C   UNL A   1      48.240  27.073  23.901  1.00  0.00     0.198 A 
ATOM     66  C   UNL A   1      49.071  26.140  25.951  1.00  0.00     0.198 A 
ATOM     67  F   UNL A   1      47.807  26.321  27.927  1.00  0.00    -0.203 F 
ATOM     68  F   UNL A   1      48.380  27.298  22.588  1.00  0.00    -0.200 F 
ATOM     69  C   UNL A   1      49.226  26.387  24.596  1.00  0.00     0.200 A 
ATOM     70  F   UNL A   1      50.032  25.491  26.626  1.00  0.00    -0.200 F 
ATOM     71  F   UNL A   1      50.327  25.966  23.957  1.00  0.00    -0.200 F 
ENDBRANCH  47  61
BRANCH  48  72
ATOM     72  C   UNL A   1      38.917  30.680  30.792  1.00  0.00     0.064 A 
ATOM     73  C   UNL A   1      37.902  31.292  30.043  1.00  0.00     0.173 A 
ATOM     74  C   UNL A   1      38.725  30.556  32.175  1.00  0.00     0.173 A 
ATOM     75  F   UNL A   1      38.050  31.451  28.720  1.00  0.00    -0.203 F 
ATOM     76  C   UNL A   1      36.741  31.759  30.654  1.00  0.00     0.198 A 
ATOM     77  C   UNL A   1      37.552  31.000  32.780  1.00  0.00     0.198 A 
ATOM     78  F   UNL A   1      39.666  29.976  32.934  1.00  0.00    -0.203 F 
ATOM     79  F   UNL A   1      35.796  32.362  29.919  1.00  0.00    -0.200 F 
ATOM     80  C   UNL A   1      36.562  31.603  32.020  1.00  0.00     0.200 A 
ATOM     81  F   UNL A   1      37.377  30.833  34.098  1.00  0.00    -0.200 F 
ATOM     82  F   UNL A   1      35.436  32.036  32.604  1.00  0.00    -0.200 F 
ENDBRANCH  48  72
BRANCH  60  83
ATOM     83  C   UNL A   1      45.274  33.272  29.535  1.00  0.00     0.064 A 
ATOM     84  C   UNL A   1      46.115  33.359  30.652  1.00  0.00     0.173 A 
ATOM     85  C   UNL A   1      45.160  34.397  28.704  1.00  0.00     0.173 A 
ATOM     86  F   UNL A   1      46.246  32.313  31.481  1.00  0.00    -0.203 F 
ATOM     87  C   UNL A   1      46.821  34.529  30.925  1.00  0.00     0.198 A 
ATOM     88  C   UNL A   1      45.882  35.557  28.968  1.00  0.00     0.198 A 
ATOM     89  F   UNL A   1      44.372  34.358  27.619  1.00  0.00    -0.203 F 
ATOM     90  F   UNL A   1      47.610  34.596  32.007  1.00  0.00    -0.200 F 
ATOM     91  C   UNL A   1      46.712  35.621  30.078  1.00  0.00     0.200 A 
ATOM     92  F   UNL A   1      45.787  36.607  28.142  1.00  0.00    -0.200 F 
ATOM     93  F   UNL A   1      47.410  36.737  30.329  1.00  0.00    -0.200 F 
ENDBRANCH  60  83
ENDBRANCH  34  35
ENDBRANCH  26  29
ENDBRANCH  24  25
ENDBRANCH  23  24
ENDBRANCH   1  23
TORSDOF 14
ENDMDL
MODEL 3
REMARK VINA RESULT:     -12.0      1.354      2.364
REMARK SMILES CC[C@H](CNC(=O)[C@H]1CSc2ccccc21)C(=O)NCCCNC(=O)c1ccc(-c2c3nc(c(-c4c(F)c(F)c(F)c(F)c4F)c4ccc([nH]4)c(-c4c(F)c(F)c(F)c(F)c4F)c4nc(c(-c5c(F)c(F)c(F)c(F)c5F)c5ccc2[nH]5)C=C4)C=C3)cc1
REMARK SMILES IDX 20 1 19 2 17 3 18 4 3 6 2 7 1 8 4 9 5 10 6 11 7 13 8 14 9 15
REMARK SMILES IDX 16 16 10 17 11 18 15 19 12 20 14 21 13 22 21 23 22 24 23 25
REMARK SMILES IDX 24 26 25 28 26 29 27 30 88 31 28 32 87 33 29 34 30 35 31 36
REMARK SMILES IDX 81 37 32 38 86 39 80 40 82 41 33 42 85 43 79 44 78 45 34 47
REMARK SMILES IDX 66 48 46 49 65 50 47 51 50 52 64 53 83 54 48 55 49 56 63 58
REMARK SMILES IDX 84 59 51 60 35 61 36 62 44 63 37 64 38 65 42 66 45 67 39 68
REMARK SMILES IDX 40 69 43 70 41 71 67 72 68 73 76 74 69 75 70 76 74 77 77 78
REMARK SMILES IDX 71 79 72 80 75 81 73 82 52 83 53 84 61 85 54 86 55 87 59 88
REMARK SMILES IDX 62 89 56 90 57 91 60 92 58 93
REMARK H PARENT 19 5 5 12 23 27 82 46 50 57
REMARK Flexibility Score: inf
ROOT
ATOM      1  C   UNL A   1      31.641  27.967  26.611  1.00  0.00     0.117 C 
ENDROOT
BRANCH   1   2
ATOM      2  N   UNL A   1      30.965  26.704  26.843  1.00  0.00    -0.356 N 
ATOM      3  C   UNL A   1      30.391  25.791  26.024  1.00  0.00     0.224 C 
ATOM      4  O   UNL A   1      29.799  24.863  26.590  1.00  0.00    -0.275 OA
ATOM      5  H   UNL A   1      30.913  26.459  27.795  1.00  0.00     0.163 HD
BRANCH   3   6
ATOM      6  C   UNL A   1      30.417  25.831  24.492  1.00  0.00     0.097 C 
BRANCH   6   7
ATOM      7  C   UNL A   1      29.270  26.633  23.835  1.00  0.00     0.012 C 
ATOM      8  C   UNL A   1      29.589  28.040  23.343  1.00  0.00     0.005 C 
ENDBRANCH   6   7
BRANCH   6   9
ATOM      9  C   UNL A   1      30.841  24.523  23.794  1.00  0.00     0.129 C 
BRANCH   9  10
ATOM     10  N   UNL A   1      30.712  23.318  24.593  1.00  0.00    -0.355 N 
ATOM     11  C   UNL A   1      31.511  22.257  24.859  1.00  0.00     0.228 C 
ATOM     12  H   UNL A   1      29.842  23.260  25.051  1.00  0.00     0.163 HD
ATOM     13  O   UNL A   1      31.092  21.504  25.752  1.00  0.00    -0.274 OA
BRANCH  11  14
ATOM     14  C   UNL A   1      32.797  21.865  24.116  1.00  0.00     0.120 C 
ATOM     15  C   UNL A   1      34.171  22.387  24.533  1.00  0.00     0.093 C 
ATOM     16  C   UNL A   1      32.983  20.366  23.968  1.00  0.00    -0.021 A 
ATOM     17  S   UNL A   1      34.979  21.100  25.522  1.00  0.00    -0.125 SA
ATOM     18  C   UNL A   1      34.090  19.848  24.649  1.00  0.00     0.011 A 
ATOM     19  C   UNL A   1      32.201  19.529  23.176  1.00  0.00     0.006 A 
ATOM     20  C   UNL A   1      34.446  18.514  24.542  1.00  0.00     0.015 A 
ATOM     21  C   UNL A   1      32.557  18.184  23.055  1.00  0.00     0.000 A 
ATOM     22  C   UNL A   1      33.677  17.681  23.729  1.00  0.00     0.001 A 
ENDBRANCH  11  14
ENDBRANCH   9  10
ENDBRANCH   6   9
ENDBRANCH   3   6
ENDBRANCH   1   2
BRANCH   1  23
ATOM     23  C   UNL A   1      32.921  27.762  25.810  1.00  0.00     0.042 C 
BRANCH  23  24
ATOM     24  C   UNL A   1      33.398  29.003  25.066  1.00  0.00     0.118 C 
BRANCH  24  25
ATOM     25  N   UNL A   1      32.859  30.231  25.630  1.00  0.00    -0.352 N 
ATOM     26  C   UNL A   1      33.203  30.987  26.723  1.00  0.00     0.251 C 
ATOM     27  H   UNL A   1      32.094  30.592  25.126  1.00  0.00     0.163 HD
ATOM     28  O   UNL A   1      32.430  31.886  27.062  1.00  0.00    -0.269 OA
BRANCH  26  29
ATOM     29  C   UNL A   1      34.438  30.767  27.526  1.00  0.00     0.039 A 
ATOM     30  C   UNL A   1      34.778  29.538  28.084  1.00  0.00     0.014 A 
ATOM     31  C   UNL A   1      35.358  31.825  27.635  1.00  0.00     0.014 A 
ATOM     32  C   UNL A   1      35.934  29.404  28.858  1.00  0.00     0.010 A 
ATOM     33  C   UNL A   1      36.573  31.658  28.316  1.00  0.00     0.010 A 
ATOM     34  C   UNL A   1      36.863  30.452  28.965  1.00  0.00    -0.014 A 
BRANCH  34  35
ATOM     35  C   UNL A   1      38.140  30.221  29.701  1.00  0.00     0.031 A 
ATOM     36  C   UNL A   1      38.331  30.700  31.115  1.00  0.00     0.074 A 
ATOM     37  C   UNL A   1      39.123  29.514  29.104  1.00  0.00     0.049 A 
ATOM     38  N   UNL A   1      39.340  30.493  31.926  1.00  0.00    -0.248 NA
ATOM     39  C   UNL A   1      37.262  31.527  31.695  1.00  0.00     0.031 C 
ATOM     40  C   UNL A   1      39.083  29.021  27.726  1.00  0.00     0.029 A 
ATOM     41  N   UNL A   1      40.323  29.048  29.585  1.00  0.00    -0.354 N 
ATOM     42  C   UNL A   1      39.034  31.169  33.100  1.00  0.00     0.074 A 
ATOM     43  C   UNL A   1      37.762  31.824  32.888  1.00  0.00     0.031 C 
ATOM     44  C   UNL A   1      40.156  28.249  27.502  1.00  0.00     0.029 A 
ATOM     45  C   UNL A   1      40.993  28.239  28.698  1.00  0.00     0.049 A 
ATOM     46  H   UNL A   1      40.670  29.273  30.479  1.00  0.00     0.167 HD
ATOM     47  C   UNL A   1      39.740  31.223  34.255  1.00  0.00     0.037 A 
ATOM     48  C   UNL A   1      42.146  27.553  28.829  1.00  0.00     0.037 A 
ATOM     49  C   UNL A   1      40.990  30.546  34.482  1.00  0.00     0.049 A 
ATOM     50  C   UNL A   1      42.909  27.631  30.120  1.00  0.00     0.074 A 
ATOM     51  C   UNL A   1      41.755  30.517  35.635  1.00  0.00     0.029 A 
ATOM     52  N   UNL A   1      41.656  29.775  33.541  1.00  0.00    -0.354 N 
ATOM     53  N   UNL A   1      42.587  28.248  31.230  1.00  0.00    -0.248 NA
ATOM     54  C   UNL A   1      44.199  26.929  30.176  1.00  0.00     0.031 C 
ATOM     55  C   UNL A   1      42.902  29.759  35.383  1.00  0.00     0.029 A 
ATOM     56  C   UNL A   1      42.832  29.282  34.084  1.00  0.00     0.049 A 
ATOM     57  H   UNL A   1      41.340  29.605  32.625  1.00  0.00     0.167 HD
ATOM     58  C   UNL A   1      43.626  28.003  32.117  1.00  0.00     0.074 A 
ATOM     59  C   UNL A   1      44.582  27.166  31.424  1.00  0.00     0.031 C 
ATOM     60  C   UNL A   1      43.772  28.443  33.388  1.00  0.00     0.037 A 
BRANCH  47  61
ATOM     61  C   UNL A   1      39.178  32.036  35.383  1.00  0.00     0.064 A 
ATOM     62  C   UNL A   1      38.396  31.448  36.389  1.00  0.00     0.173 A 
ATOM     63  C   UNL A   1      39.496  33.397  35.509  1.00  0.00     0.173 A 
ATOM     64  F   UNL A   1      38.061  30.151  36.313  1.00  0.00    -0.203 F 
ATOM     65  C   UNL A   1      37.941  32.196  37.472  1.00  0.00     0.198 A 
ATOM     66  C   UNL A   1      39.061  34.136  36.605  1.00  0.00     0.198 A 
ATOM     67  F   UNL A   1      40.252  34.003  34.581  1.00  0.00    -0.203 F 
ATOM     68  F   UNL A   1      37.174  31.620  38.407  1.00  0.00    -0.200 F 
ATOM     69  C   UNL A   1      38.282  33.537  37.583  1.00  0.00     0.200 A 
ATOM     70  F   UNL A   1      39.403  35.427  36.721  1.00  0.00    -0.200 F 
ATOM     71  F   UNL A   1      37.858  34.250  38.636  1.00  0.00    -0.200 F 
ENDBRANCH  47  61
BRANCH  48  72
ATOM     72  C   UNL A   1      42.625  26.703  27.708  1.00  0.00     0.064 A 
ATOM     73  C   UNL A   1      42.128  25.404  27.531  1.00  0.00     0.173 A 
ATOM     74  C   UNL A   1      43.555  27.180  26.773  1.00  0.00     0.173 A 
ATOM     75  F   UNL A   1      41.253  24.897  28.411  1.00  0.00    -0.203 F 
ATOM     76  C   UNL A   1      42.542  24.616  26.459  1.00  0.00     0.198 A 
ATOM     77  C   UNL A   1      43.948  26.401  25.688  1.00  0.00     0.198 A 
ATOM     78  F   UNL A   1      44.058  28.417  26.898  1.00  0.00    -0.203 F 
ATOM     79  F   UNL A   1      42.071  23.369  26.326  1.00  0.00    -0.200 F 
ATOM     80  C   UNL A   1      43.444  25.118  25.533  1.00  0.00     0.200 A 
ATOM     81  F   UNL A   1      44.808  26.895  24.788  1.00  0.00    -0.200 F 
ATOM     82  F   UNL A   1      43.829  24.366  24.494  1.00  0.00    -0.200 F 
ENDBRANCH  48  72
BRANCH  60  83
ATOM     83  C   UNL A   1      45.005  28.029  34.134  1.00  0.00     0.064 A 
ATOM     84  C   UNL A   1      45.052  26.825  34.847  1.00  0.00     0.173 A 
ATOM     85  C   UNL A   1      46.179  28.794  34.048  1.00  0.00     0.173 A 
ATOM     86  F   UNL A   1      43.952  26.067  34.965  1.00  0.00    -0.203 F 
ATOM     87  C   UNL A   1      46.233  26.398  35.450  1.00  0.00     0.198 A 
ATOM     88  C   UNL A   1      47.362  28.354  34.634  1.00  0.00     0.198 A 
ATOM     89  F   UNL A   1      46.183  29.951  33.370  1.00  0.00    -0.203 F 
ATOM     90  F   UNL A   1      46.253  25.248  36.139  1.00  0.00    -0.200 F 
ATOM     91  C   UNL A   1      47.388  27.156  35.333  1.00  0.00     0.200 A 
ATOM     92  F   UNL A   1      48.480  29.081  34.510  1.00  0.00    -0.200 F 
ATOM     93  F   UNL A   1      48.529  26.732  35.894  1.00  0.00    -0.200 F 
ENDBRANCH  60  83
ENDBRANCH  34  35
ENDBRANCH  26  29
ENDBRANCH  24  25
ENDBRANCH  23  24
ENDBRANCH   1  23
TORSDOF 14
ENDMDL
