MODEL 1
REMARK VINA RESULT:     -13.7      0.000      0.000
REMARK SMILES O=C(C[C@H]1C(=O)N[NH+]=C2c3ccc(F)cc3N=CN21)NCCCNC(=O)c1ccc(-c2c3nc(c(-c4c(F)c(F)c(F)c(F)c4F)c4ccc([nH]4)c(-c4c(F)c(F)c(F)c(F)c4F)c4nc(c(-c5c(F)c(F)c(F)c(F)c5F)c5ccc2[nH]5)C=C4)C=C3)cc1
REMARK SMILES IDX 22 1 21 2 20 3 1 4 2 5 3 7 4 8 5 9 19 10 6 11 7 12 9 13
REMARK SMILES IDX 18 14 8 15 10 17 17 18 11 20 16 21 12 22 15 23 13 24 14 25
REMARK SMILES IDX 23 26 24 27 25 28 26 30 27 31 28 32 89 33 29 34 88 35 30 36
REMARK SMILES IDX 31 37 32 38 82 39 33 40 87 41 81 42 83 43 34 44 86 45 80 46
REMARK SMILES IDX 79 47 35 49 67 50 47 51 66 52 48 53 51 54 65 55 84 56 49 57
REMARK SMILES IDX 50 58 64 60 85 61 52 62 36 63 37 64 45 65 38 66 39 67 43 68
REMARK SMILES IDX 46 69 40 70 41 71 44 72 42 73 68 74 69 75 77 76 70 77 71 78
REMARK SMILES IDX 75 79 78 80 72 81 73 82 76 83 74 84 53 85 54 86 62 87 55 88
REMARK SMILES IDX 56 89 60 90 63 91 57 92 58 93 61 94 59 95
REMARK H PARENT 20 6 7 16 8 19 24 29 83 48 51 59
REMARK Flexibility Score: inf
ROOT
ATOM      1  C   UNL A   1      32.383  29.530  25.220  1.00  0.00     0.042 C 
ENDROOT
BRANCH   1   2
ATOM      2  C   UNL A   1      31.045  28.914  24.824  1.00  0.00     0.117 C 
BRANCH   2   3
ATOM      3  N   UNL A   1      31.091  27.479  24.621  1.00  0.00    -0.356 N 
ATOM      4  O   UNL A   1      30.739  26.952  26.818  1.00  0.00    -0.275 OA
ATOM      5  C   UNL A   1      30.879  26.596  25.654  1.00  0.00     0.224 C 
ATOM      6  H   UNL A   1      31.278  27.128  23.720  1.00  0.00     0.163 HD
BRANCH   5   7
ATOM      7  C   UNL A   1      30.864  25.143  25.242  1.00  0.00     0.160 C 
BRANCH   7   8
ATOM      8  C   UNL A   1      31.718  24.266  26.158  1.00  0.00     0.284 C 
ATOM      9  C   UNL A   1      30.877  23.112  26.683  1.00  0.00     0.300 C 
ATOM     10  N   UNL A   1      32.991  23.837  25.556  1.00  0.00    -0.203 N 
ATOM     11  O   UNL A   1      29.924  23.300  27.440  1.00  0.00    -0.267 OA
ATOM     12  N   UNL A   1      31.207  21.858  26.243  1.00  0.00    -0.193 N 
ATOM     13  C   UNL A   1      33.237  22.475  25.441  1.00  0.00     0.309 C 
ATOM     14  C   UNL A   1      33.978  24.763  25.301  1.00  0.00     0.317 C 
ATOM     15  N   UNL A   1      32.397  21.517  25.691  1.00  0.00    -0.169 N 
ATOM     16  H   UNL A   1      30.528  21.150  26.336  1.00  0.00     0.216 HD
ATOM     17  C   UNL A   1      34.644  22.097  25.108  1.00  0.00     0.092 A 
ATOM     18  N   UNL A   1      35.214  24.509  25.015  1.00  0.00    -0.216 NA
ATOM     19  H   UNL A   1      32.616  20.579  25.487  1.00  0.00     0.340 HD
ATOM     20  C   UNL A   1      35.051  20.756  25.115  1.00  0.00     0.022 A 
ATOM     21  C   UNL A   1      35.580  23.145  25.008  1.00  0.00     0.085 A 
ATOM     22  C   UNL A   1      36.410  20.454  25.093  1.00  0.00     0.040 A 
ATOM     23  C   UNL A   1      36.938  22.821  24.977  1.00  0.00     0.068 A 
ATOM     24  C   UNL A   1      37.339  21.488  25.045  1.00  0.00     0.125 A 
ATOM     25  F   UNL A   1      38.645  21.196  25.097  1.00  0.00    -0.207 F 
ENDBRANCH   7   8
ENDBRANCH   5   7
ENDBRANCH   2   3
ENDBRANCH   1   2
BRANCH   1  26
ATOM     26  C   UNL A   1      32.502  29.934  26.683  1.00  0.00     0.118 C 
BRANCH  26  27
ATOM     27  N   UNL A   1      32.440  31.371  26.908  1.00  0.00    -0.352 N 
ATOM     28  C   UNL A   1      33.354  32.226  27.485  1.00  0.00     0.251 C 
ATOM     29  H   UNL A   1      31.611  31.803  26.596  1.00  0.00     0.163 HD
ATOM     30  O   UNL A   1      33.064  33.402  27.649  1.00  0.00    -0.269 OA
BRANCH  28  31
ATOM     31  C   UNL A   1      34.669  31.721  27.950  1.00  0.00     0.039 A 
ATOM     32  C   UNL A   1      34.852  30.387  28.313  1.00  0.00     0.014 A 
ATOM     33  C   UNL A   1      35.745  32.613  28.025  1.00  0.00     0.014 A 
ATOM     34  C   UNL A   1      36.038  29.995  28.926  1.00  0.00     0.010 A 
ATOM     35  C   UNL A   1      36.970  32.194  28.559  1.00  0.00     0.010 A 
ATOM     36  C   UNL A   1      37.108  30.895  29.069  1.00  0.00    -0.014 A 
BRANCH  36  37
ATOM     37  C   UNL A   1      38.339  30.453  29.778  1.00  0.00     0.031 A 
ATOM     38  C   UNL A   1      38.613  30.889  31.194  1.00  0.00     0.074 A 
ATOM     39  C   UNL A   1      39.173  29.585  29.173  1.00  0.00     0.049 A 
ATOM     40  N   UNL A   1      39.592  30.536  31.992  1.00  0.00    -0.248 NA
ATOM     41  C   UNL A   1      37.673  31.847  31.795  1.00  0.00     0.031 C 
ATOM     42  C   UNL A   1      39.017  29.086  27.807  1.00  0.00     0.029 A 
ATOM     43  N   UNL A   1      40.292  28.939  29.638  1.00  0.00    -0.354 N 
ATOM     44  C   UNL A   1      39.390  31.233  33.176  1.00  0.00     0.074 A 
ATOM     45  C   UNL A   1      38.218  32.059  32.985  1.00  0.00     0.031 C 
ATOM     46  C   UNL A   1      39.960  28.162  27.567  1.00  0.00     0.029 A 
ATOM     47  C   UNL A   1      40.823  28.045  28.739  1.00  0.00     0.049 A 
ATOM     48  H   UNL A   1      40.679  29.102  30.529  1.00  0.00     0.167 HD
ATOM     49  C   UNL A   1      40.105  31.173  34.326  1.00  0.00     0.037 A 
ATOM     50  C   UNL A   1      41.883  27.222  28.844  1.00  0.00     0.037 A 
ATOM     51  C   UNL A   1      41.253  30.331  34.529  1.00  0.00     0.049 A 
ATOM     52  C   UNL A   1      42.679  27.204  30.118  1.00  0.00     0.074 A 
ATOM     53  C   UNL A   1      42.022  30.183  35.670  1.00  0.00     0.029 A 
ATOM     54  N   UNL A   1      41.798  29.491  33.570  1.00  0.00    -0.354 N 
ATOM     55  N   UNL A   1      42.464  27.853  31.235  1.00  0.00    -0.248 NA
ATOM     56  C   UNL A   1      43.872  26.346  30.143  1.00  0.00     0.031 C 
ATOM     57  C   UNL A   1      43.057  29.286  35.390  1.00  0.00     0.029 A 
ATOM     58  C   UNL A   1      42.907  28.840  34.087  1.00  0.00     0.049 A 
ATOM     59  H   UNL A   1      41.449  29.374  32.656  1.00  0.00     0.167 HD
ATOM     60  C   UNL A   1      43.485  27.480  32.097  1.00  0.00     0.074 A 
ATOM     61  C   UNL A   1      44.309  26.527  31.382  1.00  0.00     0.031 C 
ATOM     62  C   UNL A   1      43.720  27.897  33.364  1.00  0.00     0.037 A 
BRANCH  49  63
ATOM     63  C   UNL A   1      39.667  32.042  35.469  1.00  0.00     0.064 A 
ATOM     64  C   UNL A   1      40.121  33.362  35.603  1.00  0.00     0.173 A 
ATOM     65  C   UNL A   1      38.723  31.576  36.397  1.00  0.00     0.173 A 
ATOM     66  F   UNL A   1      41.030  33.854  34.748  1.00  0.00    -0.203 F 
ATOM     67  C   UNL A   1      39.656  34.178  36.632  1.00  0.00     0.198 A 
ATOM     68  C   UNL A   1      38.242  32.403  37.408  1.00  0.00     0.198 A 
ATOM     69  F   UNL A   1      38.249  30.323  36.309  1.00  0.00    -0.203 F 
ATOM     70  F   UNL A   1      40.126  35.427  36.757  1.00  0.00    -0.200 F 
ATOM     71  C   UNL A   1      38.711  33.702  37.527  1.00  0.00     0.200 A 
ATOM     72  F   UNL A   1      37.317  31.944  38.265  1.00  0.00    -0.200 F 
ATOM     73  F   UNL A   1      38.253  34.495  38.506  1.00  0.00    -0.200 F 
ENDBRANCH  49  63
BRANCH  50  74
ATOM     74  C   UNL A   1      42.237  26.335  27.706  1.00  0.00     0.064 A 
ATOM     75  C   UNL A   1      43.224  26.707  26.783  1.00  0.00     0.173 A 
ATOM     76  C   UNL A   1      41.621  25.086  27.538  1.00  0.00     0.173 A 
ATOM     77  F   UNL A   1      43.825  27.901  26.891  1.00  0.00    -0.203 F 
ATOM     78  C   UNL A   1      43.579  25.864  25.733  1.00  0.00     0.198 A 
ATOM     79  C   UNL A   1      41.998  24.232  26.504  1.00  0.00     0.198 A 
ATOM     80  F   UNL A   1      40.673  24.683  28.396  1.00  0.00    -0.203 F 
ATOM     81  F   UNL A   1      44.507  26.254  24.848  1.00  0.00    -0.200 F 
ATOM     82  C   UNL A   1      42.974  24.623  25.600  1.00  0.00     0.200 A 
ATOM     83  F   UNL A   1      41.422  23.028  26.390  1.00  0.00    -0.200 F 
ATOM     84  F   UNL A   1      43.329  23.805  24.600  1.00  0.00    -0.200 F 
ENDBRANCH  50  74
BRANCH  62  85
ATOM     85  C   UNL A   1      44.917  27.331  34.070  1.00  0.00     0.064 A 
ATOM     86  C   UNL A   1      46.152  27.995  34.055  1.00  0.00     0.173 A 
ATOM     87  C   UNL A   1      44.807  26.157  34.829  1.00  0.00     0.173 A 
ATOM     88  F   UNL A   1      46.308  29.113  33.332  1.00  0.00    -0.203 F 
ATOM     89  C   UNL A   1      47.239  27.497  34.768  1.00  0.00     0.198 A 
ATOM     90  C   UNL A   1      45.890  25.675  35.562  1.00  0.00     0.198 A 
ATOM     91  F   UNL A   1      43.645  25.489  34.880  1.00  0.00    -0.203 F 
ATOM     92  F   UNL A   1      48.418  28.131  34.717  1.00  0.00    -0.200 F 
ATOM     93  C   UNL A   1      47.105  26.344  35.528  1.00  0.00     0.200 A 
ATOM     94  F   UNL A   1      45.754  24.570  36.306  1.00  0.00    -0.200 F 
ATOM     95  F   UNL A   1      48.147  25.876  36.228  1.00  0.00    -0.200 F 
ENDBRANCH  62  85
ENDBRANCH  36  37
ENDBRANCH  28  31
ENDBRANCH  26  27
ENDBRANCH   1  26
TORSDOF 11
ENDMDL
MODEL 2
REMARK VINA RESULT:     -13.7      0.254      1.612
REMARK SMILES O=C(C[C@H]1C(=O)N[NH+]=C2c3ccc(F)cc3N=CN21)NCCCNC(=O)c1ccc(-c2c3nc(c(-c4c(F)c(F)c(F)c(F)c4F)c4ccc([nH]4)c(-c4c(F)c(F)c(F)c(F)c4F)c4nc(c(-c5c(F)c(F)c(F)c(F)c5F)c5ccc2[nH]5)C=C4)C=C3)cc1
REMARK SMILES IDX 22 1 21 2 20 3 1 4 2 5 3 7 4 8 5 9 19 10 6 11 7 12 9 13
REMARK SMILES IDX 18 14 8 15 10 17 17 18 11 20 16 21 12 22 15 23 13 24 14 25
REMARK SMILES IDX 23 26 24 27 25 28 26 30 27 31 28 32 89 33 29 34 88 35 30 36
REMARK SMILES IDX 31 37 32 38 82 39 33 40 87 41 81 42 83 43 34 44 86 45 80 46
REMARK SMILES IDX 79 47 35 49 67 50 47 51 66 52 48 53 51 54 65 55 84 56 49 57
REMARK SMILES IDX 50 58 64 60 85 61 52 62 36 63 37 64 45 65 38 66 39 67 43 68
REMARK SMILES IDX 46 69 40 70 41 71 44 72 42 73 68 74 69 75 77 76 70 77 71 78
REMARK SMILES IDX 75 79 78 80 72 81 73 82 76 83 74 84 53 85 54 86 62 87 55 88
REMARK SMILES IDX 56 89 60 90 63 91 57 92 58 93 61 94 59 95
REMARK H PARENT 20 6 7 16 8 19 24 29 83 48 51 59
REMARK Flexibility Score: inf
ROOT
ATOM      1  C   UNL A   1      32.349  29.488  25.250  1.00  0.00     0.042 C 
ENDROOT
BRANCH   1   2
ATOM      2  C   UNL A   1      31.033  28.893  24.759  1.00  0.00     0.117 C 
BRANCH   2   3
ATOM      3  N   UNL A   1      31.070  27.458  24.561  1.00  0.00    -0.356 N 
ATOM      4  O   UNL A   1      30.670  26.941  26.752  1.00  0.00    -0.275 OA
ATOM      5  C   UNL A   1      30.829  26.580  25.592  1.00  0.00     0.224 C 
ATOM      6  H   UNL A   1      31.270  27.102  23.665  1.00  0.00     0.163 HD
BRANCH   5   7
ATOM      7  C   UNL A   1      30.809  25.126  25.184  1.00  0.00     0.160 C 
BRANCH   7   8
ATOM      8  C   UNL A   1      31.660  24.249  26.102  1.00  0.00     0.284 C 
ATOM      9  C   UNL A   1      30.808  23.117  26.655  1.00  0.00     0.300 C 
ATOM     10  N   UNL A   1      32.918  23.790  25.491  1.00  0.00    -0.203 N 
ATOM     11  O   UNL A   1      29.867  23.331  27.421  1.00  0.00    -0.267 OA
ATOM     12  N   UNL A   1      31.111  21.851  26.230  1.00  0.00    -0.193 N 
ATOM     13  C   UNL A   1      33.141  22.422  25.393  1.00  0.00     0.309 C 
ATOM     14  C   UNL A   1      33.917  24.696  25.210  1.00  0.00     0.317 C 
ATOM     15  N   UNL A   1      32.288  21.482  25.668  1.00  0.00    -0.169 N 
ATOM     16  H   UNL A   1      30.422  21.156  26.342  1.00  0.00     0.216 HD
ATOM     17  C   UNL A   1      34.536  22.017  25.047  1.00  0.00     0.092 A 
ATOM     18  N   UNL A   1      35.144  24.417  24.912  1.00  0.00    -0.216 NA
ATOM     19  H   UNL A   1      32.489  20.538  25.475  1.00  0.00     0.340 HD
ATOM     20  C   UNL A   1      34.921  20.670  25.070  1.00  0.00     0.022 A 
ATOM     21  C   UNL A   1      35.489  23.047  24.920  1.00  0.00     0.085 A 
ATOM     22  C   UNL A   1      36.275  20.345  25.035  1.00  0.00     0.040 A 
ATOM     23  C   UNL A   1      36.840  22.701  24.877  1.00  0.00     0.068 A 
ATOM     24  C   UNL A   1      37.221  21.363  24.959  1.00  0.00     0.125 A 
ATOM     25  F   UNL A   1      38.522  21.050  24.999  1.00  0.00    -0.207 F 
ENDBRANCH   7   8
ENDBRANCH   5   7
ENDBRANCH   2   3
ENDBRANCH   1   2
BRANCH   1  26
ATOM     26  C   UNL A   1      32.347  29.955  26.699  1.00  0.00     0.118 C 
BRANCH  26  27
ATOM     27  N   UNL A   1      32.279  31.402  26.855  1.00  0.00    -0.352 N 
ATOM     28  C   UNL A   1      33.190  32.287  27.390  1.00  0.00     0.251 C 
ATOM     29  H   UNL A   1      31.448  31.815  26.525  1.00  0.00     0.163 HD
ATOM     30  O   UNL A   1      32.895  33.467  27.499  1.00  0.00    -0.269 OA
BRANCH  28  31
ATOM     31  C   UNL A   1      34.508  31.810  27.877  1.00  0.00     0.039 A 
ATOM     32  C   UNL A   1      34.740  30.463  28.155  1.00  0.00     0.014 A 
ATOM     33  C   UNL A   1      35.535  32.742  28.062  1.00  0.00     0.014 A 
ATOM     34  C   UNL A   1      35.917  30.082  28.791  1.00  0.00     0.010 A 
ATOM     35  C   UNL A   1      36.756  32.341  28.619  1.00  0.00     0.010 A 
ATOM     36  C   UNL A   1      36.935  31.017  29.044  1.00  0.00    -0.014 A 
BRANCH  36  37
ATOM     37  C   UNL A   1      38.156  30.581  29.775  1.00  0.00     0.031 A 
ATOM     38  C   UNL A   1      38.385  30.989  31.207  1.00  0.00     0.074 A 
ATOM     39  C   UNL A   1      39.022  29.744  29.172  1.00  0.00     0.049 A 
ATOM     40  N   UNL A   1      39.350  30.636  32.022  1.00  0.00    -0.248 NA
ATOM     41  C   UNL A   1      37.411  31.915  31.805  1.00  0.00     0.031 C 
ATOM     42  C   UNL A   1      38.911  29.274  27.791  1.00  0.00     0.029 A 
ATOM     43  N   UNL A   1      40.141  29.109  29.651  1.00  0.00    -0.354 N 
ATOM     44  C   UNL A   1      39.103  31.301  33.216  1.00  0.00     0.074 A 
ATOM     45  C   UNL A   1      37.921  32.109  33.013  1.00  0.00     0.031 C 
ATOM     46  C   UNL A   1      39.878  28.375  27.554  1.00  0.00     0.029 A 
ATOM     47  C   UNL A   1      40.712  28.246  28.746  1.00  0.00     0.049 A 
ATOM     48  H   UNL A   1      40.501  29.257  30.555  1.00  0.00     0.167 HD
ATOM     49  C   UNL A   1      39.789  31.228  34.383  1.00  0.00     0.037 A 
ATOM     50  C   UNL A   1      41.785  27.441  28.860  1.00  0.00     0.037 A 
ATOM     51  C   UNL A   1      40.948  30.403  34.596  1.00  0.00     0.049 A 
ATOM     52  C   UNL A   1      42.548  27.408  30.154  1.00  0.00     0.074 A 
ATOM     53  C   UNL A   1      41.690  30.243  35.754  1.00  0.00     0.029 A 
ATOM     54  N   UNL A   1      41.533  29.596  33.633  1.00  0.00    -0.354 N 
ATOM     55  N   UNL A   1      42.291  28.026  31.279  1.00  0.00    -0.248 NA
ATOM     56  C   UNL A   1      43.757  26.572  30.190  1.00  0.00     0.031 C 
ATOM     57  C   UNL A   1      42.749  29.372  35.480  1.00  0.00     0.029 A 
ATOM     58  C   UNL A   1      42.641  28.954  34.164  1.00  0.00     0.049 A 
ATOM     59  H   UNL A   1      41.210  29.493  32.708  1.00  0.00     0.167 HD
ATOM     60  C   UNL A   1      43.297  27.652  32.159  1.00  0.00     0.074 A 
ATOM     61  C   UNL A   1      44.157  26.732  31.444  1.00  0.00     0.031 C 
ATOM     62  C   UNL A   1      43.492  28.044  33.441  1.00  0.00     0.037 A 
BRANCH  49  63
ATOM     63  C   UNL A   1      39.305  32.061  35.534  1.00  0.00     0.064 A 
ATOM     64  C   UNL A   1      38.451  31.535  36.513  1.00  0.00     0.173 A 
ATOM     65  C   UNL A   1      39.763  33.377  35.701  1.00  0.00     0.173 A 
ATOM     66  F   UNL A   1      37.979  30.285  36.395  1.00  0.00    -0.203 F 
ATOM     67  C   UNL A   1      38.063  32.299  37.611  1.00  0.00     0.198 A 
ATOM     68  C   UNL A   1      39.393  34.130  36.813  1.00  0.00     0.198 A 
ATOM     69  F   UNL A   1      40.589  33.927  34.797  1.00  0.00    -0.203 F 
ATOM     70  F   UNL A   1      37.222  31.784  38.519  1.00  0.00    -0.200 F 
ATOM     71  C   UNL A   1      38.541  33.591  37.764  1.00  0.00     0.200 A 
ATOM     72  F   UNL A   1      39.867  35.374  36.967  1.00  0.00    -0.200 F 
ATOM     73  F   UNL A   1      38.178  34.319  38.830  1.00  0.00    -0.200 F 
ENDBRANCH  49  63
BRANCH  50  74
ATOM     74  C   UNL A   1      42.185  26.587  27.712  1.00  0.00     0.064 A 
ATOM     75  C   UNL A   1      43.161  27.017  26.801  1.00  0.00     0.173 A 
ATOM     76  C   UNL A   1      41.627  25.315  27.521  1.00  0.00     0.173 A 
ATOM     77  F   UNL A   1      43.708  28.235  26.931  1.00  0.00    -0.203 F 
ATOM     78  C   UNL A   1      43.560  26.207  25.741  1.00  0.00     0.198 A 
ATOM     79  C   UNL A   1      42.048  24.494  26.477  1.00  0.00     0.198 A 
ATOM     80  F   UNL A   1      40.692  24.858  28.366  1.00  0.00    -0.203 F 
ATOM     81  F   UNL A   1      44.475  26.651  24.868  1.00  0.00    -0.200 F 
ATOM     82  C   UNL A   1      43.011  24.942  25.586  1.00  0.00     0.200 A 
ATOM     83  F   UNL A   1      41.528  23.268  26.341  1.00  0.00    -0.200 F 
ATOM     84  F   UNL A   1      43.409  24.156  24.576  1.00  0.00    -0.200 F 
ENDBRANCH  50  74
BRANCH  62  85
ATOM     85  C   UNL A   1      44.680  27.484  34.165  1.00  0.00     0.064 A 
ATOM     86  C   UNL A   1      44.623  26.237  34.804  1.00  0.00     0.173 A 
ATOM     87  C   UNL A   1      45.907  28.165  34.154  1.00  0.00     0.173 A 
ATOM     88  F   UNL A   1      43.468  25.557  34.852  1.00  0.00    -0.203 F 
ATOM     89  C   UNL A   1      45.750  25.695  35.415  1.00  0.00     0.198 A 
ATOM     90  C   UNL A   1      47.039  27.608  34.745  1.00  0.00     0.198 A 
ATOM     91  F   UNL A   1      46.015  29.357  33.550  1.00  0.00    -0.203 F 
ATOM     92  F   UNL A   1      45.665  24.516  36.045  1.00  0.00    -0.200 F 
ATOM     93  C   UNL A   1      46.958  26.376  35.377  1.00  0.00     0.200 A 
ATOM     94  F   UNL A   1      48.208  28.260  34.694  1.00  0.00    -0.200 F 
ATOM     95  F   UNL A   1      48.046  25.845  35.951  1.00  0.00    -0.200 F 
ENDBRANCH  62  85
ENDBRANCH  36  37
ENDBRANCH  28  31
ENDBRANCH  26  27
ENDBRANCH   1  26
TORSDOF 11
ENDMDL
MODEL 3
REMARK VINA RESULT:     -13.7      0.194      1.143
REMARK SMILES O=C(C[C@H]1C(=O)N[NH+]=C2c3ccc(F)cc3N=CN21)NCCCNC(=O)c1ccc(-c2c3nc(c(-c4c(F)c(F)c(F)c(F)c4F)c4ccc([nH]4)c(-c4c(F)c(F)c(F)c(F)c4F)c4nc(c(-c5c(F)c(F)c(F)c(F)c5F)c5ccc2[nH]5)C=C4)C=C3)cc1
REMARK SMILES IDX 22 1 21 2 20 3 1 4 2 5 3 7 4 8 5 9 19 10 6 11 7 12 9 13
REMARK SMILES IDX 18 14 8 15 10 17 17 18 11 20 16 21 12 22 15 23 13 24 14 25
REMARK SMILES IDX 23 26 24 27 25 28 26 30 27 31 28 32 89 33 29 34 88 35 30 36
REMARK SMILES IDX 31 37 32 38 82 39 33 40 87 41 81 42 83 43 34 44 86 45 80 46
REMARK SMILES IDX 79 47 35 49 67 50 47 51 66 52 48 53 51 54 65 55 84 56 49 57
REMARK SMILES IDX 50 58 64 60 85 61 52 62 36 63 37 64 45 65 38 66 39 67 43 68
REMARK SMILES IDX 46 69 40 70 41 71 44 72 42 73 68 74 69 75 77 76 70 77 71 78
REMARK SMILES IDX 75 79 78 80 72 81 73 82 76 83 74 84 53 85 54 86 62 87 55 88
REMARK SMILES IDX 56 89 60 90 63 91 57 92 58 93 61 94 59 95
REMARK H PARENT 20 6 7 16 8 19 24 29 83 48 51 59
REMARK Flexibility Score: inf
ROOT
ATOM      1  C   UNL A   1      32.360  29.541  25.231  1.00  0.00     0.042 C 
ENDROOT
BRANCH   1   2
ATOM      2  C   UNL A   1      31.032  28.931  24.794  1.00  0.00     0.117 C 
BRANCH   2   3
ATOM      3  N   UNL A   1      31.079  27.497  24.585  1.00  0.00    -0.356 N 
ATOM      4  O   UNL A   1      30.686  26.960  26.773  1.00  0.00    -0.275 OA
ATOM      5  C   UNL A   1      30.846  26.610  25.610  1.00  0.00     0.224 C 
ATOM      6  H   UNL A   1      31.281  27.150  23.686  1.00  0.00     0.163 HD
BRANCH   5   7
ATOM      7  C   UNL A   1      30.836  25.159  25.190  1.00  0.00     0.160 C 
BRANCH   7   8
ATOM      8  C   UNL A   1      31.682  24.278  26.110  1.00  0.00     0.284 C 
ATOM      9  C   UNL A   1      30.824  23.148  26.660  1.00  0.00     0.300 C 
ATOM     10  N   UNL A   1      32.941  23.816  25.503  1.00  0.00    -0.203 N 
ATOM     11  O   UNL A   1      29.882  23.364  27.423  1.00  0.00    -0.267 OA
ATOM     12  N   UNL A   1      31.125  21.882  26.234  1.00  0.00    -0.193 N 
ATOM     13  C   UNL A   1      33.159  22.448  25.404  1.00  0.00     0.309 C 
ATOM     14  C   UNL A   1      33.943  24.720  25.225  1.00  0.00     0.317 C 
ATOM     15  N   UNL A   1      32.303  21.510  25.675  1.00  0.00    -0.169 N 
ATOM     16  H   UNL A   1      30.434  21.189  26.343  1.00  0.00     0.216 HD
ATOM     17  C   UNL A   1      34.555  22.039  25.062  1.00  0.00     0.092 A 
ATOM     18  N   UNL A   1      35.171  24.437  24.931  1.00  0.00    -0.216 NA
ATOM     19  H   UNL A   1      32.502  20.566  25.482  1.00  0.00     0.340 HD
ATOM     20  C   UNL A   1      34.936  20.690  25.085  1.00  0.00     0.022 A 
ATOM     21  C   UNL A   1      35.511  23.066  24.939  1.00  0.00     0.085 A 
ATOM     22  C   UNL A   1      36.289  20.361  25.054  1.00  0.00     0.040 A 
ATOM     23  C   UNL A   1      36.861  22.715  24.900  1.00  0.00     0.068 A 
ATOM     24  C   UNL A   1      37.237  21.377  24.982  1.00  0.00     0.125 A 
ATOM     25  F   UNL A   1      38.538  21.060  25.026  1.00  0.00    -0.207 F 
ENDBRANCH   7   8
ENDBRANCH   5   7
ENDBRANCH   2   3
ENDBRANCH   1   2
BRANCH   1  26
ATOM     26  C   UNL A   1      32.424  29.976  26.689  1.00  0.00     0.118 C 
BRANCH  26  27
ATOM     27  N   UNL A   1      32.363  31.418  26.879  1.00  0.00    -0.352 N 
ATOM     28  C   UNL A   1      33.276  32.285  27.441  1.00  0.00     0.251 C 
ATOM     29  H   UNL A   1      31.536  31.844  26.554  1.00  0.00     0.163 HD
ATOM     30  O   UNL A   1      32.987  33.465  27.576  1.00  0.00    -0.269 OA
BRANCH  28  31
ATOM     31  C   UNL A   1      34.588  31.789  27.923  1.00  0.00     0.039 A 
ATOM     32  C   UNL A   1      34.773  30.459  28.298  1.00  0.00     0.014 A 
ATOM     33  C   UNL A   1      35.660  32.686  28.004  1.00  0.00     0.014 A 
ATOM     34  C   UNL A   1      35.954  30.075  28.927  1.00  0.00     0.010 A 
ATOM     35  C   UNL A   1      36.880  32.276  28.553  1.00  0.00     0.010 A 
ATOM     36  C   UNL A   1      37.018  30.981  29.074  1.00  0.00    -0.014 A 
BRANCH  36  37
ATOM     37  C   UNL A   1      38.244  30.550  29.800  1.00  0.00     0.031 A 
ATOM     38  C   UNL A   1      38.481  30.964  31.229  1.00  0.00     0.074 A 
ATOM     39  C   UNL A   1      39.107  29.709  29.195  1.00  0.00     0.049 A 
ATOM     40  N   UNL A   1      39.451  30.615  32.039  1.00  0.00    -0.248 NA
ATOM     41  C   UNL A   1      37.510  31.892  31.828  1.00  0.00     0.031 C 
ATOM     42  C   UNL A   1      38.987  29.233  27.818  1.00  0.00     0.029 A 
ATOM     43  N   UNL A   1      40.228  29.077  29.670  1.00  0.00    -0.354 N 
ATOM     44  C   UNL A   1      39.212  31.285  33.232  1.00  0.00     0.074 A 
ATOM     45  C   UNL A   1      38.028  32.092  33.033  1.00  0.00     0.031 C 
ATOM     46  C   UNL A   1      39.953  28.333  27.579  1.00  0.00     0.029 A 
ATOM     47  C   UNL A   1      40.794  28.210  28.766  1.00  0.00     0.049 A 
ATOM     48  H   UNL A   1      40.594  29.230  30.572  1.00  0.00     0.167 HD
ATOM     49  C   UNL A   1      39.905  31.218  34.395  1.00  0.00     0.037 A 
ATOM     50  C   UNL A   1      41.868  27.406  28.877  1.00  0.00     0.037 A 
ATOM     51  C   UNL A   1      41.066  30.394  34.605  1.00  0.00     0.049 A 
ATOM     52  C   UNL A   1      42.639  27.379  30.166  1.00  0.00     0.074 A 
ATOM     53  C   UNL A   1      41.814  30.239  35.759  1.00  0.00     0.029 A 
ATOM     54  N   UNL A   1      41.645  29.583  33.641  1.00  0.00    -0.354 N 
ATOM     55  N   UNL A   1      42.389  28.003  31.291  1.00  0.00    -0.248 NA
ATOM     56  C   UNL A   1      43.848  26.543  30.199  1.00  0.00     0.031 C 
ATOM     57  C   UNL A   1      42.872  29.368  35.482  1.00  0.00     0.029 A 
ATOM     58  C   UNL A   1      42.756  28.944  34.168  1.00  0.00     0.049 A 
ATOM     59  H   UNL A   1      41.316  29.476  32.719  1.00  0.00     0.167 HD
ATOM     60  C   UNL A   1      43.400  27.633  32.165  1.00  0.00     0.074 A 
ATOM     61  C   UNL A   1      44.256  26.710  31.450  1.00  0.00     0.031 C 
ATOM     62  C   UNL A   1      43.602  28.030  33.445  1.00  0.00     0.037 A 
BRANCH  49  63
ATOM     63  C   UNL A   1      39.428  32.056  35.545  1.00  0.00     0.064 A 
ATOM     64  C   UNL A   1      38.521  31.556  36.491  1.00  0.00     0.173 A 
ATOM     65  C   UNL A   1      39.942  33.346  35.746  1.00  0.00     0.173 A 
ATOM     66  F   UNL A   1      37.994  30.332  36.340  1.00  0.00    -0.203 F 
ATOM     67  C   UNL A   1      38.138  32.322  37.589  1.00  0.00     0.198 A 
ATOM     68  C   UNL A   1      39.576  34.099  36.859  1.00  0.00     0.198 A 
ATOM     69  F   UNL A   1      40.819  33.869  34.875  1.00  0.00    -0.203 F 
ATOM     70  F   UNL A   1      37.248  31.834  38.465  1.00  0.00    -0.200 F 
ATOM     71  C   UNL A   1      38.672  33.587  37.777  1.00  0.00     0.200 A 
ATOM     72  F   UNL A   1      40.104  35.317  37.047  1.00  0.00    -0.200 F 
ATOM     73  F   UNL A   1      38.314  34.316  38.844  1.00  0.00    -0.200 F 
ENDBRANCH  49  63
BRANCH  50  74
ATOM     74  C   UNL A   1      42.262  26.547  27.730  1.00  0.00     0.064 A 
ATOM     75  C   UNL A   1      43.243  26.965  26.822  1.00  0.00     0.173 A 
ATOM     76  C   UNL A   1      41.690  25.281  27.539  1.00  0.00     0.173 A 
ATOM     77  F   UNL A   1      43.803  28.177  26.952  1.00  0.00    -0.203 F 
ATOM     78  C   UNL A   1      43.637  26.150  25.763  1.00  0.00     0.198 A 
ATOM     79  C   UNL A   1      42.104  24.455  26.497  1.00  0.00     0.198 A 
ATOM     80  F   UNL A   1      40.748  24.835  28.382  1.00  0.00    -0.203 F 
ATOM     81  F   UNL A   1      44.558  26.584  24.892  1.00  0.00    -0.200 F 
ATOM     82  C   UNL A   1      43.074  24.892  25.608  1.00  0.00     0.200 A 
ATOM     83  F   UNL A   1      41.571  23.234  26.360  1.00  0.00    -0.200 F 
ATOM     84  F   UNL A   1      43.465  24.100  24.599  1.00  0.00    -0.200 F 
ENDBRANCH  50  74
BRANCH  62  85
ATOM     85  C   UNL A   1      44.796  27.474  34.164  1.00  0.00     0.064 A 
ATOM     86  C   UNL A   1      46.019  28.159  34.182  1.00  0.00     0.173 A 
ATOM     87  C   UNL A   1      44.693  26.286  34.903  1.00  0.00     0.173 A 
ATOM     88  F   UNL A   1      46.169  29.292  33.479  1.00  0.00    -0.203 F 
ATOM     89  C   UNL A   1      47.101  27.670  34.908  1.00  0.00     0.198 A 
ATOM     90  C   UNL A   1      45.770  25.812  35.648  1.00  0.00     0.198 A 
ATOM     91  F   UNL A   1      43.542  25.597  34.922  1.00  0.00    -0.203 F 
ATOM     92  F   UNL A   1      48.269  28.325  34.888  1.00  0.00    -0.200 F 
ATOM     93  C   UNL A   1      46.973  26.502  35.647  1.00  0.00     0.200 A 
ATOM     94  F   UNL A   1      45.640  24.693  36.373  1.00  0.00    -0.200 F 
ATOM     95  F   UNL A   1      48.011  26.042  36.359  1.00  0.00    -0.200 F 
ENDBRANCH  62  85
ENDBRANCH  36  37
ENDBRANCH  28  31
ENDBRANCH  26  27
ENDBRANCH   1  26
TORSDOF 11
ENDMDL
