MODEL 1
REMARK VINA RESULT:     -13.4      0.000      0.000
REMARK SMILES CCN1C(=O)C[C@@H](C(=O)Nc2cccc(C(=O)NCCCNC(=O)c3ccc(-c4c5nc(c(-c6c(F)c(F)c(F)c(F)c6F)c6ccc([nH]6)c(-c6c(F)c(F)c(F)c(F)c6F)c6nc(c(-c7c(F)c(F)c(F)c(F)c7F)c7ccc4[nH]7)C=C6)C=C5)cc3)c2)S/C1=[NH+]/c1ccccc1
REMARK SMILES IDX 19 1 18 2 16 3 17 4 15 6 11 7 12 8 88 9 13 10 14 11 10 12
REMARK SMILES IDX 8 13 9 14 7 16 3 17 4 18 90 19 5 20 6 21 89 22 91 23 2 25
REMARK SMILES IDX 1 26 92 27 93 28 97 29 94 30 96 31 95 32 20 33 21 34 22 35
REMARK SMILES IDX 23 36 24 38 25 39 26 40 87 41 27 42 86 43 28 44 29 45 30 46
REMARK SMILES IDX 80 47 31 48 85 49 79 50 81 51 32 52 84 53 78 54 77 55 33 57
REMARK SMILES IDX 65 58 45 59 64 60 46 61 49 62 63 63 82 64 47 65 48 66 62 68
REMARK SMILES IDX 83 69 50 70 34 71 35 72 43 73 36 74 37 75 41 76 44 77 38 78
REMARK SMILES IDX 39 79 42 80 40 81 66 82 67 83 75 84 68 85 69 86 73 87 76 88
REMARK SMILES IDX 70 89 71 90 74 91 72 92 51 93 52 94 60 95 53 96 54 97 58 98
REMARK SMILES IDX 61 99 55 100 56 101 59 102 57 103
REMARK H PARENT 18 5 10 15 91 24 22 37 81 56 49 67
REMARK Flexibility Score: inf
ROOT
ATOM      1  C   UNL A   1      31.787  31.273  26.627  1.00  0.00     0.118 C 
ENDROOT
BRANCH   1   2
ATOM      2  N   UNL A   1      33.078  30.900  27.192  1.00  0.00    -0.352 N 
ATOM      3  C   UNL A   1      33.695  29.673  27.271  1.00  0.00     0.251 C 
ATOM      4  O   UNL A   1      34.818  29.603  27.766  1.00  0.00    -0.269 OA
ATOM      5  H   UNL A   1      33.590  31.646  27.580  1.00  0.00     0.163 HD
BRANCH   3   6
ATOM      6  C   UNL A   1      33.033  28.429  26.803  1.00  0.00     0.041 A 
ATOM      7  C   UNL A   1      32.832  26.588  25.231  1.00  0.00     0.041 A 
ATOM      8  C   UNL A   1      31.629  26.222  25.842  1.00  0.00     0.026 A 
ATOM      9  C   UNL A   1      33.537  27.669  25.744  1.00  0.00     0.040 A 
ATOM     10  C   UNL A   1      31.168  26.905  26.972  1.00  0.00     0.003 A 
ATOM     11  C   UNL A   1      31.866  28.013  27.450  1.00  0.00     0.014 A 
BRANCH   7  12
ATOM     12  N   UNL A   1      33.208  25.916  24.055  1.00  0.00    -0.325 N 
ATOM     13  C   UNL A   1      33.707  24.672  23.785  1.00  0.00     0.238 C 
ATOM     14  O   UNL A   1      34.321  24.554  22.715  1.00  0.00    -0.273 OA
ATOM     15  H   UNL A   1      33.085  26.464  23.246  1.00  0.00     0.169 HD
BRANCH  13  16
ATOM     16  C   UNL A   1      33.441  23.426  24.642  1.00  0.00     0.160 C 
ATOM     17  N   UNL A   1      34.484  20.729  25.138  1.00  0.00    -0.191 N 
ATOM     18  C   UNL A   1      34.484  21.708  26.109  1.00  0.00     0.311 C 
ATOM     19  C   UNL A   1      33.447  20.622  24.232  1.00  0.00     0.319 C 
ATOM     20  O   UNL A   1      34.504  21.476  27.314  1.00  0.00    -0.247 OA
ATOM     21  C   UNL A   1      34.575  23.099  25.582  1.00  0.00     0.153 C 
ATOM     22  S   UNL A   1      32.682  22.104  23.675  1.00  0.00    -0.024 SA
ATOM     23  N   UNL A   1      32.980  19.543  23.685  1.00  0.00    -0.235 N 
ATOM     24  H   UNL A   1      32.442  19.624  22.865  1.00  0.00     0.313 HD
BRANCH  17  25
ATOM     25  C   UNL A   1      35.700  19.925  24.996  1.00  0.00     0.243 C 
ATOM     26  C   UNL A   1      37.002  20.703  24.899  1.00  0.00     0.054 C 
ENDBRANCH  17  25
BRANCH  23  27
ATOM     27  C   UNL A   1      33.210  18.262  24.216  1.00  0.00     0.125 A 
ATOM     28  C   UNL A   1      33.938  17.319  23.485  1.00  0.00     0.051 A 
ATOM     29  C   UNL A   1      32.617  17.859  25.419  1.00  0.00     0.051 A 
ATOM     30  C   UNL A   1      34.097  16.012  23.957  1.00  0.00     0.004 A 
ATOM     31  C   UNL A   1      32.787  16.560  25.904  1.00  0.00     0.004 A 
ATOM     32  C   UNL A   1      33.528  15.636  25.171  1.00  0.00     0.000 A 
ENDBRANCH  23  27
ENDBRANCH  13  16
ENDBRANCH   7  12
ENDBRANCH   3   6
ENDBRANCH   1   2
BRANCH   1  33
ATOM     33  C   UNL A   1      31.391  32.725  26.823  1.00  0.00     0.042 C 
BRANCH  33  34
ATOM     34  C   UNL A   1      32.570  33.679  26.957  1.00  0.00     0.118 C 
BRANCH  34  35
ATOM     35  N   UNL A   1      32.497  34.585  28.097  1.00  0.00    -0.352 N 
ATOM     36  C   UNL A   1      33.349  34.839  29.145  1.00  0.00     0.251 C 
ATOM     37  H   UNL A   1      31.673  35.122  28.121  1.00  0.00     0.163 HD
ATOM     38  O   UNL A   1      33.088  35.748  29.931  1.00  0.00    -0.269 OA
BRANCH  36  39
ATOM     39  C   UNL A   1      34.517  33.977  29.430  1.00  0.00     0.039 A 
ATOM     40  C   UNL A   1      35.777  34.460  29.057  1.00  0.00     0.014 A 
ATOM     41  C   UNL A   1      34.420  32.748  30.074  1.00  0.00     0.014 A 
ATOM     42  C   UNL A   1      36.933  33.787  29.454  1.00  0.00     0.010 A 
ATOM     43  C   UNL A   1      35.568  32.137  30.571  1.00  0.00     0.010 A 
ATOM     44  C   UNL A   1      36.837  32.668  30.292  1.00  0.00    -0.014 A 
BRANCH  44  45
ATOM     45  C   UNL A   1      38.033  32.073  30.940  1.00  0.00     0.031 A 
ATOM     46  C   UNL A   1      38.822  31.003  30.244  1.00  0.00     0.074 A 
ATOM     47  C   UNL A   1      38.326  32.407  32.213  1.00  0.00     0.049 A 
ATOM     48  N   UNL A   1      39.772  30.235  30.715  1.00  0.00    -0.248 NA
ATOM     49  C   UNL A   1      38.467  30.729  28.844  1.00  0.00     0.031 C 
ATOM     50  C   UNL A   1      37.597  33.384  33.023  1.00  0.00     0.029 A 
ATOM     51  N   UNL A   1      39.299  31.937  33.061  1.00  0.00    -0.354 N 
ATOM     52  C   UNL A   1      40.098  29.365  29.685  1.00  0.00     0.074 A 
ATOM     53  C   UNL A   1      39.218  29.671  28.577  1.00  0.00     0.031 C 
ATOM     54  C   UNL A   1      38.151  33.449  34.242  1.00  0.00     0.029 A 
ATOM     55  C   UNL A   1      39.240  32.483  34.320  1.00  0.00     0.049 A 
ATOM     56  H   UNL A   1      39.973  31.272  32.793  1.00  0.00     0.167 HD
ATOM     57  C   UNL A   1      41.057  28.408  29.661  1.00  0.00     0.037 A 
ATOM     58  C   UNL A   1      39.962  32.218  35.425  1.00  0.00     0.037 A 
ATOM     59  C   UNL A   1      41.964  28.144  30.745  1.00  0.00     0.049 A 
ATOM     60  C   UNL A   1      41.035  31.171  35.367  1.00  0.00     0.074 A 
ATOM     61  C   UNL A   1      43.045  27.281  30.776  1.00  0.00     0.029 A 
ATOM     62  N   UNL A   1      41.895  28.744  31.995  1.00  0.00    -0.354 N 
ATOM     63  N   UNL A   1      41.384  30.403  34.364  1.00  0.00    -0.248 NA
ATOM     64  C   UNL A   1      41.812  30.948  36.594  1.00  0.00     0.031 C 
ATOM     65  C   UNL A   1      43.605  27.328  32.057  1.00  0.00     0.029 A 
ATOM     66  C   UNL A   1      42.893  28.246  32.815  1.00  0.00     0.049 A 
ATOM     67  H   UNL A   1      41.232  29.422  32.259  1.00  0.00     0.167 HD
ATOM     68  C   UNL A   1      42.417  29.607  34.835  1.00  0.00     0.074 A 
ATOM     69  C   UNL A   1      42.656  30.001  36.208  1.00  0.00     0.031 C 
ATOM     70  C   UNL A   1      43.103  28.634  34.186  1.00  0.00     0.037 A 
BRANCH  57  71
ATOM     71  C   UNL A   1      41.169  27.579  28.415  1.00  0.00     0.064 A 
ATOM     72  C   UNL A   1      40.433  26.397  28.246  1.00  0.00     0.173 A 
ATOM     73  C   UNL A   1      42.022  27.976  27.375  1.00  0.00     0.173 A 
ATOM     74  F   UNL A   1      39.612  25.968  29.217  1.00  0.00    -0.203 F 
ATOM     75  C   UNL A   1      40.576  25.622  27.099  1.00  0.00     0.198 A 
ATOM     76  C   UNL A   1      42.140  27.213  26.215  1.00  0.00     0.198 A 
ATOM     77  F   UNL A   1      42.746  29.101  27.483  1.00  0.00    -0.203 F 
ATOM     78  F   UNL A   1      39.907  24.465  26.986  1.00  0.00    -0.200 F 
ATOM     79  C   UNL A   1      41.426  26.032  26.083  1.00  0.00     0.200 A 
ATOM     80  F   UNL A   1      42.956  27.615  25.230  1.00  0.00    -0.200 F 
ATOM     81  F   UNL A   1      41.566  25.282  24.981  1.00  0.00    -0.200 F 
ENDBRANCH  57  71
BRANCH  58  82
ATOM     82  C   UNL A   1      39.678  32.963  36.676  1.00  0.00     0.064 A 
ATOM     83  C   UNL A   1      40.389  34.127  36.998  1.00  0.00     0.173 A 
ATOM     84  C   UNL A   1      38.664  32.551  37.554  1.00  0.00     0.173 A 
ATOM     85  F   UNL A   1      41.381  34.545  36.199  1.00  0.00    -0.203 F 
ATOM     86  C   UNL A   1      40.099  34.849  38.153  1.00  0.00     0.198 A 
ATOM     87  C   UNL A   1      38.360  33.287  38.697  1.00  0.00     0.198 A 
ATOM     88  F   UNL A   1      37.952  31.447  37.286  1.00  0.00    -0.203 F 
ATOM     89  F   UNL A   1      40.810  35.945  38.451  1.00  0.00    -0.200 F 
ATOM     90  C   UNL A   1      39.079  34.434  38.997  1.00  0.00     0.200 A 
ATOM     91  F   UNL A   1      37.366  32.890  39.504  1.00  0.00    -0.200 F 
ATOM     92  F   UNL A   1      38.793  35.136  40.101  1.00  0.00    -0.200 F 
ENDBRANCH  58  82
BRANCH  70  93
ATOM     93  C   UNL A   1      44.168  27.918  34.959  1.00  0.00     0.064 A 
ATOM     94  C   UNL A   1      43.883  26.748  35.675  1.00  0.00     0.173 A 
ATOM     95  C   UNL A   1      45.495  28.375  34.941  1.00  0.00     0.173 A 
ATOM     96  F   UNL A   1      42.625  26.284  35.736  1.00  0.00    -0.203 F 
ATOM     97  C   UNL A   1      44.887  26.063  36.356  1.00  0.00     0.198 A 
ATOM     98  C   UNL A   1      46.500  27.676  35.604  1.00  0.00     0.198 A 
ATOM     99  F   UNL A   1      45.817  29.490  34.268  1.00  0.00    -0.203 F 
ATOM    100  F   UNL A   1      44.586  24.963  37.059  1.00  0.00    -0.200 F 
ATOM    101  C   UNL A   1      46.194  26.524  36.312  1.00  0.00     0.200 A 
ATOM    102  F   UNL A   1      47.765  28.116  35.554  1.00  0.00    -0.200 F 
ATOM    103  F   UNL A   1      47.161  25.858  36.959  1.00  0.00    -0.200 F 
ENDBRANCH  70  93
ENDBRANCH  44  45
ENDBRANCH  36  39
ENDBRANCH  34  35
ENDBRANCH  33  34
ENDBRANCH   1  33
TORSDOF 14
ENDMDL
MODEL 2
REMARK VINA RESULT:     -13.3      0.926      7.233
REMARK SMILES CCN1C(=O)C[C@@H](C(=O)Nc2cccc(C(=O)NCCCNC(=O)c3ccc(-c4c5nc(c(-c6c(F)c(F)c(F)c(F)c6F)c6ccc([nH]6)c(-c6c(F)c(F)c(F)c(F)c6F)c6nc(c(-c7c(F)c(F)c(F)c(F)c7F)c7ccc4[nH]7)C=C6)C=C5)cc3)c2)S/C1=[NH+]/c1ccccc1
REMARK SMILES IDX 19 1 18 2 16 3 17 4 15 6 11 7 12 8 88 9 13 10 14 11 10 12
REMARK SMILES IDX 8 13 9 14 7 16 3 17 4 18 90 19 5 20 6 21 89 22 91 23 2 25
REMARK SMILES IDX 1 26 92 27 93 28 97 29 94 30 96 31 95 32 20 33 21 34 22 35
REMARK SMILES IDX 23 36 24 38 25 39 26 40 87 41 27 42 86 43 28 44 29 45 30 46
REMARK SMILES IDX 80 47 31 48 85 49 79 50 81 51 32 52 84 53 78 54 77 55 33 57
REMARK SMILES IDX 65 58 45 59 64 60 46 61 49 62 63 63 82 64 47 65 48 66 62 68
REMARK SMILES IDX 83 69 50 70 34 71 35 72 43 73 36 74 37 75 41 76 44 77 38 78
REMARK SMILES IDX 39 79 42 80 40 81 66 82 67 83 75 84 68 85 69 86 73 87 76 88
REMARK SMILES IDX 70 89 71 90 74 91 72 92 51 93 52 94 60 95 53 96 54 97 58 98
REMARK SMILES IDX 61 99 55 100 56 101 59 102 57 103
REMARK H PARENT 18 5 10 15 91 24 22 37 81 56 49 67
REMARK Flexibility Score: inf
ROOT
ATOM      1  C   UNL A   1      31.905  30.959  26.413  1.00  0.00     0.118 C 
ENDROOT
BRANCH   1   2
ATOM      2  N   UNL A   1      33.203  30.463  26.851  1.00  0.00    -0.352 N 
ATOM      3  C   UNL A   1      33.720  29.188  26.838  1.00  0.00     0.251 C 
ATOM      4  O   UNL A   1      34.871  29.009  27.231  1.00  0.00    -0.269 OA
ATOM      5  H   UNL A   1      33.807  31.150  27.214  1.00  0.00     0.163 HD
BRANCH   3   6
ATOM      6  C   UNL A   1      32.918  28.020  26.394  1.00  0.00     0.041 A 
ATOM      7  C   UNL A   1      32.459  26.233  24.813  1.00  0.00     0.041 A 
ATOM      8  C   UNL A   1      31.262  25.971  25.487  1.00  0.00     0.026 A 
ATOM      9  C   UNL A   1      33.290  27.234  25.299  1.00  0.00     0.040 A 
ATOM     10  C   UNL A   1      30.930  26.675  26.648  1.00  0.00     0.003 A 
ATOM     11  C   UNL A   1      31.755  27.704  27.100  1.00  0.00     0.014 A 
BRANCH   7  12
ATOM     12  N   UNL A   1      32.706  25.549  23.611  1.00  0.00    -0.325 N 
ATOM     13  C   UNL A   1      33.103  24.277  23.299  1.00  0.00     0.238 C 
ATOM     14  O   UNL A   1      33.629  24.130  22.188  1.00  0.00    -0.273 OA
ATOM     15  H   UNL A   1      32.560  26.110  22.815  1.00  0.00     0.169 HD
BRANCH  13  16
ATOM     16  C   UNL A   1      32.820  23.043  24.168  1.00  0.00     0.160 C 
ATOM     17  N   UNL A   1      33.988  20.459  24.916  1.00  0.00    -0.191 N 
ATOM     18  C   UNL A   1      33.783  21.466  25.834  1.00  0.00     0.311 C 
ATOM     19  C   UNL A   1      33.095  20.237  23.886  1.00  0.00     0.319 C 
ATOM     20  O   UNL A   1      33.658  21.277  27.040  1.00  0.00    -0.247 OA
ATOM     21  C   UNL A   1      33.838  22.841  25.262  1.00  0.00     0.153 C 
ATOM     22  S   UNL A   1      32.300  21.632  23.170  1.00  0.00    -0.024 SA
ATOM     23  N   UNL A   1      32.789  19.106  23.332  1.00  0.00    -0.235 N 
ATOM     24  H   UNL A   1      32.361  19.115  22.445  1.00  0.00     0.313 HD
BRANCH  17  25
ATOM     25  C   UNL A   1      35.270  19.752  24.970  1.00  0.00     0.243 C 
ATOM     26  C   UNL A   1      36.512  20.628  24.951  1.00  0.00     0.054 C 
ENDBRANCH  17  25
BRANCH  23  27
ATOM     27  C   UNL A   1      33.042  17.866  23.944  1.00  0.00     0.125 A 
ATOM     28  C   UNL A   1      32.336  17.491  25.091  1.00  0.00     0.051 A 
ATOM     29  C   UNL A   1      34.084  17.040  23.503  1.00  0.00     0.051 A 
ATOM     30  C   UNL A   1      32.640  16.305  25.765  1.00  0.00     0.004 A 
ATOM     31  C   UNL A   1      34.381  15.845  24.163  1.00  0.00     0.004 A 
ATOM     32  C   UNL A   1      33.658  15.478  25.295  1.00  0.00     0.000 A 
ENDBRANCH  23  27
ENDBRANCH  13  16
ENDBRANCH   7  12
ENDBRANCH   3   6
ENDBRANCH   1   2
BRANCH   1  33
ATOM     33  C   UNL A   1      31.600  32.397  26.794  1.00  0.00     0.042 C 
BRANCH  33  34
ATOM     34  C   UNL A   1      32.771  33.134  27.429  1.00  0.00     0.118 C 
BRANCH  34  35
ATOM     35  N   UNL A   1      32.441  34.438  27.990  1.00  0.00    -0.352 N 
ATOM     36  C   UNL A   1      33.089  35.266  28.875  1.00  0.00     0.251 C 
ATOM     37  H   UNL A   1      31.581  34.797  27.673  1.00  0.00     0.163 HD
ATOM     38  O   UNL A   1      32.630  36.383  29.106  1.00  0.00    -0.269 OA
BRANCH  36  39
ATOM     39  C   UNL A   1      34.264  34.815  29.652  1.00  0.00     0.039 A 
ATOM     40  C   UNL A   1      34.039  34.389  30.967  1.00  0.00     0.014 A 
ATOM     41  C   UNL A   1      35.551  34.762  29.128  1.00  0.00     0.014 A 
ATOM     42  C   UNL A   1      35.065  33.785  31.695  1.00  0.00     0.010 A 
ATOM     43  C   UNL A   1      36.544  34.057  29.804  1.00  0.00     0.010 A 
ATOM     44  C   UNL A   1      36.301  33.534  31.084  1.00  0.00    -0.014 A 
BRANCH  44  45
ATOM     45  C   UNL A   1      37.330  32.678  31.727  1.00  0.00     0.031 A 
ATOM     46  C   UNL A   1      37.873  33.028  33.081  1.00  0.00     0.074 A 
ATOM     47  C   UNL A   1      37.867  31.658  31.028  1.00  0.00     0.049 A 
ATOM     48  N   UNL A   1      38.897  32.521  33.719  1.00  0.00    -0.248 NA
ATOM     49  C   UNL A   1      37.203  34.125  33.795  1.00  0.00     0.031 C 
ATOM     50  C   UNL A   1      37.473  31.255  29.677  1.00  0.00     0.029 A 
ATOM     51  N   UNL A   1      38.884  30.791  31.347  1.00  0.00    -0.354 N 
ATOM     52  C   UNL A   1      39.017  33.261  34.887  1.00  0.00     0.074 A 
ATOM     53  C   UNL A   1      37.987  34.279  34.851  1.00  0.00     0.031 C 
ATOM     54  C   UNL A   1      38.229  30.218  29.287  1.00  0.00     0.029 A 
ATOM     55  C   UNL A   1      39.195  29.915  30.336  1.00  0.00     0.049 A 
ATOM     56  H   UNL A   1      39.346  30.798  32.215  1.00  0.00     0.167 HD
ATOM     57  C   UNL A   1      39.896  33.095  35.904  1.00  0.00     0.037 A 
ATOM     58  C   UNL A   1      40.167  28.987  30.248  1.00  0.00     0.037 A 
ATOM     59  C   UNL A   1      40.882  32.049  35.959  1.00  0.00     0.049 A 
ATOM     60  C   UNL A   1      41.114  28.806  31.398  1.00  0.00     0.074 A 
ATOM     61  C   UNL A   1      41.737  31.723  36.996  1.00  0.00     0.029 A 
ATOM     62  N   UNL A   1      41.144  31.158  34.929  1.00  0.00    -0.354 N 
ATOM     63  N   UNL A   1      41.173  29.464  32.529  1.00  0.00    -0.248 NA
ATOM     64  C   UNL A   1      42.134  27.757  31.258  1.00  0.00     0.031 C 
ATOM     65  C   UNL A   1      42.545  30.660  36.578  1.00  0.00     0.029 A 
ATOM     66  C   UNL A   1      42.170  30.301  35.292  1.00  0.00     0.049 A 
ATOM     67  H   UNL A   1      40.670  31.138  34.066  1.00  0.00     0.167 HD
ATOM     68  C   UNL A   1      42.231  28.913  33.236  1.00  0.00     0.074 A 
ATOM     69  C   UNL A   1      42.774  27.850  32.416  1.00  0.00     0.031 C 
ATOM     70  C   UNL A   1      42.711  29.262  34.455  1.00  0.00     0.037 A 
BRANCH  57  71
ATOM     71  C   UNL A   1      39.825  34.072  37.041  1.00  0.00     0.064 A 
ATOM     72  C   UNL A   1      40.582  35.253  37.048  1.00  0.00     0.173 A 
ATOM     73  C   UNL A   1      38.981  33.825  38.135  1.00  0.00     0.173 A 
ATOM     74  F   UNL A   1      41.412  35.529  36.032  1.00  0.00    -0.203 F 
ATOM     75  C   UNL A   1      40.530  36.130  38.128  1.00  0.00     0.198 A 
ATOM     76  C   UNL A   1      38.909  34.721  39.199  1.00  0.00     0.198 A 
ATOM     77  F   UNL A   1      38.231  32.714  38.176  1.00  0.00    -0.203 F 
ATOM     78  F   UNL A   1      41.307  37.222  38.140  1.00  0.00    -0.200 F 
ATOM     79  C   UNL A   1      39.691  35.866  39.201  1.00  0.00     0.200 A 
ATOM     80  F   UNL A   1      38.091  34.468  40.231  1.00  0.00    -0.200 F 
ATOM     81  F   UNL A   1      39.644  36.711  40.240  1.00  0.00    -0.200 F 
ENDBRANCH  57  71
BRANCH  58  82
ATOM     82  C   UNL A   1      40.285  28.170  29.015  1.00  0.00     0.064 A 
ATOM     83  C   UNL A   1      39.609  26.948  28.896  1.00  0.00     0.173 A 
ATOM     84  C   UNL A   1      41.039  28.612  27.918  1.00  0.00     0.173 A 
ATOM     85  F   UNL A   1      38.894  26.477  29.927  1.00  0.00    -0.203 F 
ATOM     86  C   UNL A   1      39.687  26.197  27.726  1.00  0.00     0.198 A 
ATOM     87  C   UNL A   1      41.097  27.870  26.740  1.00  0.00     0.198 A 
ATOM     88  F   UNL A   1      41.698  29.778  27.982  1.00  0.00    -0.203 F 
ATOM     89  F   UNL A   1      39.052  25.020  27.645  1.00  0.00    -0.200 F 
ATOM     90  C   UNL A   1      40.423  26.662  26.646  1.00  0.00     0.200 A 
ATOM     91  F   UNL A   1      41.800  28.329  25.695  1.00  0.00    -0.200 F 
ATOM     92  F   UNL A   1      40.487  25.944  25.517  1.00  0.00    -0.200 F 
ENDBRANCH  58  82
BRANCH  70  93
ATOM     93  C   UNL A   1      43.891  28.495  34.969  1.00  0.00     0.064 A 
ATOM     94  C   UNL A   1      45.200  28.952  34.763  1.00  0.00     0.173 A 
ATOM     95  C   UNL A   1      43.711  27.323  35.719  1.00  0.00     0.173 A 
ATOM     96  F   UNL A   1      45.421  30.058  34.037  1.00  0.00    -0.203 F 
ATOM     97  C   UNL A   1      46.290  28.258  35.281  1.00  0.00     0.198 A 
ATOM     98  C   UNL A   1      44.801  26.643  36.255  1.00  0.00     0.198 A 
ATOM     99  F   UNL A   1      42.477  26.847  35.944  1.00  0.00    -0.203 F 
ATOM    100  F   UNL A   1      47.534  28.696  35.046  1.00  0.00    -0.200 F 
ATOM    101  C   UNL A   1      46.088  27.109  36.032  1.00  0.00     0.200 A 
ATOM    102  F   UNL A   1      44.606  25.539  36.988  1.00  0.00    -0.200 F 
ATOM    103  F   UNL A   1      47.138  26.447  36.540  1.00  0.00    -0.200 F 
ENDBRANCH  70  93
ENDBRANCH  44  45
ENDBRANCH  36  39
ENDBRANCH  34  35
ENDBRANCH  33  34
ENDBRANCH   1  33
TORSDOF 14
ENDMDL
MODEL 3
REMARK VINA RESULT:     -13.2      4.466      8.190
REMARK SMILES CCN1C(=O)C[C@@H](C(=O)Nc2cccc(C(=O)NCCCNC(=O)c3ccc(-c4c5nc(c(-c6c(F)c(F)c(F)c(F)c6F)c6ccc([nH]6)c(-c6c(F)c(F)c(F)c(F)c6F)c6nc(c(-c7c(F)c(F)c(F)c(F)c7F)c7ccc4[nH]7)C=C6)C=C5)cc3)c2)S/C1=[NH+]/c1ccccc1
REMARK SMILES IDX 19 1 18 2 16 3 17 4 15 6 11 7 12 8 88 9 13 10 14 11 10 12
REMARK SMILES IDX 8 13 9 14 7 16 3 17 4 18 90 19 5 20 6 21 89 22 91 23 2 25
REMARK SMILES IDX 1 26 92 27 93 28 97 29 94 30 96 31 95 32 20 33 21 34 22 35
REMARK SMILES IDX 23 36 24 38 25 39 26 40 87 41 27 42 86 43 28 44 29 45 30 46
REMARK SMILES IDX 80 47 31 48 85 49 79 50 81 51 32 52 84 53 78 54 77 55 33 57
REMARK SMILES IDX 65 58 45 59 64 60 46 61 49 62 63 63 82 64 47 65 48 66 62 68
REMARK SMILES IDX 83 69 50 70 34 71 35 72 43 73 36 74 37 75 41 76 44 77 38 78
REMARK SMILES IDX 39 79 42 80 40 81 66 82 67 83 75 84 68 85 69 86 73 87 76 88
REMARK SMILES IDX 70 89 71 90 74 91 72 92 51 93 52 94 60 95 53 96 54 97 58 98
REMARK SMILES IDX 61 99 55 100 56 101 59 102 57 103
REMARK H PARENT 18 5 10 15 91 24 22 37 81 56 49 67
REMARK Flexibility Score: inf
ROOT
ATOM      1  C   UNL A   1      33.360  31.692  27.492  1.00  0.00     0.118 C 
ENDROOT
BRANCH   1   2
ATOM      2  N   UNL A   1      34.596  30.954  27.712  1.00  0.00    -0.352 N 
ATOM      3  C   UNL A   1      34.903  29.636  27.464  1.00  0.00     0.251 C 
ATOM      4  O   UNL A   1      36.042  29.236  27.700  1.00  0.00    -0.269 OA
ATOM      5  H   UNL A   1      35.330  31.483  28.100  1.00  0.00     0.163 HD
BRANCH   3   6
ATOM      6  C   UNL A   1      33.892  28.677  26.950  1.00  0.00     0.041 A 
ATOM      7  C   UNL A   1      33.124  27.088  25.281  1.00  0.00     0.041 A 
ATOM      8  C   UNL A   1      31.879  27.053  25.915  1.00  0.00     0.026 A 
ATOM      9  C   UNL A   1      34.128  27.875  25.830  1.00  0.00     0.040 A 
ATOM     10  C   UNL A   1      31.663  27.764  27.100  1.00  0.00     0.003 A 
ATOM     11  C   UNL A   1      32.668  28.581  27.615  1.00  0.00     0.014 A 
BRANCH   7  12
ATOM     12  N   UNL A   1      33.261  26.416  24.054  1.00  0.00    -0.325 N 
ATOM     13  C   UNL A   1      33.577  25.133  23.698  1.00  0.00     0.238 C 
ATOM     14  O   UNL A   1      34.025  24.983  22.553  1.00  0.00    -0.273 OA
ATOM     15  H   UNL A   1      33.092  26.998  23.278  1.00  0.00     0.169 HD
BRANCH  13  16
ATOM     16  C   UNL A   1      33.292  23.898  24.564  1.00  0.00     0.160 C 
ATOM     17  N   UNL A   1      34.311  21.201  25.102  1.00  0.00    -0.191 N 
ATOM     18  C   UNL A   1      34.303  22.189  26.063  1.00  0.00     0.311 C 
ATOM     19  C   UNL A   1      33.288  21.090  24.182  1.00  0.00     0.319 C 
ATOM     20  O   UNL A   1      34.304  21.969  27.270  1.00  0.00    -0.247 OA
ATOM     21  C   UNL A   1      34.410  23.574  25.523  1.00  0.00     0.153 C 
ATOM     22  S   UNL A   1      32.539  22.570  23.600  1.00  0.00    -0.024 SA
ATOM     23  N   UNL A   1      32.822  20.008  23.640  1.00  0.00    -0.235 N 
ATOM     24  H   UNL A   1      32.296  20.084  22.810  1.00  0.00     0.313 HD
BRANCH  17  25
ATOM     25  C   UNL A   1      35.525  20.388  24.986  1.00  0.00     0.243 C 
ATOM     26  C   UNL A   1      36.799  21.144  24.647  1.00  0.00     0.054 C 
ENDBRANCH  17  25
BRANCH  23  27
ATOM     27  C   UNL A   1      33.037  18.731  24.187  1.00  0.00     0.125 A 
ATOM     28  C   UNL A   1      33.579  17.711  23.398  1.00  0.00     0.051 A 
ATOM     29  C   UNL A   1      32.603  18.415  25.480  1.00  0.00     0.051 A 
ATOM     30  C   UNL A   1      33.712  16.413  23.899  1.00  0.00     0.004 A 
ATOM     31  C   UNL A   1      32.751  17.123  25.991  1.00  0.00     0.004 A 
ATOM     32  C   UNL A   1      33.306  16.122  25.199  1.00  0.00     0.000 A 
ENDBRANCH  23  27
ENDBRANCH  13  16
ENDBRANCH   7  12
ENDBRANCH   3   6
ENDBRANCH   1   2
BRANCH   1  33
ATOM     33  C   UNL A   1      33.289  33.050  28.168  1.00  0.00     0.042 C 
BRANCH  33  34
ATOM     34  C   UNL A   1      34.456  33.343  29.099  1.00  0.00     0.118 C 
BRANCH  34  35
ATOM     35  N   UNL A   1      34.327  32.779  30.437  1.00  0.00    -0.352 N 
ATOM     36  C   UNL A   1      35.246  32.332  31.356  1.00  0.00     0.251 C 
ATOM     37  H   UNL A   1      33.395  32.703  30.744  1.00  0.00     0.163 HD
ATOM     38  O   UNL A   1      34.867  31.993  32.476  1.00  0.00    -0.269 OA
BRANCH  36  39
ATOM     39  C   UNL A   1      36.669  32.132  31.005  1.00  0.00     0.039 A 
ATOM     40  C   UNL A   1      37.480  31.494  31.952  1.00  0.00     0.014 A 
ATOM     41  C   UNL A   1      37.215  32.511  29.784  1.00  0.00     0.014 A 
ATOM     42  C   UNL A   1      38.781  31.113  31.621  1.00  0.00     0.010 A 
ATOM     43  C   UNL A   1      38.468  32.032  29.409  1.00  0.00     0.010 A 
ATOM     44  C   UNL A   1      39.252  31.301  30.315  1.00  0.00    -0.014 A 
BRANCH  44  45
ATOM     45  C   UNL A   1      40.524  30.692  29.849  1.00  0.00     0.031 A 
ATOM     46  C   UNL A   1      41.756  31.534  29.687  1.00  0.00     0.074 A 
ATOM     47  C   UNL A   1      40.529  29.405  29.446  1.00  0.00     0.049 A 
ATOM     48  N   UNL A   1      42.896  31.233  29.120  1.00  0.00    -0.248 NA
ATOM     49  C   UNL A   1      41.680  32.913  30.191  1.00  0.00     0.031 C 
ATOM     50  C   UNL A   1      39.381  28.498  29.490  1.00  0.00     0.029 A 
ATOM     51  N   UNL A   1      41.529  28.645  28.891  1.00  0.00    -0.354 N 
ATOM     52  C   UNL A   1      43.656  32.393  29.164  1.00  0.00     0.074 A 
ATOM     53  C   UNL A   1      42.833  33.415  29.776  1.00  0.00     0.031 C 
ATOM     54  C   UNL A   1      39.740  27.306  28.994  1.00  0.00     0.029 A 
ATOM     55  C   UNL A   1      41.127  27.376  28.550  1.00  0.00     0.049 A 
ATOM     56  H   UNL A   1      42.444  28.977  28.750  1.00  0.00     0.167 HD
ATOM     57  C   UNL A   1      44.931  32.582  28.747  1.00  0.00     0.037 A 
ATOM     58  C   UNL A   1      41.790  26.386  27.923  1.00  0.00     0.037 A 
ATOM     59  C   UNL A   1      45.762  31.549  28.188  1.00  0.00     0.049 A 
ATOM     60  C   UNL A   1      43.210  26.612  27.491  1.00  0.00     0.074 A 
ATOM     61  C   UNL A   1      47.101  31.609  27.846  1.00  0.00     0.029 A 
ATOM     62  N   UNL A   1      45.329  30.265  27.890  1.00  0.00    -0.354 N 
ATOM     63  N   UNL A   1      43.943  27.691  27.602  1.00  0.00    -0.248 NA
ATOM     64  C   UNL A   1      43.892  25.484  26.841  1.00  0.00     0.031 C 
ATOM     65  C   UNL A   1      47.468  30.373  27.302  1.00  0.00     0.029 A 
ATOM     66  C   UNL A   1      46.366  29.532  27.337  1.00  0.00     0.049 A 
ATOM     67  H   UNL A   1      44.418  29.926  28.047  1.00  0.00     0.167 HD
ATOM     68  C   UNL A   1      45.171  27.378  27.040  1.00  0.00     0.074 A 
ATOM     69  C   UNL A   1      45.092  25.998  26.607  1.00  0.00     0.031 C 
ATOM     70  C   UNL A   1      46.264  28.166  26.893  1.00  0.00     0.037 A 
BRANCH  57  71
ATOM     71  C   UNL A   1      45.501  33.964  28.882  1.00  0.00     0.064 A 
ATOM     72  C   UNL A   1      46.164  34.377  30.047  1.00  0.00     0.173 A 
ATOM     73  C   UNL A   1      45.387  34.884  27.829  1.00  0.00     0.173 A 
ATOM     74  F   UNL A   1      46.289  33.539  31.087  1.00  0.00    -0.203 F 
ATOM     75  C   UNL A   1      46.656  35.674  30.169  1.00  0.00     0.198 A 
ATOM     76  C   UNL A   1      45.907  36.171  27.943  1.00  0.00     0.198 A 
ATOM     77  F   UNL A   1      44.767  34.538  26.691  1.00  0.00    -0.203 F 
ATOM     78  F   UNL A   1      47.233  36.065  31.314  1.00  0.00    -0.200 F 
ATOM     79  C   UNL A   1      46.531  36.569  29.116  1.00  0.00     0.200 A 
ATOM     80  F   UNL A   1      45.793  37.031  26.922  1.00  0.00    -0.200 F 
ATOM     81  F   UNL A   1      47.002  37.817  29.237  1.00  0.00    -0.200 F 
ENDBRANCH  57  71
BRANCH  58  82
ATOM     82  C   UNL A   1      41.102  25.097  27.667  1.00  0.00     0.064 A 
ATOM     83  C   UNL A   1      40.076  25.006  26.717  1.00  0.00     0.173 A 
ATOM     84  C   UNL A   1      41.481  23.923  28.336  1.00  0.00     0.173 A 
ATOM     85  F   UNL A   1      39.666  26.106  26.069  1.00  0.00    -0.203 F 
ATOM     86  C   UNL A   1      39.453  23.790  26.447  1.00  0.00     0.198 A 
ATOM     87  C   UNL A   1      40.873  22.703  28.049  1.00  0.00     0.198 A 
ATOM     88  F   UNL A   1      42.462  23.959  29.250  1.00  0.00    -0.203 F 
ATOM     89  F   UNL A   1      38.458  23.734  25.552  1.00  0.00    -0.200 F 
ATOM     90  C   UNL A   1      39.857  22.638  27.107  1.00  0.00     0.200 A 
ATOM     91  F   UNL A   1      41.275  21.591  28.679  1.00  0.00    -0.200 F 
ATOM     92  F   UNL A   1      39.266  21.467  26.838  1.00  0.00    -0.200 F 
ENDBRANCH  58  82
BRANCH  70  93
ATOM     93  C   UNL A   1      47.459  27.559  26.223  1.00  0.00     0.064 A 
ATOM     94  C   UNL A   1      47.620  27.617  24.833  1.00  0.00     0.173 A 
ATOM     95  C   UNL A   1      48.477  26.961  26.981  1.00  0.00     0.173 A 
ATOM     96  F   UNL A   1      46.664  28.164  24.065  1.00  0.00    -0.203 F 
ATOM     97  C   UNL A   1      48.754  27.089  24.221  1.00  0.00     0.198 A 
ATOM     98  C   UNL A   1      49.620  26.454  26.369  1.00  0.00     0.198 A 
ATOM     99  F   UNL A   1      48.369  26.882  28.317  1.00  0.00    -0.203 F 
ATOM    100  F   UNL A   1      48.873  27.129  22.887  1.00  0.00    -0.200 F 
ATOM    101  C   UNL A   1      49.755  26.516  24.991  1.00  0.00     0.200 A 
ATOM    102  F   UNL A   1      50.591  25.908  27.114  1.00  0.00    -0.200 F 
ATOM    103  F   UNL A   1      50.851  26.018  24.401  1.00  0.00    -0.200 F 
ENDBRANCH  70  93
ENDBRANCH  44  45
ENDBRANCH  36  39
ENDBRANCH  34  35
ENDBRANCH  33  34
ENDBRANCH   1  33
TORSDOF 14
ENDMDL
