MODEL 1
REMARK VINA RESULT:     -13.2      0.000      0.000
REMARK SMILES Cn1c(C[NH+](C)C)nnc1[C@@H]1CCC[N@@H+](Cc2ccccc2C(=O)NCCCNC(=O)c2ccc(-c3c4nc(c(-c5c(F)c(F)c(F)c(F)c5F)c5ccc([nH]5)c(-c5c(F)c(F)c(F)c(F)c5F)c5nc(c(-c6c(F)c(F)c(F)c(F)c6F)c6ccc3[nH]6)C=C5)C=C4)cc2)C1
REMARK SMILES IDX 23 1 24 2 25 3 22 5 17 6 18 7 19 8 21 9 20 10 16 11 15 12
REMARK SMILES IDX 11 13 12 14 95 15 13 16 14 17 10 19 3 20 8 21 2 22 9 23 1 24
REMARK SMILES IDX 4 25 5 26 6 27 7 28 26 30 27 31 28 32 29 33 30 34 31 36
REMARK SMILES IDX 32 37 33 38 94 39 34 40 93 41 35 42 36 43 37 44 87 45 38 46
REMARK SMILES IDX 92 47 86 48 88 49 39 50 91 51 85 52 84 53 40 55 72 56 52 57
REMARK SMILES IDX 71 58 53 59 56 60 70 61 89 62 54 63 55 64 69 66 90 67 57 68
REMARK SMILES IDX 41 69 42 70 50 71 43 72 44 73 48 74 51 75 45 76 46 77 49 78
REMARK SMILES IDX 47 79 73 80 74 81 82 82 75 83 76 84 80 85 83 86 77 87 78 88
REMARK SMILES IDX 81 89 79 90 58 91 59 92 67 93 60 94 61 95 65 96 68 97 62 98
REMARK SMILES IDX 63 99 66 100 64 101
REMARK H PARENT 25 4 15 18 5 29 29 35 88 54 56 65
REMARK Flexibility Score: inf
ROOT
ATOM      1  C   UNL A   1      31.466  26.913  22.275  1.00  0.00     0.251 C 
ATOM      2  O   UNL A   1      31.087  26.333  21.255  1.00  0.00    -0.269 OA
ATOM      3  N   UNL A   1      32.058  28.134  22.109  1.00  0.00    -0.352 N 
ATOM      4  H   UNL A   1      32.226  28.369  21.168  1.00  0.00     0.163 HD
ENDROOT
BRANCH   1   5
ATOM      5  C   UNL A   1      31.329  26.208  23.575  1.00  0.00     0.048 A 
ATOM      6  C   UNL A   1      32.317  25.499  24.287  1.00  0.00     0.019 A 
ATOM      7  C   UNL A   1      31.952  24.943  25.540  1.00  0.00     0.010 A 
ATOM      8  C   UNL A   1      30.685  25.124  26.093  1.00  0.00     0.001 A 
ATOM      9  C   UNL A   1      30.064  26.414  24.170  1.00  0.00     0.014 A 
ATOM     10  C   UNL A   1      29.743  25.879  25.415  1.00  0.00     0.001 A 
BRANCH   6  11
ATOM     11  C   UNL A   1      33.734  25.244  23.845  1.00  0.00     0.299 C 
BRANCH  11  12
ATOM     12  N   UNL A   1      34.480  24.132  24.415  1.00  0.00    -0.331 N 
ATOM     13  C   UNL A   1      35.323  21.767  24.264  1.00  0.00     0.113 C 
ATOM     14  C   UNL A   1      36.273  22.070  25.427  1.00  0.00     0.023 C 
ATOM     15  C   UNL A   1      34.883  23.045  23.529  1.00  0.00     0.274 C 
ATOM     16  C   UNL A   1      35.829  23.261  26.269  1.00  0.00     0.062 C 
ATOM     17  C   UNL A   1      35.485  24.484  25.410  1.00  0.00     0.262 C 
ATOM     18  H   UNL A   1      33.724  23.697  24.943  1.00  0.00     0.348 HD
BRANCH  13  19
ATOM     19  C   UNL A   1      34.234  20.787  24.637  1.00  0.00     0.141 A 
ATOM     20  C   UNL A   1      33.036  19.025  25.232  1.00  0.00     0.187 A 
ATOM     21  N   UNL A   1      32.237  20.072  25.162  1.00  0.00    -0.129 NA
ATOM     22  N   UNL A   1      34.305  19.425  24.856  1.00  0.00    -0.313 N 
ATOM     23  N   UNL A   1      32.979  21.162  24.806  1.00  0.00    -0.135 NA
ATOM     24  C   UNL A   1      35.460  18.586  24.727  1.00  0.00     0.153 C 
BRANCH  20  25
ATOM     25  C   UNL A   1      32.601  17.663  25.705  1.00  0.00     0.340 C 
BRANCH  25  26
ATOM     26  N   UNL A   1      32.574  16.659  24.642  1.00  0.00    -0.333 N 
ATOM     27  C   UNL A   1      33.334  15.462  24.942  1.00  0.00     0.332 C 
ATOM     28  C   UNL A   1      32.724  17.169  23.297  1.00  0.00     0.332 C 
ATOM     29  H   UNL A   1      31.606  16.339  24.637  1.00  0.00     0.348 HD
ENDBRANCH  25  26
ENDBRANCH  20  25
ENDBRANCH  13  19
ENDBRANCH  11  12
ENDBRANCH   6  11
ENDBRANCH   1   5
BRANCH   3  30
ATOM     30  C   UNL A   1      32.484  29.147  23.050  1.00  0.00     0.118 C 
BRANCH  30  31
ATOM     31  C   UNL A   1      33.846  28.892  23.678  1.00  0.00     0.042 C 
BRANCH  31  32
ATOM     32  C   UNL A   1      33.848  28.789  25.200  1.00  0.00     0.118 C 
BRANCH  32  33
ATOM     33  N   UNL A   1      33.057  29.794  25.899  1.00  0.00    -0.352 N 
ATOM     34  C   UNL A   1      33.395  30.671  26.900  1.00  0.00     0.251 C 
ATOM     35  H   UNL A   1      32.120  29.854  25.603  1.00  0.00     0.163 HD
ATOM     36  O   UNL A   1      32.594  31.507  27.295  1.00  0.00    -0.269 OA
BRANCH  34  37
ATOM     37  C   UNL A   1      34.703  30.601  27.562  1.00  0.00     0.039 A 
ATOM     38  C   UNL A   1      35.485  31.762  27.633  1.00  0.00     0.014 A 
ATOM     39  C   UNL A   1      35.177  29.398  28.070  1.00  0.00     0.014 A 
ATOM     40  C   UNL A   1      36.700  31.744  28.313  1.00  0.00     0.010 A 
ATOM     41  C   UNL A   1      36.344  29.393  28.811  1.00  0.00     0.010 A 
ATOM     42  C   UNL A   1      37.112  30.564  28.936  1.00  0.00    -0.014 A 
BRANCH  42  43
ATOM     43  C   UNL A   1      38.388  30.448  29.667  1.00  0.00     0.031 A 
ATOM     44  C   UNL A   1      39.421  29.524  29.103  1.00  0.00     0.074 A 
ATOM     45  C   UNL A   1      38.515  30.998  30.886  1.00  0.00     0.049 A 
ATOM     46  N   UNL A   1      40.401  28.909  29.704  1.00  0.00    -0.248 NA
ATOM     47  C   UNL A   1      39.272  29.191  27.676  1.00  0.00     0.031 C 
ATOM     48  C   UNL A   1      37.555  31.905  31.516  1.00  0.00     0.029 A 
ATOM     49  N   UNL A   1      39.486  30.821  31.837  1.00  0.00    -0.354 N 
ATOM     50  C   UNL A   1      40.935  28.052  28.751  1.00  0.00     0.074 A 
ATOM     51  C   UNL A   1      40.166  28.224  27.537  1.00  0.00     0.031 C 
ATOM     52  C   UNL A   1      37.971  32.185  32.761  1.00  0.00     0.029 A 
ATOM     53  C   UNL A   1      39.191  31.433  33.031  1.00  0.00     0.049 A 
ATOM     54  H   UNL A   1      40.311  30.308  31.680  1.00  0.00     0.167 HD
ATOM     55  C   UNL A   1      41.970  27.193  28.894  1.00  0.00     0.037 A 
ATOM     56  C   UNL A   1      39.821  31.349  34.217  1.00  0.00     0.037 A 
ATOM     57  C   UNL A   1      42.748  27.098  30.100  1.00  0.00     0.049 A 
ATOM     58  C   UNL A   1      41.028  30.457  34.325  1.00  0.00     0.074 A 
ATOM     59  C   UNL A   1      43.862  26.321  30.356  1.00  0.00     0.029 A 
ATOM     60  N   UNL A   1      42.495  27.834  31.251  1.00  0.00    -0.354 N 
ATOM     61  N   UNL A   1      41.534  29.642  33.430  1.00  0.00    -0.248 NA
ATOM     62  C   UNL A   1      41.750  30.472  35.603  1.00  0.00     0.031 C 
ATOM     63  C   UNL A   1      44.275  26.578  31.669  1.00  0.00     0.029 A 
ATOM     64  C   UNL A   1      43.438  27.538  32.218  1.00  0.00     0.049 A 
ATOM     65  H   UNL A   1      41.753  28.471  31.362  1.00  0.00     0.167 HD
ATOM     66  C   UNL A   1      42.645  29.063  34.025  1.00  0.00     0.074 A 
ATOM     67  C   UNL A   1      42.744  29.630  35.356  1.00  0.00     0.031 C 
ATOM     68  C   UNL A   1      43.506  28.143  33.524  1.00  0.00     0.037 A 
BRANCH  55  69
ATOM     69  C   UNL A   1      42.294  26.296  27.737  1.00  0.00     0.064 A 
ATOM     70  C   UNL A   1      41.680  25.046  27.573  1.00  0.00     0.173 A 
ATOM     71  C   UNL A   1      43.243  26.689  26.780  1.00  0.00     0.173 A 
ATOM     72  F   UNL A   1      40.779  24.613  28.469  1.00  0.00    -0.203 F 
ATOM     73  C   UNL A   1      42.028  24.207  26.516  1.00  0.00     0.198 A 
ATOM     74  C   UNL A   1      43.566  25.862  25.707  1.00  0.00     0.198 A 
ATOM     75  F   UNL A   1      43.863  27.873  26.889  1.00  0.00    -0.203 F 
ATOM     76  F   UNL A   1      41.471  22.992  26.415  1.00  0.00    -0.200 F 
ATOM     77  C   UNL A   1      42.966  24.619  25.582  1.00  0.00     0.200 A 
ATOM     78  F   UNL A   1      44.466  26.266  24.800  1.00  0.00    -0.200 F 
ATOM     79  F   UNL A   1      43.300  23.812  24.565  1.00  0.00    -0.200 F 
ENDBRANCH  55  69
BRANCH  56  80
ATOM     80  C   UNL A   1      39.325  32.132  35.377  1.00  0.00     0.064 A 
ATOM     81  C   UNL A   1      39.632  33.493  35.499  1.00  0.00     0.173 A 
ATOM     82  C   UNL A   1      38.511  31.555  36.363  1.00  0.00     0.173 A 
ATOM     83  F   UNL A   1      40.418  34.085  34.588  1.00  0.00    -0.203 F 
ATOM     84  C   UNL A   1      39.154  34.247  36.569  1.00  0.00     0.198 A 
ATOM     85  C   UNL A   1      38.015  32.315  37.421  1.00  0.00     0.198 A 
ATOM     86  F   UNL A   1      38.177  30.259  36.285  1.00  0.00    -0.203 F 
ATOM     87  F   UNL A   1      39.488  35.540  36.676  1.00  0.00    -0.200 F 
ATOM     88  C   UNL A   1      38.340  33.659  37.525  1.00  0.00     0.200 A 
ATOM     89  F   UNL A   1      37.214  31.748  38.333  1.00  0.00    -0.200 F 
ATOM     90  F   UNL A   1      37.871  34.387  38.548  1.00  0.00    -0.200 F 
ENDBRANCH  56  80
BRANCH  68  91
ATOM     91  C   UNL A   1      44.646  27.735  34.404  1.00  0.00     0.064 A 
ATOM     92  C   UNL A   1      44.552  26.628  35.258  1.00  0.00     0.173 A 
ATOM     93  C   UNL A   1      45.860  28.434  34.353  1.00  0.00     0.173 A 
ATOM     94  F   UNL A   1      43.403  25.941  35.349  1.00  0.00    -0.203 F 
ATOM     95  C   UNL A   1      45.633  26.245  36.046  1.00  0.00     0.198 A 
ATOM     96  C   UNL A   1      46.946  28.034  35.124  1.00  0.00     0.198 A 
ATOM     97  F   UNL A   1      45.995  29.497  33.545  1.00  0.00    -0.203 F 
ATOM     98  F   UNL A   1      45.514  25.206  36.882  1.00  0.00    -0.200 F 
ATOM     99  C   UNL A   1      46.830  26.944  35.972  1.00  0.00     0.200 A 
ATOM    100  F   UNL A   1      48.104  28.704  35.047  1.00  0.00    -0.200 F 
ATOM    101  F   UNL A   1      47.872  26.568  36.727  1.00  0.00    -0.200 F 
ENDBRANCH  68  91
ENDBRANCH  42  43
ENDBRANCH  34  37
ENDBRANCH  32  33
ENDBRANCH  31  32
ENDBRANCH  30  31
ENDBRANCH   3  30
TORSDOF 15
ENDMDL
MODEL 2
REMARK VINA RESULT:     -13.1      2.936      8.244
REMARK SMILES Cn1c(C[NH+](C)C)nnc1[C@@H]1CCC[N@@H+](Cc2ccccc2C(=O)NCCCNC(=O)c2ccc(-c3c4nc(c(-c5c(F)c(F)c(F)c(F)c5F)c5ccc([nH]5)c(-c5c(F)c(F)c(F)c(F)c5F)c5nc(c(-c6c(F)c(F)c(F)c(F)c6F)c6ccc3[nH]6)C=C5)C=C4)cc2)C1
REMARK SMILES IDX 23 1 24 2 25 3 22 5 17 6 18 7 19 8 21 9 20 10 16 11 15 12
REMARK SMILES IDX 11 13 12 14 95 15 13 16 14 17 10 19 3 20 8 21 2 22 9 23 1 24
REMARK SMILES IDX 4 25 5 26 6 27 7 28 26 30 27 31 28 32 29 33 30 34 31 36
REMARK SMILES IDX 32 37 33 38 94 39 34 40 93 41 35 42 36 43 37 44 87 45 38 46
REMARK SMILES IDX 92 47 86 48 88 49 39 50 91 51 85 52 84 53 40 55 72 56 52 57
REMARK SMILES IDX 71 58 53 59 56 60 70 61 89 62 54 63 55 64 69 66 90 67 57 68
REMARK SMILES IDX 41 69 42 70 50 71 43 72 44 73 48 74 51 75 45 76 46 77 49 78
REMARK SMILES IDX 47 79 73 80 74 81 82 82 75 83 76 84 80 85 83 86 77 87 78 88
REMARK SMILES IDX 81 89 79 90 58 91 59 92 67 93 60 94 61 95 65 96 68 97 62 98
REMARK SMILES IDX 63 99 66 100 64 101
REMARK H PARENT 25 4 15 18 5 29 29 35 88 54 56 65
REMARK Flexibility Score: inf
ROOT
ATOM      1  C   UNL A   1      36.271  22.626  23.584  1.00  0.00     0.251 C 
ATOM      2  O   UNL A   1      36.255  22.985  22.405  1.00  0.00    -0.269 OA
ATOM      3  N   UNL A   1      37.478  22.659  24.224  1.00  0.00    -0.352 N 
ATOM      4  H   UNL A   1      38.238  22.858  23.631  1.00  0.00     0.163 HD
ENDROOT
BRANCH   1   5
ATOM      5  C   UNL A   1      35.011  22.110  24.178  1.00  0.00     0.048 A 
ATOM      6  C   UNL A   1      33.732  22.701  24.149  1.00  0.00     0.019 A 
ATOM      7  C   UNL A   1      32.666  21.990  24.756  1.00  0.00     0.010 A 
ATOM      8  C   UNL A   1      32.841  20.726  25.320  1.00  0.00     0.001 A 
ATOM      9  C   UNL A   1      35.160  20.813  24.718  1.00  0.00     0.014 A 
ATOM     10  C   UNL A   1      34.088  20.126  25.283  1.00  0.00     0.001 A 
BRANCH   6  11
ATOM     11  C   UNL A   1      33.373  24.037  23.553  1.00  0.00     0.299 C 
BRANCH  11  12
ATOM     12  N   UNL A   1      32.995  25.139  24.425  1.00  0.00    -0.331 N 
ATOM     13  C   UNL A   1      31.217  26.554  25.506  1.00  0.00     0.113 C 
ATOM     14  C   UNL A   1      32.287  27.114  26.447  1.00  0.00     0.023 C 
ATOM     15  C   UNL A   1      31.622  25.191  24.916  1.00  0.00     0.274 C 
ATOM     16  C   UNL A   1      33.704  26.963  25.902  1.00  0.00     0.062 C 
ATOM     17  C   UNL A   1      33.989  25.539  25.411  1.00  0.00     0.262 C 
ATOM     18  H   UNL A   1      32.992  25.887  23.731  1.00  0.00     0.348 HD
BRANCH  13  19
ATOM     19  C   UNL A   1      30.692  27.586  24.534  1.00  0.00     0.141 A 
ATOM     20  C   UNL A   1      29.491  28.817  23.143  1.00  0.00     0.187 A 
ATOM     21  N   UNL A   1      30.650  29.415  23.339  1.00  0.00    -0.129 NA
ATOM     22  N   UNL A   1      29.497  27.626  23.844  1.00  0.00    -0.313 N 
ATOM     23  N   UNL A   1      31.387  28.661  24.207  1.00  0.00    -0.135 NA
ATOM     24  C   UNL A   1      28.459  26.636  23.850  1.00  0.00     0.153 C 
BRANCH  20  25
ATOM     25  C   UNL A   1      28.366  29.405  22.332  1.00  0.00     0.340 C 
BRANCH  25  26
ATOM     26  N   UNL A   1      28.406  30.865  22.253  1.00  0.00    -0.333 N 
ATOM     27  C   UNL A   1      27.732  31.533  23.348  1.00  0.00     0.332 C 
ATOM     28  C   UNL A   1      28.166  31.425  20.942  1.00  0.00     0.332 C 
ATOM     29  H   UNL A   1      29.390  31.087  22.398  1.00  0.00     0.348 HD
ENDBRANCH  25  26
ENDBRANCH  20  25
ENDBRANCH  13  19
ENDBRANCH  11  12
ENDBRANCH   6  11
ENDBRANCH   1   5
BRANCH   3  30
ATOM     30  C   UNL A   1      37.854  22.459  25.607  1.00  0.00     0.118 C 
BRANCH  30  31
ATOM     31  C   UNL A   1      38.840  21.325  25.836  1.00  0.00     0.042 C 
BRANCH  31  32
ATOM     32  C   UNL A   1      40.151  21.730  26.504  1.00  0.00     0.118 C 
BRANCH  32  33
ATOM     33  N   UNL A   1      41.262  21.994  25.598  1.00  0.00    -0.352 N 
ATOM     34  C   UNL A   1      42.193  23.003  25.583  1.00  0.00     0.251 C 
ATOM     35  H   UNL A   1      41.362  21.335  24.873  1.00  0.00     0.163 HD
ATOM     36  O   UNL A   1      43.112  22.993  24.776  1.00  0.00    -0.269 OA
BRANCH  34  37
ATOM     37  C   UNL A   1      42.088  24.147  26.495  1.00  0.00     0.039 A 
ATOM     38  C   UNL A   1      42.605  25.384  26.088  1.00  0.00     0.014 A 
ATOM     39  C   UNL A   1      41.525  23.999  27.758  1.00  0.00     0.014 A 
ATOM     40  C   UNL A   1      42.460  26.504  26.901  1.00  0.00     0.010 A 
ATOM     41  C   UNL A   1      41.310  25.122  28.535  1.00  0.00     0.010 A 
ATOM     42  C   UNL A   1      41.776  26.380  28.113  1.00  0.00    -0.014 A 
BRANCH  42  43
ATOM     43  C   UNL A   1      41.586  27.506  29.045  1.00  0.00     0.031 A 
ATOM     44  C   UNL A   1      42.430  27.527  30.280  1.00  0.00     0.074 A 
ATOM     45  C   UNL A   1      40.557  28.352  28.873  1.00  0.00     0.049 A 
ATOM     46  N   UNL A   1      42.206  28.102  31.429  1.00  0.00    -0.248 NA
ATOM     47  C   UNL A   1      43.659  26.718  30.230  1.00  0.00     0.031 C 
ATOM     48  C   UNL A   1      39.679  28.398  27.703  1.00  0.00     0.029 A 
ATOM     49  N   UNL A   1      40.041  29.299  29.719  1.00  0.00    -0.354 N 
ATOM     50  C   UNL A   1      43.222  27.657  32.264  1.00  0.00     0.074 A 
ATOM     51  C   UNL A   1      44.056  26.762  31.492  1.00  0.00     0.031 C 
ATOM     52  C   UNL A   1      38.714  29.309  27.916  1.00  0.00     0.029 A 
ATOM     53  C   UNL A   1      38.877  29.862  29.256  1.00  0.00     0.049 A 
ATOM     54  H   UNL A   1      40.462  29.550  30.572  1.00  0.00     0.167 HD
ATOM     55  C   UNL A   1      43.421  27.968  33.566  1.00  0.00     0.037 A 
ATOM     56  C   UNL A   1      38.021  30.696  29.875  1.00  0.00     0.037 A 
ATOM     57  C   UNL A   1      42.604  28.912  34.280  1.00  0.00     0.049 A 
ATOM     58  C   UNL A   1      38.317  31.102  31.293  1.00  0.00     0.074 A 
ATOM     59  C   UNL A   1      42.736  29.369  35.578  1.00  0.00     0.029 A 
ATOM     60  N   UNL A   1      41.504  29.562  33.733  1.00  0.00    -0.354 N 
ATOM     61  N   UNL A   1      39.271  30.682  32.089  1.00  0.00    -0.248 NA
ATOM     62  C   UNL A   1      37.420  32.094  31.898  1.00  0.00     0.031 C 
ATOM     63  C   UNL A   1      41.707  30.287  35.820  1.00  0.00     0.029 A 
ATOM     64  C   UNL A   1      40.955  30.426  34.662  1.00  0.00     0.049 A 
ATOM     65  H   UNL A   1      41.167  29.429  32.818  1.00  0.00     0.167 HD
ATOM     66  C   UNL A   1      39.106  31.371  33.281  1.00  0.00     0.074 A 
ATOM     67  C   UNL A   1      37.964  32.246  33.098  1.00  0.00     0.031 C 
ATOM     68  C   UNL A   1      39.826  31.290  34.427  1.00  0.00     0.037 A 
BRANCH  55  69
ATOM     69  C   UNL A   1      44.540  27.275  34.283  1.00  0.00     0.064 A 
ATOM     70  C   UNL A   1      44.361  26.034  34.914  1.00  0.00     0.173 A 
ATOM     71  C   UNL A   1      45.812  27.864  34.349  1.00  0.00     0.173 A 
ATOM     72  F   UNL A   1      43.160  25.436  34.897  1.00  0.00    -0.203 F 
ATOM     73  C   UNL A   1      45.402  25.427  35.614  1.00  0.00     0.198 A 
ATOM     74  C   UNL A   1      46.859  27.239  35.023  1.00  0.00     0.198 A 
ATOM     75  F   UNL A   1      46.039  29.050  33.766  1.00  0.00    -0.203 F 
ATOM     76  F   UNL A   1      45.188  24.272  36.259  1.00  0.00    -0.200 F 
ATOM     77  C   UNL A   1      46.650  26.028  35.663  1.00  0.00     0.200 A 
ATOM     78  F   UNL A   1      48.068  27.817  35.061  1.00  0.00    -0.200 F 
ATOM     79  F   UNL A   1      47.651  25.442  36.336  1.00  0.00    -0.200 F 
ENDBRANCH  55  69
BRANCH  56  80
ATOM     80  C   UNL A   1      36.825  31.199  29.154  1.00  0.00     0.064 A 
ATOM     81  C   UNL A   1      36.773  32.523  28.699  1.00  0.00     0.173 A 
ATOM     82  C   UNL A   1      35.730  30.369  28.873  1.00  0.00     0.173 A 
ATOM     83  F   UNL A   1      37.790  33.358  28.956  1.00  0.00    -0.203 F 
ATOM     84  C   UNL A   1      35.667  33.003  28.001  1.00  0.00     0.198 A 
ATOM     85  C   UNL A   1      34.633  30.843  28.155  1.00  0.00     0.198 A 
ATOM     86  F   UNL A   1      35.735  29.090  29.274  1.00  0.00    -0.203 F 
ATOM     87  F   UNL A   1      35.632  34.282  27.604  1.00  0.00    -0.200 F 
ATOM     88  C   UNL A   1      34.601  32.161  27.723  1.00  0.00     0.200 A 
ATOM     89  F   UNL A   1      33.613  30.022  27.872  1.00  0.00    -0.200 F 
ATOM     90  F   UNL A   1      33.542  32.619  27.040  1.00  0.00    -0.200 F 
ENDBRANCH  56  80
BRANCH  68  91
ATOM     91  C   UNL A   1      39.423  32.202  35.544  1.00  0.00     0.064 A 
ATOM     92  C   UNL A   1      38.541  31.783  36.549  1.00  0.00     0.173 A 
ATOM     93  C   UNL A   1      39.968  33.491  35.632  1.00  0.00     0.173 A 
ATOM     94  F   UNL A   1      37.986  30.563  36.494  1.00  0.00    -0.203 F 
ATOM     95  C   UNL A   1      38.202  32.634  37.596  1.00  0.00     0.198 A 
ATOM     96  C   UNL A   1      39.645  34.330  36.693  1.00  0.00     0.198 A 
ATOM     97  F   UNL A   1      40.821  33.930  34.694  1.00  0.00    -0.203 F 
ATOM     98  F   UNL A   1      37.329  32.230  38.528  1.00  0.00    -0.200 F 
ATOM     99  C   UNL A   1      38.760  33.903  37.671  1.00  0.00     0.200 A 
ATOM    100  F   UNL A   1      40.190  35.552  36.769  1.00  0.00    -0.200 F 
ATOM    101  F   UNL A   1      38.437  34.718  38.684  1.00  0.00    -0.200 F 
ENDBRANCH  68  91
ENDBRANCH  42  43
ENDBRANCH  34  37
ENDBRANCH  32  33
ENDBRANCH  31  32
ENDBRANCH  30  31
ENDBRANCH   3  30
TORSDOF 15
ENDMDL
MODEL 3
REMARK VINA RESULT:     -12.6      2.925      6.243
REMARK SMILES Cn1c(C[NH+](C)C)nnc1[C@@H]1CCC[N@@H+](Cc2ccccc2C(=O)NCCCNC(=O)c2ccc(-c3c4nc(c(-c5c(F)c(F)c(F)c(F)c5F)c5ccc([nH]5)c(-c5c(F)c(F)c(F)c(F)c5F)c5nc(c(-c6c(F)c(F)c(F)c(F)c6F)c6ccc3[nH]6)C=C5)C=C4)cc2)C1
REMARK SMILES IDX 23 1 24 2 25 3 22 5 17 6 18 7 19 8 21 9 20 10 16 11 15 12
REMARK SMILES IDX 11 13 12 14 95 15 13 16 14 17 10 19 3 20 8 21 2 22 9 23 1 24
REMARK SMILES IDX 4 25 5 26 6 27 7 28 26 30 27 31 28 32 29 33 30 34 31 36
REMARK SMILES IDX 32 37 33 38 94 39 34 40 93 41 35 42 36 43 37 44 87 45 38 46
REMARK SMILES IDX 92 47 86 48 88 49 39 50 91 51 85 52 84 53 40 55 72 56 52 57
REMARK SMILES IDX 71 58 53 59 56 60 70 61 89 62 54 63 55 64 69 66 90 67 57 68
REMARK SMILES IDX 41 69 42 70 50 71 43 72 44 73 48 74 51 75 45 76 46 77 49 78
REMARK SMILES IDX 47 79 73 80 74 81 82 82 75 83 76 84 80 85 83 86 77 87 78 88
REMARK SMILES IDX 81 89 79 90 58 91 59 92 67 93 60 94 61 95 65 96 68 97 62 98
REMARK SMILES IDX 63 99 66 100 64 101
REMARK H PARENT 25 4 15 18 5 29 29 35 88 54 56 65
REMARK Flexibility Score: inf
ROOT
ATOM      1  C   UNL A   1      32.788  24.859  23.084  1.00  0.00     0.251 C 
ATOM      2  O   UNL A   1      31.619  24.631  22.768  1.00  0.00    -0.269 OA
ATOM      3  N   UNL A   1      33.588  23.775  23.319  1.00  0.00    -0.352 N 
ATOM      4  H   UNL A   1      33.104  22.918  23.324  1.00  0.00     0.163 HD
ENDROOT
BRANCH   1   5
ATOM      5  C   UNL A   1      33.202  26.273  23.267  1.00  0.00     0.048 A 
ATOM      6  C   UNL A   1      33.376  26.979  24.474  1.00  0.00     0.019 A 
ATOM      7  C   UNL A   1      33.823  28.322  24.392  1.00  0.00     0.010 A 
ATOM      8  C   UNL A   1      34.139  28.927  23.175  1.00  0.00     0.001 A 
ATOM      9  C   UNL A   1      33.565  26.891  22.049  1.00  0.00     0.014 A 
ATOM     10  C   UNL A   1      34.028  28.203  22.000  1.00  0.00     0.001 A 
BRANCH   6  11
ATOM     11  C   UNL A   1      33.113  26.460  25.863  1.00  0.00     0.299 C 
BRANCH  11  12
ATOM     12  N   UNL A   1      32.171  25.368  26.061  1.00  0.00    -0.331 N 
ATOM     13  C   UNL A   1      31.658  23.059  26.917  1.00  0.00     0.113 C 
ATOM     14  C   UNL A   1      30.168  23.367  26.748  1.00  0.00     0.023 C 
ATOM     15  C   UNL A   1      32.503  24.340  27.041  1.00  0.00     0.274 C 
ATOM     16  C   UNL A   1      29.898  24.499  25.763  1.00  0.00     0.062 C 
ATOM     17  C   UNL A   1      30.762  25.734  26.046  1.00  0.00     0.262 C 
ATOM     18  H   UNL A   1      32.327  24.873  25.183  1.00  0.00     0.348 HD
BRANCH  13  19
ATOM     19  C   UNL A   1      32.154  22.009  25.950  1.00  0.00     0.141 A 
ATOM     20  C   UNL A   1      33.176  20.331  24.932  1.00  0.00     0.187 A 
ATOM     21  N   UNL A   1      32.237  20.798  24.132  1.00  0.00    -0.129 NA
ATOM     22  N   UNL A   1      33.190  21.105  26.077  1.00  0.00    -0.313 N 
ATOM     23  N   UNL A   1      31.598  21.826  24.765  1.00  0.00    -0.135 NA
ATOM     24  C   UNL A   1      34.103  20.983  27.177  1.00  0.00     0.153 C 
BRANCH  20  25
ATOM     25  C   UNL A   1      34.018  19.121  24.626  1.00  0.00     0.340 C 
BRANCH  25  26
ATOM     26  N   UNL A   1      33.232  17.929  24.308  1.00  0.00    -0.333 N 
ATOM     27  C   UNL A   1      32.528  17.367  25.443  1.00  0.00     0.332 C 
ATOM     28  C   UNL A   1      33.877  16.969  23.440  1.00  0.00     0.332 C 
ATOM     29  H   UNL A   1      32.487  18.284  23.709  1.00  0.00     0.348 HD
ENDBRANCH  25  26
ENDBRANCH  20  25
ENDBRANCH  13  19
ENDBRANCH  11  12
ENDBRANCH   6  11
ENDBRANCH   1   5
BRANCH   3  30
ATOM     30  C   UNL A   1      35.009  23.647  23.560  1.00  0.00     0.118 C 
BRANCH  30  31
ATOM     31  C   UNL A   1      35.394  23.551  25.028  1.00  0.00     0.042 C 
BRANCH  31  32
ATOM     32  C   UNL A   1      36.783  24.081  25.369  1.00  0.00     0.118 C 
BRANCH  32  33
ATOM     33  N   UNL A   1      37.837  23.078  25.445  1.00  0.00    -0.352 N 
ATOM     34  C   UNL A   1      39.030  23.071  26.126  1.00  0.00     0.251 C 
ATOM     35  H   UNL A   1      37.665  22.264  24.917  1.00  0.00     0.163 HD
ATOM     36  O   UNL A   1      39.743  22.078  26.127  1.00  0.00    -0.269 OA
BRANCH  34  37
ATOM     37  C   UNL A   1      39.509  24.267  26.828  1.00  0.00     0.039 A 
ATOM     38  C   UNL A   1      40.286  25.196  26.123  1.00  0.00     0.014 A 
ATOM     39  C   UNL A   1      39.237  24.455  28.178  1.00  0.00     0.014 A 
ATOM     40  C   UNL A   1      40.699  26.373  26.741  1.00  0.00     0.010 A 
ATOM     41  C   UNL A   1      39.578  25.655  28.773  1.00  0.00     0.010 A 
ATOM     42  C   UNL A   1      40.311  26.620  28.060  1.00  0.00    -0.014 A 
BRANCH  42  43
ATOM     43  C   UNL A   1      40.712  27.831  28.800  1.00  0.00     0.031 A 
ATOM     44  C   UNL A   1      42.013  27.788  29.537  1.00  0.00     0.074 A 
ATOM     45  C   UNL A   1      39.840  28.841  28.956  1.00  0.00     0.049 A 
ATOM     46  N   UNL A   1      42.406  28.481  30.569  1.00  0.00    -0.248 NA
ATOM     47  C   UNL A   1      42.968  26.758  29.091  1.00  0.00     0.031 C 
ATOM     48  C   UNL A   1      38.547  28.962  28.281  1.00  0.00     0.029 A 
ATOM     49  N   UNL A   1      39.890  29.931  29.786  1.00  0.00    -0.354 N 
ATOM     50  C   UNL A   1      43.617  27.918  30.948  1.00  0.00     0.074 A 
ATOM     51  C   UNL A   1      43.888  26.824  30.041  1.00  0.00     0.031 C 
ATOM     52  C   UNL A   1      37.913  30.052  28.744  1.00  0.00     0.029 A 
ATOM     53  C   UNL A   1      38.731  30.667  29.783  1.00  0.00     0.049 A 
ATOM     54  H   UNL A   1      40.678  30.162  30.328  1.00  0.00     0.167 HD
ATOM     55  C   UNL A   1      44.416  28.286  31.976  1.00  0.00     0.037 A 
ATOM     56  C   UNL A   1      38.363  31.693  30.573  1.00  0.00     0.037 A 
ATOM     57  C   UNL A   1      44.141  29.419  32.817  1.00  0.00     0.049 A 
ATOM     58  C   UNL A   1      39.314  32.144  31.649  1.00  0.00     0.074 A 
ATOM     59  C   UNL A   1      44.900  29.941  33.847  1.00  0.00     0.029 A 
ATOM     60  N   UNL A   1      43.013  30.221  32.699  1.00  0.00    -0.354 N 
ATOM     61  N   UNL A   1      40.456  31.613  32.015  1.00  0.00    -0.248 NA
ATOM     62  C   UNL A   1      38.926  33.331  32.419  1.00  0.00     0.031 C 
ATOM     63  C   UNL A   1      44.223  31.054  34.361  1.00  0.00     0.029 A 
ATOM     64  C   UNL A   1      43.059  31.243  33.630  1.00  0.00     0.049 A 
ATOM     65  H   UNL A   1      42.288  30.084  32.048  1.00  0.00     0.167 HD
ATOM     66  C   UNL A   1      40.936  32.411  33.043  1.00  0.00     0.074 A 
ATOM     67  C   UNL A   1      39.963  33.470  33.233  1.00  0.00     0.031 C 
ATOM     68  C   UNL A   1      42.074  32.284  33.770  1.00  0.00     0.037 A 
BRANCH  55  69
ATOM     69  C   UNL A   1      45.632  27.450  32.244  1.00  0.00     0.064 A 
ATOM     70  C   UNL A   1      46.879  27.748  31.673  1.00  0.00     0.173 A 
ATOM     71  C   UNL A   1      45.548  26.324  33.078  1.00  0.00     0.173 A 
ATOM     72  F   UNL A   1      47.010  28.802  30.853  1.00  0.00    -0.203 F 
ATOM     73  C   UNL A   1      47.986  26.933  31.899  1.00  0.00     0.198 A 
ATOM     74  C   UNL A   1      46.664  25.529  33.327  1.00  0.00     0.198 A 
ATOM     75  F   UNL A   1      44.381  25.990  33.648  1.00  0.00    -0.203 F 
ATOM     76  F   UNL A   1      49.150  27.205  31.293  1.00  0.00    -0.200 F 
ATOM     77  C   UNL A   1      47.879  25.828  32.729  1.00  0.00     0.200 A 
ATOM     78  F   UNL A   1      46.561  24.466  34.137  1.00  0.00    -0.200 F 
ATOM     79  F   UNL A   1      48.945  25.045  32.945  1.00  0.00    -0.200 F 
ENDBRANCH  55  69
BRANCH  56  80
ATOM     80  C   UNL A   1      37.052  32.356  30.364  1.00  0.00     0.064 A 
ATOM     81  C   UNL A   1      36.008  32.171  31.279  1.00  0.00     0.173 A 
ATOM     82  C   UNL A   1      36.821  33.209  29.275  1.00  0.00     0.173 A 
ATOM     83  F   UNL A   1      36.176  31.353  32.328  1.00  0.00    -0.203 F 
ATOM     84  C   UNL A   1      34.778  32.805  31.109  1.00  0.00     0.198 A 
ATOM     85  C   UNL A   1      35.599  33.861  29.117  1.00  0.00     0.198 A 
ATOM     86  F   UNL A   1      37.793  33.430  28.376  1.00  0.00    -0.203 F 
ATOM     87  F   UNL A   1      33.788  32.587  31.984  1.00  0.00    -0.200 F 
ATOM     88  C   UNL A   1      34.578  33.655  30.032  1.00  0.00     0.200 A 
ATOM     89  F   UNL A   1      35.415  34.696  28.085  1.00  0.00    -0.200 F 
ATOM     90  F   UNL A   1      33.399  34.274  29.875  1.00  0.00    -0.200 F 
ENDBRANCH  56  80
BRANCH  68  91
ATOM     91  C   UNL A   1      42.340  33.340  34.797  1.00  0.00     0.064 A 
ATOM     92  C   UNL A   1      43.040  34.512  34.478  1.00  0.00     0.173 A 
ATOM     93  C   UNL A   1      41.845  33.195  36.101  1.00  0.00     0.173 A 
ATOM     94  F   UNL A   1      43.544  34.683  33.246  1.00  0.00    -0.203 F 
ATOM     95  C   UNL A   1      43.251  35.496  35.438  1.00  0.00     0.198 A 
ATOM     96  C   UNL A   1      42.037  34.192  37.051  1.00  0.00     0.198 A 
ATOM     97  F   UNL A   1      41.165  32.091  36.447  1.00  0.00    -0.203 F 
ATOM     98  F   UNL A   1      43.953  36.593  35.126  1.00  0.00    -0.200 F 
ATOM     99  C   UNL A   1      42.744  35.338  36.720  1.00  0.00     0.200 A 
ATOM    100  F   UNL A   1      41.540  34.043  38.287  1.00  0.00    -0.200 F 
ATOM    101  F   UNL A   1      42.942  36.291  37.641  1.00  0.00    -0.200 F 
ENDBRANCH  68  91
ENDBRANCH  42  43
ENDBRANCH  34  37
ENDBRANCH  32  33
ENDBRANCH  31  32
ENDBRANCH  30  31
ENDBRANCH   3  30
TORSDOF 15
ENDMDL
