MODEL 1
REMARK VINA RESULT:     -12.5      0.000      0.000
REMARK SMILES Cc1ccc(CNC(=O)c2csc(/C=C/C(=O)NCCCNC(=O)c3ccc(-c4c5nc(c(-c6c(F)c(F)c(F)c(F)c6F)c6ccc([nH]6)c(-c6c(F)c(F)c(F)c(F)c6F)c6nc(c(-c7c(F)c(F)c(F)c(F)c7F)c7ccc4[nH]7)C=C6)C=C5)cc3)c2)s1
REMARK SMILES IDX 19 1 18 2 16 3 17 4 15 6 14 7 13 8 10 9 11 10 88 11 12 12
REMARK SMILES IDX 8 13 7 14 9 16 6 17 5 18 1 19 2 20 3 21 89 22 4 23 20 24
REMARK SMILES IDX 21 25 22 26 23 27 24 29 25 30 26 31 87 32 27 33 86 34 28 35
REMARK SMILES IDX 29 36 30 37 80 38 31 39 85 40 79 41 81 42 32 43 84 44 78 45
REMARK SMILES IDX 77 46 33 48 65 49 45 50 64 51 46 52 49 53 63 54 82 55 47 56
REMARK SMILES IDX 48 57 62 59 83 60 50 61 34 62 35 63 43 64 36 65 37 66 41 67
REMARK SMILES IDX 44 68 38 69 39 70 42 71 40 72 66 73 67 74 75 75 68 76 69 77
REMARK SMILES IDX 73 78 76 79 70 80 71 81 74 82 72 83 51 84 52 85 60 86 53 87
REMARK SMILES IDX 54 88 58 89 61 90 55 91 56 92 59 93 57 94
REMARK H PARENT 18 5 7 15 22 28 81 47 49 58
REMARK Flexibility Score: inf
ROOT
ATOM      1  C   UNL A   1      31.352  30.751  25.782  1.00  0.00     0.118 C 
ENDROOT
BRANCH   1   2
ATOM      2  N   UNL A   1      30.596  30.693  24.543  1.00  0.00    -0.352 N 
ATOM      3  C   UNL A   1      30.205  29.622  23.801  1.00  0.00     0.244 C 
ATOM      4  O   UNL A   1      29.442  29.780  22.851  1.00  0.00    -0.270 OA
ATOM      5  H   UNL A   1      30.322  31.568  24.183  1.00  0.00     0.163 HD
BRANCH   3   6
ATOM      6  C   UNL A   1      30.627  28.261  24.184  1.00  0.00     0.072 C 
ATOM      7  C   UNL A   1      29.810  27.205  24.076  1.00  0.00     0.024 C 
BRANCH   7   8
ATOM      8  C   UNL A   1      30.213  25.887  24.437  1.00  0.00     0.028 A 
ATOM      9  C   UNL A   1      30.704  23.978  25.744  1.00  0.00     0.051 A 
ATOM     10  C   UNL A   1      31.005  23.539  24.469  1.00  0.00     0.079 A 
ATOM     11  C   UNL A   1      30.318  25.362  25.714  1.00  0.00     0.033 A 
ATOM     12  S   UNL A   1      30.709  24.719  23.274  1.00  0.00    -0.144 S 
BRANCH   9  13
ATOM     13  C   UNL A   1      30.847  23.117  26.911  1.00  0.00     0.252 C 
ATOM     14  N   UNL A   1      32.079  22.595  27.205  1.00  0.00    -0.347 N 
ATOM     15  H   UNL A   1      32.085  21.874  27.877  1.00  0.00     0.164 HD
ATOM     16  O   UNL A   1      29.897  22.861  27.646  1.00  0.00    -0.269 OA
BRANCH  14  17
ATOM     17  C   UNL A   1      33.371  22.955  26.662  1.00  0.00     0.163 C 
BRANCH  17  18
ATOM     18  C   UNL A   1      33.952  21.774  25.953  1.00  0.00     0.024 A 
ATOM     19  C   UNL A   1      34.015  18.260  24.209  1.00  0.00     0.056 C 
ATOM     20  C   UNL A   1      34.253  19.590  24.834  1.00  0.00     0.002 A 
ATOM     21  C   UNL A   1      35.445  20.267  24.988  1.00  0.00     0.015 A 
ATOM     22  S   UNL A   1      32.940  20.474  25.477  1.00  0.00    -0.144 S 
ATOM     23  C   UNL A   1      35.272  21.528  25.630  1.00  0.00     0.017 A 
ENDBRANCH  17  18
ENDBRANCH  14  17
ENDBRANCH   9  13
ENDBRANCH   7   8
ENDBRANCH   3   6
ENDBRANCH   1   2
BRANCH   1  24
ATOM     24  C   UNL A   1      31.198  32.098  26.486  1.00  0.00     0.042 C 
BRANCH  24  25
ATOM     25  C   UNL A   1      32.496  32.643  27.083  1.00  0.00     0.118 C 
BRANCH  25  26
ATOM     26  N   UNL A   1      32.367  34.022  27.528  1.00  0.00    -0.352 N 
ATOM     27  C   UNL A   1      33.036  34.700  28.516  1.00  0.00     0.251 C 
ATOM     28  H   UNL A   1      31.692  34.552  27.044  1.00  0.00     0.163 HD
ATOM     29  O   UNL A   1      32.645  35.816  28.850  1.00  0.00    -0.269 OA
BRANCH  27  30
ATOM     30  C   UNL A   1      34.210  34.107  29.197  1.00  0.00     0.039 A 
ATOM     31  C   UNL A   1      35.485  34.390  28.692  1.00  0.00     0.014 A 
ATOM     32  C   UNL A   1      34.071  33.227  30.275  1.00  0.00     0.014 A 
ATOM     33  C   UNL A   1      36.618  33.833  29.293  1.00  0.00     0.010 A 
ATOM     34  C   UNL A   1      35.204  32.707  30.903  1.00  0.00     0.010 A 
ATOM     35  C   UNL A   1      36.487  33.002  30.416  1.00  0.00    -0.014 A 
BRANCH  35  36
ATOM     36  C   UNL A   1      37.680  32.430  31.088  1.00  0.00     0.031 A 
ATOM     37  C   UNL A   1      38.478  31.344  30.423  1.00  0.00     0.074 A 
ATOM     38  C   UNL A   1      38.014  32.846  32.324  1.00  0.00     0.049 A 
ATOM     39  N   UNL A   1      39.491  30.658  30.888  1.00  0.00    -0.248 NA
ATOM     40  C   UNL A   1      38.069  30.967  29.062  1.00  0.00     0.031 C 
ATOM     41  C   UNL A   1      37.306  33.871  33.090  1.00  0.00     0.029 A 
ATOM     42  N   UNL A   1      39.027  32.446  33.158  1.00  0.00    -0.354 N 
ATOM     43  C   UNL A   1      39.825  29.753  29.890  1.00  0.00     0.074 A 
ATOM     44  C   UNL A   1      38.893  29.962  28.801  1.00  0.00     0.031 C 
ATOM     45  C   UNL A   1      37.910  34.026  34.279  1.00  0.00     0.029 A 
ATOM     46  C   UNL A   1      39.030  33.092  34.369  1.00  0.00     0.049 A 
ATOM     47  H   UNL A   1      39.690  31.761  32.911  1.00  0.00     0.167 HD
ATOM     48  C   UNL A   1      40.821  28.836  29.881  1.00  0.00     0.037 A 
ATOM     49  C   UNL A   1      39.838  32.942  35.435  1.00  0.00     0.037 A 
ATOM     50  C   UNL A   1      41.773  28.650  30.943  1.00  0.00     0.049 A 
ATOM     51  C   UNL A   1      40.955  31.938  35.387  1.00  0.00     0.074 A 
ATOM     52  C   UNL A   1      42.852  27.784  30.996  1.00  0.00     0.029 A 
ATOM     53  N   UNL A   1      41.762  29.348  32.141  1.00  0.00    -0.354 N 
ATOM     54  N   UNL A   1      41.281  31.112  34.424  1.00  0.00    -0.248 NA
ATOM     55  C   UNL A   1      41.815  31.846  36.575  1.00  0.00     0.031 C 
ATOM     56  C   UNL A   1      43.482  27.944  32.235  1.00  0.00     0.029 A 
ATOM     57  C   UNL A   1      42.810  28.926  32.943  1.00  0.00     0.049 A 
ATOM     58  H   UNL A   1      41.107  30.041  32.386  1.00  0.00     0.167 HD
ATOM     59  C   UNL A   1      42.391  30.417  34.878  1.00  0.00     0.074 A 
ATOM     60  C   UNL A   1      42.691  30.923  36.202  1.00  0.00     0.031 C 
ATOM     61  C   UNL A   1      43.098  29.444  34.254  1.00  0.00     0.037 A 
BRANCH  48  62
ATOM     62  C   UNL A   1      40.935  27.956  28.673  1.00  0.00     0.064 A 
ATOM     63  C   UNL A   1      40.214  26.759  28.571  1.00  0.00     0.173 A 
ATOM     64  C   UNL A   1      41.748  28.333  27.594  1.00  0.00     0.173 A 
ATOM     65  F   UNL A   1      39.434  26.351  29.584  1.00  0.00    -0.203 F 
ATOM     66  C   UNL A   1      40.316  25.959  27.436  1.00  0.00     0.198 A 
ATOM     67  C   UNL A   1      41.832  27.540  26.453  1.00  0.00     0.198 A 
ATOM     68  F   UNL A   1      42.455  29.471  27.646  1.00  0.00    -0.203 F 
ATOM     69  F   UNL A   1      39.644  24.801  27.371  1.00  0.00    -0.200 F 
ATOM     70  C   UNL A   1      41.120  26.352  26.376  1.00  0.00     0.200 A 
ATOM     71  F   UNL A   1      42.604  27.925  25.427  1.00  0.00    -0.200 F 
ATOM     72  F   UNL A   1      41.214  25.583  25.284  1.00  0.00    -0.200 F 
ENDBRANCH  48  62
BRANCH  49  73
ATOM     73  C   UNL A   1      39.631  33.786  36.637  1.00  0.00     0.064 A 
ATOM     74  C   UNL A   1      38.850  33.328  37.706  1.00  0.00     0.173 A 
ATOM     75  C   UNL A   1      40.216  35.055  36.745  1.00  0.00     0.173 A 
ATOM     76  F   UNL A   1      38.256  32.128  37.634  1.00  0.00    -0.203 F 
ATOM     77  C   UNL A   1      38.654  34.114  38.838  1.00  0.00     0.198 A 
ATOM     78  C   UNL A   1      40.033  35.833  37.886  1.00  0.00     0.198 A 
ATOM     79  F   UNL A   1      40.973  35.533  35.747  1.00  0.00    -0.203 F 
ATOM     80  F   UNL A   1      37.880  33.665  39.836  1.00  0.00    -0.200 F 
ATOM     81  C   UNL A   1      39.249  35.364  38.930  1.00  0.00     0.200 A 
ATOM     82  F   UNL A   1      40.616  37.035  37.975  1.00  0.00    -0.200 F 
ATOM     83  F   UNL A   1      39.064  36.117  40.022  1.00  0.00    -0.200 F 
ENDBRANCH  49  73
BRANCH  61  84
ATOM     84  C   UNL A   1      44.277  28.882  34.984  1.00  0.00     0.064 A 
ATOM     85  C   UNL A   1      45.548  29.465  34.875  1.00  0.00     0.173 A 
ATOM     86  C   UNL A   1      44.129  27.772  35.828  1.00  0.00     0.173 A 
ATOM     87  F   UNL A   1      45.739  30.518  34.067  1.00  0.00    -0.203 F 
ATOM     88  C   UNL A   1      46.633  28.947  35.576  1.00  0.00     0.198 A 
ATOM     89  C   UNL A   1      45.212  27.266  36.540  1.00  0.00     0.198 A 
ATOM     90  F   UNL A   1      42.932  27.181  35.962  1.00  0.00    -0.203 F 
ATOM     91  F   UNL A   1      47.846  29.500  35.435  1.00  0.00    -0.200 F 
ATOM     92  C   UNL A   1      46.463  27.852  36.412  1.00  0.00     0.200 A 
ATOM     93  F   UNL A   1      45.048  26.212  37.349  1.00  0.00    -0.200 F 
ATOM     94  F   UNL A   1      47.509  27.356  37.087  1.00  0.00    -0.200 F 
ENDBRANCH  61  84
ENDBRANCH  35  36
ENDBRANCH  27  30
ENDBRANCH  25  26
ENDBRANCH  24  25
ENDBRANCH   1  24
TORSDOF 14
ENDMDL
MODEL 2
REMARK VINA RESULT:     -12.5      5.375     11.218
REMARK SMILES Cc1ccc(CNC(=O)c2csc(/C=C/C(=O)NCCCNC(=O)c3ccc(-c4c5nc(c(-c6c(F)c(F)c(F)c(F)c6F)c6ccc([nH]6)c(-c6c(F)c(F)c(F)c(F)c6F)c6nc(c(-c7c(F)c(F)c(F)c(F)c7F)c7ccc4[nH]7)C=C6)C=C5)cc3)c2)s1
REMARK SMILES IDX 19 1 18 2 16 3 17 4 15 6 14 7 13 8 10 9 11 10 88 11 12 12
REMARK SMILES IDX 8 13 7 14 9 16 6 17 5 18 1 19 2 20 3 21 89 22 4 23 20 24
REMARK SMILES IDX 21 25 22 26 23 27 24 29 25 30 26 31 87 32 27 33 86 34 28 35
REMARK SMILES IDX 29 36 30 37 80 38 31 39 85 40 79 41 81 42 32 43 84 44 78 45
REMARK SMILES IDX 77 46 33 48 65 49 45 50 64 51 46 52 49 53 63 54 82 55 47 56
REMARK SMILES IDX 48 57 62 59 83 60 50 61 34 62 35 63 43 64 36 65 37 66 41 67
REMARK SMILES IDX 44 68 38 69 39 70 42 71 40 72 66 73 67 74 75 75 68 76 69 77
REMARK SMILES IDX 73 78 76 79 70 80 71 81 74 82 72 83 51 84 52 85 60 86 53 87
REMARK SMILES IDX 54 88 58 89 61 90 55 91 56 92 59 93 57 94
REMARK H PARENT 18 5 7 15 22 28 81 47 49 58
REMARK Flexibility Score: inf
ROOT
ATOM      1  C   UNL A   1      36.521  20.300  25.002  1.00  0.00     0.118 C 
ENDROOT
BRANCH   1   2
ATOM      2  N   UNL A   1      35.342  19.460  25.132  1.00  0.00    -0.352 N 
ATOM      3  C   UNL A   1      34.029  19.747  24.916  1.00  0.00     0.244 C 
ATOM      4  O   UNL A   1      33.193  18.848  24.946  1.00  0.00    -0.270 OA
ATOM      5  H   UNL A   1      35.521  18.537  25.423  1.00  0.00     0.163 HD
BRANCH   3   6
ATOM      6  C   UNL A   1      33.620  21.119  24.563  1.00  0.00     0.072 C 
ATOM      7  C   UNL A   1      32.939  21.393  23.441  1.00  0.00     0.024 C 
BRANCH   7   8
ATOM      8  C   UNL A   1      32.534  22.716  23.098  1.00  0.00     0.028 A 
ATOM      9  C   UNL A   1      32.506  24.855  22.092  1.00  0.00     0.051 A 
ATOM     10  C   UNL A   1      31.375  24.895  22.883  1.00  0.00     0.079 A 
ATOM     11  C   UNL A   1      33.204  23.614  22.285  1.00  0.00     0.033 A 
ATOM     12  S   UNL A   1      31.105  23.438  23.727  1.00  0.00    -0.144 S 
BRANCH   9  13
ATOM     13  C   UNL A   1      32.904  25.980  21.254  1.00  0.00     0.252 C 
ATOM     14  N   UNL A   1      33.354  27.127  21.853  1.00  0.00    -0.347 N 
ATOM     15  H   UNL A   1      33.423  27.914  21.265  1.00  0.00     0.164 HD
ATOM     16  O   UNL A   1      32.861  25.921  20.028  1.00  0.00    -0.269 OA
BRANCH  14  17
ATOM     17  C   UNL A   1      33.740  27.341  23.231  1.00  0.00     0.163 C 
BRANCH  17  18
ATOM     18  C   UNL A   1      32.817  28.342  23.850  1.00  0.00     0.024 A 
ATOM     19  C   UNL A   1      31.523  30.929  26.501  1.00  0.00     0.056 C 
ATOM     20  C   UNL A   1      31.782  29.989  25.375  1.00  0.00     0.002 A 
ATOM     21  C   UNL A   1      30.973  29.695  24.298  1.00  0.00     0.015 A 
ATOM     22  S   UNL A   1      33.247  29.112  25.321  1.00  0.00    -0.144 S 
ATOM     23  C   UNL A   1      31.570  28.747  23.416  1.00  0.00     0.017 A 
ENDBRANCH  17  18
ENDBRANCH  14  17
ENDBRANCH   9  13
ENDBRANCH   7   8
ENDBRANCH   3   6
ENDBRANCH   1   2
BRANCH   1  24
ATOM     24  C   UNL A   1      37.806  19.477  24.930  1.00  0.00     0.042 C 
BRANCH  24  25
ATOM     25  C   UNL A   1      38.984  20.093  25.686  1.00  0.00     0.118 C 
BRANCH  25  26
ATOM     26  N   UNL A   1      40.083  19.156  25.859  1.00  0.00    -0.352 N 
ATOM     27  C   UNL A   1      41.414  19.388  26.102  1.00  0.00     0.251 C 
ATOM     28  H   UNL A   1      39.833  18.206  25.789  1.00  0.00     0.163 HD
ATOM     29  O   UNL A   1      42.209  18.453  26.037  1.00  0.00    -0.269 OA
BRANCH  27  30
ATOM     30  C   UNL A   1      41.913  20.744  26.429  1.00  0.00     0.039 A 
ATOM     31  C   UNL A   1      42.155  21.635  25.377  1.00  0.00     0.014 A 
ATOM     32  C   UNL A   1      42.209  21.124  27.742  1.00  0.00     0.014 A 
ATOM     33  C   UNL A   1      42.646  22.917  25.641  1.00  0.00     0.010 A 
ATOM     34  C   UNL A   1      42.656  22.419  28.010  1.00  0.00     0.010 A 
ATOM     35  C   UNL A   1      42.882  23.326  26.962  1.00  0.00    -0.014 A 
BRANCH  35  36
ATOM     36  C   UNL A   1      43.370  24.694  27.265  1.00  0.00     0.031 A 
ATOM     37  C   UNL A   1      42.440  25.721  27.845  1.00  0.00     0.074 A 
ATOM     38  C   UNL A   1      44.638  25.033  26.964  1.00  0.00     0.049 A 
ATOM     39  N   UNL A   1      42.654  26.989  28.091  1.00  0.00    -0.248 NA
ATOM     40  C   UNL A   1      41.081  25.265  28.175  1.00  0.00     0.031 C 
ATOM     41  C   UNL A   1      45.632  24.139  26.371  1.00  0.00     0.029 A 
ATOM     42  N   UNL A   1      45.301  26.225  27.103  1.00  0.00    -0.354 N 
ATOM     43  C   UNL A   1      41.455  27.488  28.579  1.00  0.00     0.074 A 
ATOM     44  C   UNL A   1      40.508  26.392  28.577  1.00  0.00     0.031 C 
ATOM     45  C   UNL A   1      46.782  24.812  26.203  1.00  0.00     0.029 A 
ATOM     46  C   UNL A   1      46.597  26.190  26.652  1.00  0.00     0.049 A 
ATOM     47  H   UNL A   1      44.887  27.031  27.490  1.00  0.00     0.167 HD
ATOM     48  C   UNL A   1      41.171  28.744  28.998  1.00  0.00     0.037 A 
ATOM     49  C   UNL A   1      47.528  27.161  26.597  1.00  0.00     0.037 A 
ATOM     50  C   UNL A   1      42.117  29.827  29.039  1.00  0.00     0.049 A 
ATOM     51  C   UNL A   1      47.196  28.539  27.095  1.00  0.00     0.074 A 
ATOM     52  C   UNL A   1      41.933  31.119  29.501  1.00  0.00     0.029 A 
ATOM     53  N   UNL A   1      43.431  29.741  28.604  1.00  0.00    -0.354 N 
ATOM     54  N   UNL A   1      46.068  28.989  27.587  1.00  0.00    -0.248 NA
ATOM     55  C   UNL A   1      48.267  29.543  27.031  1.00  0.00     0.031 C 
ATOM     56  C   UNL A   1      43.132  31.821  29.327  1.00  0.00     0.029 A 
ATOM     57  C   UNL A   1      44.067  30.960  28.779  1.00  0.00     0.049 A 
ATOM     58  H   UNL A   1      43.850  28.935  28.226  1.00  0.00     0.167 HD
ATOM     59  C   UNL A   1      46.296  30.319  27.907  1.00  0.00     0.074 A 
ATOM     60  C   UNL A   1      47.675  30.603  27.563  1.00  0.00     0.031 C 
ATOM     61  C   UNL A   1      45.439  31.224  28.438  1.00  0.00     0.037 A 
BRANCH  48  62
ATOM     62  C   UNL A   1      39.769  29.019  29.450  1.00  0.00     0.064 A 
ATOM     63  C   UNL A   1      39.382  28.837  30.784  1.00  0.00     0.173 A 
ATOM     64  C   UNL A   1      38.814  29.503  28.544  1.00  0.00     0.173 A 
ATOM     65  F   UNL A   1      40.259  28.363  31.683  1.00  0.00    -0.203 F 
ATOM     66  C   UNL A   1      38.081  29.113  31.194  1.00  0.00     0.198 A 
ATOM     67  C   UNL A   1      37.519  29.796  28.961  1.00  0.00     0.198 A 
ATOM     68  F   UNL A   1      39.139  29.695  27.257  1.00  0.00    -0.203 F 
ATOM     69  F   UNL A   1      37.721  28.900  32.467  1.00  0.00    -0.200 F 
ATOM     70  C   UNL A   1      37.152  29.597  30.284  1.00  0.00     0.200 A 
ATOM     71  F   UNL A   1      36.624  30.270  28.083  1.00  0.00    -0.200 F 
ATOM     72  F   UNL A   1      35.900  29.865  30.681  1.00  0.00    -0.200 F 
ENDBRANCH  48  62
BRANCH  49  73
ATOM     73  C   UNL A   1      48.877  26.853  26.066  1.00  0.00     0.064 A 
ATOM     74  C   UNL A   1      49.876  26.339  26.902  1.00  0.00     0.173 A 
ATOM     75  C   UNL A   1      49.190  27.056  24.714  1.00  0.00     0.173 A 
ATOM     76  F   UNL A   1      49.624  26.149  28.205  1.00  0.00    -0.203 F 
ATOM     77  C   UNL A   1      51.144  26.046  26.408  1.00  0.00     0.198 A 
ATOM     78  C   UNL A   1      50.455  26.745  24.217  1.00  0.00     0.198 A 
ATOM     79  F   UNL A   1      48.265  27.545  23.876  1.00  0.00    -0.203 F 
ATOM     80  F   UNL A   1      52.092  25.581  27.234  1.00  0.00    -0.200 F 
ATOM     81  C   UNL A   1      51.432  26.244  25.066  1.00  0.00     0.200 A 
ATOM     82  F   UNL A   1      50.726  26.931  22.919  1.00  0.00    -0.200 F 
ATOM     83  F   UNL A   1      52.651  25.957  24.590  1.00  0.00    -0.200 F 
ENDBRANCH  49  73
BRANCH  61  84
ATOM     84  C   UNL A   1      45.973  32.597  28.701  1.00  0.00     0.064 A 
ATOM     85  C   UNL A   1      46.606  32.913  29.912  1.00  0.00     0.173 A 
ATOM     86  C   UNL A   1      45.883  33.596  27.721  1.00  0.00     0.173 A 
ATOM     87  F   UNL A   1      46.700  31.993  30.884  1.00  0.00    -0.203 F 
ATOM     88  C   UNL A   1      47.119  34.187  30.137  1.00  0.00     0.198 A 
ATOM     89  C   UNL A   1      46.411  34.864  27.943  1.00  0.00     0.198 A 
ATOM     90  F   UNL A   1      45.286  33.339  26.548  1.00  0.00    -0.203 F 
ATOM     91  F   UNL A   1      47.693  34.479  31.312  1.00  0.00    -0.200 F 
ATOM     92  C   UNL A   1      47.026  35.160  29.151  1.00  0.00     0.200 A 
ATOM     93  F   UNL A   1      46.324  35.801  26.990  1.00  0.00    -0.200 F 
ATOM     94  F   UNL A   1      47.521  36.386  29.370  1.00  0.00    -0.200 F 
ENDBRANCH  61  84
ENDBRANCH  35  36
ENDBRANCH  27  30
ENDBRANCH  25  26
ENDBRANCH  24  25
ENDBRANCH   1  24
TORSDOF 14
ENDMDL
MODEL 3
REMARK VINA RESULT:     -12.4      5.298     11.101
REMARK SMILES Cc1ccc(CNC(=O)c2csc(/C=C/C(=O)NCCCNC(=O)c3ccc(-c4c5nc(c(-c6c(F)c(F)c(F)c(F)c6F)c6ccc([nH]6)c(-c6c(F)c(F)c(F)c(F)c6F)c6nc(c(-c7c(F)c(F)c(F)c(F)c7F)c7ccc4[nH]7)C=C6)C=C5)cc3)c2)s1
REMARK SMILES IDX 19 1 18 2 16 3 17 4 15 6 14 7 13 8 10 9 11 10 88 11 12 12
REMARK SMILES IDX 8 13 7 14 9 16 6 17 5 18 1 19 2 20 3 21 89 22 4 23 20 24
REMARK SMILES IDX 21 25 22 26 23 27 24 29 25 30 26 31 87 32 27 33 86 34 28 35
REMARK SMILES IDX 29 36 30 37 80 38 31 39 85 40 79 41 81 42 32 43 84 44 78 45
REMARK SMILES IDX 77 46 33 48 65 49 45 50 64 51 46 52 49 53 63 54 82 55 47 56
REMARK SMILES IDX 48 57 62 59 83 60 50 61 34 62 35 63 43 64 36 65 37 66 41 67
REMARK SMILES IDX 44 68 38 69 39 70 42 71 40 72 66 73 67 74 75 75 68 76 69 77
REMARK SMILES IDX 73 78 76 79 70 80 71 81 74 82 72 83 51 84 52 85 60 86 53 87
REMARK SMILES IDX 54 88 58 89 61 90 55 91 56 92 59 93 57 94
REMARK H PARENT 18 5 7 15 22 28 81 47 49 58
REMARK Flexibility Score: inf
ROOT
ATOM      1  C   UNL A   1      36.479  20.315  25.001  1.00  0.00     0.118 C 
ENDROOT
BRANCH   1   2
ATOM      2  N   UNL A   1      35.338  19.416  25.001  1.00  0.00    -0.352 N 
ATOM      3  C   UNL A   1      34.014  19.674  24.816  1.00  0.00     0.244 C 
ATOM      4  O   UNL A   1      33.218  18.745  24.712  1.00  0.00    -0.270 OA
ATOM      5  H   UNL A   1      35.556  18.469  25.160  1.00  0.00     0.163 HD
BRANCH   3   6
ATOM      6  C   UNL A   1      33.546  21.064  24.658  1.00  0.00     0.072 C 
ATOM      7  C   UNL A   1      32.900  21.477  23.559  1.00  0.00     0.024 C 
BRANCH   7   8
ATOM      8  C   UNL A   1      32.438  22.816  23.401  1.00  0.00     0.028 A 
ATOM      9  C   UNL A   1      31.194  24.802  23.711  1.00  0.00     0.051 A 
ATOM     10  C   UNL A   1      32.065  25.162  22.701  1.00  0.00     0.079 A 
ATOM     11  C   UNL A   1      31.375  23.419  24.053  1.00  0.00     0.033 A 
ATOM     12  S   UNL A   1      33.140  23.910  22.275  1.00  0.00    -0.144 S 
BRANCH   9  13
ATOM     13  C   UNL A   1      30.215  25.734  24.256  1.00  0.00     0.252 C 
ATOM     14  N   UNL A   1      30.308  26.100  25.573  1.00  0.00    -0.347 N 
ATOM     15  H   UNL A   1      29.523  26.569  25.940  1.00  0.00     0.164 HD
ATOM     16  O   UNL A   1      29.321  26.212  23.563  1.00  0.00    -0.269 OA
BRANCH  14  17
ATOM     17  C   UNL A   1      31.399  25.890  26.500  1.00  0.00     0.163 C 
BRANCH  17  18
ATOM     18  C   UNL A   1      32.283  27.096  26.498  1.00  0.00     0.024 A 
ATOM     19  C   UNL A   1      33.386  30.787  27.251  1.00  0.00     0.056 C 
ATOM     20  C   UNL A   1      33.194  29.370  26.830  1.00  0.00     0.002 A 
ATOM     21  C   UNL A   1      34.033  28.576  26.077  1.00  0.00     0.015 A 
ATOM     22  S   UNL A   1      31.779  28.531  27.291  1.00  0.00    -0.144 S 
ATOM     23  C   UNL A   1      33.510  27.264  25.888  1.00  0.00     0.017 A 
ENDBRANCH  17  18
ENDBRANCH  14  17
ENDBRANCH   9  13
ENDBRANCH   7   8
ENDBRANCH   3   6
ENDBRANCH   1   2
BRANCH   1  24
ATOM     24  C   UNL A   1      37.801  19.564  24.859  1.00  0.00     0.042 C 
BRANCH  24  25
ATOM     25  C   UNL A   1      38.927  20.108  25.740  1.00  0.00     0.118 C 
BRANCH  25  26
ATOM     26  N   UNL A   1      40.025  19.165  25.883  1.00  0.00    -0.352 N 
ATOM     27  C   UNL A   1      41.361  19.389  26.104  1.00  0.00     0.251 C 
ATOM     28  H   UNL A   1      39.769  18.217  25.811  1.00  0.00     0.163 HD
ATOM     29  O   UNL A   1      42.150  18.452  26.014  1.00  0.00    -0.269 OA
BRANCH  27  30
ATOM     30  C   UNL A   1      41.872  20.740  26.432  1.00  0.00     0.039 A 
ATOM     31  C   UNL A   1      42.104  21.637  25.383  1.00  0.00     0.014 A 
ATOM     32  C   UNL A   1      42.188  21.110  27.743  1.00  0.00     0.014 A 
ATOM     33  C   UNL A   1      42.606  22.914  25.649  1.00  0.00     0.010 A 
ATOM     34  C   UNL A   1      42.647  22.401  28.014  1.00  0.00     0.010 A 
ATOM     35  C   UNL A   1      42.863  23.313  26.969  1.00  0.00    -0.014 A 
BRANCH  35  36
ATOM     36  C   UNL A   1      43.363  24.676  27.274  1.00  0.00     0.031 A 
ATOM     37  C   UNL A   1      42.439  25.712  27.849  1.00  0.00     0.074 A 
ATOM     38  C   UNL A   1      44.635  25.002  26.980  1.00  0.00     0.049 A 
ATOM     39  N   UNL A   1      42.665  26.978  28.096  1.00  0.00    -0.248 NA
ATOM     40  C   UNL A   1      41.074  25.271  28.171  1.00  0.00     0.031 C 
ATOM     41  C   UNL A   1      45.624  24.098  26.393  1.00  0.00     0.029 A 
ATOM     42  N   UNL A   1      45.310  26.189  27.123  1.00  0.00    -0.354 N 
ATOM     43  C   UNL A   1      41.468  27.490  28.577  1.00  0.00     0.074 A 
ATOM     44  C   UNL A   1      40.510  26.403  28.570  1.00  0.00     0.031 C 
ATOM     45  C   UNL A   1      46.782  24.760  26.232  1.00  0.00     0.029 A 
ATOM     46  C   UNL A   1      46.608  26.140  26.679  1.00  0.00     0.049 A 
ATOM     47  H   UNL A   1      44.902  26.998  27.507  1.00  0.00     0.167 HD
ATOM     48  C   UNL A   1      41.194  28.749  28.994  1.00  0.00     0.037 A 
ATOM     49  C   UNL A   1      47.548  27.101  26.630  1.00  0.00     0.037 A 
ATOM     50  C   UNL A   1      42.151  29.822  29.040  1.00  0.00     0.049 A 
ATOM     51  C   UNL A   1      47.227  28.483  27.125  1.00  0.00     0.074 A 
ATOM     52  C   UNL A   1      41.977  31.116  29.501  1.00  0.00     0.029 A 
ATOM     53  N   UNL A   1      43.466  29.723  28.612  1.00  0.00    -0.354 N 
ATOM     54  N   UNL A   1      46.101  28.944  27.610  1.00  0.00    -0.248 NA
ATOM     55  C   UNL A   1      48.309  29.476  27.067  1.00  0.00     0.031 C 
ATOM     56  C   UNL A   1      43.183  31.806  29.333  1.00  0.00     0.029 A 
ATOM     57  C   UNL A   1      44.113  30.935  28.790  1.00  0.00     0.049 A 
ATOM     58  H   UNL A   1      43.879  28.912  28.236  1.00  0.00     0.167 HD
ATOM     59  C   UNL A   1      46.341  30.272  27.931  1.00  0.00     0.074 A 
ATOM     60  C   UNL A   1      47.724  30.543  27.595  1.00  0.00     0.031 C 
ATOM     61  C   UNL A   1      45.490  31.186  28.457  1.00  0.00     0.037 A 
BRANCH  48  62
ATOM     62  C   UNL A   1      39.793  29.038  29.437  1.00  0.00     0.064 A 
ATOM     63  C   UNL A   1      38.816  29.478  28.534  1.00  0.00     0.173 A 
ATOM     64  C   UNL A   1      39.416  28.837  30.773  1.00  0.00     0.173 A 
ATOM     65  F   UNL A   1      39.134  29.697  27.249  1.00  0.00    -0.203 F 
ATOM     66  C   UNL A   1      37.513  29.726  28.956  1.00  0.00     0.198 A 
ATOM     67  C   UNL A   1      38.107  29.068  31.188  1.00  0.00     0.198 A 
ATOM     68  F   UNL A   1      40.315  28.414  31.673  1.00  0.00    -0.203 F 
ATOM     69  F   UNL A   1      36.602  30.180  28.084  1.00  0.00    -0.200 F 
ATOM     70  C   UNL A   1      37.158  29.516  30.282  1.00  0.00     0.200 A 
ATOM     71  F   UNL A   1      37.764  28.858  32.467  1.00  0.00    -0.200 F 
ATOM     72  F   UNL A   1      35.902  29.752  30.685  1.00  0.00    -0.200 F 
ENDBRANCH  48  62
BRANCH  49  73
ATOM     73  C   UNL A   1      48.898  26.781  26.106  1.00  0.00     0.064 A 
ATOM     74  C   UNL A   1      49.230  27.049  24.771  1.00  0.00     0.173 A 
ATOM     75  C   UNL A   1      49.882  26.213  26.927  1.00  0.00     0.173 A 
ATOM     76  F   UNL A   1      48.312  27.573  23.947  1.00  0.00    -0.203 F 
ATOM     77  C   UNL A   1      50.496  26.752  24.274  1.00  0.00     0.198 A 
ATOM     78  C   UNL A   1      51.154  25.933  26.433  1.00  0.00     0.198 A 
ATOM     79  F   UNL A   1      49.609  25.941  28.212  1.00  0.00    -0.203 F 
ATOM     80  F   UNL A   1      50.781  26.993  22.987  1.00  0.00    -0.200 F 
ATOM     81  C   UNL A   1      51.459  26.200  25.106  1.00  0.00     0.200 A 
ATOM     82  F   UNL A   1      52.083  25.408  27.242  1.00  0.00    -0.200 F 
ATOM     83  F   UNL A   1      52.678  25.920  24.628  1.00  0.00    -0.200 F 
ENDBRANCH  49  73
BRANCH  61  84
ATOM     84  C   UNL A   1      46.036  32.554  28.723  1.00  0.00     0.064 A 
ATOM     85  C   UNL A   1      45.944  33.573  27.765  1.00  0.00     0.173 A 
ATOM     86  C   UNL A   1      46.623  32.858  29.960  1.00  0.00     0.173 A 
ATOM     87  F   UNL A   1      45.405  33.323  26.563  1.00  0.00    -0.203 F 
ATOM     88  C   UNL A   1      46.434  34.848  28.032  1.00  0.00     0.198 A 
ATOM     89  C   UNL A   1      47.097  34.138  30.229  1.00  0.00     0.198 A 
ATOM     90  F   UNL A   1      46.732  31.913  30.906  1.00  0.00    -0.203 F 
ATOM     91  F   UNL A   1      46.365  35.802  27.093  1.00  0.00    -0.200 F 
ATOM     92  C   UNL A   1      47.005  35.131  29.265  1.00  0.00     0.200 A 
ATOM     93  F   UNL A   1      47.645  34.411  31.421  1.00  0.00    -0.200 F 
ATOM     94  F   UNL A   1      47.476  36.360  29.521  1.00  0.00    -0.200 F 
ENDBRANCH  61  84
ENDBRANCH  35  36
ENDBRANCH  27  30
ENDBRANCH  25  26
ENDBRANCH  24  25
ENDBRANCH   1  24
TORSDOF 14
ENDMDL
