MODEL 1
REMARK VINA RESULT:     -11.9      0.000      0.000
REMARK SMILES Cc1ncccc1NS(=O)(=O)[C@@H](C)C(=O)NCCCNC(=O)c1ccc(-c2c3nc(c(-c4c(F)c(F)c(F)c(F)c4F)c4ccc([nH]4)c(-c4c(F)c(F)c(F)c(F)c4F)c4nc(c(-c5c(F)c(F)c(F)c(F)c5F)c5ccc2[nH]5)C=C4)C=C3)cc1
REMARK SMILES IDX 17 1 16 2 14 3 15 4 12 6 13 7 9 8 10 9 11 10 8 11 7 13 1 14
REMARK SMILES IDX 2 15 3 16 4 17 6 18 5 19 18 20 19 21 20 22 21 23 22 25 23 26
REMARK SMILES IDX 24 27 85 28 25 29 84 30 26 31 27 32 28 33 78 34 29 35 83 36
REMARK SMILES IDX 77 37 79 38 30 39 82 40 76 41 75 42 31 44 63 45 43 46 62 47
REMARK SMILES IDX 44 48 47 49 61 50 80 51 45 52 46 53 60 55 81 56 48 57 32 58
REMARK SMILES IDX 33 59 41 60 34 61 35 62 39 63 42 64 36 65 37 66 40 67 38 68
REMARK SMILES IDX 64 69 65 70 73 71 66 72 67 73 71 74 74 75 68 76 69 77 72 78
REMARK SMILES IDX 70 79 49 80 50 81 58 82 51 83 52 84 56 85 59 86 53 87 54 88
REMARK SMILES IDX 57 89 55 90
REMARK H PARENT 16 5 8 12 20 24 79 43 47 54
REMARK Flexibility Score: inf
ROOT
ATOM      1  C   UNL A   1      32.127  30.405  26.306  1.00  0.00     0.117 C 
ENDROOT
BRANCH   1   2
ATOM      2  N   UNL A   1      31.634  29.971  25.023  1.00  0.00    -0.355 N 
ATOM      3  C   UNL A   1      31.241  28.757  24.582  1.00  0.00     0.239 C 
ATOM      4  O   UNL A   1      30.394  28.817  23.672  1.00  0.00    -0.274 OA
ATOM      5  H   UNL A   1      31.573  30.687  24.349  1.00  0.00     0.163 HD
BRANCH   3   6
ATOM      6  C   UNL A   1      31.657  27.380  25.054  1.00  0.00     0.215 C 
ATOM      7  C   UNL A   1      30.785  26.820  26.171  1.00  0.00     0.037 C 
BRANCH   6   8
ATOM      8  S   UNL A   1      33.366  26.886  25.088  1.00  0.00     0.244 S 
ATOM      9  O   UNL A   1      34.070  27.462  26.209  1.00  0.00    -0.206 OA
ATOM     10  O   UNL A   1      33.887  27.157  23.761  1.00  0.00    -0.206 OA
BRANCH   8  11
ATOM     11  N   UNL A   1      33.479  25.208  25.176  1.00  0.00    -0.281 N 
ATOM     12  H   UNL A   1      32.764  24.721  25.645  1.00  0.00     0.180 HD
BRANCH  11  13
ATOM     13  C   UNL A   1      34.553  24.445  24.613  1.00  0.00     0.070 A 
ATOM     14  C   UNL A   1      33.369  23.836  22.415  1.00  0.00     0.069 C 
ATOM     15  C   UNL A   1      34.535  23.825  23.356  1.00  0.00     0.061 A 
ATOM     16  N   UNL A   1      35.592  23.102  22.895  1.00  0.00    -0.259 NA
ATOM     17  C   UNL A   1      36.699  23.003  23.660  1.00  0.00     0.111 A 
ATOM     18  C   UNL A   1      35.715  24.306  25.381  1.00  0.00     0.030 A 
ATOM     19  C   UNL A   1      36.811  23.597  24.897  1.00  0.00     0.022 A 
ENDBRANCH  11  13
ENDBRANCH   8  11
ENDBRANCH   6   8
ENDBRANCH   3   6
ENDBRANCH   1   2
BRANCH   1  20
ATOM     20  C   UNL A   1      31.676  31.790  26.732  1.00  0.00     0.042 C 
BRANCH  20  21
ATOM     21  C   UNL A   1      32.789  32.660  27.283  1.00  0.00     0.118 C 
BRANCH  21  22
ATOM     22  N   UNL A   1      32.383  34.000  27.691  1.00  0.00    -0.352 N 
ATOM     23  C   UNL A   1      32.973  34.892  28.558  1.00  0.00     0.251 C 
ATOM     24  H   UNL A   1      31.549  34.320  27.278  1.00  0.00     0.163 HD
ATOM     25  O   UNL A   1      32.495  36.015  28.703  1.00  0.00    -0.269 OA
BRANCH  23  26
ATOM     26  C   UNL A   1      34.154  34.489  29.347  1.00  0.00     0.039 A 
ATOM     27  C   UNL A   1      33.967  33.909  30.605  1.00  0.00     0.014 A 
ATOM     28  C   UNL A   1      35.440  34.629  28.833  1.00  0.00     0.014 A 
ATOM     29  C   UNL A   1      35.064  33.392  31.300  1.00  0.00     0.010 A 
ATOM     30  C   UNL A   1      36.501  33.985  29.450  1.00  0.00     0.010 A 
ATOM     31  C   UNL A   1      36.332  33.374  30.700  1.00  0.00    -0.014 A 
BRANCH  31  32
ATOM     32  C   UNL A   1      37.520  32.762  31.350  1.00  0.00     0.031 A 
ATOM     33  C   UNL A   1      38.228  31.620  30.666  1.00  0.00     0.074 A 
ATOM     34  C   UNL A   1      37.893  33.152  32.586  1.00  0.00     0.049 A 
ATOM     35  N   UNL A   1      39.156  30.821  31.128  1.00  0.00    -0.248 NA
ATOM     36  C   UNL A   1      37.795  31.300  29.295  1.00  0.00     0.031 C 
ATOM     37  C   UNL A   1      37.256  34.206  33.376  1.00  0.00     0.029 A 
ATOM     38  N   UNL A   1      38.894  32.688  33.404  1.00  0.00    -0.354 N 
ATOM     39  C   UNL A   1      39.387  29.893  30.120  1.00  0.00     0.074 A 
ATOM     40  C   UNL A   1      38.453  30.177  29.054  1.00  0.00     0.031 C 
ATOM     41  C   UNL A   1      37.896  34.327  34.550  1.00  0.00     0.029 A 
ATOM     42  C   UNL A   1      38.954  33.326  34.620  1.00  0.00     0.049 A 
ATOM     43  H   UNL A   1      39.510  31.965  33.145  1.00  0.00     0.167 HD
ATOM     44  C   UNL A   1      40.321  28.915  30.069  1.00  0.00     0.037 A 
ATOM     45  C   UNL A   1      39.764  33.113  35.675  1.00  0.00     0.037 A 
ATOM     46  C   UNL A   1      41.282  28.671  31.110  1.00  0.00     0.049 A 
ATOM     47  C   UNL A   1      40.798  32.021  35.588  1.00  0.00     0.074 A 
ATOM     48  C   UNL A   1      42.308  27.744  31.137  1.00  0.00     0.029 A 
ATOM     49  N   UNL A   1      41.341  29.373  32.305  1.00  0.00    -0.354 N 
ATOM     50  N   UNL A   1      41.045  31.188  34.606  1.00  0.00    -0.248 NA
ATOM     51  C   UNL A   1      41.671  31.843  36.757  1.00  0.00     0.031 C 
ATOM     52  C   UNL A   1      42.966  27.859  32.365  1.00  0.00     0.029 A 
ATOM     53  C   UNL A   1      42.383  28.893  33.081  1.00  0.00     0.049 A 
ATOM     54  H   UNL A   1      40.734  30.104  32.562  1.00  0.00     0.167 HD
ATOM     55  C   UNL A   1      42.123  30.417  35.022  1.00  0.00     0.074 A 
ATOM     56  C   UNL A   1      42.493  30.893  36.338  1.00  0.00     0.031 C 
ATOM     57  C   UNL A   1      42.749  29.403  34.376  1.00  0.00     0.037 A 
BRANCH  44  58
ATOM     58  C   UNL A   1      40.371  28.058  28.837  1.00  0.00     0.064 A 
ATOM     59  C   UNL A   1      41.132  28.427  27.716  1.00  0.00     0.173 A 
ATOM     60  C   UNL A   1      39.691  26.831  28.791  1.00  0.00     0.173 A 
ATOM     61  F   UNL A   1      41.789  29.596  27.703  1.00  0.00    -0.203 F 
ATOM     62  C   UNL A   1      41.189  27.614  26.589  1.00  0.00     0.198 A 
ATOM     63  C   UNL A   1      39.780  26.004  27.674  1.00  0.00     0.198 A 
ATOM     64  F   UNL A   1      38.952  26.427  29.835  1.00  0.00    -0.203 F 
ATOM     65  F   UNL A   1      41.883  28.013  25.513  1.00  0.00    -0.200 F 
ATOM     66  C   UNL A   1      40.523  26.399  26.572  1.00  0.00     0.200 A 
ATOM     67  F   UNL A   1      39.145  24.823  27.665  1.00  0.00    -0.200 F 
ATOM     68  F   UNL A   1      40.592  25.610  25.490  1.00  0.00    -0.200 F 
ENDBRANCH  44  58
BRANCH  45  69
ATOM     69  C   UNL A   1      39.654  33.956  36.896  1.00  0.00     0.064 A 
ATOM     70  C   UNL A   1      38.868  33.545  37.984  1.00  0.00     0.173 A 
ATOM     71  C   UNL A   1      40.292  35.202  36.992  1.00  0.00     0.173 A 
ATOM     72  F   UNL A   1      38.222  32.371  37.936  1.00  0.00    -0.203 F 
ATOM     73  C   UNL A   1      38.693  34.363  39.099  1.00  0.00     0.198 A 
ATOM     74  C   UNL A   1      40.144  36.003  38.122  1.00  0.00     0.198 A 
ATOM     75  F   UNL A   1      41.061  35.642  35.985  1.00  0.00    -0.203 F 
ATOM     76  F   UNL A   1      37.882  33.972  40.091  1.00  0.00    -0.200 F 
ATOM     77  C   UNL A   1      39.333  35.589  39.169  1.00  0.00     0.200 A 
ATOM     78  F   UNL A   1      40.777  37.182  38.193  1.00  0.00    -0.200 F 
ATOM     79  F   UNL A   1      39.159  36.379  40.238  1.00  0.00    -0.200 F 
ENDBRANCH  45  69
BRANCH  57  80
ATOM     80  C   UNL A   1      43.934  28.781  35.055  1.00  0.00     0.064 A 
ATOM     81  C   UNL A   1      45.233  29.284  34.883  1.00  0.00     0.173 A 
ATOM     82  C   UNL A   1      43.759  27.695  35.927  1.00  0.00     0.173 A 
ATOM     83  F   UNL A   1      45.453  30.313  34.051  1.00  0.00    -0.203 F 
ATOM     84  C   UNL A   1      46.316  28.702  35.535  1.00  0.00     0.198 A 
ATOM     85  C   UNL A   1      44.839  27.138  36.603  1.00  0.00     0.198 A 
ATOM     86  F   UNL A   1      42.536  27.185  36.133  1.00  0.00    -0.203 F 
ATOM     87  F   UNL A   1      47.554  29.164  35.315  1.00  0.00    -0.200 F 
ATOM     88  C   UNL A   1      46.117  27.636  36.401  1.00  0.00     0.200 A 
ATOM     89  F   UNL A   1      44.643  26.121  37.452  1.00  0.00    -0.200 F 
ATOM     90  F   UNL A   1      47.161  27.084  37.035  1.00  0.00    -0.200 F 
ENDBRANCH  57  80
ENDBRANCH  31  32
ENDBRANCH  23  26
ENDBRANCH  21  22
ENDBRANCH  20  21
ENDBRANCH   1  20
TORSDOF 13
ENDMDL
MODEL 2
REMARK VINA RESULT:     -11.8      1.976      3.191
REMARK SMILES Cc1ncccc1NS(=O)(=O)[C@@H](C)C(=O)NCCCNC(=O)c1ccc(-c2c3nc(c(-c4c(F)c(F)c(F)c(F)c4F)c4ccc([nH]4)c(-c4c(F)c(F)c(F)c(F)c4F)c4nc(c(-c5c(F)c(F)c(F)c(F)c5F)c5ccc2[nH]5)C=C4)C=C3)cc1
REMARK SMILES IDX 17 1 16 2 14 3 15 4 12 6 13 7 9 8 10 9 11 10 8 11 7 13 1 14
REMARK SMILES IDX 2 15 3 16 4 17 6 18 5 19 18 20 19 21 20 22 21 23 22 25 23 26
REMARK SMILES IDX 24 27 85 28 25 29 84 30 26 31 27 32 28 33 78 34 29 35 83 36
REMARK SMILES IDX 77 37 79 38 30 39 82 40 76 41 75 42 31 44 63 45 43 46 62 47
REMARK SMILES IDX 44 48 47 49 61 50 80 51 45 52 46 53 60 55 81 56 48 57 32 58
REMARK SMILES IDX 33 59 41 60 34 61 35 62 39 63 42 64 36 65 37 66 40 67 38 68
REMARK SMILES IDX 64 69 65 70 73 71 66 72 67 73 71 74 74 75 68 76 69 77 72 78
REMARK SMILES IDX 70 79 49 80 50 81 58 82 51 83 52 84 56 85 59 86 53 87 54 88
REMARK SMILES IDX 57 89 55 90
REMARK H PARENT 16 5 8 12 20 24 79 43 47 54
REMARK Flexibility Score: inf
ROOT
ATOM      1  C   UNL A   1      31.805  28.664  23.363  1.00  0.00     0.117 C 
ENDROOT
BRANCH   1   2
ATOM      2  N   UNL A   1      31.035  27.723  24.137  1.00  0.00    -0.355 N 
ATOM      3  C   UNL A   1      31.116  26.380  24.248  1.00  0.00     0.239 C 
ATOM      4  O   UNL A   1      30.718  25.955  25.348  1.00  0.00    -0.274 OA
ATOM      5  H   UNL A   1      30.325  28.134  24.682  1.00  0.00     0.163 HD
BRANCH   3   6
ATOM      6  C   UNL A   1      31.638  25.362  23.257  1.00  0.00     0.215 C 
ATOM      7  C   UNL A   1      30.788  24.100  23.161  1.00  0.00     0.037 C 
BRANCH   6   8
ATOM      8  S   UNL A   1      33.383  25.139  22.986  1.00  0.00     0.244 S 
ATOM      9  O   UNL A   1      34.169  25.672  24.072  1.00  0.00    -0.206 OA
ATOM     10  O   UNL A   1      33.648  25.652  21.654  1.00  0.00    -0.206 OA
BRANCH   8  11
ATOM     11  N   UNL A   1      33.733  23.501  22.810  1.00  0.00    -0.281 N 
ATOM     12  H   UNL A   1      33.293  23.010  22.080  1.00  0.00     0.180 HD
BRANCH  11  13
ATOM     13  C   UNL A   1      34.631  22.777  23.659  1.00  0.00     0.070 A 
ATOM     14  C   UNL A   1      32.850  21.854  25.264  1.00  0.00     0.069 C 
ATOM     15  C   UNL A   1      34.255  22.010  24.770  1.00  0.00     0.061 A 
ATOM     16  N   UNL A   1      35.171  21.361  25.540  1.00  0.00    -0.259 NA
ATOM     17  C   UNL A   1      36.476  21.438  25.208  1.00  0.00     0.111 A 
ATOM     18  C   UNL A   1      35.997  22.841  23.356  1.00  0.00     0.030 A 
ATOM     19  C   UNL A   1      36.932  22.150  24.122  1.00  0.00     0.022 A 
ENDBRANCH  11  13
ENDBRANCH   8  11
ENDBRANCH   6   8
ENDBRANCH   3   6
ENDBRANCH   1   2
BRANCH   1  20
ATOM     20  C   UNL A   1      33.104  29.114  24.004  1.00  0.00     0.042 C 
BRANCH  20  21
ATOM     21  C   UNL A   1      33.079  29.109  25.521  1.00  0.00     0.118 C 
BRANCH  21  22
ATOM     22  N   UNL A   1      32.547  30.319  26.136  1.00  0.00    -0.352 N 
ATOM     23  C   UNL A   1      33.120  31.205  27.019  1.00  0.00     0.251 C 
ATOM     24  H   UNL A   1      31.623  30.540  25.875  1.00  0.00     0.163 HD
ATOM     25  O   UNL A   1      32.511  32.216  27.359  1.00  0.00    -0.269 OA
BRANCH  23  26
ATOM     26  C   UNL A   1      34.450  30.921  27.596  1.00  0.00     0.039 A 
ATOM     27  C   UNL A   1      35.372  31.964  27.730  1.00  0.00     0.014 A 
ATOM     28  C   UNL A   1      34.775  29.647  28.054  1.00  0.00     0.014 A 
ATOM     29  C   UNL A   1      36.576  31.742  28.404  1.00  0.00     0.010 A 
ATOM     30  C   UNL A   1      35.895  29.467  28.849  1.00  0.00     0.010 A 
ATOM     31  C   UNL A   1      36.821  30.506  29.019  1.00  0.00    -0.014 A 
BRANCH  31  32
ATOM     32  C   UNL A   1      38.043  30.235  29.821  1.00  0.00     0.031 A 
ATOM     33  C   UNL A   1      39.095  29.306  29.270  1.00  0.00     0.074 A 
ATOM     34  C   UNL A   1      38.157  30.728  31.070  1.00  0.00     0.049 A 
ATOM     35  N   UNL A   1      40.137  28.784  29.865  1.00  0.00    -0.248 NA
ATOM     36  C   UNL A   1      38.921  28.863  27.876  1.00  0.00     0.031 C 
ATOM     37  C   UNL A   1      37.183  31.592  31.738  1.00  0.00     0.029 A 
ATOM     38  N   UNL A   1      39.141  30.554  32.012  1.00  0.00    -0.354 N 
ATOM     39  C   UNL A   1      40.714  27.933  28.931  1.00  0.00     0.074 A 
ATOM     40  C   UNL A   1      39.869  27.947  27.759  1.00  0.00     0.031 C 
ATOM     41  C   UNL A   1      37.629  31.895  32.968  1.00  0.00     0.029 A 
ATOM     42  C   UNL A   1      38.893  31.205  33.198  1.00  0.00     0.049 A 
ATOM     43  H   UNL A   1      39.948  30.013  31.854  1.00  0.00     0.167 HD
ATOM     44  C   UNL A   1      41.868  27.231  29.026  1.00  0.00     0.037 A 
ATOM     45  C   UNL A   1      39.603  31.227  34.342  1.00  0.00     0.037 A 
ATOM     46  C   UNL A   1      42.731  27.263  30.175  1.00  0.00     0.049 A 
ATOM     47  C   UNL A   1      40.885  30.441  34.417  1.00  0.00     0.074 A 
ATOM     48  C   UNL A   1      43.951  26.636  30.355  1.00  0.00     0.029 A 
ATOM     49  N   UNL A   1      42.469  27.975  31.336  1.00  0.00    -0.354 N 
ATOM     50  N   UNL A   1      41.451  29.686  33.507  1.00  0.00    -0.248 NA
ATOM     51  C   UNL A   1      41.633  30.515  35.681  1.00  0.00     0.031 C 
ATOM     52  C   UNL A   1      44.410  26.938  31.640  1.00  0.00     0.029 A 
ATOM     53  C   UNL A   1      43.502  27.795  32.241  1.00  0.00     0.049 A 
ATOM     54  H   UNL A   1      41.668  28.526  31.493  1.00  0.00     0.167 HD
ATOM     55  C   UNL A   1      42.635  29.229  34.071  1.00  0.00     0.074 A 
ATOM     56  C   UNL A   1      42.714  29.805  35.396  1.00  0.00     0.031 C 
ATOM     57  C   UNL A   1      43.572  28.403  33.544  1.00  0.00     0.037 A 
BRANCH  44  58
ATOM     58  C   UNL A   1      42.279  26.397  27.847  1.00  0.00     0.064 A 
ATOM     59  C   UNL A   1      43.156  26.891  26.869  1.00  0.00     0.173 A 
ATOM     60  C   UNL A   1      41.831  25.074  27.716  1.00  0.00     0.173 A 
ATOM     61  F   UNL A   1      43.602  28.154  26.939  1.00  0.00    -0.203 F 
ATOM     62  C   UNL A   1      43.549  26.102  25.792  1.00  0.00     0.198 A 
ATOM     63  C   UNL A   1      42.255  24.276  26.656  1.00  0.00     0.198 A 
ATOM     64  F   UNL A   1      40.995  24.548  28.623  1.00  0.00    -0.203 F 
ATOM     65  F   UNL A   1      44.348  26.614  24.846  1.00  0.00    -0.200 F 
ATOM     66  C   UNL A   1      43.107  24.792  25.692  1.00  0.00     0.200 A 
ATOM     67  F   UNL A   1      41.837  23.005  26.567  1.00  0.00    -0.200 F 
ATOM     68  F   UNL A   1      43.499  24.028  24.662  1.00  0.00    -0.200 F 
ENDBRANCH  44  58
BRANCH  45  69
ATOM     69  C   UNL A   1      39.138  32.032  35.505  1.00  0.00     0.064 A 
ATOM     70  C   UNL A   1      39.525  33.373  35.650  1.00  0.00     0.173 A 
ATOM     71  C   UNL A   1      38.337  31.476  36.513  1.00  0.00     0.173 A 
ATOM     72  F   UNL A   1      40.306  33.948  34.723  1.00  0.00    -0.203 F 
ATOM     73  C   UNL A   1      39.163  34.112  36.775  1.00  0.00     0.198 A 
ATOM     74  C   UNL A   1      37.946  32.226  37.620  1.00  0.00     0.198 A 
ATOM     75  F   UNL A   1      37.932  30.200  36.423  1.00  0.00    -0.203 F 
ATOM     76  F   UNL A   1      39.605  35.369  36.917  1.00  0.00    -0.200 F 
ATOM     77  C   UNL A   1      38.372  33.539  37.758  1.00  0.00     0.200 A 
ATOM     78  F   UNL A   1      37.168  31.673  38.561  1.00  0.00    -0.200 F 
ATOM     79  F   UNL A   1      38.029  34.247  38.842  1.00  0.00    -0.200 F 
ENDBRANCH  45  69
BRANCH  57  80
ATOM     80  C   UNL A   1      44.789  28.123  34.374  1.00  0.00     0.064 A 
ATOM     81  C   UNL A   1      44.856  27.020  35.239  1.00  0.00     0.173 A 
ATOM     82  C   UNL A   1      45.922  28.945  34.267  1.00  0.00     0.173 A 
ATOM     83  F   UNL A   1      43.795  26.212  35.385  1.00  0.00    -0.203 F 
ATOM     84  C   UNL A   1      46.002  26.769  35.989  1.00  0.00     0.198 A 
ATOM     85  C   UNL A   1      47.077  28.671  34.992  1.00  0.00     0.198 A 
ATOM     86  F   UNL A   1      45.911  30.006  33.446  1.00  0.00    -0.203 F 
ATOM     87  F   UNL A   1      46.025  25.741  36.848  1.00  0.00    -0.200 F 
ATOM     88  C   UNL A   1      47.113  27.589  35.858  1.00  0.00     0.200 A 
ATOM     89  F   UNL A   1      48.155  29.453  34.851  1.00  0.00    -0.200 F 
ATOM     90  F   UNL A   1      48.218  27.339  36.574  1.00  0.00    -0.200 F 
ENDBRANCH  57  80
ENDBRANCH  31  32
ENDBRANCH  23  26
ENDBRANCH  21  22
ENDBRANCH  20  21
ENDBRANCH   1  20
TORSDOF 13
ENDMDL
MODEL 3
REMARK VINA RESULT:     -11.8      1.689      8.104
REMARK SMILES Cc1ncccc1NS(=O)(=O)[C@@H](C)C(=O)NCCCNC(=O)c1ccc(-c2c3nc(c(-c4c(F)c(F)c(F)c(F)c4F)c4ccc([nH]4)c(-c4c(F)c(F)c(F)c(F)c4F)c4nc(c(-c5c(F)c(F)c(F)c(F)c5F)c5ccc2[nH]5)C=C4)C=C3)cc1
REMARK SMILES IDX 17 1 16 2 14 3 15 4 12 6 13 7 9 8 10 9 11 10 8 11 7 13 1 14
REMARK SMILES IDX 2 15 3 16 4 17 6 18 5 19 18 20 19 21 20 22 21 23 22 25 23 26
REMARK SMILES IDX 24 27 85 28 25 29 84 30 26 31 27 32 28 33 78 34 29 35 83 36
REMARK SMILES IDX 77 37 79 38 30 39 82 40 76 41 75 42 31 44 63 45 43 46 62 47
REMARK SMILES IDX 44 48 47 49 61 50 80 51 45 52 46 53 60 55 81 56 48 57 32 58
REMARK SMILES IDX 33 59 41 60 34 61 35 62 39 63 42 64 36 65 37 66 40 67 38 68
REMARK SMILES IDX 64 69 65 70 73 71 66 72 67 73 71 74 74 75 68 76 69 77 72 78
REMARK SMILES IDX 70 79 49 80 50 81 58 82 51 83 52 84 56 85 59 86 53 87 54 88
REMARK SMILES IDX 57 89 55 90
REMARK H PARENT 16 5 8 12 20 24 79 43 47 54
REMARK Flexibility Score: inf
ROOT
ATOM      1  C   UNL A   1      31.683  30.753  26.031  1.00  0.00     0.117 C 
ENDROOT
BRANCH   1   2
ATOM      2  N   UNL A   1      32.796  30.091  26.665  1.00  0.00    -0.355 N 
ATOM      3  C   UNL A   1      33.674  29.177  26.201  1.00  0.00     0.239 C 
ATOM      4  O   UNL A   1      34.779  29.226  26.771  1.00  0.00    -0.274 OA
ATOM      5  H   UNL A   1      32.940  30.353  27.604  1.00  0.00     0.163 HD
BRANCH   3   6
ATOM      6  C   UNL A   1      33.507  28.157  25.094  1.00  0.00     0.215 C 
ATOM      7  C   UNL A   1      34.040  28.618  23.743  1.00  0.00     0.037 C 
BRANCH   6   8
ATOM      8  S   UNL A   1      32.101  27.067  25.039  1.00  0.00     0.244 S 
ATOM      9  O   UNL A   1      31.091  27.443  25.999  1.00  0.00    -0.206 OA
ATOM     10  O   UNL A   1      32.636  25.720  25.123  1.00  0.00    -0.206 OA
BRANCH   8  11
ATOM     11  N   UNL A   1      31.422  27.082  23.497  1.00  0.00    -0.281 N 
ATOM     12  H   UNL A   1      31.787  26.463  22.826  1.00  0.00     0.180 HD
BRANCH  11  13
ATOM     13  C   UNL A   1      30.347  27.943  23.102  1.00  0.00     0.070 A 
ATOM     14  C   UNL A   1      28.438  26.455  23.964  1.00  0.00     0.069 C 
ATOM     15  C   UNL A   1      28.985  27.689  23.316  1.00  0.00     0.061 A 
ATOM     16  N   UNL A   1      28.019  28.551  22.897  1.00  0.00    -0.259 NA
ATOM     17  C   UNL A   1      28.385  29.695  22.282  1.00  0.00     0.111 A 
ATOM     18  C   UNL A   1      30.684  29.135  22.449  1.00  0.00     0.030 A 
ATOM     19  C   UNL A   1      29.699  30.035  22.050  1.00  0.00     0.022 A 
ENDBRANCH  11  13
ENDBRANCH   8  11
ENDBRANCH   6   8
ENDBRANCH   3   6
ENDBRANCH   1   2
BRANCH   1  20
ATOM     20  C   UNL A   1      31.385  32.147  26.549  1.00  0.00     0.042 C 
BRANCH  20  21
ATOM     21  C   UNL A   1      32.568  32.827  27.211  1.00  0.00     0.118 C 
BRANCH  21  22
ATOM     22  N   UNL A   1      32.318  34.182  27.686  1.00  0.00    -0.352 N 
ATOM     23  C   UNL A   1      33.000  34.955  28.598  1.00  0.00     0.251 C 
ATOM     24  H   UNL A   1      31.530  34.618  27.287  1.00  0.00     0.163 HD
ATOM     25  O   UNL A   1      32.655  36.117  28.798  1.00  0.00    -0.269 OA
BRANCH  23  26
ATOM     26  C   UNL A   1      34.119  34.378  29.369  1.00  0.00     0.039 A 
ATOM     27  C   UNL A   1      33.839  33.595  30.493  1.00  0.00     0.014 A 
ATOM     28  C   UNL A   1      35.438  34.558  28.962  1.00  0.00     0.014 A 
ATOM     29  C   UNL A   1      34.877  32.924  31.147  1.00  0.00     0.010 A 
ATOM     30  C   UNL A   1      36.441  33.778  29.514  1.00  0.00     0.010 A 
ATOM     31  C   UNL A   1      36.179  32.965  30.626  1.00  0.00    -0.014 A 
BRANCH  31  32
ATOM     32  C   UNL A   1      37.308  32.206  31.224  1.00  0.00     0.031 A 
ATOM     33  C   UNL A   1      37.815  32.595  32.591  1.00  0.00     0.074 A 
ATOM     34  C   UNL A   1      37.941  31.256  30.509  1.00  0.00     0.049 A 
ATOM     35  N   UNL A   1      38.894  32.203  33.220  1.00  0.00    -0.248 NA
ATOM     36  C   UNL A   1      37.027  33.600  33.327  1.00  0.00     0.031 C 
ATOM     37  C   UNL A   1      37.584  30.827  29.156  1.00  0.00     0.029 A 
ATOM     38  N   UNL A   1      39.038  30.488  30.818  1.00  0.00    -0.354 N 
ATOM     39  C   UNL A   1      38.926  32.937  34.399  1.00  0.00     0.074 A 
ATOM     40  C   UNL A   1      37.806  33.849  34.367  1.00  0.00     0.031 C 
ATOM     41  C   UNL A   1      38.425  29.857  28.762  1.00  0.00     0.029 A 
ATOM     42  C   UNL A   1      39.413  29.631  29.810  1.00  0.00     0.049 A 
ATOM     43  H   UNL A   1      39.511  30.547  31.679  1.00  0.00     0.167 HD
ATOM     44  C   UNL A   1      39.790  32.833  35.436  1.00  0.00     0.037 A 
ATOM     45  C   UNL A   1      40.448  28.772  29.740  1.00  0.00     0.037 A 
ATOM     46  C   UNL A   1      40.870  31.885  35.485  1.00  0.00     0.049 A 
ATOM     47  C   UNL A   1      41.391  28.673  30.912  1.00  0.00     0.074 A 
ATOM     48  C   UNL A   1      41.770  31.655  36.510  1.00  0.00     0.029 A 
ATOM     49  N   UNL A   1      41.186  31.000  34.465  1.00  0.00    -0.354 N 
ATOM     50  N   UNL A   1      41.377  29.330  32.046  1.00  0.00    -0.248 NA
ATOM     51  C   UNL A   1      42.492  27.705  30.795  1.00  0.00     0.031 C 
ATOM     52  C   UNL A   1      42.655  30.656  36.096  1.00  0.00     0.029 A 
ATOM     53  C   UNL A   1      42.275  30.227  34.835  1.00  0.00     0.049 A 
ATOM     54  H   UNL A   1      40.708  30.931  33.607  1.00  0.00     0.167 HD
ATOM     55  C   UNL A   1      42.438  28.830  32.790  1.00  0.00     0.074 A 
ATOM     56  C   UNL A   1      43.063  27.803  31.985  1.00  0.00     0.031 C 
ATOM     57  C   UNL A   1      42.861  29.190  34.026  1.00  0.00     0.037 A 
BRANCH  44  58
ATOM     58  C   UNL A   1      39.582  33.740  36.614  1.00  0.00     0.064 A 
ATOM     59  C   UNL A   1      38.799  33.351  37.712  1.00  0.00     0.173 A 
ATOM     60  C   UNL A   1      40.212  34.994  36.670  1.00  0.00     0.173 A 
ATOM     61  F   UNL A   1      38.164  32.169  37.703  1.00  0.00    -0.203 F 
ATOM     62  C   UNL A   1      38.633  34.191  38.809  1.00  0.00     0.198 A 
ATOM     63  C   UNL A   1      40.071  35.816  37.786  1.00  0.00     0.198 A 
ATOM     64  F   UNL A   1      40.975  35.415  35.651  1.00  0.00    -0.203 F 
ATOM     65  F   UNL A   1      37.839  33.816  39.822  1.00  0.00    -0.200 F 
ATOM     66  C   UNL A   1      39.277  35.418  38.850  1.00  0.00     0.200 A 
ATOM     67  F   UNL A   1      40.705  36.996  37.830  1.00  0.00    -0.200 F 
ATOM     68  F   UNL A   1      39.128  36.219  39.914  1.00  0.00    -0.200 F 
ENDBRANCH  44  58
BRANCH  45  69
ATOM     69  C   UNL A   1      40.645  27.920  28.536  1.00  0.00     0.064 A 
ATOM     70  C   UNL A   1      41.402  28.380  27.447  1.00  0.00     0.173 A 
ATOM     71  C   UNL A   1      40.055  26.653  28.426  1.00  0.00     0.173 A 
ATOM     72  F   UNL A   1      41.972  29.593  27.495  1.00  0.00    -0.203 F 
ATOM     73  C   UNL A   1      41.525  27.625  26.282  1.00  0.00     0.198 A 
ATOM     74  C   UNL A   1      40.208  25.883  27.274  1.00  0.00     0.198 A 
ATOM     75  F   UNL A   1      39.327  26.159  29.439  1.00  0.00    -0.203 F 
ATOM     76  F   UNL A   1      42.196  28.121  25.235  1.00  0.00    -0.200 F 
ATOM     77  C   UNL A   1      40.931  26.376  26.198  1.00  0.00     0.200 A 
ATOM     78  F   UNL A   1      39.646  24.669  27.202  1.00  0.00    -0.200 F 
ATOM     79  F   UNL A   1      41.044  25.652  25.076  1.00  0.00    -0.200 F 
ENDBRANCH  45  69
BRANCH  57  80
ATOM     80  C   UNL A   1      44.016  28.429  34.608  1.00  0.00     0.064 A 
ATOM     81  C   UNL A   1      43.829  27.242  35.332  1.00  0.00     0.173 A 
ATOM     82  C   UNL A   1      45.331  28.872  34.398  1.00  0.00     0.173 A 
ATOM     83  F   UNL A   1      42.591  26.785  35.570  1.00  0.00    -0.203 F 
ATOM     84  C   UNL A   1      44.916  26.543  35.850  1.00  0.00     0.198 A 
ATOM     85  C   UNL A   1      46.416  28.152  34.887  1.00  0.00     0.198 A 
ATOM     86  F   UNL A   1      45.563  29.996  33.703  1.00  0.00    -0.203 F 
ATOM     87  F   UNL A   1      44.712  25.440  36.583  1.00  0.00    -0.200 F 
ATOM     88  C   UNL A   1      46.208  26.993  35.619  1.00  0.00     0.200 A 
ATOM     89  F   UNL A   1      47.663  28.579  34.649  1.00  0.00    -0.200 F 
ATOM     90  F   UNL A   1      47.252  26.313  36.111  1.00  0.00    -0.200 F 
ENDBRANCH  57  80
ENDBRANCH  31  32
ENDBRANCH  23  26
ENDBRANCH  21  22
ENDBRANCH  20  21
ENDBRANCH   1  20
TORSDOF 13
ENDMDL
