MODEL 1
REMARK VINA RESULT:     -14.6      0.000      0.000
REMARK SMILES O=C(NCCCNC(=O)c1ccc(-c2c3nc(c(-c4c(F)c(F)c(F)c(F)c4F)c4ccc([nH]4)c(-c4c(F)c(F)c(F)c(F)c4F)c4nc(c(-c5c(F)c(F)c(F)c(F)c5F)c5ccc2[nH]5)C=C4)C=C3)cc1)C1=Cc2c(ccc(Cl)c2Oc2ccccc2)O[C@H]1C(F)(F)F
REMARK SMILES IDX 5 1 4 2 3 3 1 4 2 5 73 7 74 8 90 9 75 10 89 11 76 12 81 13
REMARK SMILES IDX 77 14 79 15 78 16 80 17 91 18 92 19 93 20 94 21 82 22 83 23
REMARK SMILES IDX 84 24 88 25 85 26 87 27 86 28 6 29 7 30 8 31 9 33 10 34
REMARK SMILES IDX 11 35 72 36 12 37 71 38 13 39 14 40 15 41 65 42 16 43 70 44
REMARK SMILES IDX 64 45 66 46 17 47 69 48 63 49 62 50 18 52 50 53 30 54 49 55
REMARK SMILES IDX 31 56 34 57 48 58 67 59 32 60 33 61 47 63 68 64 35 65 19 66
REMARK SMILES IDX 20 67 28 68 21 69 22 70 26 71 29 72 23 73 24 74 27 75 25 76
REMARK SMILES IDX 51 77 52 78 60 79 53 80 54 81 58 82 61 83 55 84 56 85 59 86
REMARK SMILES IDX 57 87 36 88 37 89 45 90 38 91 39 92 43 93 46 94 40 95 41 96
REMARK SMILES IDX 44 97 42 98
REMARK H PARENT 3 6 7 32 66 51 34 62
REMARK Flexibility Score: inf
ROOT
ATOM      1  C   UNL A   1      31.733  28.299  26.830  1.00  0.00     0.042 C 
ENDROOT
BRANCH   1   2
ATOM      2  C   UNL A   1      31.401  27.053  26.018  1.00  0.00     0.118 C 
BRANCH   2   3
ATOM      3  N   UNL A   1      31.345  25.841  26.821  1.00  0.00    -0.352 N 
ATOM      4  O   UNL A   1      31.287  23.638  27.258  1.00  0.00    -0.270 OA
ATOM      5  C   UNL A   1      31.491  24.533  26.450  1.00  0.00     0.251 C 
ATOM      6  H   UNL A   1      31.177  25.984  27.781  1.00  0.00     0.163 HD
BRANCH   5   7
ATOM      7  C   UNL A   1      31.841  24.184  25.058  1.00  0.00     0.067 C 
ATOM      8  C   UNL A   1      32.179  22.930  24.737  1.00  0.00     0.029 C 
ATOM      9  C   UNL A   1      32.154  25.304  24.121  1.00  0.00     0.314 C 
ATOM     10  C   UNL A   1      33.606  22.840  24.336  1.00  0.00     0.061 A 
ATOM     11  O   UNL A   1      33.482  25.167  23.528  1.00  0.00    -0.475 OA
ATOM     12  C   UNL A   1      34.182  24.005  23.774  1.00  0.00     0.131 A 
ATOM     13  C   UNL A   1      34.424  21.738  24.687  1.00  0.00     0.156 A 
ATOM     14  C   UNL A   1      35.555  24.076  23.554  1.00  0.00     0.049 A 
ATOM     15  C   UNL A   1      35.812  21.855  24.491  1.00  0.00     0.084 A 
ATOM     16  C   UNL A   1      36.370  23.010  23.930  1.00  0.00     0.028 A 
ATOM     17  Cl  UNL A   1      36.901  20.611  25.001  1.00  0.00    -0.080 Cl
BRANCH   9  18
ATOM     18  C   UNL A   1      31.089  25.444  23.022  1.00  0.00     0.429 C 
ATOM     19  F   UNL A   1      30.625  26.710  22.904  1.00  0.00    -0.167 F 
ATOM     20  F   UNL A   1      31.588  25.091  21.813  1.00  0.00    -0.167 F 
ATOM     21  F   UNL A   1      30.014  24.653  23.261  1.00  0.00    -0.167 F 
ENDBRANCH   9  18
BRANCH  13  22
ATOM     22  O   UNL A   1      34.017  20.588  25.354  1.00  0.00    -0.455 OA
BRANCH  22  23
ATOM     23  C   UNL A   1      33.703  19.466  24.631  1.00  0.00     0.127 A 
ATOM     24  C   UNL A   1      32.528  19.472  23.874  1.00  0.00     0.047 A 
ATOM     25  C   UNL A   1      34.549  18.356  24.626  1.00  0.00     0.047 A 
ATOM     26  C   UNL A   1      32.261  18.410  23.013  1.00  0.00     0.004 A 
ATOM     27  C   UNL A   1      34.271  17.291  23.770  1.00  0.00     0.004 A 
ATOM     28  C   UNL A   1      33.140  17.328  22.949  1.00  0.00     0.000 A 
ENDBRANCH  22  23
ENDBRANCH  13  22
ENDBRANCH   5   7
ENDBRANCH   2   3
ENDBRANCH   1   2
BRANCH   1  29
ATOM     29  C   UNL A   1      32.518  29.335  26.035  1.00  0.00     0.118 C 
BRANCH  29  30
ATOM     30  N   UNL A   1      32.317  30.705  26.502  1.00  0.00    -0.352 N 
ATOM     31  C   UNL A   1      33.094  31.564  27.246  1.00  0.00     0.251 C 
ATOM     32  H   UNL A   1      31.454  31.092  26.229  1.00  0.00     0.163 HD
ATOM     33  O   UNL A   1      32.622  32.648  27.581  1.00  0.00    -0.269 OA
BRANCH  31  34
ATOM     34  C   UNL A   1      34.458  31.205  27.705  1.00  0.00     0.039 A 
ATOM     35  C   UNL A   1      35.409  32.224  27.844  1.00  0.00     0.014 A 
ATOM     36  C   UNL A   1      34.828  29.892  27.985  1.00  0.00     0.014 A 
ATOM     37  C   UNL A   1      36.668  31.945  28.387  1.00  0.00     0.010 A 
ATOM     38  C   UNL A   1      36.036  29.632  28.628  1.00  0.00     0.010 A 
ATOM     39  C   UNL A   1      36.961  30.659  28.863  1.00  0.00    -0.014 A 
BRANCH  39  40
ATOM     40  C   UNL A   1      38.188  30.361  29.651  1.00  0.00     0.031 A 
ATOM     41  C   UNL A   1      39.227  29.415  29.113  1.00  0.00     0.074 A 
ATOM     42  C   UNL A   1      38.300  30.828  30.911  1.00  0.00     0.049 A 
ATOM     43  N   UNL A   1      40.223  28.835  29.734  1.00  0.00    -0.248 NA
ATOM     44  C   UNL A   1      39.104  29.040  27.696  1.00  0.00     0.031 C 
ATOM     45  C   UNL A   1      37.346  31.715  31.579  1.00  0.00     0.029 A 
ATOM     46  N   UNL A   1      39.257  30.595  31.870  1.00  0.00    -0.354 N 
ATOM     47  C   UNL A   1      40.810  27.990  28.801  1.00  0.00     0.074 A 
ATOM     48  C   UNL A   1      40.046  28.115  27.578  1.00  0.00     0.031 C 
ATOM     49  C   UNL A   1      37.771  31.968  32.826  1.00  0.00     0.029 A 
ATOM     50  C   UNL A   1      38.996  31.213  33.070  1.00  0.00     0.049 A 
ATOM     51  H   UNL A   1      40.054  30.040  31.714  1.00  0.00     0.167 HD
ATOM     52  C   UNL A   1      41.895  27.191  28.949  1.00  0.00     0.037 A 
ATOM     53  C   UNL A   1      39.648  31.158  34.246  1.00  0.00     0.037 A 
ATOM     54  C   UNL A   1      42.695  27.121  30.142  1.00  0.00     0.049 A 
ATOM     55  C   UNL A   1      40.866  30.288  34.374  1.00  0.00     0.074 A 
ATOM     56  C   UNL A   1      43.866  26.414  30.356  1.00  0.00     0.029 A 
ATOM     57  N   UNL A   1      42.413  27.792  31.322  1.00  0.00    -0.354 N 
ATOM     58  N   UNL A   1      41.424  29.513  33.477  1.00  0.00    -0.248 NA
ATOM     59  C   UNL A   1      41.534  30.273  35.683  1.00  0.00     0.031 C 
ATOM     60  C   UNL A   1      44.281  26.639  31.673  1.00  0.00     0.029 A 
ATOM     61  C   UNL A   1      43.382  27.506  32.271  1.00  0.00     0.049 A 
ATOM     62  H   UNL A   1      41.640  28.384  31.465  1.00  0.00     0.167 HD
ATOM     63  C   UNL A   1      42.512  28.926  34.107  1.00  0.00     0.074 A 
ATOM     64  C   UNL A   1      42.547  29.448  35.457  1.00  0.00     0.031 C 
ATOM     65  C   UNL A   1      43.398  28.031  33.611  1.00  0.00     0.037 A 
BRANCH  52  66
ATOM     66  C   UNL A   1      42.287  26.331  27.786  1.00  0.00     0.064 A 
ATOM     67  C   UNL A   1      43.300  26.716  26.896  1.00  0.00     0.173 A 
ATOM     68  C   UNL A   1      41.671  25.087  27.583  1.00  0.00     0.173 A 
ATOM     69  F   UNL A   1      43.910  27.902  27.041  1.00  0.00    -0.203 F 
ATOM     70  C   UNL A   1      43.664  25.898  25.829  1.00  0.00     0.198 A 
ATOM     71  C   UNL A   1      42.055  24.261  26.530  1.00  0.00     0.198 A 
ATOM     72  F   UNL A   1      40.701  24.670  28.410  1.00  0.00    -0.203 F 
ATOM     73  F   UNL A   1      44.606  26.306  24.966  1.00  0.00    -0.200 F 
ATOM     74  C   UNL A   1      43.046  24.670  25.651  1.00  0.00     0.200 A 
ATOM     75  F   UNL A   1      41.464  23.069  26.364  1.00  0.00    -0.200 F 
ATOM     76  F   UNL A   1      43.402  23.882  24.627  1.00  0.00    -0.200 F 
ENDBRANCH  52  66
BRANCH  53  77
ATOM     77  C   UNL A   1      39.159  31.951  35.402  1.00  0.00     0.064 A 
ATOM     78  C   UNL A   1      38.341  31.362  36.376  1.00  0.00     0.173 A 
ATOM     79  C   UNL A   1      39.498  33.302  35.560  1.00  0.00     0.173 A 
ATOM     80  F   UNL A   1      37.974  30.078  36.252  1.00  0.00    -0.203 F 
ATOM     81  C   UNL A   1      37.870  32.099  37.460  1.00  0.00     0.198 A 
ATOM     82  C   UNL A   1      39.045  34.031  36.657  1.00  0.00     0.198 A 
ATOM     83  F   UNL A   1      40.283  33.908  34.657  1.00  0.00    -0.203 F 
ATOM     84  F   UNL A   1      37.062  31.521  38.358  1.00  0.00    -0.200 F 
ATOM     85  C   UNL A   1      38.228  33.432  37.603  1.00  0.00     0.200 A 
ATOM     86  F   UNL A   1      39.402  35.315  36.799  1.00  0.00    -0.200 F 
ATOM     87  F   UNL A   1      37.778  34.138  38.649  1.00  0.00    -0.200 F 
ENDBRANCH  53  77
BRANCH  65  88
ATOM     88  C   UNL A   1      44.485  27.567  34.531  1.00  0.00     0.064 A 
ATOM     89  C   UNL A   1      45.687  28.279  34.653  1.00  0.00     0.173 A 
ATOM     90  C   UNL A   1      44.309  26.424  35.324  1.00  0.00     0.173 A 
ATOM     91  F   UNL A   1      45.906  29.368  33.900  1.00  0.00    -0.203 F 
ATOM     92  C   UNL A   1      46.681  27.854  35.529  1.00  0.00     0.198 A 
ATOM     93  C   UNL A   1      45.297  26.014  36.214  1.00  0.00     0.198 A 
ATOM     94  F   UNL A   1      43.176  25.712  35.242  1.00  0.00    -0.203 F 
ATOM     95  F   UNL A   1      47.836  28.530  35.607  1.00  0.00    -0.200 F 
ATOM     96  C   UNL A   1      46.483  26.727  36.313  1.00  0.00     0.200 A 
ATOM     97  F   UNL A   1      45.104  24.929  36.975  1.00  0.00    -0.200 F 
ATOM     98  F   UNL A   1      47.440  26.323  37.160  1.00  0.00    -0.200 F 
ENDBRANCH  65  88
ENDBRANCH  39  40
ENDBRANCH  31  34
ENDBRANCH  29  30
ENDBRANCH   1  29
TORSDOF 13
ENDMDL
MODEL 2
REMARK VINA RESULT:     -14.6      0.244      1.608
REMARK SMILES O=C(NCCCNC(=O)c1ccc(-c2c3nc(c(-c4c(F)c(F)c(F)c(F)c4F)c4ccc([nH]4)c(-c4c(F)c(F)c(F)c(F)c4F)c4nc(c(-c5c(F)c(F)c(F)c(F)c5F)c5ccc2[nH]5)C=C4)C=C3)cc1)C1=Cc2c(ccc(Cl)c2Oc2ccccc2)O[C@H]1C(F)(F)F
REMARK SMILES IDX 5 1 4 2 3 3 1 4 2 5 73 7 74 8 90 9 75 10 89 11 76 12 81 13
REMARK SMILES IDX 77 14 79 15 78 16 80 17 91 18 92 19 93 20 94 21 82 22 83 23
REMARK SMILES IDX 84 24 88 25 85 26 87 27 86 28 6 29 7 30 8 31 9 33 10 34
REMARK SMILES IDX 11 35 72 36 12 37 71 38 13 39 14 40 15 41 65 42 16 43 70 44
REMARK SMILES IDX 64 45 66 46 17 47 69 48 63 49 62 50 18 52 50 53 30 54 49 55
REMARK SMILES IDX 31 56 34 57 48 58 67 59 32 60 33 61 47 63 68 64 35 65 19 66
REMARK SMILES IDX 20 67 28 68 21 69 22 70 26 71 29 72 23 73 24 74 27 75 25 76
REMARK SMILES IDX 51 77 52 78 60 79 53 80 54 81 58 82 61 83 55 84 56 85 59 86
REMARK SMILES IDX 57 87 36 88 37 89 45 90 38 91 39 92 43 93 46 94 40 95 41 96
REMARK SMILES IDX 44 97 42 98
REMARK H PARENT 3 6 7 32 66 51 34 62
REMARK Flexibility Score: inf
ROOT
ATOM      1  C   UNL A   1      31.927  28.082  26.938  1.00  0.00     0.042 C 
ENDROOT
BRANCH   1   2
ATOM      2  C   UNL A   1      31.412  26.902  26.124  1.00  0.00     0.118 C 
BRANCH   2   3
ATOM      3  N   UNL A   1      31.311  25.671  26.893  1.00  0.00    -0.352 N 
ATOM      4  O   UNL A   1      31.180  23.460  27.271  1.00  0.00    -0.270 OA
ATOM      5  C   UNL A   1      31.420  24.369  26.489  1.00  0.00     0.251 C 
ATOM      6  H   UNL A   1      31.137  25.795  27.855  1.00  0.00     0.163 HD
BRANCH   5   7
ATOM      7  C   UNL A   1      31.774  24.046  25.092  1.00  0.00     0.067 C 
ATOM      8  C   UNL A   1      32.141  22.805  24.754  1.00  0.00     0.029 C 
ATOM      9  C   UNL A   1      32.058  25.185  24.169  1.00  0.00     0.314 C 
ATOM     10  C   UNL A   1      33.568  22.753  24.348  1.00  0.00     0.061 A 
ATOM     11  O   UNL A   1      33.388  25.086  23.571  1.00  0.00    -0.475 OA
ATOM     12  C   UNL A   1      34.115  23.939  23.800  1.00  0.00     0.131 A 
ATOM     13  C   UNL A   1      34.412  21.667  24.683  1.00  0.00     0.156 A 
ATOM     14  C   UNL A   1      35.485  24.044  23.576  1.00  0.00     0.049 A 
ATOM     15  C   UNL A   1      35.797  21.818  24.485  1.00  0.00     0.084 A 
ATOM     16  C   UNL A   1      36.326  22.993  23.937  1.00  0.00     0.028 A 
ATOM     17  Cl  UNL A   1      36.916  20.594  24.976  1.00  0.00    -0.080 Cl
BRANCH   9  18
ATOM     18  C   UNL A   1      30.986  25.314  23.075  1.00  0.00     0.429 C 
ATOM     19  F   UNL A   1      31.503  25.225  21.827  1.00  0.00    -0.167 F 
ATOM     20  F   UNL A   1      30.057  24.335  23.187  1.00  0.00    -0.167 F 
ATOM     21  F   UNL A   1      30.334  26.500  23.147  1.00  0.00    -0.167 F 
ENDBRANCH   9  18
BRANCH  13  22
ATOM     22  O   UNL A   1      34.035  20.499  25.337  1.00  0.00    -0.455 OA
BRANCH  22  23
ATOM     23  C   UNL A   1      33.740  19.381  24.601  1.00  0.00     0.127 A 
ATOM     24  C   UNL A   1      32.582  19.388  23.818  1.00  0.00     0.047 A 
ATOM     25  C   UNL A   1      34.589  18.273  24.607  1.00  0.00     0.047 A 
ATOM     26  C   UNL A   1      32.336  18.331  22.945  1.00  0.00     0.004 A 
ATOM     27  C   UNL A   1      34.333  17.212  23.738  1.00  0.00     0.004 A 
ATOM     28  C   UNL A   1      33.220  17.252  22.893  1.00  0.00     0.000 A 
ENDBRANCH  22  23
ENDBRANCH  13  22
ENDBRANCH   5   7
ENDBRANCH   2   3
ENDBRANCH   1   2
BRANCH   1  29
ATOM     29  C   UNL A   1      32.688  29.099  26.097  1.00  0.00     0.118 C 
BRANCH  29  30
ATOM     30  N   UNL A   1      32.480  30.481  26.521  1.00  0.00    -0.352 N 
ATOM     31  C   UNL A   1      33.259  31.371  27.228  1.00  0.00     0.251 C 
ATOM     32  H   UNL A   1      31.610  30.852  26.247  1.00  0.00     0.163 HD
ATOM     33  O   UNL A   1      32.781  32.461  27.534  1.00  0.00    -0.269 OA
BRANCH  31  34
ATOM     34  C   UNL A   1      34.631  31.038  27.681  1.00  0.00     0.039 A 
ATOM     35  C   UNL A   1      35.570  32.072  27.792  1.00  0.00     0.014 A 
ATOM     36  C   UNL A   1      35.021  29.736  27.984  1.00  0.00     0.014 A 
ATOM     37  C   UNL A   1      36.837  31.820  28.329  1.00  0.00     0.010 A 
ATOM     38  C   UNL A   1      36.238  29.504  28.620  1.00  0.00     0.010 A 
ATOM     39  C   UNL A   1      37.151  30.547  28.827  1.00  0.00    -0.014 A 
BRANCH  39  40
ATOM     40  C   UNL A   1      38.389  30.280  29.609  1.00  0.00     0.031 A 
ATOM     41  C   UNL A   1      39.436  29.339  29.080  1.00  0.00     0.074 A 
ATOM     42  C   UNL A   1      38.505  30.771  30.860  1.00  0.00     0.049 A 
ATOM     43  N   UNL A   1      40.445  28.783  29.702  1.00  0.00    -0.248 NA
ATOM     44  C   UNL A   1      39.306  28.936  27.671  1.00  0.00     0.031 C 
ATOM     45  C   UNL A   1      37.544  31.658  31.519  1.00  0.00     0.029 A 
ATOM     46  N   UNL A   1      39.473  30.570  31.815  1.00  0.00    -0.354 N 
ATOM     47  C   UNL A   1      41.036  27.930  28.780  1.00  0.00     0.074 A 
ATOM     48  C   UNL A   1      40.259  28.022  27.562  1.00  0.00     0.031 C 
ATOM     49  C   UNL A   1      37.977  31.939  32.758  1.00  0.00     0.029 A 
ATOM     50  C   UNL A   1      39.214  31.206  33.005  1.00  0.00     0.049 A 
ATOM     51  H   UNL A   1      40.277  30.022  31.661  1.00  0.00     0.167 HD
ATOM     52  C   UNL A   1      42.132  27.149  28.933  1.00  0.00     0.037 A 
ATOM     53  C   UNL A   1      39.877  31.181  34.176  1.00  0.00     0.037 A 
ATOM     54  C   UNL A   1      42.944  27.111  30.120  1.00  0.00     0.049 A 
ATOM     55  C   UNL A   1      41.108  30.330  34.309  1.00  0.00     0.074 A 
ATOM     56  C   UNL A   1      44.126  26.424  30.336  1.00  0.00     0.029 A 
ATOM     57  N   UNL A   1      42.663  27.800  31.290  1.00  0.00    -0.354 N 
ATOM     58  N   UNL A   1      41.668  29.547  33.421  1.00  0.00    -0.248 NA
ATOM     59  C   UNL A   1      41.787  30.349  35.612  1.00  0.00     0.031 C 
ATOM     60  C   UNL A   1      44.549  26.679  31.645  1.00  0.00     0.029 A 
ATOM     61  C   UNL A   1      43.644  27.544  32.235  1.00  0.00     0.049 A 
ATOM     62  H   UNL A   1      41.883  28.384  31.428  1.00  0.00     0.167 HD
ATOM     63  C   UNL A   1      42.770  28.987  34.052  1.00  0.00     0.074 A 
ATOM     64  C   UNL A   1      42.810  29.534  35.392  1.00  0.00     0.031 C 
ATOM     65  C   UNL A   1      43.664  28.094  33.565  1.00  0.00     0.037 A 
BRANCH  52  66
ATOM     66  C   UNL A   1      42.527  26.273  27.782  1.00  0.00     0.064 A 
ATOM     67  C   UNL A   1      41.941  25.015  27.580  1.00  0.00     0.173 A 
ATOM     68  C   UNL A   1      43.473  26.715  26.846  1.00  0.00     0.173 A 
ATOM     69  F   UNL A   1      41.040  24.543  28.455  1.00  0.00    -0.203 F 
ATOM     70  C   UNL A   1      42.307  24.221  26.497  1.00  0.00     0.198 A 
ATOM     71  C   UNL A   1      43.818  25.929  25.750  1.00  0.00     0.198 A 
ATOM     72  F   UNL A   1      44.059  27.913  26.990  1.00  0.00    -0.203 F 
ATOM     73  F   UNL A   1      41.764  23.004  26.348  1.00  0.00    -0.200 F 
ATOM     74  C   UNL A   1      43.240  24.680  25.580  1.00  0.00     0.200 A 
ATOM     75  F   UNL A   1      44.714  26.378  24.859  1.00  0.00    -0.200 F 
ATOM     76  F   UNL A   1      43.587  23.916  24.535  1.00  0.00    -0.200 F 
ENDBRANCH  52  66
BRANCH  53  77
ATOM     77  C   UNL A   1      39.387  31.989  35.322  1.00  0.00     0.064 A 
ATOM     78  C   UNL A   1      39.775  33.327  35.468  1.00  0.00     0.173 A 
ATOM     79  C   UNL A   1      38.524  31.447  36.284  1.00  0.00     0.173 A 
ATOM     80  F   UNL A   1      40.618  33.879  34.582  1.00  0.00    -0.203 F 
ATOM     81  C   UNL A   1      39.328  34.092  36.542  1.00  0.00     0.198 A 
ATOM     82  C   UNL A   1      38.059  32.220  37.346  1.00  0.00     0.198 A 
ATOM     83  F   UNL A   1      38.120  30.173  36.184  1.00  0.00    -0.203 F 
ATOM     84  F   UNL A   1      39.742  35.359  36.678  1.00  0.00    -0.200 F 
ATOM     85  C   UNL A   1      38.465  33.539  37.478  1.00  0.00     0.200 A 
ATOM     86  F   UNL A   1      37.216  31.688  38.241  1.00  0.00    -0.200 F 
ATOM     87  F   UNL A   1      38.031  34.277  38.508  1.00  0.00    -0.200 F 
ENDBRANCH  53  77
BRANCH  65  88
ATOM     88  C   UNL A   1      44.765  27.662  34.484  1.00  0.00     0.064 A 
ATOM     89  C   UNL A   1      45.952  28.400  34.592  1.00  0.00     0.173 A 
ATOM     90  C   UNL A   1      44.617  26.524  35.289  1.00  0.00     0.173 A 
ATOM     91  F   UNL A   1      46.145  29.485  33.827  1.00  0.00    -0.203 F 
ATOM     92  C   UNL A   1      46.960  28.004  35.468  1.00  0.00     0.198 A 
ATOM     93  C   UNL A   1      45.618  26.143  36.178  1.00  0.00     0.198 A 
ATOM     94  F   UNL A   1      43.498  25.788  35.220  1.00  0.00    -0.203 F 
ATOM     95  F   UNL A   1      48.101  28.704  35.532  1.00  0.00    -0.200 F 
ATOM     96  C   UNL A   1      46.790  26.882  36.263  1.00  0.00     0.200 A 
ATOM     97  F   UNL A   1      45.451  25.062  36.951  1.00  0.00    -0.200 F 
ATOM     98  F   UNL A   1      47.759  26.506  37.109  1.00  0.00    -0.200 F 
ENDBRANCH  65  88
ENDBRANCH  39  40
ENDBRANCH  31  34
ENDBRANCH  29  30
ENDBRANCH   1  29
TORSDOF 13
ENDMDL
MODEL 3
REMARK VINA RESULT:     -14.5      2.004      3.505
REMARK SMILES O=C(NCCCNC(=O)c1ccc(-c2c3nc(c(-c4c(F)c(F)c(F)c(F)c4F)c4ccc([nH]4)c(-c4c(F)c(F)c(F)c(F)c4F)c4nc(c(-c5c(F)c(F)c(F)c(F)c5F)c5ccc2[nH]5)C=C4)C=C3)cc1)C1=Cc2c(ccc(Cl)c2Oc2ccccc2)O[C@H]1C(F)(F)F
REMARK SMILES IDX 5 1 4 2 3 3 1 4 2 5 73 7 74 8 90 9 75 10 89 11 76 12 81 13
REMARK SMILES IDX 77 14 79 15 78 16 80 17 91 18 92 19 93 20 94 21 82 22 83 23
REMARK SMILES IDX 84 24 88 25 85 26 87 27 86 28 6 29 7 30 8 31 9 33 10 34
REMARK SMILES IDX 11 35 72 36 12 37 71 38 13 39 14 40 15 41 65 42 16 43 70 44
REMARK SMILES IDX 64 45 66 46 17 47 69 48 63 49 62 50 18 52 50 53 30 54 49 55
REMARK SMILES IDX 31 56 34 57 48 58 67 59 32 60 33 61 47 63 68 64 35 65 19 66
REMARK SMILES IDX 20 67 28 68 21 69 22 70 26 71 29 72 23 73 24 74 27 75 25 76
REMARK SMILES IDX 51 77 52 78 60 79 53 80 54 81 58 82 61 83 55 84 56 85 59 86
REMARK SMILES IDX 57 87 36 88 37 89 45 90 38 91 39 92 43 93 46 94 40 95 41 96
REMARK SMILES IDX 44 97 42 98
REMARK H PARENT 3 6 7 32 66 51 34 62
REMARK Flexibility Score: inf
ROOT
ATOM      1  C   UNL A   1      31.726  28.625  26.646  1.00  0.00     0.042 C 
ENDROOT
BRANCH   1   2
ATOM      2  C   UNL A   1      32.490  27.327  26.875  1.00  0.00     0.118 C 
BRANCH   2   3
ATOM      3  N   UNL A   1      31.624  26.188  27.142  1.00  0.00    -0.352 N 
ATOM      4  O   UNL A   1      30.864  24.079  27.008  1.00  0.00    -0.270 OA
ATOM      5  C   UNL A   1      31.769  24.873  26.796  1.00  0.00     0.251 C 
ATOM      6  H   UNL A   1      30.807  26.397  27.650  1.00  0.00     0.163 HD
BRANCH   5   7
ATOM      7  C   UNL A   1      32.994  24.408  26.116  1.00  0.00     0.067 C 
ATOM      8  C   UNL A   1      33.600  25.179  25.207  1.00  0.00     0.029 C 
ATOM      9  C   UNL A   1      33.320  22.952  26.195  1.00  0.00     0.314 C 
ATOM     10  C   UNL A   1      33.510  24.589  23.847  1.00  0.00     0.061 A 
ATOM     11  O   UNL A   1      33.447  22.347  24.871  1.00  0.00    -0.475 OA
ATOM     12  C   UNL A   1      33.405  23.179  23.774  1.00  0.00     0.131 A 
ATOM     13  C   UNL A   1      33.314  25.380  22.689  1.00  0.00     0.156 A 
ATOM     14  C   UNL A   1      33.117  22.556  22.562  1.00  0.00     0.049 A 
ATOM     15  C   UNL A   1      32.984  24.725  21.487  1.00  0.00     0.084 A 
ATOM     16  C   UNL A   1      32.888  23.330  21.426  1.00  0.00     0.028 A 
ATOM     17  Cl  UNL A   1      32.610  25.614  20.051  1.00  0.00    -0.080 Cl
BRANCH   9  18
ATOM     18  C   UNL A   1      34.589  22.697  27.025  1.00  0.00     0.429 C 
ATOM     19  F   UNL A   1      35.608  23.519  26.685  1.00  0.00    -0.167 F 
ATOM     20  F   UNL A   1      34.353  22.886  28.345  1.00  0.00    -0.167 F 
ATOM     21  F   UNL A   1      35.041  21.427  26.873  1.00  0.00    -0.167 F 
ENDBRANCH   9  18
BRANCH  13  22
ATOM     22  O   UNL A   1      33.266  26.769  22.636  1.00  0.00    -0.455 OA
BRANCH  22  23
ATOM     23  C   UNL A   1      32.081  27.411  22.888  1.00  0.00     0.127 A 
ATOM     24  C   UNL A   1      31.954  28.746  22.496  1.00  0.00     0.047 A 
ATOM     25  C   UNL A   1      31.017  26.741  23.493  1.00  0.00     0.047 A 
ATOM     26  C   UNL A   1      30.716  29.377  22.600  1.00  0.00     0.004 A 
ATOM     27  C   UNL A   1      29.782  27.381  23.605  1.00  0.00     0.004 A 
ATOM     28  C   UNL A   1      29.627  28.689  23.139  1.00  0.00     0.000 A 
ENDBRANCH  22  23
ENDBRANCH  13  22
ENDBRANCH   5   7
ENDBRANCH   2   3
ENDBRANCH   1   2
BRANCH   1  29
ATOM     29  C   UNL A   1      32.559  29.690  25.944  1.00  0.00     0.118 C 
BRANCH  29  30
ATOM     30  N   UNL A   1      32.371  31.032  26.489  1.00  0.00    -0.352 N 
ATOM     31  C   UNL A   1      33.152  31.836  27.290  1.00  0.00     0.251 C 
ATOM     32  H   UNL A   1      31.516  31.446  26.232  1.00  0.00     0.163 HD
ATOM     33  O   UNL A   1      32.690  32.905  27.684  1.00  0.00    -0.269 OA
BRANCH  31  34
ATOM     34  C   UNL A   1      34.506  31.432  27.740  1.00  0.00     0.039 A 
ATOM     35  C   UNL A   1      35.507  32.409  27.814  1.00  0.00     0.014 A 
ATOM     36  C   UNL A   1      34.819  30.117  28.073  1.00  0.00     0.014 A 
ATOM     37  C   UNL A   1      36.762  32.095  28.346  1.00  0.00     0.010 A 
ATOM     38  C   UNL A   1      36.026  29.828  28.705  1.00  0.00     0.010 A 
ATOM     39  C   UNL A   1      37.004  30.819  28.875  1.00  0.00    -0.014 A 
BRANCH  39  40
ATOM     40  C   UNL A   1      38.231  30.497  29.653  1.00  0.00     0.031 A 
ATOM     41  C   UNL A   1      39.251  29.538  29.103  1.00  0.00     0.074 A 
ATOM     42  C   UNL A   1      38.359  30.955  30.915  1.00  0.00     0.049 A 
ATOM     43  N   UNL A   1      40.242  28.939  29.715  1.00  0.00    -0.248 NA
ATOM     44  C   UNL A   1      39.114  29.173  27.685  1.00  0.00     0.031 C 
ATOM     45  C   UNL A   1      37.422  31.853  31.594  1.00  0.00     0.029 A 
ATOM     46  N   UNL A   1      39.318  30.703  31.867  1.00  0.00    -0.354 N 
ATOM     47  C   UNL A   1      40.810  28.090  28.773  1.00  0.00     0.074 A 
ATOM     48  C   UNL A   1      40.040  28.234  27.556  1.00  0.00     0.031 C 
ATOM     49  C   UNL A   1      37.860  32.093  32.840  1.00  0.00     0.029 A 
ATOM     50  C   UNL A   1      39.074  31.317  33.071  1.00  0.00     0.049 A 
ATOM     51  H   UNL A   1      40.105  30.135  31.702  1.00  0.00     0.167 HD
ATOM     52  C   UNL A   1      41.883  27.274  28.910  1.00  0.00     0.037 A 
ATOM     53  C   UNL A   1      39.734  31.246  34.242  1.00  0.00     0.037 A 
ATOM     54  C   UNL A   1      42.690  27.185  30.097  1.00  0.00     0.049 A 
ATOM     55  C   UNL A   1      40.938  30.356  34.358  1.00  0.00     0.074 A 
ATOM     56  C   UNL A   1      43.852  26.459  30.299  1.00  0.00     0.029 A 
ATOM     57  N   UNL A   1      42.427  27.854  31.282  1.00  0.00    -0.354 N 
ATOM     58  N   UNL A   1      41.478  29.578  33.453  1.00  0.00    -0.248 NA
ATOM     59  C   UNL A   1      41.615  30.324  35.662  1.00  0.00     0.031 C 
ATOM     60  C   UNL A   1      44.278  26.670  31.614  1.00  0.00     0.029 A 
ATOM     61  C   UNL A   1      43.397  27.547  32.223  1.00  0.00     0.049 A 
ATOM     62  H   UNL A   1      41.664  28.457  31.433  1.00  0.00     0.167 HD
ATOM     63  C   UNL A   1      42.562  28.971  34.072  1.00  0.00     0.074 A 
ATOM     64  C   UNL A   1      42.614  29.485  35.425  1.00  0.00     0.031 C 
ATOM     65  C   UNL A   1      43.430  28.065  33.566  1.00  0.00     0.037 A 
BRANCH  52  66
ATOM     66  C   UNL A   1      42.255  26.415  27.739  1.00  0.00     0.064 A 
ATOM     67  C   UNL A   1      43.246  26.803  26.827  1.00  0.00     0.173 A 
ATOM     68  C   UNL A   1      41.640  25.168  27.550  1.00  0.00     0.173 A 
ATOM     69  F   UNL A   1      43.855  27.991  26.959  1.00  0.00    -0.203 F 
ATOM     70  C   UNL A   1      43.591  25.986  25.754  1.00  0.00     0.198 A 
ATOM     71  C   UNL A   1      42.005  24.342  26.491  1.00  0.00     0.198 A 
ATOM     72  F   UNL A   1      40.689  24.747  28.398  1.00  0.00    -0.203 F 
ATOM     73  F   UNL A   1      44.513  26.396  24.871  1.00  0.00    -0.200 F 
ATOM     74  C   UNL A   1      42.976  24.754  25.590  1.00  0.00     0.200 A 
ATOM     75  F   UNL A   1      41.415  23.148  26.339  1.00  0.00    -0.200 F 
ATOM     76  F   UNL A   1      43.313  23.967  24.560  1.00  0.00    -0.200 F 
ENDBRANCH  52  66
BRANCH  53  77
ATOM     77  C   UNL A   1      39.264  32.040  35.406  1.00  0.00     0.064 A 
ATOM     78  C   UNL A   1      39.631  33.385  35.545  1.00  0.00     0.173 A 
ATOM     79  C   UNL A   1      38.443  31.479  36.393  1.00  0.00     0.173 A 
ATOM     80  F   UNL A   1      40.435  33.956  34.635  1.00  0.00    -0.203 F 
ATOM     81  C   UNL A   1      39.203  34.138  36.636  1.00  0.00     0.198 A 
ATOM     82  C   UNL A   1      37.996  32.240  37.472  1.00  0.00     0.198 A 
ATOM     83  F   UNL A   1      38.061  30.197  36.301  1.00  0.00    -0.203 F 
ATOM     84  F   UNL A   1      39.597  35.412  36.763  1.00  0.00    -0.200 F 
ATOM     85  C   UNL A   1      38.381  33.566  37.596  1.00  0.00     0.200 A 
ATOM     86  F   UNL A   1      37.192  31.688  38.391  1.00  0.00    -0.200 F 
ATOM     87  F   UNL A   1      37.966  34.292  38.643  1.00  0.00    -0.200 F 
ENDBRANCH  53  77
BRANCH  65  88
ATOM     88  C   UNL A   1      44.516  27.579  34.476  1.00  0.00     0.064 A 
ATOM     89  C   UNL A   1      45.735  28.263  34.581  1.00  0.00     0.173 A 
ATOM     90  C   UNL A   1      44.322  26.445  35.276  1.00  0.00     0.173 A 
ATOM     91  F   UNL A   1      45.972  29.343  33.821  1.00  0.00    -0.203 F 
ATOM     92  C   UNL A   1      46.729  27.818  35.449  1.00  0.00     0.198 A 
ATOM     93  C   UNL A   1      45.309  26.014  36.157  1.00  0.00     0.198 A 
ATOM     94  F   UNL A   1      43.171  25.759  35.210  1.00  0.00    -0.203 F 
ATOM     95  F   UNL A   1      47.901  28.466  35.511  1.00  0.00    -0.200 F 
ATOM     96  C   UNL A   1      46.513  26.700  36.240  1.00  0.00     0.200 A 
ATOM     97  F   UNL A   1      45.098  24.937  36.926  1.00  0.00    -0.200 F 
ATOM     98  F   UNL A   1      47.469  26.276  37.078  1.00  0.00    -0.200 F 
ENDBRANCH  65  88
ENDBRANCH  39  40
ENDBRANCH  31  34
ENDBRANCH  29  30
ENDBRANCH   1  29
TORSDOF 13
ENDMDL
