MODEL 1
REMARK VINA RESULT:     -11.0      0.000      0.000
REMARK SMILES CC[C@@H]1CCCN1C(=O)NCc1ccc(C(=O)NCCCNC(=O)c2ccc(-c3c4nc(c(-c5c(F)c(F)c(F)c(F)c5F)c5ccc([nH]5)c(-c5c(F)c(F)c(F)c(F)c5F)c5nc(c(-c6c(F)c(F)c(F)c(F)c6F)c6ccc3[nH]6)C=C5)C=C4)cc2)o1
REMARK SMILES IDX 19 1 18 2 16 3 17 4 15 6 12 7 13 8 88 9 14 10 11 11 10 12
REMARK SMILES IDX 8 13 9 14 7 16 3 17 4 18 5 19 6 20 2 21 1 22 20 23 21 24
REMARK SMILES IDX 22 25 23 26 24 28 25 29 26 30 87 31 27 32 86 33 28 34 29 35
REMARK SMILES IDX 30 36 80 37 31 38 85 39 79 40 81 41 32 42 84 43 78 44 77 45
REMARK SMILES IDX 33 47 65 48 45 49 64 50 46 51 49 52 63 53 82 54 47 55 48 56
REMARK SMILES IDX 62 58 83 59 50 60 34 61 35 62 43 63 36 64 37 65 41 66 44 67
REMARK SMILES IDX 38 68 39 69 42 70 40 71 66 72 67 73 75 74 68 75 69 76 73 77
REMARK SMILES IDX 76 78 70 79 71 80 74 81 72 82 51 83 52 84 60 85 53 86 54 87
REMARK SMILES IDX 58 88 61 89 55 90 56 91 59 92 57 93
REMARK H PARENT 18 5 10 15 22 27 81 46 49 57
REMARK Flexibility Score: inf
ROOT
ATOM      1  C   UNL A   1      42.137  20.501  27.786  1.00  0.00     0.118 C 
ENDROOT
BRANCH   1   2
ATOM      2  N   UNL A   1      42.067  19.217  27.110  1.00  0.00    -0.349 N 
ATOM      3  C   UNL A   1      42.762  18.673  26.042  1.00  0.00     0.286 C 
ATOM      4  O   UNL A   1      42.375  17.574  25.664  1.00  0.00    -0.266 OA
ATOM      5  H   UNL A   1      41.388  18.612  27.486  1.00  0.00     0.163 HD
BRANCH   3   6
ATOM      6  C   UNL A   1      43.928  19.350  25.492  1.00  0.00     0.191 A 
ATOM      7  C   UNL A   1      44.951  20.955  24.335  1.00  0.00     0.124 A 
ATOM      8  C   UNL A   1      45.693  19.800  24.240  1.00  0.00     0.048 A 
ATOM      9  O   UNL A   1      43.801  20.659  25.036  1.00  0.00    -0.454 OA
ATOM     10  C   UNL A   1      45.218  18.950  25.243  1.00  0.00     0.056 A 
BRANCH   7  11
ATOM     11  C   UNL A   1      45.168  22.345  23.813  1.00  0.00     0.193 C 
BRANCH  11  12
ATOM     12  N   UNL A   1      44.158  23.251  24.349  1.00  0.00    -0.331 N 
ATOM     13  C   UNL A   1      44.103  24.357  25.108  1.00  0.00     0.318 C 
ATOM     14  O   UNL A   1      43.096  25.053  24.921  1.00  0.00    -0.249 OA
ATOM     15  H   UNL A   1      43.255  22.968  24.075  1.00  0.00     0.165 HD
BRANCH  13  16
ATOM     16  N   UNL A   1      45.006  24.719  26.062  1.00  0.00    -0.322 N 
ATOM     17  C   UNL A   1      45.703  23.987  27.119  1.00  0.00     0.086 C 
ATOM     18  C   UNL A   1      46.255  25.049  28.082  1.00  0.00     0.027 C 
ATOM     19  C   UNL A   1      46.400  26.281  27.226  1.00  0.00     0.024 C 
ATOM     20  C   UNL A   1      45.255  26.150  26.235  1.00  0.00     0.122 C 
BRANCH  17  21
ATOM     21  C   UNL A   1      44.856  23.045  27.944  1.00  0.00     0.022 C 
ATOM     22  C   UNL A   1      43.733  23.672  28.761  1.00  0.00     0.006 C 
ENDBRANCH  17  21
ENDBRANCH  13  16
ENDBRANCH  11  12
ENDBRANCH   7  11
ENDBRANCH   3   6
ENDBRANCH   1   2
BRANCH   1  23
ATOM     23  C   UNL A   1      40.859  21.310  27.574  1.00  0.00     0.042 C 
BRANCH  23  24
ATOM     24  C   UNL A   1      40.916  22.097  26.270  1.00  0.00     0.118 C 
BRANCH  24  25
ATOM     25  N   UNL A   1      39.576  22.400  25.775  1.00  0.00    -0.352 N 
ATOM     26  C   UNL A   1      38.737  23.439  26.072  1.00  0.00     0.251 C 
ATOM     27  H   UNL A   1      39.220  21.753  25.123  1.00  0.00     0.163 HD
ATOM     28  O   UNL A   1      37.566  23.396  25.709  1.00  0.00    -0.269 OA
BRANCH  26  29
ATOM     29  C   UNL A   1      39.230  24.601  26.837  1.00  0.00     0.039 A 
ATOM     30  C   UNL A   1      39.975  25.574  26.168  1.00  0.00     0.014 A 
ATOM     31  C   UNL A   1      38.990  24.716  28.209  1.00  0.00     0.014 A 
ATOM     32  C   UNL A   1      40.443  26.687  26.866  1.00  0.00     0.010 A 
ATOM     33  C   UNL A   1      39.386  25.864  28.885  1.00  0.00     0.010 A 
ATOM     34  C   UNL A   1      40.125  26.855  28.222  1.00  0.00    -0.014 A 
BRANCH  34  35
ATOM     35  C   UNL A   1      40.562  28.061  28.966  1.00  0.00     0.031 A 
ATOM     36  C   UNL A   1      41.973  28.165  29.472  1.00  0.00     0.074 A 
ATOM     37  C   UNL A   1      39.667  29.030  29.234  1.00  0.00     0.049 A 
ATOM     38  N   UNL A   1      42.527  29.109  30.190  1.00  0.00    -0.248 NA
ATOM     39  C   UNL A   1      42.875  27.046  29.156  1.00  0.00     0.031 C 
ATOM     40  C   UNL A   1      38.259  29.015  28.835  1.00  0.00     0.029 A 
ATOM     41  N   UNL A   1      39.806  30.214  29.913  1.00  0.00    -0.354 N 
ATOM     42  C   UNL A   1      43.830  28.691  30.422  1.00  0.00     0.074 A 
ATOM     43  C   UNL A   1      43.970  27.384  29.819  1.00  0.00     0.031 C 
ATOM     44  C   UNL A   1      37.671  30.146  29.251  1.00  0.00     0.029 A 
ATOM     45  C   UNL A   1      38.647  30.946  29.983  1.00  0.00     0.049 A 
ATOM     46  H   UNL A   1      40.657  30.510  30.313  1.00  0.00     0.167 HD
ATOM     47  C   UNL A   1      44.826  29.350  31.060  1.00  0.00     0.037 A 
ATOM     48  C   UNL A   1      38.400  32.128  30.579  1.00  0.00     0.037 A 
ATOM     49  C   UNL A   1      44.682  30.661  31.638  1.00  0.00     0.049 A 
ATOM     50  C   UNL A   1      39.522  32.834  31.290  1.00  0.00     0.074 A 
ATOM     51  C   UNL A   1      45.645  31.444  32.251  1.00  0.00     0.029 A 
ATOM     52  N   UNL A   1      43.495  31.379  31.681  1.00  0.00    -0.354 N 
ATOM     53  N   UNL A   1      40.772  32.465  31.437  1.00  0.00    -0.248 NA
ATOM     54  C   UNL A   1      39.200  34.124  31.915  1.00  0.00     0.031 C 
ATOM     55  C   UNL A   1      45.028  32.611  32.714  1.00  0.00     0.029 A 
ATOM     56  C   UNL A   1      43.695  32.585  32.335  1.00  0.00     0.049 A 
ATOM     57  H   UNL A   1      42.639  31.077  31.303  1.00  0.00     0.167 HD
ATOM     58  C   UNL A   1      41.392  33.490  32.140  1.00  0.00     0.074 A 
ATOM     59  C   UNL A   1      40.384  34.502  32.376  1.00  0.00     0.031 C 
ATOM     60  C   UNL A   1      42.680  33.584  32.554  1.00  0.00     0.037 A 
BRANCH  47  61
ATOM     61  C   UNL A   1      46.158  28.663  31.172  1.00  0.00     0.064 A 
ATOM     62  C   UNL A   1      47.108  28.723  30.141  1.00  0.00     0.173 A 
ATOM     63  C   UNL A   1      46.502  27.964  32.339  1.00  0.00     0.173 A 
ATOM     64  F   UNL A   1      46.828  29.368  28.998  1.00  0.00    -0.203 F 
ATOM     65  C   UNL A   1      48.339  28.081  30.260  1.00  0.00     0.198 A 
ATOM     66  C   UNL A   1      47.747  27.354  32.469  1.00  0.00     0.198 A 
ATOM     67  F   UNL A   1      45.635  27.880  33.359  1.00  0.00    -0.203 F 
ATOM     68  F   UNL A   1      49.208  28.106  29.241  1.00  0.00    -0.200 F 
ATOM     69  C   UNL A   1      48.661  27.404  31.427  1.00  0.00     0.200 A 
ATOM     70  F   UNL A   1      48.062  26.713  33.603  1.00  0.00    -0.200 F 
ATOM     71  F   UNL A   1      49.848  26.796  31.545  1.00  0.00    -0.200 F 
ENDBRANCH  47  61
BRANCH  48  72
ATOM     72  C   UNL A   1      37.044  32.730  30.504  1.00  0.00     0.064 A 
ATOM     73  C   UNL A   1      36.666  33.520  29.409  1.00  0.00     0.173 A 
ATOM     74  C   UNL A   1      36.099  32.536  31.523  1.00  0.00     0.173 A 
ATOM     75  F   UNL A   1      37.540  33.750  28.418  1.00  0.00    -0.203 F 
ATOM     76  C   UNL A   1      35.408  34.114  29.348  1.00  0.00     0.198 A 
ATOM     77  C   UNL A   1      34.829  33.103  31.446  1.00  0.00     0.198 A 
ATOM     78  F   UNL A   1      36.406  31.781  32.589  1.00  0.00    -0.203 F 
ATOM     79  F   UNL A   1      35.092  34.906  28.315  1.00  0.00    -0.200 F 
ATOM     80  C   UNL A   1      34.488  33.900  30.364  1.00  0.00     0.200 A 
ATOM     81  F   UNL A   1      33.937  32.880  32.420  1.00  0.00    -0.200 F 
ATOM     82  F   UNL A   1      33.276  34.468  30.303  1.00  0.00    -0.200 F 
ENDBRANCH  48  72
BRANCH  60  83
ATOM     83  C   UNL A   1      43.082  34.843  33.266  1.00  0.00     0.064 A 
ATOM     84  C   UNL A   1      43.482  35.993  32.569  1.00  0.00     0.173 A 
ATOM     85  C   UNL A   1      43.032  34.910  34.667  1.00  0.00     0.173 A 
ATOM     86  F   UNL A   1      43.561  35.978  31.230  1.00  0.00    -0.203 F 
ATOM     87  C   UNL A   1      43.848  37.152  33.249  1.00  0.00     0.198 A 
ATOM     88  C   UNL A   1      43.363  36.081  35.343  1.00  0.00     0.198 A 
ATOM     89  F   UNL A   1      42.649  33.841  35.383  1.00  0.00    -0.203 F 
ATOM     90  F   UNL A   1      44.280  38.219  32.565  1.00  0.00    -0.200 F 
ATOM     91  C   UNL A   1      43.780  37.198  34.634  1.00  0.00     0.200 A 
ATOM     92  F   UNL A   1      43.281  36.128  36.679  1.00  0.00    -0.200 F 
ATOM     93  F   UNL A   1      44.125  38.316  35.286  1.00  0.00    -0.200 F 
ENDBRANCH  60  83
ENDBRANCH  34  35
ENDBRANCH  26  29
ENDBRANCH  24  25
ENDBRANCH  23  24
ENDBRANCH   1  23
TORSDOF 14
ENDMDL
MODEL 2
REMARK VINA RESULT:     -10.9      0.270      1.979
REMARK SMILES CC[C@@H]1CCCN1C(=O)NCc1ccc(C(=O)NCCCNC(=O)c2ccc(-c3c4nc(c(-c5c(F)c(F)c(F)c(F)c5F)c5ccc([nH]5)c(-c5c(F)c(F)c(F)c(F)c5F)c5nc(c(-c6c(F)c(F)c(F)c(F)c6F)c6ccc3[nH]6)C=C5)C=C4)cc2)o1
REMARK SMILES IDX 19 1 18 2 16 3 17 4 15 6 12 7 13 8 88 9 14 10 11 11 10 12
REMARK SMILES IDX 8 13 9 14 7 16 3 17 4 18 5 19 6 20 2 21 1 22 20 23 21 24
REMARK SMILES IDX 22 25 23 26 24 28 25 29 26 30 87 31 27 32 86 33 28 34 29 35
REMARK SMILES IDX 30 36 80 37 31 38 85 39 79 40 81 41 32 42 84 43 78 44 77 45
REMARK SMILES IDX 33 47 65 48 45 49 64 50 46 51 49 52 63 53 82 54 47 55 48 56
REMARK SMILES IDX 62 58 83 59 50 60 34 61 35 62 43 63 36 64 37 65 41 66 44 67
REMARK SMILES IDX 38 68 39 69 42 70 40 71 66 72 67 73 75 74 68 75 69 76 73 77
REMARK SMILES IDX 76 78 70 79 71 80 74 81 72 82 51 83 52 84 60 85 53 86 54 87
REMARK SMILES IDX 58 88 61 89 55 90 56 91 59 92 57 93
REMARK H PARENT 18 5 10 15 22 27 81 46 49 57
REMARK Flexibility Score: inf
ROOT
ATOM      1  C   UNL A   1      42.122  20.367  27.793  1.00  0.00     0.118 C 
ENDROOT
BRANCH   1   2
ATOM      2  N   UNL A   1      42.163  19.065  27.152  1.00  0.00    -0.349 N 
ATOM      3  C   UNL A   1      42.909  18.552  26.102  1.00  0.00     0.286 C 
ATOM      4  O   UNL A   1      42.617  17.416  25.753  1.00  0.00    -0.266 OA
ATOM      5  H   UNL A   1      41.534  18.415  27.541  1.00  0.00     0.163 HD
BRANCH   3   6
ATOM      6  C   UNL A   1      44.018  19.309  25.540  1.00  0.00     0.191 A 
ATOM      7  C   UNL A   1      44.913  20.927  24.296  1.00  0.00     0.124 A 
ATOM      8  C   UNL A   1      45.775  19.855  24.315  1.00  0.00     0.048 A 
ATOM      9  O   UNL A   1      43.773  20.560  24.980  1.00  0.00    -0.454 OA
ATOM     10  C   UNL A   1      45.353  19.034  25.365  1.00  0.00     0.056 A 
BRANCH   7  11
ATOM     11  C   UNL A   1      45.003  22.290  23.675  1.00  0.00     0.193 C 
BRANCH  11  12
ATOM     12  N   UNL A   1      44.035  23.191  24.290  1.00  0.00    -0.331 N 
ATOM     13  C   UNL A   1      44.033  24.268  25.093  1.00  0.00     0.318 C 
ATOM     14  O   UNL A   1      43.032  24.988  24.977  1.00  0.00    -0.249 OA
ATOM     15  H   UNL A   1      43.115  22.935  24.046  1.00  0.00     0.165 HD
BRANCH  13  16
ATOM     16  N   UNL A   1      44.983  24.576  26.019  1.00  0.00    -0.322 N 
ATOM     17  C   UNL A   1      45.643  23.813  27.078  1.00  0.00     0.086 C 
ATOM     18  C   UNL A   1      46.300  24.848  28.005  1.00  0.00     0.027 C 
ATOM     19  C   UNL A   1      46.523  26.046  27.118  1.00  0.00     0.024 C 
ATOM     20  C   UNL A   1      45.349  25.986  26.154  1.00  0.00     0.122 C 
BRANCH  17  21
ATOM     21  C   UNL A   1      44.743  22.959  27.942  1.00  0.00     0.022 C 
ATOM     22  C   UNL A   1      43.572  23.665  28.616  1.00  0.00     0.006 C 
ENDBRANCH  17  21
ENDBRANCH  13  16
ENDBRANCH  11  12
ENDBRANCH   7  11
ENDBRANCH   3   6
ENDBRANCH   1   2
BRANCH   1  23
ATOM     23  C   UNL A   1      40.779  21.057  27.560  1.00  0.00     0.042 C 
BRANCH  23  24
ATOM     24  C   UNL A   1      40.852  22.018  26.379  1.00  0.00     0.118 C 
BRANCH  24  25
ATOM     25  N   UNL A   1      39.521  22.330  25.866  1.00  0.00    -0.352 N 
ATOM     26  C   UNL A   1      38.700  23.394  26.124  1.00  0.00     0.251 C 
ATOM     27  H   UNL A   1      39.155  21.668  25.234  1.00  0.00     0.163 HD
ATOM     28  O   UNL A   1      37.531  23.361  25.756  1.00  0.00    -0.269 OA
BRANCH  26  29
ATOM     29  C   UNL A   1      39.211  24.571  26.853  1.00  0.00     0.039 A 
ATOM     30  C   UNL A   1      39.960  25.518  26.152  1.00  0.00     0.014 A 
ATOM     31  C   UNL A   1      38.985  24.725  28.224  1.00  0.00     0.014 A 
ATOM     32  C   UNL A   1      40.445  26.645  26.816  1.00  0.00     0.010 A 
ATOM     33  C   UNL A   1      39.398  25.886  28.866  1.00  0.00     0.010 A 
ATOM     34  C   UNL A   1      40.141  26.851  28.170  1.00  0.00    -0.014 A 
BRANCH  34  35
ATOM     35  C   UNL A   1      40.596  28.073  28.878  1.00  0.00     0.031 A 
ATOM     36  C   UNL A   1      42.023  28.193  29.334  1.00  0.00     0.074 A 
ATOM     37  C   UNL A   1      39.706  29.042  29.159  1.00  0.00     0.049 A 
ATOM     38  N   UNL A   1      42.596  29.152  30.016  1.00  0.00    -0.248 NA
ATOM     39  C   UNL A   1      42.920  27.073  29.007  1.00  0.00     0.031 C 
ATOM     40  C   UNL A   1      38.285  29.013  28.808  1.00  0.00     0.029 A 
ATOM     41  N   UNL A   1      39.861  30.239  29.812  1.00  0.00    -0.354 N 
ATOM     42  C   UNL A   1      43.908  28.744  30.210  1.00  0.00     0.074 A 
ATOM     43  C   UNL A   1      44.035  27.428  29.626  1.00  0.00     0.031 C 
ATOM     44  C   UNL A   1      37.706  30.149  29.224  1.00  0.00     0.029 A 
ATOM     45  C   UNL A   1      38.701  30.966  29.909  1.00  0.00     0.049 A 
ATOM     46  H   UNL A   1      40.723  30.545  30.177  1.00  0.00     0.167 HD
ATOM     47  C   UNL A   1      44.921  29.419  30.803  1.00  0.00     0.037 A 
ATOM     48  C   UNL A   1      38.468  32.157  30.492  1.00  0.00     0.037 A 
ATOM     49  C   UNL A   1      44.791  30.739  31.363  1.00  0.00     0.049 A 
ATOM     50  C   UNL A   1      39.610  32.880  31.152  1.00  0.00     0.074 A 
ATOM     51  C   UNL A   1      45.769  31.538  31.928  1.00  0.00     0.029 A 
ATOM     52  N   UNL A   1      43.602  31.452  31.433  1.00  0.00    -0.354 N 
ATOM     53  N   UNL A   1      40.866  32.521  31.262  1.00  0.00    -0.248 NA
ATOM     54  C   UNL A   1      39.302  34.180  31.765  1.00  0.00     0.031 C 
ATOM     55  C   UNL A   1      45.162  32.710  32.392  1.00  0.00     0.029 A 
ATOM     56  C   UNL A   1      43.817  32.670  32.059  1.00  0.00     0.049 A 
ATOM     57  H   UNL A   1      42.734  31.139  31.090  1.00  0.00     0.167 HD
ATOM     58  C   UNL A   1      41.504  33.561  31.927  1.00  0.00     0.074 A 
ATOM     59  C   UNL A   1      40.498  34.572  32.179  1.00  0.00     0.031 C 
ATOM     60  C   UNL A   1      42.805  33.668  32.294  1.00  0.00     0.037 A 
BRANCH  47  61
ATOM     61  C   UNL A   1      46.260  28.741  30.881  1.00  0.00     0.064 A 
ATOM     62  C   UNL A   1      46.643  27.987  32.001  1.00  0.00     0.173 A 
ATOM     63  C   UNL A   1      47.159  28.816  29.806  1.00  0.00     0.173 A 
ATOM     64  F   UNL A   1      45.827  27.891  33.062  1.00  0.00    -0.203 F 
ATOM     65  C   UNL A   1      47.886  27.363  32.057  1.00  0.00     0.198 A 
ATOM     66  C   UNL A   1      48.387  28.162  29.850  1.00  0.00     0.198 A 
ATOM     67  F   UNL A   1      46.843  29.517  28.706  1.00  0.00    -0.203 F 
ATOM     68  F   UNL A   1      48.251  26.695  33.159  1.00  0.00    -0.200 F 
ATOM     69  C   UNL A   1      48.755  27.444  30.979  1.00  0.00     0.200 A 
ATOM     70  F   UNL A   1      49.219  28.229  28.801  1.00  0.00    -0.200 F 
ATOM     71  F   UNL A   1      49.947  26.836  31.029  1.00  0.00    -0.200 F 
ENDBRANCH  47  61
BRANCH  48  72
ATOM     72  C   UNL A   1      37.107  32.751  30.453  1.00  0.00     0.064 A 
ATOM     73  C   UNL A   1      36.186  32.509  31.482  1.00  0.00     0.173 A 
ATOM     74  C   UNL A   1      36.694  33.568  29.389  1.00  0.00     0.173 A 
ATOM     75  F   UNL A   1      36.527  31.720  32.511  1.00  0.00    -0.203 F 
ATOM     76  C   UNL A   1      34.898  33.037  31.436  1.00  0.00     0.198 A 
ATOM     77  C   UNL A   1      35.417  34.123  29.360  1.00  0.00     0.198 A 
ATOM     78  F   UNL A   1      37.539  33.839  28.383  1.00  0.00    -0.203 F 
ATOM     79  F   UNL A   1      34.022  32.747  32.407  1.00  0.00    -0.200 F 
ATOM     80  C   UNL A   1      34.516  33.848  30.378  1.00  0.00     0.200 A 
ATOM     81  F   UNL A   1      35.057  34.920  28.345  1.00  0.00    -0.200 F 
ATOM     82  F   UNL A   1      33.279  34.360  30.336  1.00  0.00    -0.200 F 
ENDBRANCH  48  72
BRANCH  60  83
ATOM     83  C   UNL A   1      43.223  34.942  32.971  1.00  0.00     0.064 A 
ATOM     84  C   UNL A   1      43.290  35.050  34.369  1.00  0.00     0.173 A 
ATOM     85  C   UNL A   1      43.595  36.059  32.208  1.00  0.00     0.173 A 
ATOM     86  F   UNL A   1      42.931  34.016  35.144  1.00  0.00    -0.203 F 
ATOM     87  C   UNL A   1      43.683  36.239  34.977  1.00  0.00     0.198 A 
ATOM     88  C   UNL A   1      44.023  37.235  32.819  1.00  0.00     0.198 A 
ATOM     89  F   UNL A   1      43.557  36.007  30.868  1.00  0.00    -0.203 F 
ATOM     90  F   UNL A   1      43.686  36.337  36.312  1.00  0.00    -0.200 F 
ATOM     91  C   UNL A   1      44.057  37.327  34.202  1.00  0.00     0.200 A 
ATOM     92  F   UNL A   1      44.399  38.279  32.068  1.00  0.00    -0.200 F 
ATOM     93  F   UNL A   1      44.443  38.469  34.788  1.00  0.00    -0.200 F 
ENDBRANCH  60  83
ENDBRANCH  34  35
ENDBRANCH  26  29
ENDBRANCH  24  25
ENDBRANCH  23  24
ENDBRANCH   1  23
TORSDOF 14
ENDMDL
MODEL 3
REMARK VINA RESULT:     -10.7      4.050     11.034
REMARK SMILES CC[C@@H]1CCCN1C(=O)NCc1ccc(C(=O)NCCCNC(=O)c2ccc(-c3c4nc(c(-c5c(F)c(F)c(F)c(F)c5F)c5ccc([nH]5)c(-c5c(F)c(F)c(F)c(F)c5F)c5nc(c(-c6c(F)c(F)c(F)c(F)c6F)c6ccc3[nH]6)C=C5)C=C4)cc2)o1
REMARK SMILES IDX 19 1 18 2 16 3 17 4 15 6 12 7 13 8 88 9 14 10 11 11 10 12
REMARK SMILES IDX 8 13 9 14 7 16 3 17 4 18 5 19 6 20 2 21 1 22 20 23 21 24
REMARK SMILES IDX 22 25 23 26 24 28 25 29 26 30 87 31 27 32 86 33 28 34 29 35
REMARK SMILES IDX 30 36 80 37 31 38 85 39 79 40 81 41 32 42 84 43 78 44 77 45
REMARK SMILES IDX 33 47 65 48 45 49 64 50 46 51 49 52 63 53 82 54 47 55 48 56
REMARK SMILES IDX 62 58 83 59 50 60 34 61 35 62 43 63 36 64 37 65 41 66 44 67
REMARK SMILES IDX 38 68 39 69 42 70 40 71 66 72 67 73 75 74 68 75 69 76 73 77
REMARK SMILES IDX 76 78 70 79 71 80 74 81 72 82 51 83 52 84 60 85 53 86 54 87
REMARK SMILES IDX 58 88 61 89 55 90 56 91 59 92 57 93
REMARK H PARENT 18 5 10 15 22 27 81 46 49 57
REMARK Flexibility Score: inf
ROOT
ATOM      1  C   UNL A   1      35.138  33.728  30.436  1.00  0.00     0.118 C 
ENDROOT
BRANCH   1   2
ATOM      2  N   UNL A   1      34.880  34.812  31.368  1.00  0.00    -0.349 N 
ATOM      3  C   UNL A   1      35.537  35.257  32.504  1.00  0.00     0.286 C 
ATOM      4  O   UNL A   1      34.981  36.160  33.116  1.00  0.00    -0.266 OA
ATOM      5  H   UNL A   1      34.076  35.335  31.149  1.00  0.00     0.163 HD
BRANCH   3   6
ATOM      6  C   UNL A   1      36.844  34.725  32.862  1.00  0.00     0.191 A 
ATOM      7  C   UNL A   1      38.483  34.233  34.288  1.00  0.00     0.124 A 
ATOM      8  C   UNL A   1      39.035  34.503  33.056  1.00  0.00     0.048 A 
ATOM      9  O   UNL A   1      37.126  34.460  34.200  1.00  0.00    -0.454 OA
ATOM     10  C   UNL A   1      37.981  34.453  32.139  1.00  0.00     0.056 A 
BRANCH   7  11
ATOM     11  C   UNL A   1      39.083  33.802  35.595  1.00  0.00     0.193 C 
BRANCH  11  12
ATOM     12  N   UNL A   1      38.454  32.571  36.058  1.00  0.00    -0.331 N 
ATOM     13  C   UNL A   1      38.692  31.249  36.031  1.00  0.00     0.318 C 
ATOM     14  O   UNL A   1      38.148  30.615  36.945  1.00  0.00    -0.249 OA
ATOM     15  H   UNL A   1      37.609  32.765  36.526  1.00  0.00     0.165 HD
BRANCH  13  16
ATOM     16  N   UNL A   1      39.409  30.585  35.082  1.00  0.00    -0.322 N 
ATOM     17  C   UNL A   1      39.208  30.341  33.654  1.00  0.00     0.086 C 
ATOM     18  C   UNL A   1      40.161  29.197  33.277  1.00  0.00     0.027 C 
ATOM     19  C   UNL A   1      41.263  29.285  34.301  1.00  0.00     0.024 C 
ATOM     20  C   UNL A   1      40.543  29.783  35.543  1.00  0.00     0.122 C 
BRANCH  17  21
ATOM     21  C   UNL A   1      37.819  29.908  33.244  1.00  0.00     0.022 C 
ATOM     22  C   UNL A   1      36.849  31.013  32.841  1.00  0.00     0.006 C 
ENDBRANCH  17  21
ENDBRANCH  13  16
ENDBRANCH  11  12
ENDBRANCH   7  11
ENDBRANCH   3   6
ENDBRANCH   1   2
BRANCH   1  23
ATOM     23  C   UNL A   1      34.045  33.638  29.373  1.00  0.00     0.042 C 
BRANCH  23  24
ATOM     24  C   UNL A   1      34.553  32.934  28.120  1.00  0.00     0.118 C 
BRANCH  24  25
ATOM     25  N   UNL A   1      33.813  31.700  27.869  1.00  0.00    -0.352 N 
ATOM     26  C   UNL A   1      34.259  30.413  27.737  1.00  0.00     0.251 C 
ATOM     27  H   UNL A   1      32.839  31.812  27.779  1.00  0.00     0.163 HD
ATOM     28  O   UNL A   1      33.499  29.548  27.314  1.00  0.00    -0.269 OA
BRANCH  26  29
ATOM     29  C   UNL A   1      35.651  30.066  28.085  1.00  0.00     0.039 A 
ATOM     30  C   UNL A   1      36.634  30.175  27.099  1.00  0.00     0.014 A 
ATOM     31  C   UNL A   1      35.981  29.604  29.362  1.00  0.00     0.014 A 
ATOM     32  C   UNL A   1      37.958  29.864  27.407  1.00  0.00     0.010 A 
ATOM     33  C   UNL A   1      37.312  29.373  29.690  1.00  0.00     0.010 A 
ATOM     34  C   UNL A   1      38.311  29.490  28.713  1.00  0.00    -0.014 A 
BRANCH  34  35
ATOM     35  C   UNL A   1      39.722  29.214  29.073  1.00  0.00     0.031 A 
ATOM     36  C   UNL A   1      40.516  30.229  29.845  1.00  0.00     0.074 A 
ATOM     37  C   UNL A   1      40.299  28.074  28.651  1.00  0.00     0.049 A 
ATOM     38  N   UNL A   1      41.775  30.198  30.204  1.00  0.00    -0.248 NA
ATOM     39  C   UNL A   1      39.811  31.459  30.242  1.00  0.00     0.031 C 
ATOM     40  C   UNL A   1      39.641  27.037  27.855  1.00  0.00     0.029 A 
ATOM     41  N   UNL A   1      41.575  27.598  28.825  1.00  0.00    -0.354 N 
ATOM     42  C   UNL A   1      42.013  31.403  30.851  1.00  0.00     0.074 A 
ATOM     43  C   UNL A   1      40.788  32.168  30.787  1.00  0.00     0.031 C 
ATOM     44  C   UNL A   1      40.507  26.036  27.634  1.00  0.00     0.029 A 
ATOM     45  C   UNL A   1      41.792  26.379  28.233  1.00  0.00     0.049 A 
ATOM     46  H   UNL A   1      42.268  28.085  29.327  1.00  0.00     0.167 HD
ATOM     47  C   UNL A   1      43.146  31.821  31.463  1.00  0.00     0.037 A 
ATOM     48  C   UNL A   1      42.906  25.627  28.175  1.00  0.00     0.037 A 
ATOM     49  C   UNL A   1      44.354  31.042  31.540  1.00  0.00     0.049 A 
ATOM     50  C   UNL A   1      44.155  26.121  28.855  1.00  0.00     0.074 A 
ATOM     51  C   UNL A   1      45.537  31.345  32.191  1.00  0.00     0.029 A 
ATOM     52  N   UNL A   1      44.535  29.805  30.937  1.00  0.00    -0.354 N 
ATOM     53  N   UNL A   1      44.347  27.227  29.531  1.00  0.00    -0.248 NA
ATOM     54  C   UNL A   1      45.339  25.257  28.768  1.00  0.00     0.031 C 
ATOM     55  C   UNL A   1      46.452  30.319  31.936  1.00  0.00     0.029 A 
ATOM     56  C   UNL A   1      45.820  29.345  31.178  1.00  0.00     0.049 A 
ATOM     57  H   UNL A   1      43.852  29.326  30.416  1.00  0.00     0.167 HD
ATOM     58  C   UNL A   1      45.662  27.178  29.977  1.00  0.00     0.074 A 
ATOM     59  C   UNL A   1      46.214  25.925  29.507  1.00  0.00     0.031 C 
ATOM     60  C   UNL A   1      46.350  28.089  30.709  1.00  0.00     0.037 A 
BRANCH  47  61
ATOM     61  C   UNL A   1      43.135  33.185  32.095  1.00  0.00     0.064 A 
ATOM     62  C   UNL A   1      42.704  33.384  33.415  1.00  0.00     0.173 A 
ATOM     63  C   UNL A   1      43.593  34.303  31.381  1.00  0.00     0.173 A 
ATOM     64  F   UNL A   1      42.245  32.352  34.140  1.00  0.00    -0.203 F 
ATOM     65  C   UNL A   1      42.701  34.654  33.986  1.00  0.00     0.198 A 
ATOM     66  C   UNL A   1      43.622  35.566  31.966  1.00  0.00     0.198 A 
ATOM     67  F   UNL A   1      44.023  34.170  30.117  1.00  0.00    -0.203 F 
ATOM     68  F   UNL A   1      42.234  34.827  35.230  1.00  0.00    -0.200 F 
ATOM     69  C   UNL A   1      43.167  35.743  33.265  1.00  0.00     0.200 A 
ATOM     70  F   UNL A   1      44.087  36.614  31.273  1.00  0.00    -0.200 F 
ATOM     71  F   UNL A   1      43.173  36.963  33.818  1.00  0.00    -0.200 F 
ENDBRANCH  47  61
BRANCH  48  72
ATOM     72  C   UNL A   1      42.886  24.318  27.471  1.00  0.00     0.064 A 
ATOM     73  C   UNL A   1      43.209  24.227  26.110  1.00  0.00     0.173 A 
ATOM     74  C   UNL A   1      42.541  23.133  28.139  1.00  0.00     0.173 A 
ATOM     75  F   UNL A   1      43.528  25.334  25.424  1.00  0.00    -0.203 F 
ATOM     76  C   UNL A   1      43.161  23.009  25.437  1.00  0.00     0.198 A 
ATOM     77  C   UNL A   1      42.525  21.910  27.474  1.00  0.00     0.198 A 
ATOM     78  F   UNL A   1      42.233  23.162  29.444  1.00  0.00    -0.203 F 
ATOM     79  F   UNL A   1      43.423  22.960  24.124  1.00  0.00    -0.200 F 
ATOM     80  C   UNL A   1      42.825  21.850  26.121  1.00  0.00     0.200 A 
ATOM     81  F   UNL A   1      42.218  20.789  28.141  1.00  0.00    -0.200 F 
ATOM     82  F   UNL A   1      42.783  20.677  25.475  1.00  0.00    -0.200 F 
ENDBRANCH  48  72
BRANCH  60  83
ATOM     83  C   UNL A   1      47.762  27.744  31.082  1.00  0.00     0.064 A 
ATOM     84  C   UNL A   1      48.065  27.024  32.248  1.00  0.00     0.173 A 
ATOM     85  C   UNL A   1      48.826  28.109  30.243  1.00  0.00     0.173 A 
ATOM     86  F   UNL A   1      47.086  26.664  33.092  1.00  0.00    -0.203 F 
ATOM     87  C   UNL A   1      49.381  26.711  32.576  1.00  0.00     0.198 A 
ATOM     88  C   UNL A   1      50.138  27.762  30.554  1.00  0.00     0.198 A 
ATOM     89  F   UNL A   1      48.592  28.791  29.111  1.00  0.00    -0.203 F 
ATOM     90  F   UNL A   1      49.650  26.072  33.722  1.00  0.00    -0.200 F 
ATOM     91  C   UNL A   1      50.415  27.073  31.725  1.00  0.00     0.200 A 
ATOM     92  F   UNL A   1      51.133  28.099  29.722  1.00  0.00    -0.200 F 
ATOM     93  F   UNL A   1      51.681  26.764  32.037  1.00  0.00    -0.200 F 
ENDBRANCH  60  83
ENDBRANCH  34  35
ENDBRANCH  26  29
ENDBRANCH  24  25
ENDBRANCH  23  24
ENDBRANCH   1  23
TORSDOF 14
ENDMDL
