MODEL 1
REMARK VINA RESULT:     -12.3      0.000      0.000
REMARK SMILES C[C@H]1CC[C@@H](C2(C(=O)NCCCNC(=O)c3ccc(-c4c5nc(c(-c6c(F)c(F)c(F)c(F)c6F)c6ccc([nH]6)c(-c6c(F)c(F)c(F)c(F)c6F)c6nc(c(-c7c(F)c(F)c(F)c(F)c7F)c7ccc4[nH]7)C=C6)C=C5)cc3)CCCCC2)C[C@@H]1C
REMARK SMILES IDX 11 1 10 2 9 3 7 4 8 5 6 7 79 8 83 9 80 10 82 11 81 12 5 13
REMARK SMILES IDX 1 14 2 15 3 16 85 17 4 18 84 19 86 20 12 21 13 22 14 23
REMARK SMILES IDX 15 25 16 26 17 27 78 28 18 29 77 30 19 31 20 32 21 33 71 34
REMARK SMILES IDX 22 35 76 36 70 37 72 38 23 39 75 40 69 41 68 42 24 44 56 45
REMARK SMILES IDX 36 46 55 47 37 48 40 49 54 50 73 51 38 52 39 53 53 55 74 56
REMARK SMILES IDX 41 57 25 58 26 59 34 60 27 61 28 62 32 63 35 64 29 65 30 66
REMARK SMILES IDX 33 67 31 68 57 69 58 70 66 71 59 72 60 73 64 74 67 75 61 76
REMARK SMILES IDX 62 77 65 78 63 79 42 80 43 81 51 82 44 83 45 84 49 85 52 86
REMARK SMILES IDX 46 87 47 88 50 89 48 90
REMARK H PARENT 9 6 13 24 72 43 40 54
REMARK Flexibility Score: inf
ROOT
ATOM      1  C   UNL A   1      35.720  23.508  26.016  1.00  0.00     0.042 C 
ENDROOT
BRANCH   1   2
ATOM      2  C   UNL A   1      34.663  24.559  25.690  1.00  0.00     0.117 C 
BRANCH   2   3
ATOM      3  N   UNL A   1      34.621  24.830  24.264  1.00  0.00    -0.356 N 
ATOM      4  C   UNL A   1      33.639  25.115  23.374  1.00  0.00     0.226 C 
ATOM      5  O   UNL A   1      34.006  24.976  22.209  1.00  0.00    -0.274 OA
ATOM      6  H   UNL A   1      35.513  24.801  23.848  1.00  0.00     0.163 HD
BRANCH   4   7
ATOM      7  C   UNL A   1      32.219  25.595  23.770  1.00  0.00     0.052 C 
ATOM      8  C   UNL A   1      31.703  26.478  22.586  1.00  0.00     0.017 C 
ATOM      9  C   UNL A   1      32.318  26.462  25.065  1.00  0.00     0.017 C 
ATOM     10  C   UNL A   1      30.470  27.314  22.914  1.00  0.00     0.001 C 
ATOM     11  C   UNL A   1      31.092  27.329  25.351  1.00  0.00     0.001 C 
ATOM     12  C   UNL A   1      30.707  28.177  24.145  1.00  0.00     0.000 C 
BRANCH   7  13
ATOM     13  C   UNL A   1      31.174  24.398  24.035  1.00  0.00     0.005 C 
ATOM     14  C   UNL A   1      33.394  20.772  25.114  1.00  0.00     0.008 C 
ATOM     15  C   UNL A   1      32.142  21.594  24.765  1.00  0.00    -0.011 C 
ATOM     16  C   UNL A   1      31.972  22.688  25.838  1.00  0.00     0.004 C 
ATOM     17  C   UNL A   1      32.202  22.119  23.309  1.00  0.00    -0.011 C 
ATOM     18  C   UNL A   1      31.040  23.835  25.467  1.00  0.00     0.005 C 
ATOM     19  C   UNL A   1      31.157  23.209  23.053  1.00  0.00     0.008 C 
ATOM     20  C   UNL A   1      31.994  20.994  22.283  1.00  0.00     0.008 C 
ENDBRANCH   7  13
ENDBRANCH   4   7
ENDBRANCH   2   3
ENDBRANCH   1   2
BRANCH   1  21
ATOM     21  C   UNL A   1      36.976  23.605  25.158  1.00  0.00     0.118 C 
BRANCH  21  22
ATOM     22  N   UNL A   1      37.986  22.631  25.537  1.00  0.00    -0.352 N 
ATOM     23  C   UNL A   1      39.190  22.819  26.162  1.00  0.00     0.251 C 
ATOM     24  H   UNL A   1      37.772  21.697  25.312  1.00  0.00     0.163 HD
ATOM     25  O   UNL A   1      40.003  21.894  26.214  1.00  0.00    -0.269 OA
BRANCH  23  26
ATOM     26  C   UNL A   1      39.526  24.123  26.767  1.00  0.00     0.039 A 
ATOM     27  C   UNL A   1      40.194  25.072  25.991  1.00  0.00     0.014 A 
ATOM     28  C   UNL A   1      39.228  24.394  28.106  1.00  0.00     0.014 A 
ATOM     29  C   UNL A   1      40.538  26.304  26.548  1.00  0.00     0.010 A 
ATOM     30  C   UNL A   1      39.498  25.651  28.637  1.00  0.00     0.010 A 
ATOM     31  C   UNL A   1      40.181  26.607  27.872  1.00  0.00    -0.014 A 
BRANCH  31  32
ATOM     32  C   UNL A   1      40.583  27.891  28.498  1.00  0.00     0.031 A 
ATOM     33  C   UNL A   1      42.020  28.106  28.892  1.00  0.00     0.074 A 
ATOM     34  C   UNL A   1      39.661  28.842  28.738  1.00  0.00     0.049 A 
ATOM     35  N   UNL A   1      42.568  29.121  29.511  1.00  0.00    -0.248 NA
ATOM     36  C   UNL A   1      42.963  27.019  28.575  1.00  0.00     0.031 C 
ATOM     37  C   UNL A   1      38.233  28.735  28.440  1.00  0.00     0.029 A 
ATOM     38  N   UNL A   1      39.792  30.089  29.297  1.00  0.00    -0.354 N 
ATOM     39  C   UNL A   1      43.908  28.788  29.667  1.00  0.00     0.074 A 
ATOM     40  C   UNL A   1      44.080  27.455  29.134  1.00  0.00     0.031 C 
ATOM     41  C   UNL A   1      37.622  29.875  28.800  1.00  0.00     0.029 A 
ATOM     42  C   UNL A   1      38.610  30.783  29.378  1.00  0.00     0.049 A 
ATOM     43  H   UNL A   1      40.652  30.451  29.611  1.00  0.00     0.167 HD
ATOM     44  C   UNL A   1      44.911  29.538  30.180  1.00  0.00     0.037 A 
ATOM     45  C   UNL A   1      38.358  32.014  29.861  1.00  0.00     0.037 A 
ATOM     46  C   UNL A   1      44.745  30.877  30.679  1.00  0.00     0.049 A 
ATOM     47  C   UNL A   1      39.500  32.838  30.392  1.00  0.00     0.074 A 
ATOM     48  C   UNL A   1      45.697  31.726  31.217  1.00  0.00     0.029 A 
ATOM     49  N   UNL A   1      43.543  31.569  30.682  1.00  0.00    -0.354 N 
ATOM     50  N   UNL A   1      40.768  32.524  30.504  1.00  0.00    -0.248 NA
ATOM     51  C   UNL A   1      39.177  34.198  30.846  1.00  0.00     0.031 C 
ATOM     52  C   UNL A   1      45.067  32.928  31.557  1.00  0.00     0.029 A 
ATOM     53  C   UNL A   1      43.732  32.839  31.198  1.00  0.00     0.049 A 
ATOM     54  H   UNL A   1      42.683  31.209  30.364  1.00  0.00     0.167 HD
ATOM     55  C   UNL A   1      41.398  33.656  31.004  1.00  0.00     0.074 A 
ATOM     56  C   UNL A   1      40.376  34.669  31.160  1.00  0.00     0.031 C 
ATOM     57  C   UNL A   1      42.705  33.841  31.311  1.00  0.00     0.037 A 
BRANCH  44  58
ATOM     58  C   UNL A   1      46.284  28.934  30.201  1.00  0.00     0.064 A 
ATOM     59  C   UNL A   1      46.740  28.201  31.308  1.00  0.00     0.173 A 
ATOM     60  C   UNL A   1      47.140  29.058  29.097  1.00  0.00     0.173 A 
ATOM     61  F   UNL A   1      45.966  28.070  32.396  1.00  0.00    -0.203 F 
ATOM     62  C   UNL A   1      48.011  27.634  31.317  1.00  0.00     0.198 A 
ATOM     63  C   UNL A   1      48.400  28.463  29.099  1.00  0.00     0.198 A 
ATOM     64  F   UNL A   1      46.752  29.745  28.013  1.00  0.00    -0.203 F 
ATOM     65  F   UNL A   1      48.441  26.976  32.404  1.00  0.00    -0.200 F 
ATOM     66  C   UNL A   1      48.837  27.759  30.211  1.00  0.00     0.200 A 
ATOM     67  F   UNL A   1      49.194  28.576  28.024  1.00  0.00    -0.200 F 
ATOM     68  F   UNL A   1      50.057  27.203  30.218  1.00  0.00    -0.200 F 
ENDBRANCH  44  58
BRANCH  45  69
ATOM     69  C   UNL A   1      36.978  32.563  29.833  1.00  0.00     0.064 A 
ATOM     70  C   UNL A   1      36.513  33.284  28.723  1.00  0.00     0.173 A 
ATOM     71  C   UNL A   1      36.110  32.413  30.924  1.00  0.00     0.173 A 
ATOM     72  F   UNL A   1      37.314  33.470  27.664  1.00  0.00    -0.203 F 
ATOM     73  C   UNL A   1      35.247  33.865  28.721  1.00  0.00     0.198 A 
ATOM     74  C   UNL A   1      34.833  32.970  30.908  1.00  0.00     0.198 A 
ATOM     75  F   UNL A   1      36.504  31.725  32.005  1.00  0.00    -0.203 F 
ATOM     76  F   UNL A   1      34.852  34.601  27.673  1.00  0.00    -0.200 F 
ATOM     77  C   UNL A   1      34.407  33.706  29.812  1.00  0.00     0.200 A 
ATOM     78  F   UNL A   1      34.019  32.804  31.959  1.00  0.00    -0.200 F 
ATOM     79  F   UNL A   1      33.193  34.272  29.814  1.00  0.00    -0.200 F 
ENDBRANCH  45  69
BRANCH  57  80
ATOM     80  C   UNL A   1      43.110  35.205  31.781  1.00  0.00     0.064 A 
ATOM     81  C   UNL A   1      42.995  35.587  33.125  1.00  0.00     0.173 A 
ATOM     82  C   UNL A   1      43.640  36.135  30.873  1.00  0.00     0.173 A 
ATOM     83  F   UNL A   1      42.481  34.737  34.027  1.00  0.00    -0.203 F 
ATOM     84  C   UNL A   1      43.363  36.864  33.539  1.00  0.00     0.198 A 
ATOM     85  C   UNL A   1      44.033  37.401  31.295  1.00  0.00     0.198 A 
ATOM     86  F   UNL A   1      43.777  35.814  29.579  1.00  0.00    -0.203 F 
ATOM     87  F   UNL A   1      43.195  37.227  34.818  1.00  0.00    -0.200 F 
ATOM     88  C   UNL A   1      43.886  37.768  32.625  1.00  0.00     0.200 A 
ATOM     89  F   UNL A   1      44.548  38.270  30.414  1.00  0.00    -0.200 F 
ATOM     90  F   UNL A   1      44.240  38.998  33.025  1.00  0.00    -0.200 F 
ENDBRANCH  57  80
ENDBRANCH  31  32
ENDBRANCH  23  26
ENDBRANCH  21  22
ENDBRANCH   1  21
TORSDOF 11
ENDMDL
MODEL 2
REMARK VINA RESULT:     -12.2      0.189      1.161
REMARK SMILES C[C@H]1CC[C@@H](C2(C(=O)NCCCNC(=O)c3ccc(-c4c5nc(c(-c6c(F)c(F)c(F)c(F)c6F)c6ccc([nH]6)c(-c6c(F)c(F)c(F)c(F)c6F)c6nc(c(-c7c(F)c(F)c(F)c(F)c7F)c7ccc4[nH]7)C=C6)C=C5)cc3)CCCCC2)C[C@@H]1C
REMARK SMILES IDX 11 1 10 2 9 3 7 4 8 5 6 7 79 8 83 9 80 10 82 11 81 12 5 13
REMARK SMILES IDX 1 14 2 15 3 16 85 17 4 18 84 19 86 20 12 21 13 22 14 23
REMARK SMILES IDX 15 25 16 26 17 27 78 28 18 29 77 30 19 31 20 32 21 33 71 34
REMARK SMILES IDX 22 35 76 36 70 37 72 38 23 39 75 40 69 41 68 42 24 44 56 45
REMARK SMILES IDX 36 46 55 47 37 48 40 49 54 50 73 51 38 52 39 53 53 55 74 56
REMARK SMILES IDX 41 57 25 58 26 59 34 60 27 61 28 62 32 63 35 64 29 65 30 66
REMARK SMILES IDX 33 67 31 68 57 69 58 70 66 71 59 72 60 73 64 74 67 75 61 76
REMARK SMILES IDX 62 77 65 78 63 79 42 80 43 81 51 82 44 83 45 84 49 85 52 86
REMARK SMILES IDX 46 87 47 88 50 89 48 90
REMARK H PARENT 9 6 13 24 72 43 40 54
REMARK Flexibility Score: inf
ROOT
ATOM      1  C   UNL A   1      35.681  23.634  26.143  1.00  0.00     0.042 C 
ENDROOT
BRANCH   1   2
ATOM      2  C   UNL A   1      34.575  24.609  25.746  1.00  0.00     0.117 C 
BRANCH   2   3
ATOM      3  N   UNL A   1      34.580  24.846  24.314  1.00  0.00    -0.356 N 
ATOM      4  C   UNL A   1      33.630  25.135  23.390  1.00  0.00     0.226 C 
ATOM      5  O   UNL A   1      34.026  24.958  22.239  1.00  0.00    -0.274 OA
ATOM      6  H   UNL A   1      35.481  24.784  23.924  1.00  0.00     0.163 HD
BRANCH   4   7
ATOM      7  C   UNL A   1      32.214  25.661  23.734  1.00  0.00     0.052 C 
ATOM      8  C   UNL A   1      31.756  26.532  22.518  1.00  0.00     0.017 C 
ATOM      9  C   UNL A   1      32.300  26.553  25.014  1.00  0.00     0.017 C 
ATOM     10  C   UNL A   1      30.538  27.408  22.792  1.00  0.00     0.001 C 
ATOM     11  C   UNL A   1      31.091  27.459  25.246  1.00  0.00     0.001 C 
ATOM     12  C   UNL A   1      30.763  28.290  24.012  1.00  0.00     0.000 C 
BRANCH   7  13
ATOM     13  C   UNL A   1      31.129  24.499  23.994  1.00  0.00     0.005 C 
ATOM     14  C   UNL A   1      33.170  20.976  25.627  1.00  0.00     0.008 C 
ATOM     15  C   UNL A   1      31.973  21.768  25.074  1.00  0.00    -0.011 C 
ATOM     16  C   UNL A   1      31.707  22.957  26.019  1.00  0.00     0.004 C 
ATOM     17  C   UNL A   1      32.194  22.158  23.590  1.00  0.00    -0.011 C 
ATOM     18  C   UNL A   1      30.836  24.070  25.449  1.00  0.00     0.005 C 
ATOM     19  C   UNL A   1      31.198  23.225  23.127  1.00  0.00     0.008 C 
ATOM     20  C   UNL A   1      32.079  20.945  22.654  1.00  0.00     0.008 C 
ENDBRANCH   7  13
ENDBRANCH   4   7
ENDBRANCH   2   3
ENDBRANCH   1   2
BRANCH   1  21
ATOM     21  C   UNL A   1      36.822  23.549  25.135  1.00  0.00     0.118 C 
BRANCH  21  22
ATOM     22  N   UNL A   1      37.822  22.563  25.510  1.00  0.00    -0.352 N 
ATOM     23  C   UNL A   1      39.034  22.737  26.124  1.00  0.00     0.251 C 
ATOM     24  H   UNL A   1      37.593  21.631  25.290  1.00  0.00     0.163 HD
ATOM     25  O   UNL A   1      39.835  21.802  26.172  1.00  0.00    -0.269 OA
BRANCH  23  26
ATOM     26  C   UNL A   1      39.392  24.039  26.719  1.00  0.00     0.039 A 
ATOM     27  C   UNL A   1      40.098  24.961  25.946  1.00  0.00     0.014 A 
ATOM     28  C   UNL A   1      39.077  24.333  28.050  1.00  0.00     0.014 A 
ATOM     29  C   UNL A   1      40.463  26.191  26.495  1.00  0.00     0.010 A 
ATOM     30  C   UNL A   1      39.370  25.588  28.572  1.00  0.00     0.010 A 
ATOM     31  C   UNL A   1      40.091  26.519  27.809  1.00  0.00    -0.014 A 
BRANCH  31  32
ATOM     32  C   UNL A   1      40.515  27.799  28.427  1.00  0.00     0.031 A 
ATOM     33  C   UNL A   1      41.959  28.001  28.798  1.00  0.00     0.074 A 
ATOM     34  C   UNL A   1      39.605  28.758  28.683  1.00  0.00     0.049 A 
ATOM     35  N   UNL A   1      42.527  29.012  29.406  1.00  0.00    -0.248 NA
ATOM     36  C   UNL A   1      42.887  26.906  28.465  1.00  0.00     0.031 C 
ATOM     37  C   UNL A   1      38.171  28.663  28.408  1.00  0.00     0.029 A 
ATOM     38  N   UNL A   1      39.756  30.004  29.239  1.00  0.00    -0.354 N 
ATOM     39  C   UNL A   1      43.866  28.667  29.541  1.00  0.00     0.074 A 
ATOM     40  C   UNL A   1      44.017  27.333  29.005  1.00  0.00     0.031 C 
ATOM     41  C   UNL A   1      37.576  29.809  28.779  1.00  0.00     0.029 A 
ATOM     42  C   UNL A   1      38.581  30.708  29.340  1.00  0.00     0.049 A 
ATOM     43  H   UNL A   1      40.624  30.358  29.539  1.00  0.00     0.167 HD
ATOM     44  C   UNL A   1      44.884  29.408  30.036  1.00  0.00     0.037 A 
ATOM     45  C   UNL A   1      38.348  31.941  29.827  1.00  0.00     0.037 A 
ATOM     46  C   UNL A   1      44.738  30.749  30.538  1.00  0.00     0.049 A 
ATOM     47  C   UNL A   1      39.506  32.756  30.338  1.00  0.00     0.074 A 
ATOM     48  C   UNL A   1      45.706  31.590  31.059  1.00  0.00     0.029 A 
ATOM     49  N   UNL A   1      43.542  31.451  30.561  1.00  0.00    -0.354 N 
ATOM     50  N   UNL A   1      40.773  32.430  30.429  1.00  0.00    -0.248 NA
ATOM     51  C   UNL A   1      39.203  34.118  30.797  1.00  0.00     0.031 C 
ATOM     52  C   UNL A   1      45.092  32.797  31.410  1.00  0.00     0.029 A 
ATOM     53  C   UNL A   1      43.750  32.720  31.074  1.00  0.00     0.049 A 
ATOM     54  H   UNL A   1      42.674  31.098  30.258  1.00  0.00     0.167 HD
ATOM     55  C   UNL A   1      41.422  33.557  30.918  1.00  0.00     0.074 A 
ATOM     56  C   UNL A   1      40.410  34.579  31.091  1.00  0.00     0.031 C 
ATOM     57  C   UNL A   1      42.735  33.731  31.203  1.00  0.00     0.037 A 
BRANCH  44  58
ATOM     58  C   UNL A   1      46.252  28.793  30.035  1.00  0.00     0.064 A 
ATOM     59  C   UNL A   1      46.716  28.047  31.129  1.00  0.00     0.173 A 
ATOM     60  C   UNL A   1      47.095  28.918  28.921  1.00  0.00     0.173 A 
ATOM     61  F   UNL A   1      45.955  27.913  32.226  1.00  0.00    -0.203 F 
ATOM     62  C   UNL A   1      47.982  27.468  31.118  1.00  0.00     0.198 A 
ATOM     63  C   UNL A   1      48.350  28.313  28.901  1.00  0.00     0.198 A 
ATOM     64  F   UNL A   1      46.699  29.617  27.847  1.00  0.00    -0.203 F 
ATOM     65  F   UNL A   1      48.420  26.798  32.193  1.00  0.00    -0.200 F 
ATOM     66  C   UNL A   1      48.794  27.595  30.002  1.00  0.00     0.200 A 
ATOM     67  F   UNL A   1      49.130  28.427  27.817  1.00  0.00    -0.200 F 
ATOM     68  F   UNL A   1      50.009  27.029  29.988  1.00  0.00    -0.200 F 
ENDBRANCH  44  58
BRANCH  45  69
ATOM     69  C   UNL A   1      36.973  32.502  29.821  1.00  0.00     0.064 A 
ATOM     70  C   UNL A   1      36.507  33.256  28.734  1.00  0.00     0.173 A 
ATOM     71  C   UNL A   1      36.111  32.331  30.913  1.00  0.00     0.173 A 
ATOM     72  F   UNL A   1      37.304  33.463  27.675  1.00  0.00    -0.203 F 
ATOM     73  C   UNL A   1      35.246  33.847  28.755  1.00  0.00     0.198 A 
ATOM     74  C   UNL A   1      34.838  32.898  30.921  1.00  0.00     0.198 A 
ATOM     75  F   UNL A   1      36.505  31.611  31.974  1.00  0.00    -0.203 F 
ATOM     76  F   UNL A   1      34.851  34.613  27.729  1.00  0.00    -0.200 F 
ATOM     77  C   UNL A   1      34.412  33.666  29.847  1.00  0.00     0.200 A 
ATOM     78  F   UNL A   1      34.029  32.711  31.972  1.00  0.00    -0.200 F 
ATOM     79  F   UNL A   1      33.202  34.242  29.871  1.00  0.00    -0.200 F 
ENDBRANCH  45  69
BRANCH  57  80
ATOM     80  C   UNL A   1      43.160  35.091  31.666  1.00  0.00     0.064 A 
ATOM     81  C   UNL A   1      43.664  36.050  30.776  1.00  0.00     0.173 A 
ATOM     82  C   UNL A   1      43.041  35.444  33.019  1.00  0.00     0.173 A 
ATOM     83  F   UNL A   1      43.809  35.753  29.475  1.00  0.00    -0.203 F 
ATOM     84  C   UNL A   1      44.067  37.303  31.229  1.00  0.00     0.198 A 
ATOM     85  C   UNL A   1      43.418  36.707  33.464  1.00  0.00     0.198 A 
ATOM     86  F   UNL A   1      42.557  34.564  33.908  1.00  0.00    -0.203 F 
ATOM     87  F   UNL A   1      44.595  38.185  30.370  1.00  0.00    -0.200 F 
ATOM     88  C   UNL A   1      43.939  37.632  32.571  1.00  0.00     0.200 A 
ATOM     89  F   UNL A   1      43.285  37.028  34.758  1.00  0.00    -0.200 F 
ATOM     90  F   UNL A   1      44.328  38.839  33.006  1.00  0.00    -0.200 F 
ENDBRANCH  57  80
ENDBRANCH  31  32
ENDBRANCH  23  26
ENDBRANCH  21  22
ENDBRANCH   1  21
TORSDOF 11
ENDMDL
MODEL 3
REMARK VINA RESULT:     -12.1      3.210      8.599
REMARK SMILES C[C@H]1CC[C@@H](C2(C(=O)NCCCNC(=O)c3ccc(-c4c5nc(c(-c6c(F)c(F)c(F)c(F)c6F)c6ccc([nH]6)c(-c6c(F)c(F)c(F)c(F)c6F)c6nc(c(-c7c(F)c(F)c(F)c(F)c7F)c7ccc4[nH]7)C=C6)C=C5)cc3)CCCCC2)C[C@@H]1C
REMARK SMILES IDX 11 1 10 2 9 3 7 4 8 5 6 7 79 8 83 9 80 10 82 11 81 12 5 13
REMARK SMILES IDX 1 14 2 15 3 16 85 17 4 18 84 19 86 20 12 21 13 22 14 23
REMARK SMILES IDX 15 25 16 26 17 27 78 28 18 29 77 30 19 31 20 32 21 33 71 34
REMARK SMILES IDX 22 35 76 36 70 37 72 38 23 39 75 40 69 41 68 42 24 44 56 45
REMARK SMILES IDX 36 46 55 47 37 48 40 49 54 50 73 51 38 52 39 53 53 55 74 56
REMARK SMILES IDX 41 57 25 58 26 59 34 60 27 61 28 62 32 63 35 64 29 65 30 66
REMARK SMILES IDX 33 67 31 68 57 69 58 70 66 71 59 72 60 73 64 74 67 75 61 76
REMARK SMILES IDX 62 77 65 78 63 79 42 80 43 81 51 82 44 83 45 84 49 85 52 86
REMARK SMILES IDX 46 87 47 88 50 89 48 90
REMARK H PARENT 9 6 13 24 72 43 40 54
REMARK Flexibility Score: inf
ROOT
ATOM      1  C   UNL A   1      34.011  28.061  25.707  1.00  0.00     0.042 C 
ENDROOT
BRANCH   1   2
ATOM      2  C   UNL A   1      33.896  26.590  25.317  1.00  0.00     0.117 C 
BRANCH   2   3
ATOM      3  N   UNL A   1      32.949  25.898  26.171  1.00  0.00    -0.356 N 
ATOM      4  C   UNL A   1      32.164  24.801  26.034  1.00  0.00     0.226 C 
ATOM      5  O   UNL A   1      31.289  24.738  26.896  1.00  0.00    -0.274 OA
ATOM      6  H   UNL A   1      32.855  26.323  27.054  1.00  0.00     0.163 HD
BRANCH   4   7
ATOM      7  C   UNL A   1      32.360  23.722  24.938  1.00  0.00     0.052 C 
ATOM      8  C   UNL A   1      31.799  22.385  25.527  1.00  0.00     0.017 C 
ATOM      9  C   UNL A   1      33.886  23.566  24.647  1.00  0.00     0.017 C 
ATOM     10  C   UNL A   1      32.195  21.137  24.744  1.00  0.00     0.001 C 
ATOM     11  C   UNL A   1      34.269  22.286  23.903  1.00  0.00     0.001 C 
ATOM     12  C   UNL A   1      33.706  21.046  24.588  1.00  0.00     0.000 C 
BRANCH   7  13
ATOM     13  C   UNL A   1      31.606  24.051  23.554  1.00  0.00     0.005 C 
ATOM     14  C   UNL A   1      31.175  28.398  23.157  1.00  0.00     0.008 C 
ATOM     15  C   UNL A   1      30.963  26.929  22.755  1.00  0.00    -0.011 C 
ATOM     16  C   UNL A   1      32.343  26.307  22.467  1.00  0.00     0.004 C 
ATOM     17  C   UNL A   1      30.120  26.173  23.813  1.00  0.00    -0.011 C 
ATOM     18  C   UNL A   1      32.387  24.783  22.440  1.00  0.00     0.005 C 
ATOM     19  C   UNL A   1      30.188  24.655  23.617  1.00  0.00     0.008 C 
ATOM     20  C   UNL A   1      28.644  26.601  23.786  1.00  0.00     0.008 C 
ENDBRANCH   7  13
ENDBRANCH   4   7
ENDBRANCH   2   3
ENDBRANCH   1   2
BRANCH   1  21
ATOM     21  C   UNL A   1      33.664  28.344  27.165  1.00  0.00     0.118 C 
BRANCH  21  22
ATOM     22  N   UNL A   1      33.556  29.766  27.445  1.00  0.00    -0.352 N 
ATOM     23  C   UNL A   1      34.443  30.603  28.067  1.00  0.00     0.251 C 
ATOM     24  H   UNL A   1      32.721  30.190  27.141  1.00  0.00     0.163 HD
ATOM     25  O   UNL A   1      34.086  31.736  28.398  1.00  0.00    -0.269 OA
BRANCH  23  26
ATOM     26  C   UNL A   1      35.820  30.158  28.355  1.00  0.00     0.039 A 
ATOM     27  C   UNL A   1      36.112  29.649  29.621  1.00  0.00     0.014 A 
ATOM     28  C   UNL A   1      36.832  30.284  27.398  1.00  0.00     0.014 A 
ATOM     29  C   UNL A   1      37.412  29.238  29.921  1.00  0.00     0.010 A 
ATOM     30  C   UNL A   1      38.108  29.802  27.669  1.00  0.00     0.010 A 
ATOM     31  C   UNL A   1      38.417  29.301  28.943  1.00  0.00    -0.014 A 
BRANCH  31  32
ATOM     32  C   UNL A   1      39.816  28.919  29.257  1.00  0.00     0.031 A 
ATOM     33  C   UNL A   1      40.663  29.834  30.099  1.00  0.00     0.074 A 
ATOM     34  C   UNL A   1      40.329  27.775  28.766  1.00  0.00     0.049 A 
ATOM     35  N   UNL A   1      41.924  29.724  30.434  1.00  0.00    -0.248 NA
ATOM     36  C   UNL A   1      40.014  31.054  30.608  1.00  0.00     0.031 C 
ATOM     37  C   UNL A   1      39.621  26.827  27.906  1.00  0.00     0.029 A 
ATOM     38  N   UNL A   1      41.575  27.220  28.918  1.00  0.00    -0.354 N 
ATOM     39  C   UNL A   1      42.217  30.861  31.176  1.00  0.00     0.074 A 
ATOM     40  C   UNL A   1      41.024  31.677  31.194  1.00  0.00     0.031 C 
ATOM     41  C   UNL A   1      40.436  25.798  27.622  1.00  0.00     0.029 A 
ATOM     42  C   UNL A   1      41.731  26.026  28.258  1.00  0.00     0.049 A 
ATOM     43  H   UNL A   1      42.290  27.639  29.450  1.00  0.00     0.167 HD
ATOM     44  C   UNL A   1      43.368  31.182  31.812  1.00  0.00     0.037 A 
ATOM     45  C   UNL A   1      42.798  25.210  28.182  1.00  0.00     0.037 A 
ATOM     46  C   UNL A   1      44.544  30.354  31.822  1.00  0.00     0.049 A 
ATOM     47  C   UNL A   1      44.053  25.576  28.929  1.00  0.00     0.074 A 
ATOM     48  C   UNL A   1      45.761  30.584  32.438  1.00  0.00     0.029 A 
ATOM     49  N   UNL A   1      44.639  29.120  31.195  1.00  0.00    -0.354 N 
ATOM     50  N   UNL A   1      44.306  26.638  29.654  1.00  0.00    -0.248 NA
ATOM     51  C   UNL A   1      45.164  24.617  28.863  1.00  0.00     0.031 C 
ATOM     52  C   UNL A   1      46.597  29.494  32.174  1.00  0.00     0.029 A 
ATOM     53  C   UNL A   1      45.888  28.571  31.423  1.00  0.00     0.049 A 
ATOM     54  H   UNL A   1      43.922  28.699  30.667  1.00  0.00     0.167 HD
ATOM     55  C   UNL A   1      45.587  26.458  30.160  1.00  0.00     0.074 A 
ATOM     56  C   UNL A   1      46.053  25.177  29.670  1.00  0.00     0.031 C 
ATOM     57  C   UNL A   1      46.316  27.279  30.954  1.00  0.00     0.037 A 
BRANCH  44  58
ATOM     58  C   UNL A   1      43.400  32.475  32.573  1.00  0.00     0.064 A 
ATOM     59  C   UNL A   1      43.061  32.527  33.934  1.00  0.00     0.173 A 
ATOM     60  C   UNL A   1      43.805  33.665  31.951  1.00  0.00     0.173 A 
ATOM     61  F   UNL A   1      42.650  31.419  34.570  1.00  0.00    -0.203 F 
ATOM     62  C   UNL A   1      43.103  33.727  34.637  1.00  0.00     0.198 A 
ATOM     63  C   UNL A   1      43.874  34.858  32.666  1.00  0.00     0.198 A 
ATOM     64  F   UNL A   1      44.143  33.669  30.653  1.00  0.00    -0.203 F 
ATOM     65  F   UNL A   1      42.731  33.760  35.925  1.00  0.00    -0.200 F 
ATOM     66  C   UNL A   1      43.517  34.890  34.006  1.00  0.00     0.200 A 
ATOM     67  F   UNL A   1      44.285  35.980  32.057  1.00  0.00    -0.200 F 
ATOM     68  F   UNL A   1      43.566  36.043  34.687  1.00  0.00    -0.200 F 
ENDBRANCH  44  58
BRANCH  45  69
ATOM     69  C   UNL A   1      42.724  23.948  27.402  1.00  0.00     0.064 A 
ATOM     70  C   UNL A   1      42.322  22.749  28.010  1.00  0.00     0.173 A 
ATOM     71  C   UNL A   1      43.086  23.903  26.049  1.00  0.00     0.173 A 
ATOM     72  F   UNL A   1      41.984  22.739  29.308  1.00  0.00    -0.203 F 
ATOM     73  C   UNL A   1      42.321  21.549  27.304  1.00  0.00     0.198 A 
ATOM     74  C   UNL A   1      43.057  22.706  25.335  1.00  0.00     0.198 A 
ATOM     75  F   UNL A   1      43.470  25.023  25.419  1.00  0.00    -0.203 F 
ATOM     76  F   UNL A   1      41.992  20.408  27.926  1.00  0.00    -0.200 F 
ATOM     77  C   UNL A   1      42.687  21.528  25.967  1.00  0.00     0.200 A 
ATOM     78  F   UNL A   1      43.399  22.692  24.040  1.00  0.00    -0.200 F 
ATOM     79  F   UNL A   1      42.694  20.372  25.290  1.00  0.00    -0.200 F 
ENDBRANCH  45  69
BRANCH  57  80
ATOM     80  C   UNL A   1      47.661  26.787  31.395  1.00  0.00     0.064 A 
ATOM     81  C   UNL A   1      48.830  27.103  30.689  1.00  0.00     0.173 A 
ATOM     82  C   UNL A   1      47.780  26.004  32.553  1.00  0.00     0.173 A 
ATOM     83  F   UNL A   1      48.764  27.838  29.567  1.00  0.00    -0.203 F 
ATOM     84  C   UNL A   1      50.068  26.624  31.107  1.00  0.00     0.198 A 
ATOM     85  C   UNL A   1      49.023  25.550  32.984  1.00  0.00     0.198 A 
ATOM     86  F   UNL A   1      46.692  25.681  33.267  1.00  0.00    -0.203 F 
ATOM     87  F   UNL A   1      51.167  26.893  30.387  1.00  0.00    -0.200 F 
ATOM     88  C   UNL A   1      50.164  25.852  32.255  1.00  0.00     0.200 A 
ATOM     89  F   UNL A   1      49.116  24.814  34.100  1.00  0.00    -0.200 F 
ATOM     90  F   UNL A   1      51.358  25.391  32.657  1.00  0.00    -0.200 F 
ENDBRANCH  57  80
ENDBRANCH  31  32
ENDBRANCH  23  26
ENDBRANCH  21  22
ENDBRANCH   1  21
TORSDOF 11
ENDMDL
