MODEL 1
REMARK VINA RESULT:     -12.4      0.000      0.000
REMARK SMILES O=C(Cc1cn2ccsc2n1)N[C@@H]1C=C[C@H](C(=O)NCCCNC(=O)c2ccc(-c3c4nc(c(-c5c(F)c(F)c(F)c(F)c5F)c5ccc([nH]5)c(-c5c(F)c(F)c(F)c(F)c5F)c5nc(c(-c6c(F)c(F)c(F)c(F)c6F)c6ccc3[nH]6)C=C5)C=C4)cc2)C1
REMARK SMILES IDX 20 1 19 2 17 3 18 4 16 6 13 7 14 8 89 9 15 10 12 11 1 12
REMARK SMILES IDX 2 13 3 15 4 16 5 17 11 18 6 19 10 20 7 21 9 22 8 23 21 24
REMARK SMILES IDX 22 25 23 26 24 27 25 29 26 30 27 31 88 32 28 33 87 34 29 35
REMARK SMILES IDX 30 36 31 37 81 38 32 39 86 40 80 41 82 42 33 43 85 44 79 45
REMARK SMILES IDX 78 46 34 48 66 49 46 50 65 51 47 52 50 53 64 54 83 55 48 56
REMARK SMILES IDX 49 57 63 59 84 60 51 61 35 62 36 63 44 64 37 65 38 66 42 67
REMARK SMILES IDX 45 68 39 69 40 70 43 71 41 72 67 73 68 74 76 75 69 76 70 77
REMARK SMILES IDX 74 78 77 79 71 80 72 81 75 82 73 83 52 84 53 85 61 86 54 87
REMARK SMILES IDX 55 88 59 89 62 90 56 91 57 92 60 93 58 94
REMARK H PARENT 19 5 12 14 23 28 82 47 50 58
REMARK Flexibility Score: inf
ROOT
ATOM      1  C   UNL A   1      31.794  30.718  26.006  1.00  0.00     0.117 C 
ENDROOT
BRANCH   1   2
ATOM      2  N   UNL A   1      31.901  29.560  26.873  1.00  0.00    -0.356 N 
ATOM      3  C   UNL A   1      31.865  28.228  26.578  1.00  0.00     0.227 C 
ATOM      4  O   UNL A   1      32.280  27.456  27.446  1.00  0.00    -0.274 OA
ATOM      5  H   UNL A   1      32.019  29.769  27.828  1.00  0.00     0.163 HD
BRANCH   3   6
ATOM      6  C   UNL A   1      31.370  27.762  25.205  1.00  0.00     0.103 C 
ATOM      7  C   UNL A   1      31.395  25.322  24.931  1.00  0.00     0.106 C 
ATOM      8  C   UNL A   1      32.530  25.980  24.205  1.00  0.00    -0.006 C 
ATOM      9  C   UNL A   1      30.488  26.510  25.272  1.00  0.00     0.047 C 
ATOM     10  C   UNL A   1      32.522  27.309  24.358  1.00  0.00    -0.016 C 
BRANCH   7  11
ATOM     11  N   UNL A   1      31.982  24.531  25.985  1.00  0.00    -0.350 N 
ATOM     12  O   UNL A   1      30.461  22.794  26.230  1.00  0.00    -0.275 OA
ATOM     13  C   UNL A   1      31.510  23.355  26.531  1.00  0.00     0.226 C 
ATOM     14  H   UNL A   1      32.825  24.873  26.361  1.00  0.00     0.164 HD
BRANCH  13  15
ATOM     15  C   UNL A   1      32.469  22.745  27.543  1.00  0.00     0.157 C 
BRANCH  15  16
ATOM     16  C   UNL A   1      33.783  22.461  26.900  1.00  0.00     0.070 A 
ATOM     17  C   UNL A   1      34.286  21.241  26.458  1.00  0.00     0.118 A 
ATOM     18  N   UNL A   1      34.692  23.486  26.664  1.00  0.00    -0.223 NA
ATOM     19  N   UNL A   1      35.471  21.557  25.866  1.00  0.00    -0.297 N 
ATOM     20  C   UNL A   1      35.650  22.899  26.008  1.00  0.00     0.193 A 
ATOM     21  C   UNL A   1      36.466  20.897  25.185  1.00  0.00     0.104 A 
ATOM     22  S   UNL A   1      37.119  23.424  25.250  1.00  0.00    -0.105 S 
ATOM     23  C   UNL A   1      37.427  21.743  24.774  1.00  0.00     0.087 A 
ENDBRANCH  15  16
ENDBRANCH  13  15
ENDBRANCH   7  11
ENDBRANCH   3   6
ENDBRANCH   1   2
BRANCH   1  24
ATOM     24  C   UNL A   1      31.441  31.993  26.758  1.00  0.00     0.042 C 
BRANCH  24  25
ATOM     25  C   UNL A   1      32.638  32.713  27.373  1.00  0.00     0.118 C 
BRANCH  25  26
ATOM     26  N   UNL A   1      32.374  34.118  27.661  1.00  0.00    -0.352 N 
ATOM     27  C   UNL A   1      32.964  34.974  28.561  1.00  0.00     0.251 C 
ATOM     28  H   UNL A   1      31.656  34.520  27.122  1.00  0.00     0.163 HD
ATOM     29  O   UNL A   1      32.476  36.079  28.765  1.00  0.00    -0.269 OA
BRANCH  27  30
ATOM     30  C   UNL A   1      34.169  34.556  29.309  1.00  0.00     0.039 A 
ATOM     31  C   UNL A   1      34.014  34.014  30.589  1.00  0.00     0.014 A 
ATOM     32  C   UNL A   1      35.444  34.697  28.759  1.00  0.00     0.014 A 
ATOM     33  C   UNL A   1      35.127  33.522  31.273  1.00  0.00     0.010 A 
ATOM     34  C   UNL A   1      36.542  34.137  29.406  1.00  0.00     0.010 A 
ATOM     35  C   UNL A   1      36.392  33.529  30.662  1.00  0.00    -0.014 A 
BRANCH  35  36
ATOM     36  C   UNL A   1      37.563  32.866  31.292  1.00  0.00     0.031 A 
ATOM     37  C   UNL A   1      38.202  31.674  30.640  1.00  0.00     0.074 A 
ATOM     38  C   UNL A   1      37.983  33.279  32.504  1.00  0.00     0.049 A 
ATOM     39  N   UNL A   1      39.143  30.886  31.095  1.00  0.00    -0.248 NA
ATOM     40  C   UNL A   1      37.701  31.303  29.307  1.00  0.00     0.031 C 
ATOM     41  C   UNL A   1      37.416  34.398  33.259  1.00  0.00     0.029 A 
ATOM     42  N   UNL A   1      38.968  32.791  33.327  1.00  0.00    -0.354 N 
ATOM     43  C   UNL A   1      39.333  29.919  30.117  1.00  0.00     0.074 A 
ATOM     44  C   UNL A   1      38.381  30.192  29.062  1.00  0.00     0.031 C 
ATOM     45  C   UNL A   1      38.066  34.517  34.426  1.00  0.00     0.029 A 
ATOM     46  C   UNL A   1      39.059  33.452  34.529  1.00  0.00     0.049 A 
ATOM     47  H   UNL A   1      39.552  32.039  33.081  1.00  0.00     0.167 HD
ATOM     48  C   UNL A   1      40.232  28.906  30.096  1.00  0.00     0.037 A 
ATOM     49  C   UNL A   1      39.836  33.213  35.602  1.00  0.00     0.037 A 
ATOM     50  C   UNL A   1      41.189  28.652  31.142  1.00  0.00     0.049 A 
ATOM     51  C   UNL A   1      40.803  32.060  35.566  1.00  0.00     0.074 A 
ATOM     52  C   UNL A   1      42.190  27.697  31.180  1.00  0.00     0.029 A 
ATOM     53  N   UNL A   1      41.258  29.350  32.339  1.00  0.00    -0.354 N 
ATOM     54  N   UNL A   1      41.028  31.200  34.604  1.00  0.00    -0.248 NA
ATOM     55  C   UNL A   1      41.624  31.844  36.766  1.00  0.00     0.031 C 
ATOM     56  C   UNL A   1      42.823  27.776  32.423  1.00  0.00     0.029 A 
ATOM     57  C   UNL A   1      42.258  28.820  33.138  1.00  0.00     0.049 A 
ATOM     58  H   UNL A   1      40.681  30.109  32.585  1.00  0.00     0.167 HD
ATOM     59  C   UNL A   1      42.027  30.357  35.070  1.00  0.00     0.074 A 
ATOM     60  C   UNL A   1      42.380  30.820  36.395  1.00  0.00     0.031 C 
ATOM     61  C   UNL A   1      42.601  29.294  34.456  1.00  0.00     0.037 A 
BRANCH  48  62
ATOM     62  C   UNL A   1      40.223  27.989  28.909  1.00  0.00     0.064 A 
ATOM     63  C   UNL A   1      40.935  28.289  27.738  1.00  0.00     0.173 A 
ATOM     64  C   UNL A   1      39.536  26.766  28.961  1.00  0.00     0.173 A 
ATOM     65  F   UNL A   1      41.603  29.448  27.632  1.00  0.00    -0.203 F 
ATOM     66  C   UNL A   1      40.938  27.414  26.655  1.00  0.00     0.198 A 
ATOM     67  C   UNL A   1      39.566  25.879  27.889  1.00  0.00     0.198 A 
ATOM     68  F   UNL A   1      38.845  26.424  30.059  1.00  0.00    -0.203 F 
ATOM     69  F   UNL A   1      41.587  27.744  25.530  1.00  0.00    -0.200 F 
ATOM     70  C   UNL A   1      40.260  26.206  26.734  1.00  0.00     0.200 A 
ATOM     71  F   UNL A   1      38.925  24.705  27.973  1.00  0.00    -0.200 F 
ATOM     72  F   UNL A   1      40.272  25.360  25.695  1.00  0.00    -0.200 F 
ENDBRANCH  48  62
BRANCH  49  73
ATOM     73  C   UNL A   1      39.727  34.079  36.806  1.00  0.00     0.064 A 
ATOM     74  C   UNL A   1      40.452  35.275  36.902  1.00  0.00     0.173 A 
ATOM     75  C   UNL A   1      38.907  33.726  37.888  1.00  0.00     0.173 A 
ATOM     76  F   UNL A   1      41.268  35.644  35.904  1.00  0.00    -0.203 F 
ATOM     77  C   UNL A   1      40.376  36.074  38.041  1.00  0.00     0.198 A 
ATOM     78  C   UNL A   1      38.807  34.543  39.013  1.00  0.00     0.198 A 
ATOM     79  F   UNL A   1      38.189  32.594  37.846  1.00  0.00    -0.203 F 
ATOM     80  F   UNL A   1      41.118  37.186  38.125  1.00  0.00    -0.200 F 
ATOM     81  C   UNL A   1      39.549  35.710  39.093  1.00  0.00     0.200 A 
ATOM     82  F   UNL A   1      37.994  34.195  40.020  1.00  0.00    -0.200 F 
ATOM     83  F   UNL A   1      39.473  36.482  40.186  1.00  0.00    -0.200 F 
ENDBRANCH  49  73
BRANCH  61  84
ATOM     84  C   UNL A   1      43.687  28.569  35.195  1.00  0.00     0.064 A 
ATOM     85  C   UNL A   1      43.409  27.460  36.008  1.00  0.00     0.173 A 
ATOM     86  C   UNL A   1      45.029  28.951  35.042  1.00  0.00     0.173 A 
ATOM     87  F   UNL A   1      42.142  27.064  36.200  1.00  0.00    -0.203 F 
ATOM     88  C   UNL A   1      44.433  26.771  36.654  1.00  0.00     0.198 A 
ATOM     89  C   UNL A   1      46.052  28.241  35.663  1.00  0.00     0.198 A 
ATOM     90  F   UNL A   1      45.349  30.002  34.272  1.00  0.00    -0.203 F 
ATOM     91  F   UNL A   1      44.141  25.740  37.457  1.00  0.00    -0.200 F 
ATOM     92  C   UNL A   1      45.754  27.156  36.473  1.00  0.00     0.200 A 
ATOM     93  F   UNL A   1      47.328  28.605  35.475  1.00  0.00    -0.200 F 
ATOM     94  F   UNL A   1      46.739  26.482  37.083  1.00  0.00    -0.200 F 
ENDBRANCH  61  84
ENDBRANCH  35  36
ENDBRANCH  27  30
ENDBRANCH  25  26
ENDBRANCH  24  25
ENDBRANCH   1  24
TORSDOF 13
ENDMDL
MODEL 2
REMARK VINA RESULT:     -12.3      1.658      2.497
REMARK SMILES O=C(Cc1cn2ccsc2n1)N[C@@H]1C=C[C@H](C(=O)NCCCNC(=O)c2ccc(-c3c4nc(c(-c5c(F)c(F)c(F)c(F)c5F)c5ccc([nH]5)c(-c5c(F)c(F)c(F)c(F)c5F)c5nc(c(-c6c(F)c(F)c(F)c(F)c6F)c6ccc3[nH]6)C=C5)C=C4)cc2)C1
REMARK SMILES IDX 20 1 19 2 17 3 18 4 16 6 13 7 14 8 89 9 15 10 12 11 1 12
REMARK SMILES IDX 2 13 3 15 4 16 5 17 11 18 6 19 10 20 7 21 9 22 8 23 21 24
REMARK SMILES IDX 22 25 23 26 24 27 25 29 26 30 27 31 88 32 28 33 87 34 29 35
REMARK SMILES IDX 30 36 31 37 81 38 32 39 86 40 80 41 82 42 33 43 85 44 79 45
REMARK SMILES IDX 78 46 34 48 66 49 46 50 65 51 47 52 50 53 64 54 83 55 48 56
REMARK SMILES IDX 49 57 63 59 84 60 51 61 35 62 36 63 44 64 37 65 38 66 42 67
REMARK SMILES IDX 45 68 39 69 40 70 43 71 41 72 67 73 68 74 76 75 69 76 70 77
REMARK SMILES IDX 74 78 77 79 71 80 72 81 75 82 73 83 52 84 53 85 61 86 54 87
REMARK SMILES IDX 55 88 59 89 62 90 56 91 57 92 60 93 58 94
REMARK H PARENT 19 5 12 14 23 28 82 47 50 58
REMARK Flexibility Score: inf
ROOT
ATOM      1  C   UNL A   1      31.756  30.285  26.703  1.00  0.00     0.117 C 
ENDROOT
BRANCH   1   2
ATOM      2  N   UNL A   1      31.265  29.587  25.530  1.00  0.00    -0.356 N 
ATOM      3  C   UNL A   1      31.861  28.633  24.755  1.00  0.00     0.227 C 
ATOM      4  O   UNL A   1      31.124  27.987  24.006  1.00  0.00    -0.274 OA
ATOM      5  H   UNL A   1      30.357  29.841  25.247  1.00  0.00     0.163 HD
BRANCH   3   6
ATOM      6  C   UNL A   1      33.366  28.379  24.877  1.00  0.00     0.103 C 
ATOM      7  C   UNL A   1      34.028  26.095  24.265  1.00  0.00     0.106 C 
ATOM      8  C   UNL A   1      34.028  26.301  25.751  1.00  0.00    -0.006 C 
ATOM      9  C   UNL A   1      33.933  27.531  23.734  1.00  0.00     0.047 C 
ATOM     10  C   UNL A   1      33.660  27.542  26.087  1.00  0.00    -0.016 C 
BRANCH   7  11
ATOM     11  N   UNL A   1      32.983  25.144  23.978  1.00  0.00    -0.350 N 
ATOM     12  O   UNL A   1      33.906  23.864  22.277  1.00  0.00    -0.275 OA
ATOM     13  C   UNL A   1      32.994  24.118  23.056  1.00  0.00     0.226 C 
ATOM     14  H   UNL A   1      32.157  25.239  24.507  1.00  0.00     0.164 HD
BRANCH  13  15
ATOM     15  C   UNL A   1      31.750  23.244  23.126  1.00  0.00     0.157 C 
BRANCH  15  16
ATOM     16  C   UNL A   1      32.119  21.855  23.518  1.00  0.00     0.070 A 
ATOM     17  C   UNL A   1      32.457  21.371  24.779  1.00  0.00     0.118 A 
ATOM     18  N   UNL A   1      32.153  20.837  22.572  1.00  0.00    -0.223 NA
ATOM     19  N   UNL A   1      32.604  20.029  24.598  1.00  0.00    -0.297 N 
ATOM     20  C   UNL A   1      32.400  19.772  23.278  1.00  0.00     0.193 A 
ATOM     21  C   UNL A   1      32.875  18.930  25.379  1.00  0.00     0.104 A 
ATOM     22  S   UNL A   1      32.522  18.076  22.938  1.00  0.00    -0.105 S 
ATOM     23  C   UNL A   1      32.863  17.797  24.656  1.00  0.00     0.087 A 
ENDBRANCH  15  16
ENDBRANCH  13  15
ENDBRANCH   7  11
ENDBRANCH   3   6
ENDBRANCH   1   2
BRANCH   1  24
ATOM     24  C   UNL A   1      31.703  31.800  26.557  1.00  0.00     0.042 C 
BRANCH  24  25
ATOM     25  C   UNL A   1      32.842  32.539  27.254  1.00  0.00     0.118 C 
BRANCH  25  26
ATOM     26  N   UNL A   1      32.512  33.921  27.580  1.00  0.00    -0.352 N 
ATOM     27  C   UNL A   1      33.034  34.767  28.530  1.00  0.00     0.251 C 
ATOM     28  H   UNL A   1      31.797  34.314  27.029  1.00  0.00     0.163 HD
ATOM     29  O   UNL A   1      32.495  35.844  28.754  1.00  0.00    -0.269 OA
BRANCH  27  30
ATOM     30  C   UNL A   1      34.227  34.370  29.307  1.00  0.00     0.039 A 
ATOM     31  C   UNL A   1      34.052  33.855  30.595  1.00  0.00     0.014 A 
ATOM     32  C   UNL A   1      35.511  34.504  28.776  1.00  0.00     0.014 A 
ATOM     33  C   UNL A   1      35.156  33.382  31.309  1.00  0.00     0.010 A 
ATOM     34  C   UNL A   1      36.600  33.962  29.453  1.00  0.00     0.010 A 
ATOM     35  C   UNL A   1      36.431  33.381  30.719  1.00  0.00    -0.014 A 
BRANCH  35  36
ATOM     36  C   UNL A   1      37.593  32.737  31.383  1.00  0.00     0.031 A 
ATOM     37  C   UNL A   1      38.265  31.551  30.754  1.00  0.00     0.074 A 
ATOM     38  C   UNL A   1      37.975  33.160  32.604  1.00  0.00     0.049 A 
ATOM     39  N   UNL A   1      39.204  30.777  31.237  1.00  0.00    -0.248 NA
ATOM     40  C   UNL A   1      37.805  31.167  29.410  1.00  0.00     0.031 C 
ATOM     41  C   UNL A   1      37.373  34.275  33.339  1.00  0.00     0.029 A 
ATOM     42  N   UNL A   1      38.944  32.688  33.456  1.00  0.00    -0.354 N 
ATOM     43  C   UNL A   1      39.434  29.809  30.269  1.00  0.00     0.074 A 
ATOM     44  C   UNL A   1      38.506  30.065  29.188  1.00  0.00     0.031 C 
ATOM     45  C   UNL A   1      37.990  34.407  34.522  1.00  0.00     0.029 A 
ATOM     46  C   UNL A   1      38.994  33.356  34.656  1.00  0.00     0.049 A 
ATOM     47  H   UNL A   1      39.545  31.943  33.228  1.00  0.00     0.167 HD
ATOM     48  C   UNL A   1      40.346  28.808  30.277  1.00  0.00     0.037 A 
ATOM     49  C   UNL A   1      39.745  33.131  35.752  1.00  0.00     0.037 A 
ATOM     50  C   UNL A   1      41.278  28.571  31.349  1.00  0.00     0.049 A 
ATOM     51  C   UNL A   1      40.728  31.991  35.746  1.00  0.00     0.074 A 
ATOM     52  C   UNL A   1      42.290  27.630  31.418  1.00  0.00     0.029 A 
ATOM     53  N   UNL A   1      41.305  29.275  32.545  1.00  0.00    -0.354 N 
ATOM     54  N   UNL A   1      40.990  31.130  34.794  1.00  0.00    -0.248 NA
ATOM     55  C   UNL A   1      41.519  31.791  36.969  1.00  0.00     0.031 C 
ATOM     56  C   UNL A   1      42.889  27.722  32.677  1.00  0.00     0.029 A 
ATOM     57  C   UNL A   1      42.291  28.762  33.373  1.00  0.00     0.049 A 
ATOM     58  H   UNL A   1      40.712  30.027  32.771  1.00  0.00     0.167 HD
ATOM     59  C   UNL A   1      41.988  30.303  35.290  1.00  0.00     0.074 A 
ATOM     60  C   UNL A   1      42.298  30.776  36.622  1.00  0.00     0.031 C 
ATOM     61  C   UNL A   1      42.592  29.245  34.696  1.00  0.00     0.037 A 
BRANCH  48  62
ATOM     62  C   UNL A   1      40.381  27.886  29.094  1.00  0.00     0.064 A 
ATOM     63  C   UNL A   1      39.633  26.700  29.060  1.00  0.00     0.173 A 
ATOM     64  C   UNL A   1      41.133  28.219  27.956  1.00  0.00     0.173 A 
ATOM     65  F   UNL A   1      38.903  26.331  30.123  1.00  0.00    -0.203 F 
ATOM     66  C   UNL A   1      39.656  25.868  27.943  1.00  0.00     0.198 A 
ATOM     67  C   UNL A   1      41.129  27.400  26.829  1.00  0.00     0.198 A 
ATOM     68  F   UNL A   1      41.860  29.345  27.930  1.00  0.00    -0.203 F 
ATOM     69  F   UNL A   1      38.969  24.717  27.952  1.00  0.00    -0.200 F 
ATOM     70  C   UNL A   1      40.397  26.223  26.826  1.00  0.00     0.200 A 
ATOM     71  F   UNL A   1      41.833  27.753  25.744  1.00  0.00    -0.200 F 
ATOM     72  F   UNL A   1      40.410  25.427  25.748  1.00  0.00    -0.200 F 
ENDBRANCH  48  62
BRANCH  49  73
ATOM     73  C   UNL A   1      39.592  34.000  36.948  1.00  0.00     0.064 A 
ATOM     74  C   UNL A   1      38.771  33.617  38.018  1.00  0.00     0.173 A 
ATOM     75  C   UNL A   1      40.254  35.233  37.045  1.00  0.00     0.173 A 
ATOM     76  F   UNL A   1      38.099  32.458  37.962  1.00  0.00    -0.203 F 
ATOM     77  C   UNL A   1      38.601  34.442  39.127  1.00  0.00     0.198 A 
ATOM     78  C   UNL A   1      40.109  36.043  38.170  1.00  0.00     0.198 A 
ATOM     79  F   UNL A   1      41.055  35.646  36.052  1.00  0.00    -0.203 F 
ATOM     80  F   UNL A   1      37.771  34.073  40.112  1.00  0.00    -0.200 F 
ATOM     81  C   UNL A   1      39.275  35.651  39.206  1.00  0.00     0.200 A 
ATOM     82  F   UNL A   1      40.775  37.203  38.249  1.00  0.00    -0.200 F 
ATOM     83  F   UNL A   1      39.115  36.442  40.276  1.00  0.00    -0.200 F 
ENDBRANCH  49  73
BRANCH  61  84
ATOM     84  C   UNL A   1      43.667  28.538  35.468  1.00  0.00     0.064 A 
ATOM     85  C   UNL A   1      43.368  27.503  36.366  1.00  0.00     0.173 A 
ATOM     86  C   UNL A   1      45.018  28.859  35.262  1.00  0.00     0.173 A 
ATOM     87  F   UNL A   1      42.092  27.169  36.611  1.00  0.00    -0.203 F 
ATOM     88  C   UNL A   1      44.381  26.827  37.043  1.00  0.00     0.198 A 
ATOM     89  C   UNL A   1      46.029  28.160  35.915  1.00  0.00     0.198 A 
ATOM     90  F   UNL A   1      45.358  29.837  34.409  1.00  0.00    -0.203 F 
ATOM     91  F   UNL A   1      44.070  25.870  37.926  1.00  0.00    -0.200 F 
ATOM     92  C   UNL A   1      45.710  27.149  36.809  1.00  0.00     0.200 A 
ATOM     93  F   UNL A   1      47.312  28.462  35.677  1.00  0.00    -0.200 F 
ATOM     94  F   UNL A   1      46.683  26.487  37.450  1.00  0.00    -0.200 F 
ENDBRANCH  61  84
ENDBRANCH  35  36
ENDBRANCH  27  30
ENDBRANCH  25  26
ENDBRANCH  24  25
ENDBRANCH   1  24
TORSDOF 13
ENDMDL
MODEL 3
REMARK VINA RESULT:     -12.3      5.671     11.256
REMARK SMILES O=C(Cc1cn2ccsc2n1)N[C@@H]1C=C[C@H](C(=O)NCCCNC(=O)c2ccc(-c3c4nc(c(-c5c(F)c(F)c(F)c(F)c5F)c5ccc([nH]5)c(-c5c(F)c(F)c(F)c(F)c5F)c5nc(c(-c6c(F)c(F)c(F)c(F)c6F)c6ccc3[nH]6)C=C5)C=C4)cc2)C1
REMARK SMILES IDX 20 1 19 2 17 3 18 4 16 6 13 7 14 8 89 9 15 10 12 11 1 12
REMARK SMILES IDX 2 13 3 15 4 16 5 17 11 18 6 19 10 20 7 21 9 22 8 23 21 24
REMARK SMILES IDX 22 25 23 26 24 27 25 29 26 30 27 31 88 32 28 33 87 34 29 35
REMARK SMILES IDX 30 36 31 37 81 38 32 39 86 40 80 41 82 42 33 43 85 44 79 45
REMARK SMILES IDX 78 46 34 48 66 49 46 50 65 51 47 52 50 53 64 54 83 55 48 56
REMARK SMILES IDX 49 57 63 59 84 60 51 61 35 62 36 63 44 64 37 65 38 66 42 67
REMARK SMILES IDX 45 68 39 69 40 70 43 71 41 72 67 73 68 74 76 75 69 76 70 77
REMARK SMILES IDX 74 78 77 79 71 80 72 81 75 82 73 83 52 84 53 85 61 86 54 87
REMARK SMILES IDX 55 88 59 89 62 90 56 91 57 92 60 93 58 94
REMARK H PARENT 19 5 12 14 23 28 82 47 50 58
REMARK Flexibility Score: inf
ROOT
ATOM      1  C   UNL A   1      37.456  21.405  24.646  1.00  0.00     0.117 C 
ENDROOT
BRANCH   1   2
ATOM      2  N   UNL A   1      36.484  21.813  25.642  1.00  0.00    -0.356 N 
ATOM      3  C   UNL A   1      35.179  21.448  25.805  1.00  0.00     0.227 C 
ATOM      4  O   UNL A   1      34.665  21.700  26.898  1.00  0.00    -0.274 OA
ATOM      5  H   UNL A   1      36.819  22.456  26.308  1.00  0.00     0.163 HD
BRANCH   3   6
ATOM      6  C   UNL A   1      34.441  20.721  24.677  1.00  0.00     0.103 C 
ATOM      7  C   UNL A   1      32.187  21.598  24.255  1.00  0.00     0.106 C 
ATOM      8  C   UNL A   1      32.153  20.297  25.001  1.00  0.00    -0.006 C 
ATOM      9  C   UNL A   1      33.640  21.662  23.771  1.00  0.00     0.047 C 
ATOM     10  C   UNL A   1      33.380  19.821  25.238  1.00  0.00    -0.016 C 
BRANCH   7  11
ATOM     11  N   UNL A   1      31.675  22.604  25.154  1.00  0.00    -0.350 N 
ATOM     12  O   UNL A   1      30.684  24.126  23.709  1.00  0.00    -0.275 OA
ATOM     13  C   UNL A   1      30.968  23.746  24.840  1.00  0.00     0.226 C 
ATOM     14  H   UNL A   1      31.854  22.456  26.111  1.00  0.00     0.164 HD
BRANCH  13  15
ATOM     15  C   UNL A   1      30.489  24.503  26.071  1.00  0.00     0.157 C 
BRANCH  15  16
ATOM     16  C   UNL A   1      31.348  25.698  26.305  1.00  0.00     0.070 A 
ATOM     17  C   UNL A   1      32.700  25.864  26.018  1.00  0.00     0.118 A 
ATOM     18  N   UNL A   1      30.819  26.851  26.876  1.00  0.00    -0.223 NA
ATOM     19  N   UNL A   1      32.958  27.163  26.336  1.00  0.00    -0.297 N 
ATOM     20  C   UNL A   1      31.806  27.697  26.826  1.00  0.00     0.193 A 
ATOM     21  C   UNL A   1      34.028  28.024  26.273  1.00  0.00     0.104 A 
ATOM     22  S   UNL A   1      32.006  29.372  27.228  1.00  0.00    -0.105 S 
ATOM     23  C   UNL A   1      33.697  29.253  26.704  1.00  0.00     0.087 A 
ENDBRANCH  15  16
ENDBRANCH  13  15
ENDBRANCH   7  11
ENDBRANCH   3   6
ENDBRANCH   1   2
BRANCH   1  24
ATOM     24  C   UNL A   1      38.160  20.103  25.001  1.00  0.00     0.042 C 
BRANCH  24  25
ATOM     25  C   UNL A   1      39.235  20.241  26.075  1.00  0.00     0.118 C 
BRANCH  25  26
ATOM     26  N   UNL A   1      40.242  19.188  26.016  1.00  0.00    -0.352 N 
ATOM     27  C   UNL A   1      41.614  19.255  26.082  1.00  0.00     0.251 C 
ATOM     28  H   UNL A   1      39.880  18.278  25.910  1.00  0.00     0.163 HD
ATOM     29  O   UNL A   1      42.287  18.261  25.841  1.00  0.00    -0.269 OA
BRANCH  27  30
ATOM     30  C   UNL A   1      42.283  20.531  26.415  1.00  0.00     0.039 A 
ATOM     31  C   UNL A   1      42.792  21.315  25.376  1.00  0.00     0.014 A 
ATOM     32  C   UNL A   1      42.411  20.953  27.739  1.00  0.00     0.014 A 
ATOM     33  C   UNL A   1      43.339  22.569  25.658  1.00  0.00     0.010 A 
ATOM     34  C   UNL A   1      42.885  22.234  28.013  1.00  0.00     0.010 A 
ATOM     35  C   UNL A   1      43.338  23.061  26.974  1.00  0.00    -0.014 A 
BRANCH  35  36
ATOM     36  C   UNL A   1      43.759  24.451  27.284  1.00  0.00     0.031 A 
ATOM     37  C   UNL A   1      42.755  25.460  27.762  1.00  0.00     0.074 A 
ATOM     38  C   UNL A   1      45.029  24.828  27.036  1.00  0.00     0.049 A 
ATOM     39  N   UNL A   1      42.901  26.746  27.958  1.00  0.00    -0.248 NA
ATOM     40  C   UNL A   1      41.396  24.963  28.031  1.00  0.00     0.031 C 
ATOM     41  C   UNL A   1      46.087  23.951  26.531  1.00  0.00     0.029 A 
ATOM     42  N   UNL A   1      45.641  26.052  27.150  1.00  0.00    -0.354 N 
ATOM     43  C   UNL A   1      41.656  27.213  28.356  1.00  0.00     0.074 A 
ATOM     44  C   UNL A   1      40.754  26.082  28.331  1.00  0.00     0.031 C 
ATOM     45  C   UNL A   1      47.217  24.660  26.388  1.00  0.00     0.029 A 
ATOM     46  C   UNL A   1      46.953  26.052  26.740  1.00  0.00     0.049 A 
ATOM     47  H   UNL A   1      45.184  26.853  27.493  1.00  0.00     0.167 HD
ATOM     48  C   UNL A   1      41.304  28.468  28.724  1.00  0.00     0.037 A 
ATOM     49  C   UNL A   1      47.836  27.063  26.632  1.00  0.00     0.037 A 
ATOM     50  C   UNL A   1      42.212  29.584  28.764  1.00  0.00     0.049 A 
ATOM     51  C   UNL A   1      47.408  28.454  27.016  1.00  0.00     0.074 A 
ATOM     52  C   UNL A   1      41.969  30.877  29.193  1.00  0.00     0.029 A 
ATOM     53  N   UNL A   1      43.536  29.543  28.350  1.00  0.00    -0.354 N 
ATOM     54  N   UNL A   1      46.250  28.869  27.464  1.00  0.00    -0.248 NA
ATOM     55  C   UNL A   1      48.412  29.519  26.876  1.00  0.00     0.031 C 
ATOM     56  C   UNL A   1      43.126  31.633  28.981  1.00  0.00     0.029 A 
ATOM     57  C   UNL A   1      44.110  30.798  28.477  1.00  0.00     0.049 A 
ATOM     58  H   UNL A   1      43.999  28.741  28.015  1.00  0.00     0.167 HD
ATOM     59  C   UNL A   1      46.389  30.233  27.682  1.00  0.00     0.074 A 
ATOM     60  C   UNL A   1      47.752  30.574  27.334  1.00  0.00     0.031 C 
ATOM     61  C   UNL A   1      45.470  31.123  28.129  1.00  0.00     0.037 A 
BRANCH  48  62
ATOM     62  C   UNL A   1      39.873  28.708  29.107  1.00  0.00     0.064 A 
ATOM     63  C   UNL A   1      39.426  28.550  30.428  1.00  0.00     0.173 A 
ATOM     64  C   UNL A   1      38.946  29.153  28.151  1.00  0.00     0.173 A 
ATOM     65  F   UNL A   1      40.268  28.120  31.379  1.00  0.00    -0.203 F 
ATOM     66  C   UNL A   1      38.100  28.803  30.771  1.00  0.00     0.198 A 
ATOM     67  C   UNL A   1      37.629  29.434  28.504  1.00  0.00     0.198 A 
ATOM     68  F   UNL A   1      39.321  29.328  26.875  1.00  0.00    -0.203 F 
ATOM     69  F   UNL A   1      37.686  28.601  32.029  1.00  0.00    -0.200 F 
ATOM     70  C   UNL A   1      37.205  29.252  29.812  1.00  0.00     0.200 A 
ATOM     71  F   UNL A   1      36.770  29.884  27.579  1.00  0.00    -0.200 F 
ATOM     72  F   UNL A   1      35.932  29.505  30.146  1.00  0.00    -0.200 F 
ENDBRANCH  48  62
BRANCH  49  73
ATOM     73  C   UNL A   1      49.212  26.798  26.134  1.00  0.00     0.064 A 
ATOM     74  C   UNL A   1      49.536  26.979  24.782  1.00  0.00     0.173 A 
ATOM     75  C   UNL A   1      50.227  26.352  26.993  1.00  0.00     0.173 A 
ATOM     76  F   UNL A   1      48.594  27.383  23.917  1.00  0.00    -0.203 F 
ATOM     77  C   UNL A   1      50.816  26.703  24.305  1.00  0.00     0.198 A 
ATOM     78  C   UNL A   1      51.515  26.107  26.521  1.00  0.00     0.198 A 
ATOM     79  F   UNL A   1      49.971  26.166  28.296  1.00  0.00    -0.203 F 
ATOM     80  F   UNL A   1      51.084  26.837  23.000  1.00  0.00    -0.200 F 
ATOM     81  C   UNL A   1      51.806  26.274  25.176  1.00  0.00     0.200 A 
ATOM     82  F   UNL A   1      52.473  25.707  27.369  1.00  0.00    -0.200 F 
ATOM     83  F   UNL A   1      53.038  26.013  24.717  1.00  0.00    -0.200 F 
ENDBRANCH  49  73
BRANCH  61  84
ATOM     84  C   UNL A   1      45.909  32.549  28.292  1.00  0.00     0.064 A 
ATOM     85  C   UNL A   1      45.748  33.490  27.265  1.00  0.00     0.173 A 
ATOM     86  C   UNL A   1      46.443  32.993  29.512  1.00  0.00     0.173 A 
ATOM     87  F   UNL A   1      45.258  33.112  26.074  1.00  0.00    -0.203 F 
ATOM     88  C   UNL A   1      46.121  34.820  27.447  1.00  0.00     0.198 A 
ATOM     89  C   UNL A   1      46.784  34.329  29.702  1.00  0.00     0.198 A 
ATOM     90  F   UNL A   1      46.612  32.134  30.529  1.00  0.00    -0.203 F 
ATOM     91  F   UNL A   1      45.995  35.692  26.439  1.00  0.00    -0.200 F 
ATOM     92  C   UNL A   1      46.628  35.239  28.668  1.00  0.00     0.200 A 
ATOM     93  F   UNL A   1      47.260  34.736  30.887  1.00  0.00    -0.200 F 
ATOM     94  F   UNL A   1      46.972  36.523  28.846  1.00  0.00    -0.200 F 
ENDBRANCH  61  84
ENDBRANCH  35  36
ENDBRANCH  27  30
ENDBRANCH  25  26
ENDBRANCH  24  25
ENDBRANCH   1  24
TORSDOF 13
ENDMDL
