MODEL 1
REMARK VINA RESULT:     -14.3      0.000      0.000
REMARK SMILES COc1cc(C)cc2c1[C@@H](C)[C@@H](CC(=O)N[C@@H](Cc1c[nH]c3ccccc13)C(=O)NCCCNC(=O)c1ccc(-c3c4nc(c(-c5c(F)c(F)c(F)c(F)c5F)c5ccc([nH]5)c(-c5c(F)c(F)c(F)c(F)c5F)c5nc(c(-c6c(F)c(F)c(F)c(F)c6F)c6ccc3[nH]6)C=C5)C=C4)cc1)C(=O)O2
REMARK SMILES IDX 31 1 30 2 28 3 29 4 17 6 16 7 14 8 15 9 13 11 12 12 3 13
REMARK SMILES IDX 4 14 9 15 5 16 8 17 10 18 6 19 7 20 102 21 11 22 100 23
REMARK SMILES IDX 101 24 2 25 1 26 18 27 19 28 20 29 27 30 21 31 22 32 26 33
REMARK SMILES IDX 23 35 25 36 24 37 32 38 33 39 34 40 35 41 36 43 37 44 38 45
REMARK SMILES IDX 99 46 39 47 98 48 40 49 41 50 42 51 92 52 43 53 97 54 91 55
REMARK SMILES IDX 93 56 44 57 96 58 90 59 89 60 45 62 77 63 57 64 76 65 58 66
REMARK SMILES IDX 61 67 75 68 94 69 59 70 60 71 74 73 95 74 62 75 46 76 47 77
REMARK SMILES IDX 55 78 48 79 49 80 53 81 56 82 50 83 51 84 54 85 52 86 78 87
REMARK SMILES IDX 79 88 87 89 80 90 81 91 85 92 88 93 82 94 83 95 86 96 84 97
REMARK SMILES IDX 63 98 64 99 72 100 65 101 66 102 70 103 73 104 67 105 68 106
REMARK SMILES IDX 71 107 69 108
REMARK H PARENT 30 5 16 10 21 34 34 42 93 61 61 72
REMARK Flexibility Score: inf
ROOT
ATOM      1  C   UNL A   1      37.214  20.699  24.509  1.00  0.00     0.117 C 
ENDROOT
BRANCH   1   2
ATOM      2  N   UNL A   1      36.847  21.602  25.571  1.00  0.00    -0.354 N 
ATOM      3  C   UNL A   1      35.874  22.542  25.608  1.00  0.00     0.242 C 
ATOM      4  O   UNL A   1      35.958  23.370  26.526  1.00  0.00    -0.273 OA
ATOM      5  H   UNL A   1      37.384  21.523  26.392  1.00  0.00     0.163 HD
BRANCH   3   6
ATOM      6  C   UNL A   1      34.673  22.595  24.639  1.00  0.00     0.175 C 
BRANCH   6   7
ATOM      7  N   UNL A   1      34.782  23.552  23.552  1.00  0.00    -0.344 N 
ATOM      8  C   UNL A   1      33.875  24.540  23.275  1.00  0.00     0.221 C 
ATOM      9  O   UNL A   1      33.682  24.870  22.108  1.00  0.00    -0.275 OA
ATOM     10  H   UNL A   1      35.572  23.486  22.968  1.00  0.00     0.164 HD
BRANCH   8  11
ATOM     11  C   UNL A   1      33.248  25.301  24.436  1.00  0.00     0.116 C 
BRANCH  11  12
ATOM     12  C   UNL A   1      31.739  25.107  24.731  1.00  0.00     0.116 C 
ATOM     13  C   UNL A   1      31.231  28.854  24.563  1.00  0.00     0.126 A 
ATOM     14  C   UNL A   1      31.798  29.908  25.302  1.00  0.00     0.050 A 
ATOM     15  C   UNL A   1      31.307  27.540  25.028  1.00  0.00     0.041 A 
ATOM     16  C   UNL A   1      32.461  29.671  26.515  1.00  0.00    -0.044 A 
ATOM     17  C   UNL A   1      31.858  27.355  26.308  1.00  0.00     0.138 A 
ATOM     18  C   UNL A   1      30.859  26.299  24.262  1.00  0.00     0.038 C 
ATOM     19  C   UNL A   1      33.096  30.798  27.273  1.00  0.00     0.044 C 
ATOM     20  C   UNL A   1      32.454  28.382  27.037  1.00  0.00     0.051 A 
ATOM     21  O   UNL A   1      31.805  26.108  26.953  1.00  0.00    -0.426 OA
ATOM     22  C   UNL A   1      30.860  26.371  22.732  1.00  0.00     0.014 C 
ATOM     23  C   UNL A   1      31.383  25.033  26.199  1.00  0.00     0.315 C 
ATOM     24  O   UNL A   1      30.775  24.097  26.708  1.00  0.00    -0.251 OA
BRANCH  13  25
ATOM     25  O   UNL A   1      30.488  29.100  23.442  1.00  0.00    -0.496 OA
ATOM     26  C   UNL A   1      29.555  30.164  23.597  1.00  0.00     0.278 C 
ENDBRANCH  13  25
ENDBRANCH  11  12
ENDBRANCH   8  11
ENDBRANCH   6   7
BRANCH   6  27
ATOM     27  C   UNL A   1      33.806  21.404  24.265  1.00  0.00     0.072 C 
BRANCH  27  28
ATOM     28  C   UNL A   1      33.674  20.076  24.961  1.00  0.00    -0.020 A 
ATOM     29  C   UNL A   1      33.296  20.083  26.297  1.00  0.00     0.087 A 
ATOM     30  C   UNL A   1      33.646  18.688  24.552  1.00  0.00     0.003 A 
ATOM     31  N   UNL A   1      32.780  18.866  26.605  1.00  0.00    -0.361 N 
ATOM     32  C   UNL A   1      33.109  17.966  25.628  1.00  0.00     0.046 A 
ATOM     33  C   UNL A   1      33.958  17.934  23.396  1.00  0.00     0.010 A 
ATOM     34  H   UNL A   1      32.251  18.661  27.410  1.00  0.00     0.166 HD
ATOM     35  C   UNL A   1      32.910  16.580  25.625  1.00  0.00     0.026 A 
ATOM     36  C   UNL A   1      33.806  16.535  23.391  1.00  0.00     0.001 A 
ATOM     37  C   UNL A   1      33.297  15.868  24.496  1.00  0.00     0.002 A 
ENDBRANCH  27  28
ENDBRANCH   6  27
ENDBRANCH   3   6
ENDBRANCH   1   2
BRANCH   1  38
ATOM     38  C   UNL A   1      38.085  19.575  25.048  1.00  0.00     0.042 C 
BRANCH  38  39
ATOM     39  C   UNL A   1      39.252  20.106  25.863  1.00  0.00     0.118 C 
BRANCH  39  40
ATOM     40  N   UNL A   1      40.341  19.137  25.941  1.00  0.00    -0.352 N 
ATOM     41  C   UNL A   1      41.686  19.344  26.085  1.00  0.00     0.251 C 
ATOM     42  H   UNL A   1      40.068  18.193  25.880  1.00  0.00     0.163 HD
ATOM     43  O   UNL A   1      42.476  18.421  25.866  1.00  0.00    -0.269 OA
BRANCH  41  44
ATOM     44  C   UNL A   1      42.188  20.667  26.496  1.00  0.00     0.039 A 
ATOM     45  C   UNL A   1      42.310  20.982  27.849  1.00  0.00     0.014 A 
ATOM     46  C   UNL A   1      42.553  21.600  25.521  1.00  0.00     0.014 A 
ATOM     47  C   UNL A   1      42.617  22.278  28.227  1.00  0.00     0.010 A 
ATOM     48  C   UNL A   1      42.987  22.869  25.908  1.00  0.00     0.010 A 
ATOM     49  C   UNL A   1      42.984  23.230  27.264  1.00  0.00    -0.014 A 
BRANCH  49  50
ATOM     50  C   UNL A   1      43.388  24.583  27.721  1.00  0.00     0.031 A 
ATOM     51  C   UNL A   1      44.832  24.995  27.725  1.00  0.00     0.074 A 
ATOM     52  C   UNL A   1      42.424  25.460  28.063  1.00  0.00     0.049 A 
ATOM     53  N   UNL A   1      45.355  26.152  28.047  1.00  0.00    -0.248 NA
ATOM     54  C   UNL A   1      45.822  23.983  27.323  1.00  0.00     0.031 C 
ATOM     55  C   UNL A   1      40.989  25.162  28.087  1.00  0.00     0.029 A 
ATOM     56  N   UNL A   1      42.491  26.784  28.412  1.00  0.00    -0.354 N 
ATOM     57  C   UNL A   1      46.726  26.002  27.902  1.00  0.00     0.074 A 
ATOM     58  C   UNL A   1      46.964  24.632  27.502  1.00  0.00     0.031 C 
ATOM     59  C   UNL A   1      40.310  26.287  28.350  1.00  0.00     0.029 A 
ATOM     60  C   UNL A   1      41.259  27.365  28.596  1.00  0.00     0.049 A 
ATOM     61  H   UNL A   1      43.340  27.272  28.520  1.00  0.00     0.167 HD
ATOM     62  C   UNL A   1      47.695  26.933  28.070  1.00  0.00     0.037 A 
ATOM     63  C   UNL A   1      40.929  28.624  28.937  1.00  0.00     0.037 A 
ATOM     64  C   UNL A   1      47.441  28.299  28.444  1.00  0.00     0.049 A 
ATOM     65  C   UNL A   1      42.028  29.620  29.168  1.00  0.00     0.074 A 
ATOM     66  C   UNL A   1      48.352  29.325  28.625  1.00  0.00     0.029 A 
ATOM     67  N   UNL A   1      46.184  28.833  28.690  1.00  0.00    -0.354 N 
ATOM     68  N   UNL A   1      43.321  29.469  29.017  1.00  0.00    -0.248 NA
ATOM     69  C   UNL A   1      41.628  30.955  29.628  1.00  0.00     0.031 C 
ATOM     70  C   UNL A   1      47.652  30.464  29.030  1.00  0.00     0.029 A 
ATOM     71  C   UNL A   1      46.298  30.166  29.046  1.00  0.00     0.049 A 
ATOM     72  H   UNL A   1      45.336  28.336  28.621  1.00  0.00     0.167 HD
ATOM     73  C   UNL A   1      43.889  30.689  29.348  1.00  0.00     0.074 A 
ATOM     74  C   UNL A   1      42.797  31.578  29.690  1.00  0.00     0.031 C 
ATOM     75  C   UNL A   1      45.197  31.038  29.372  1.00  0.00     0.037 A 
BRANCH  62  76
ATOM     76  C   UNL A   1      49.121  26.515  27.853  1.00  0.00     0.064 A 
ATOM     77  C   UNL A   1      49.670  26.413  26.566  1.00  0.00     0.173 A 
ATOM     78  C   UNL A   1      49.970  26.287  28.947  1.00  0.00     0.173 A 
ATOM     79  F   UNL A   1      48.900  26.610  25.485  1.00  0.00    -0.203 F 
ATOM     80  C   UNL A   1      51.011  26.084  26.383  1.00  0.00     0.198 A 
ATOM     81  C   UNL A   1      51.317  25.987  28.761  1.00  0.00     0.198 A 
ATOM     82  F   UNL A   1      49.499  26.377  30.200  1.00  0.00    -0.203 F 
ATOM     83  F   UNL A   1      51.504  25.957  25.143  1.00  0.00    -0.200 F 
ATOM     84  C   UNL A   1      51.836  25.882  27.479  1.00  0.00     0.200 A 
ATOM     85  F   UNL A   1      52.116  25.809  29.822  1.00  0.00    -0.200 F 
ATOM     86  F   UNL A   1      53.131  25.584  27.301  1.00  0.00    -0.200 F 
ENDBRANCH  62  76
BRANCH  63  87
ATOM     87  C   UNL A   1      39.497  28.999  29.066  1.00  0.00     0.064 A 
ATOM     88  C   UNL A   1      38.750  29.383  27.945  1.00  0.00     0.173 A 
ATOM     89  C   UNL A   1      38.833  28.937  30.302  1.00  0.00     0.173 A 
ATOM     90  F   UNL A   1      39.341  29.474  26.745  1.00  0.00    -0.203 F 
ATOM     91  C   UNL A   1      37.396  29.695  28.055  1.00  0.00     0.198 A 
ATOM     92  C   UNL A   1      37.473  29.216  30.405  1.00  0.00     0.198 A 
ATOM     93  F   UNL A   1      39.501  28.568  31.405  1.00  0.00    -0.203 F 
ATOM     94  F   UNL A   1      36.711  30.087  26.973  1.00  0.00    -0.200 F 
ATOM     95  C   UNL A   1      36.756  29.600  29.283  1.00  0.00     0.200 A 
ATOM     96  F   UNL A   1      36.856  29.101  31.589  1.00  0.00    -0.200 F 
ATOM     97  F   UNL A   1      35.450  29.880  29.385  1.00  0.00    -0.200 F 
ENDBRANCH  63  87
BRANCH  75  98
ATOM     98  C   UNL A   1      45.535  32.446  29.761  1.00  0.00     0.064 A 
ATOM     99  C   UNL A   1      45.566  33.477  28.811  1.00  0.00     0.173 A 
ATOM    100  C   UNL A   1      45.722  32.783  31.110  1.00  0.00     0.173 A 
ATOM    101  F   UNL A   1      45.406  33.201  27.509  1.00  0.00    -0.203 F 
ATOM    102  C   UNL A   1      45.776  34.797  29.199  1.00  0.00     0.198 A 
ATOM    103  C   UNL A   1      45.903  34.108  31.496  1.00  0.00     0.198 A 
ATOM    104  F   UNL A   1      45.692  31.833  32.055  1.00  0.00    -0.203 F 
ATOM    105  F   UNL A   1      45.826  35.765  28.274  1.00  0.00    -0.200 F 
ATOM    106  C   UNL A   1      45.930  35.112  30.542  1.00  0.00     0.200 A 
ATOM    107  F   UNL A   1      46.032  34.413  32.795  1.00  0.00    -0.200 F 
ATOM    108  F   UNL A   1      46.104  36.388  30.916  1.00  0.00    -0.200 F 
ENDBRANCH  75  98
ENDBRANCH  49  50
ENDBRANCH  41  44
ENDBRANCH  39  40
ENDBRANCH  38  39
ENDBRANCH   1  38
TORSDOF 16
ENDMDL
MODEL 2
REMARK VINA RESULT:     -14.2      4.865     10.882
REMARK SMILES COc1cc(C)cc2c1[C@@H](C)[C@@H](CC(=O)N[C@@H](Cc1c[nH]c3ccccc13)C(=O)NCCCNC(=O)c1ccc(-c3c4nc(c(-c5c(F)c(F)c(F)c(F)c5F)c5ccc([nH]5)c(-c5c(F)c(F)c(F)c(F)c5F)c5nc(c(-c6c(F)c(F)c(F)c(F)c6F)c6ccc3[nH]6)C=C5)C=C4)cc1)C(=O)O2
REMARK SMILES IDX 31 1 30 2 28 3 29 4 17 6 16 7 14 8 15 9 13 11 12 12 3 13
REMARK SMILES IDX 4 14 9 15 5 16 8 17 10 18 6 19 7 20 102 21 11 22 100 23
REMARK SMILES IDX 101 24 2 25 1 26 18 27 19 28 20 29 27 30 21 31 22 32 26 33
REMARK SMILES IDX 23 35 25 36 24 37 32 38 33 39 34 40 35 41 36 43 37 44 38 45
REMARK SMILES IDX 99 46 39 47 98 48 40 49 41 50 42 51 92 52 43 53 97 54 91 55
REMARK SMILES IDX 93 56 44 57 96 58 90 59 89 60 45 62 77 63 57 64 76 65 58 66
REMARK SMILES IDX 61 67 75 68 94 69 59 70 60 71 74 73 95 74 62 75 46 76 47 77
REMARK SMILES IDX 55 78 48 79 49 80 53 81 56 82 50 83 51 84 54 85 52 86 78 87
REMARK SMILES IDX 79 88 87 89 80 90 81 91 85 92 88 93 82 94 83 95 86 96 84 97
REMARK SMILES IDX 63 98 64 99 72 100 65 101 66 102 70 103 73 104 67 105 68 106
REMARK SMILES IDX 71 107 69 108
REMARK H PARENT 30 5 16 10 21 34 34 42 93 61 61 72
REMARK Flexibility Score: inf
ROOT
ATOM      1  C   UNL A   1      31.421  30.734  26.547  1.00  0.00     0.117 C 
ENDROOT
BRANCH   1   2
ATOM      2  N   UNL A   1      32.694  30.234  26.089  1.00  0.00    -0.354 N 
ATOM      3  C   UNL A   1      33.052  28.977  25.734  1.00  0.00     0.242 C 
ATOM      4  O   UNL A   1      34.270  28.765  25.657  1.00  0.00    -0.273 OA
ATOM      5  H   UNL A   1      33.409  30.907  26.024  1.00  0.00     0.163 HD
BRANCH   3   6
ATOM      6  C   UNL A   1      32.056  27.854  25.373  1.00  0.00     0.175 C 
BRANCH   6   7
ATOM      7  N   UNL A   1      31.810  26.870  26.413  1.00  0.00    -0.344 N 
ATOM      8  C   UNL A   1      31.895  25.514  26.253  1.00  0.00     0.221 C 
ATOM      9  O   UNL A   1      31.138  24.783  26.887  1.00  0.00    -0.275 OA
ATOM     10  H   UNL A   1      31.564  27.206  27.305  1.00  0.00     0.164 HD
BRANCH   8  11
ATOM     11  C   UNL A   1      33.029  24.948  25.407  1.00  0.00     0.116 C 
BRANCH  11  12
ATOM     12  C   UNL A   1      32.722  24.470  23.965  1.00  0.00     0.116 C 
ATOM     13  C   UNL A   1      34.506  21.208  24.675  1.00  0.00     0.126 A 
ATOM     14  C   UNL A   1      35.828  20.933  25.068  1.00  0.00     0.050 A 
ATOM     15  C   UNL A   1      34.170  22.453  24.141  1.00  0.00     0.041 A 
ATOM     16  C   UNL A   1      36.839  21.897  24.946  1.00  0.00    -0.044 A 
ATOM     17  C   UNL A   1      35.230  23.347  23.907  1.00  0.00     0.138 A 
ATOM     18  C   UNL A   1      32.758  22.924  23.806  1.00  0.00     0.038 C 
ATOM     19  C   UNL A   1      38.236  21.604  25.407  1.00  0.00     0.044 C 
ATOM     20  C   UNL A   1      36.537  23.103  24.323  1.00  0.00     0.051 A 
ATOM     21  O   UNL A   1      35.034  24.542  23.197  1.00  0.00    -0.426 OA
ATOM     22  C   UNL A   1      31.597  22.297  24.586  1.00  0.00     0.014 C 
ATOM     23  C   UNL A   1      33.731  24.901  22.924  1.00  0.00     0.315 C 
ATOM     24  O   UNL A   1      33.441  25.528  21.911  1.00  0.00    -0.251 OA
BRANCH  13  25
ATOM     25  O   UNL A   1      33.549  20.231  24.687  1.00  0.00    -0.496 OA
ATOM     26  C   UNL A   1      34.078  18.912  24.600  1.00  0.00     0.278 C 
ENDBRANCH  13  25
ENDBRANCH  11  12
ENDBRANCH   8  11
ENDBRANCH   6   7
BRANCH   6  27
ATOM     27  C   UNL A   1      30.859  28.020  24.451  1.00  0.00     0.072 C 
BRANCH  27  28
ATOM     28  C   UNL A   1      30.573  29.116  23.460  1.00  0.00    -0.020 A 
ATOM     29  C   UNL A   1      31.375  29.187  22.329  1.00  0.00     0.087 A 
ATOM     30  C   UNL A   1      29.506  30.069  23.247  1.00  0.00     0.003 A 
ATOM     31  N   UNL A   1      30.707  29.881  21.372  1.00  0.00    -0.361 N 
ATOM     32  C   UNL A   1      29.653  30.546  21.936  1.00  0.00     0.046 A 
ATOM     33  C   UNL A   1      28.396  30.572  23.966  1.00  0.00     0.010 A 
ATOM     34  H   UNL A   1      30.946  29.903  20.417  1.00  0.00     0.166 HD
ATOM     35  C   UNL A   1      28.805  31.488  21.340  1.00  0.00     0.026 A 
ATOM     36  C   UNL A   1      27.559  31.552  23.401  1.00  0.00     0.001 A 
ATOM     37  C   UNL A   1      27.769  32.010  22.107  1.00  0.00     0.002 A 
ENDBRANCH  27  28
ENDBRANCH   6  27
ENDBRANCH   3   6
ENDBRANCH   1   2
BRANCH   1  38
ATOM     38  C   UNL A   1      31.425  32.254  26.563  1.00  0.00     0.042 C 
BRANCH  38  39
ATOM     39  C   UNL A   1      32.676  32.809  27.225  1.00  0.00     0.118 C 
BRANCH  39  40
ATOM     40  N   UNL A   1      32.489  34.188  27.663  1.00  0.00    -0.352 N 
ATOM     41  C   UNL A   1      33.063  34.859  28.708  1.00  0.00     0.251 C 
ATOM     42  H   UNL A   1      31.853  34.716  27.127  1.00  0.00     0.163 HD
ATOM     43  O   UNL A   1      32.589  35.934  29.083  1.00  0.00    -0.269 OA
BRANCH  41  44
ATOM     44  C   UNL A   1      34.245  34.294  29.385  1.00  0.00     0.039 A 
ATOM     45  C   UNL A   1      35.527  34.593  28.924  1.00  0.00     0.014 A 
ATOM     46  C   UNL A   1      34.073  33.468  30.499  1.00  0.00     0.014 A 
ATOM     47  C   UNL A   1      36.619  33.927  29.454  1.00  0.00     0.010 A 
ATOM     48  C   UNL A   1      35.188  32.898  31.115  1.00  0.00     0.010 A 
ATOM     49  C   UNL A   1      36.467  33.091  30.572  1.00  0.00    -0.014 A 
BRANCH  49  50
ATOM     50  C   UNL A   1      37.677  32.465  31.160  1.00  0.00     0.031 A 
ATOM     51  C   UNL A   1      38.139  32.832  32.540  1.00  0.00     0.074 A 
ATOM     52  C   UNL A   1      38.310  31.505  30.457  1.00  0.00     0.049 A 
ATOM     53  N   UNL A   1      39.148  32.348  33.224  1.00  0.00    -0.248 NA
ATOM     54  C   UNL A   1      37.385  33.878  33.248  1.00  0.00     0.031 C 
ATOM     55  C   UNL A   1      37.937  31.070  29.108  1.00  0.00     0.029 A 
ATOM     56  N   UNL A   1      39.365  30.694  30.785  1.00  0.00    -0.354 N 
ATOM     57  C   UNL A   1      39.155  33.037  34.428  1.00  0.00     0.074 A 
ATOM     58  C   UNL A   1      38.079  34.003  34.371  1.00  0.00     0.031 C 
ATOM     59  C   UNL A   1      38.693  30.021  28.758  1.00  0.00     0.029 A 
ATOM     60  C   UNL A   1      39.659  29.762  29.819  1.00  0.00     0.049 A 
ATOM     61  H   UNL A   1      39.864  30.772  31.630  1.00  0.00     0.167 HD
ATOM     62  C   UNL A   1      39.976  32.863  35.490  1.00  0.00     0.037 A 
ATOM     63  C   UNL A   1      40.609  28.809  29.784  1.00  0.00     0.037 A 
ATOM     64  C   UNL A   1      41.026  31.881  35.542  1.00  0.00     0.049 A 
ATOM     65  C   UNL A   1      41.538  28.675  30.955  1.00  0.00     0.074 A 
ATOM     66  C   UNL A   1      41.904  31.614  36.578  1.00  0.00     0.029 A 
ATOM     67  N   UNL A   1      41.338  31.000  34.516  1.00  0.00    -0.354 N 
ATOM     68  N   UNL A   1      41.528  29.327  32.093  1.00  0.00    -0.248 NA
ATOM     69  C   UNL A   1      42.617  27.687  30.837  1.00  0.00     0.031 C 
ATOM     70  C   UNL A   1      42.779  30.608  36.160  1.00  0.00     0.029 A 
ATOM     71  C   UNL A   1      42.412  30.207  34.885  1.00  0.00     0.049 A 
ATOM     72  H   UNL A   1      40.866  30.947  33.653  1.00  0.00     0.167 HD
ATOM     73  C   UNL A   1      42.587  28.820  32.831  1.00  0.00     0.074 A 
ATOM     74  C   UNL A   1      43.207  27.792  32.021  1.00  0.00     0.031 C 
ATOM     75  C   UNL A   1      43.008  29.180  34.067  1.00  0.00     0.037 A 
BRANCH  62  76
ATOM     76  C   UNL A   1      39.779  33.748  36.688  1.00  0.00     0.064 A 
ATOM     77  C   UNL A   1      40.356  35.025  36.762  1.00  0.00     0.173 A 
ATOM     78  C   UNL A   1      38.943  33.345  37.740  1.00  0.00     0.173 A 
ATOM     79  F   UNL A   1      41.172  35.455  35.787  1.00  0.00    -0.203 F 
ATOM     80  C   UNL A   1      40.115  35.858  37.851  1.00  0.00     0.198 A 
ATOM     81  C   UNL A   1      38.681  34.192  38.814  1.00  0.00     0.198 A 
ATOM     82  F   UNL A   1      38.361  32.137  37.718  1.00  0.00    -0.203 F 
ATOM     83  F   UNL A   1      40.706  37.059  37.916  1.00  0.00    -0.200 F 
ATOM     84  C   UNL A   1      39.270  35.446  38.871  1.00  0.00     0.200 A 
ATOM     85  F   UNL A   1      37.851  33.798  39.790  1.00  0.00    -0.200 F 
ATOM     86  F   UNL A   1      39.024  36.258  39.909  1.00  0.00    -0.200 F 
ENDBRANCH  62  76
BRANCH  63  87
ATOM     87  C   UNL A   1      40.709  27.914  28.603  1.00  0.00     0.064 A 
ATOM     88  C   UNL A   1      40.004  26.704  28.554  1.00  0.00     0.173 A 
ATOM     89  C   UNL A   1      41.474  28.267  27.479  1.00  0.00     0.173 A 
ATOM     90  F   UNL A   1      39.272  26.313  29.607  1.00  0.00    -0.203 F 
ATOM     91  C   UNL A   1      40.062  25.882  27.431  1.00  0.00     0.198 A 
ATOM     92  C   UNL A   1      41.505  27.461  26.345  1.00  0.00     0.198 A 
ATOM     93  F   UNL A   1      42.164  29.418  27.472  1.00  0.00    -0.203 F 
ATOM     94  F   UNL A   1      39.401  24.717  27.421  1.00  0.00    -0.200 F 
ATOM     95  C   UNL A   1      40.804  26.267  26.323  1.00  0.00     0.200 A 
ATOM     96  F   UNL A   1      42.205  27.849  25.270  1.00  0.00    -0.200 F 
ATOM     97  F   UNL A   1      40.842  25.485  25.235  1.00  0.00    -0.200 F 
ENDBRANCH  63  87
BRANCH  75  98
ATOM     98  C   UNL A   1      44.185  28.450  34.640  1.00  0.00     0.064 A 
ATOM     99  C   UNL A   1      44.028  27.234  35.322  1.00  0.00     0.173 A 
ATOM    100  C   UNL A   1      45.489  28.916  34.412  1.00  0.00     0.173 A 
ATOM    101  F   UNL A   1      42.801  26.756  35.575  1.00  0.00    -0.203 F 
ATOM    102  C   UNL A   1      45.136  26.513  35.757  1.00  0.00     0.198 A 
ATOM    103  C   UNL A   1      46.594  28.177  34.823  1.00  0.00     0.198 A 
ATOM    104  F   UNL A   1      45.689  30.069  33.757  1.00  0.00    -0.203 F 
ATOM    105  F   UNL A   1      44.964  25.365  36.427  1.00  0.00    -0.200 F 
ATOM    106  C   UNL A   1      46.416  26.978  35.495  1.00  0.00     0.200 A 
ATOM    107  F   UNL A   1      47.830  28.618  34.553  1.00  0.00    -0.200 F 
ATOM    108  F   UNL A   1      47.482  26.267  35.890  1.00  0.00    -0.200 F 
ENDBRANCH  75  98
ENDBRANCH  49  50
ENDBRANCH  41  44
ENDBRANCH  39  40
ENDBRANCH  38  39
ENDBRANCH   1  38
TORSDOF 16
ENDMDL
MODEL 3
REMARK VINA RESULT:     -14.2      0.718      1.690
REMARK SMILES COc1cc(C)cc2c1[C@@H](C)[C@@H](CC(=O)N[C@@H](Cc1c[nH]c3ccccc13)C(=O)NCCCNC(=O)c1ccc(-c3c4nc(c(-c5c(F)c(F)c(F)c(F)c5F)c5ccc([nH]5)c(-c5c(F)c(F)c(F)c(F)c5F)c5nc(c(-c6c(F)c(F)c(F)c(F)c6F)c6ccc3[nH]6)C=C5)C=C4)cc1)C(=O)O2
REMARK SMILES IDX 31 1 30 2 28 3 29 4 17 6 16 7 14 8 15 9 13 11 12 12 3 13
REMARK SMILES IDX 4 14 9 15 5 16 8 17 10 18 6 19 7 20 102 21 11 22 100 23
REMARK SMILES IDX 101 24 2 25 1 26 18 27 19 28 20 29 27 30 21 31 22 32 26 33
REMARK SMILES IDX 23 35 25 36 24 37 32 38 33 39 34 40 35 41 36 43 37 44 38 45
REMARK SMILES IDX 99 46 39 47 98 48 40 49 41 50 42 51 92 52 43 53 97 54 91 55
REMARK SMILES IDX 93 56 44 57 96 58 90 59 89 60 45 62 77 63 57 64 76 65 58 66
REMARK SMILES IDX 61 67 75 68 94 69 59 70 60 71 74 73 95 74 62 75 46 76 47 77
REMARK SMILES IDX 55 78 48 79 49 80 53 81 56 82 50 83 51 84 54 85 52 86 78 87
REMARK SMILES IDX 79 88 87 89 80 90 81 91 85 92 88 93 82 94 83 95 86 96 84 97
REMARK SMILES IDX 63 98 64 99 72 100 65 101 66 102 70 103 73 104 67 105 68 106
REMARK SMILES IDX 71 107 69 108
REMARK H PARENT 30 5 16 10 21 34 34 42 93 61 61 72
REMARK Flexibility Score: inf
ROOT
ATOM      1  C   UNL A   1      37.381  21.076  24.480  1.00  0.00     0.117 C 
ENDROOT
BRANCH   1   2
ATOM      2  N   UNL A   1      36.844  21.802  25.604  1.00  0.00    -0.354 N 
ATOM      3  C   UNL A   1      35.750  22.595  25.676  1.00  0.00     0.242 C 
ATOM      4  O   UNL A   1      35.676  23.323  26.677  1.00  0.00    -0.273 OA
ATOM      5  H   UNL A   1      37.348  21.706  26.443  1.00  0.00     0.163 HD
BRANCH   3   6
ATOM      6  C   UNL A   1      34.599  22.595  24.646  1.00  0.00     0.175 C 
BRANCH   6   7
ATOM      7  N   UNL A   1      34.723  23.553  23.562  1.00  0.00    -0.344 N 
ATOM      8  C   UNL A   1      33.824  24.546  23.279  1.00  0.00     0.221 C 
ATOM      9  O   UNL A   1      33.643  24.879  22.110  1.00  0.00    -0.275 OA
ATOM     10  H   UNL A   1      35.518  23.484  22.985  1.00  0.00     0.164 HD
BRANCH   8  11
ATOM     11  C   UNL A   1      33.190  25.308  24.436  1.00  0.00     0.116 C 
BRANCH  11  12
ATOM     12  C   UNL A   1      31.668  25.159  24.687  1.00  0.00     0.116 C 
ATOM     13  C   UNL A   1      31.287  28.923  24.570  1.00  0.00     0.126 A 
ATOM     14  C   UNL A   1      31.868  29.945  25.342  1.00  0.00     0.050 A 
ATOM     15  C   UNL A   1      31.308  27.599  25.014  1.00  0.00     0.041 A 
ATOM     16  C   UNL A   1      32.488  29.666  26.568  1.00  0.00    -0.044 A 
ATOM     17  C   UNL A   1      31.816  27.375  26.305  1.00  0.00     0.138 A 
ATOM     18  C   UNL A   1      30.841  26.387  24.214  1.00  0.00     0.038 C 
ATOM     19  C   UNL A   1      33.139  30.760  27.363  1.00  0.00     0.044 C 
ATOM     20  C   UNL A   1      32.426  28.370  27.067  1.00  0.00     0.051 A 
ATOM     21  O   UNL A   1      31.705  26.121  26.926  1.00  0.00    -0.426 OA
ATOM     22  C   UNL A   1      30.886  26.484  22.687  1.00  0.00     0.014 C 
ATOM     23  C   UNL A   1      31.270  25.072  26.143  1.00  0.00     0.315 C 
ATOM     24  O   UNL A   1      30.618  24.149  26.619  1.00  0.00    -0.251 OA
BRANCH  13  25
ATOM     25  O   UNL A   1      30.583  29.212  23.434  1.00  0.00    -0.496 OA
ATOM     26  C   UNL A   1      29.576  30.200  23.621  1.00  0.00     0.278 C 
ENDBRANCH  13  25
ENDBRANCH  11  12
ENDBRANCH   8  11
ENDBRANCH   6   7
BRANCH   6  27
ATOM     27  C   UNL A   1      33.806  21.365  24.233  1.00  0.00     0.072 C 
BRANCH  27  28
ATOM     28  C   UNL A   1      33.677  20.042  24.938  1.00  0.00    -0.020 A 
ATOM     29  C   UNL A   1      33.305  20.059  26.276  1.00  0.00     0.087 A 
ATOM     30  C   UNL A   1      33.647  18.652  24.538  1.00  0.00     0.003 A 
ATOM     31  N   UNL A   1      32.792  18.843  26.594  1.00  0.00    -0.361 N 
ATOM     32  C   UNL A   1      33.116  17.937  25.622  1.00  0.00     0.046 A 
ATOM     33  C   UNL A   1      33.955  17.890  23.387  1.00  0.00     0.010 A 
ATOM     34  H   UNL A   1      32.266  18.644  27.403  1.00  0.00     0.166 HD
ATOM     35  C   UNL A   1      32.917  16.551  25.630  1.00  0.00     0.026 A 
ATOM     36  C   UNL A   1      33.803  16.491  23.391  1.00  0.00     0.001 A 
ATOM     37  C   UNL A   1      33.300  15.831  24.503  1.00  0.00     0.002 A 
ENDBRANCH  27  28
ENDBRANCH   6  27
ENDBRANCH   3   6
ENDBRANCH   1   2
BRANCH   1  38
ATOM     38  C   UNL A   1      38.100  19.823  24.955  1.00  0.00     0.042 C 
BRANCH  38  39
ATOM     39  C   UNL A   1      39.123  20.134  26.034  1.00  0.00     0.118 C 
BRANCH  39  40
ATOM     40  N   UNL A   1      40.236  19.189  26.013  1.00  0.00    -0.352 N 
ATOM     41  C   UNL A   1      41.583  19.425  26.016  1.00  0.00     0.251 C 
ATOM     42  H   UNL A   1      39.978  18.239  25.992  1.00  0.00     0.163 HD
ATOM     43  O   UNL A   1      42.366  18.516  25.730  1.00  0.00    -0.269 OA
BRANCH  41  44
ATOM     44  C   UNL A   1      42.096  20.764  26.357  1.00  0.00     0.039 A 
ATOM     45  C   UNL A   1      42.374  21.093  27.684  1.00  0.00     0.014 A 
ATOM     46  C   UNL A   1      42.312  21.700  25.341  1.00  0.00     0.014 A 
ATOM     47  C   UNL A   1      42.689  22.399  28.016  1.00  0.00     0.010 A 
ATOM     48  C   UNL A   1      42.756  22.982  25.667  1.00  0.00     0.010 A 
ATOM     49  C   UNL A   1      42.909  23.354  27.011  1.00  0.00    -0.014 A 
BRANCH  49  50
ATOM     50  C   UNL A   1      43.329  24.719  27.409  1.00  0.00     0.031 A 
ATOM     51  C   UNL A   1      44.722  25.208  27.132  1.00  0.00     0.074 A 
ATOM     52  C   UNL A   1      42.411  25.539  27.958  1.00  0.00     0.049 A 
ATOM     53  N   UNL A   1      45.241  26.388  27.371  1.00  0.00    -0.248 NA
ATOM     54  C   UNL A   1      45.660  24.257  26.517  1.00  0.00     0.031 C 
ATOM     55  C   UNL A   1      41.028  25.165  28.263  1.00  0.00     0.029 A 
ATOM     56  N   UNL A   1      42.482  26.860  28.318  1.00  0.00    -0.354 N 
ATOM     57  C   UNL A   1      46.560  26.313  26.949  1.00  0.00     0.074 A 
ATOM     58  C   UNL A   1      46.780  24.964  26.477  1.00  0.00     0.031 C 
ATOM     59  C   UNL A   1      40.360  26.247  28.684  1.00  0.00     0.029 A 
ATOM     60  C   UNL A   1      41.285  27.371  28.759  1.00  0.00     0.049 A 
ATOM     61  H   UNL A   1      43.309  27.392  28.265  1.00  0.00     0.167 HD
ATOM     62  C   UNL A   1      47.495  27.292  26.941  1.00  0.00     0.037 A 
ATOM     63  C   UNL A   1      40.967  28.606  29.190  1.00  0.00     0.037 A 
ATOM     64  C   UNL A   1      47.254  28.638  27.390  1.00  0.00     0.049 A 
ATOM     65  C   UNL A   1      42.039  29.657  29.218  1.00  0.00     0.074 A 
ATOM     66  C   UNL A   1      48.131  29.709  27.409  1.00  0.00     0.029 A 
ATOM     67  N   UNL A   1      46.047  29.100  27.897  1.00  0.00    -0.354 N 
ATOM     68  N   UNL A   1      43.281  29.578  28.807  1.00  0.00    -0.248 NA
ATOM     69  C   UNL A   1      41.674  30.963  29.781  1.00  0.00     0.031 C 
ATOM     70  C   UNL A   1      47.471  30.803  27.973  1.00  0.00     0.029 A 
ATOM     71  C   UNL A   1      46.165  30.433  28.254  1.00  0.00     0.049 A 
ATOM     72  H   UNL A   1      45.229  28.560  27.988  1.00  0.00     0.167 HD
ATOM     73  C   UNL A   1      43.843  30.822  29.046  1.00  0.00     0.074 A 
ATOM     74  C   UNL A   1      42.800  31.647  29.622  1.00  0.00     0.031 C 
ATOM     75  C   UNL A   1      45.110  31.240  28.815  1.00  0.00     0.037 A 
BRANCH  62  76
ATOM     76  C   UNL A   1      48.867  26.955  26.432  1.00  0.00     0.064 A 
ATOM     77  C   UNL A   1      49.847  26.401  27.269  1.00  0.00     0.173 A 
ATOM     78  C   UNL A   1      49.182  27.118  25.074  1.00  0.00     0.173 A 
ATOM     79  F   UNL A   1      49.602  26.234  28.577  1.00  0.00    -0.203 F 
ATOM     80  C   UNL A   1      51.095  26.037  26.769  1.00  0.00     0.198 A 
ATOM     81  C   UNL A   1      50.420  26.725  24.571  1.00  0.00     0.198 A 
ATOM     82  F   UNL A   1      48.280  27.637  24.228  1.00  0.00    -0.203 F 
ATOM     83  F   UNL A   1      52.027  25.542  27.595  1.00  0.00    -0.200 F 
ATOM     84  C   UNL A   1      51.376  26.189  25.419  1.00  0.00     0.200 A 
ATOM     85  F   UNL A   1      50.684  26.858  23.264  1.00  0.00    -0.200 F 
ATOM     86  F   UNL A   1      52.571  25.819  24.936  1.00  0.00    -0.200 F 
ENDBRANCH  62  76
BRANCH  63  87
ATOM     87  C   UNL A   1      39.574  28.902  29.613  1.00  0.00     0.064 A 
ATOM     88  C   UNL A   1      39.159  28.677  30.932  1.00  0.00     0.173 A 
ATOM     89  C   UNL A   1      38.642  29.458  28.722  1.00  0.00     0.173 A 
ATOM     90  F   UNL A   1      40.007  28.133  31.817  1.00  0.00    -0.203 F 
ATOM     91  C   UNL A   1      37.866  28.994  31.343  1.00  0.00     0.198 A 
ATOM     92  C   UNL A   1      37.360  29.804  29.142  1.00  0.00     0.198 A 
ATOM     93  F   UNL A   1      38.990  29.699  27.449  1.00  0.00    -0.203 F 
ATOM     94  F   UNL A   1      37.485  28.742  32.603  1.00  0.00    -0.200 F 
ATOM     95  C   UNL A   1      36.971  29.567  30.450  1.00  0.00     0.200 A 
ATOM     96  F   UNL A   1      36.508  30.377  28.282  1.00  0.00    -0.200 F 
ATOM     97  F   UNL A   1      35.734  29.889  30.852  1.00  0.00    -0.200 F 
ENDBRANCH  63  87
BRANCH  75  98
ATOM     98  C   UNL A   1      45.448  32.659  29.162  1.00  0.00     0.064 A 
ATOM     99  C   UNL A   1      45.219  33.706  28.256  1.00  0.00     0.173 A 
ATOM    100  C   UNL A   1      45.905  32.986  30.448  1.00  0.00     0.173 A 
ATOM    101  F   UNL A   1      44.796  33.441  27.012  1.00  0.00    -0.203 F 
ATOM    102  C   UNL A   1      45.437  35.029  28.627  1.00  0.00     0.198 A 
ATOM    103  C   UNL A   1      46.094  34.312  30.823  1.00  0.00     0.198 A 
ATOM    104  F   UNL A   1      46.131  32.020  31.350  1.00  0.00    -0.203 F 
ATOM    105  F   UNL A   1      45.234  36.013  27.740  1.00  0.00    -0.200 F 
ATOM    106  C   UNL A   1      45.861  35.331  29.913  1.00  0.00     0.200 A 
ATOM    107  F   UNL A   1      46.485  34.604  32.071  1.00  0.00    -0.200 F 
ATOM    108  F   UNL A   1      46.043  36.609  30.276  1.00  0.00    -0.200 F 
ENDBRANCH  75  98
ENDBRANCH  49  50
ENDBRANCH  41  44
ENDBRANCH  39  40
ENDBRANCH  38  39
ENDBRANCH   1  38
TORSDOF 16
ENDMDL
