MODEL 1
REMARK VINA RESULT:     -12.4      0.000      0.000
REMARK SMILES O=C(CCc1cnc(C2CCCCC2)o1)NCCCNC(=O)c1ccc(-c2c3nc(c(-c4c(F)c(F)c(F)c(F)c4F)c4ccc([nH]4)c(-c4c(F)c(F)c(F)c(F)c4F)c4nc(c(-c5c(F)c(F)c(F)c(F)c5F)c5ccc2[nH]5)C=C4)C=C3)cc1
REMARK SMILES IDX 17 1 16 2 1 3 2 4 3 6 4 7 5 8 6 9 15 10 7 11 8 12 9 13 10 14
REMARK SMILES IDX 14 15 11 16 13 17 12 18 18 19 19 20 20 21 21 22 22 24 23 25
REMARK SMILES IDX 24 26 85 27 25 28 84 29 26 30 27 31 28 32 78 33 29 34 83 35
REMARK SMILES IDX 77 36 79 37 30 38 82 39 76 40 75 41 31 43 63 44 43 45 62 46
REMARK SMILES IDX 44 47 47 48 61 49 80 50 45 51 46 52 60 54 81 55 48 56 32 57
REMARK SMILES IDX 33 58 41 59 34 60 35 61 39 62 42 63 36 64 37 65 40 66 38 67
REMARK SMILES IDX 64 68 65 69 73 70 66 71 67 72 71 73 74 74 68 75 69 76 72 77
REMARK SMILES IDX 70 78 49 79 50 80 58 81 51 82 52 83 56 84 59 85 53 86 54 87
REMARK SMILES IDX 57 88 55 89
REMARK H PARENT 16 5 20 23 79 42 47 53
REMARK Flexibility Score: inf
ROOT
ATOM      1  C   UNL A   1      32.112  30.156  26.425  1.00  0.00     0.117 C 
ENDROOT
BRANCH   1   2
ATOM      2  N   UNL A   1      32.614  29.889  25.093  1.00  0.00    -0.356 N 
ATOM      3  O   UNL A   1      33.884  28.068  25.679  1.00  0.00    -0.275 OA
ATOM      4  C   UNL A   1      33.455  28.833  24.820  1.00  0.00     0.220 C 
ATOM      5  H   UNL A   1      32.346  30.484  24.356  1.00  0.00     0.163 HD
BRANCH   4   6
ATOM      6  C   UNL A   1      33.853  28.693  23.365  1.00  0.00     0.108 C 
BRANCH   6   7
ATOM      7  C   UNL A   1      33.084  27.587  22.648  1.00  0.00     0.087 C 
BRANCH   7   8
ATOM      8  C   UNL A   1      31.620  27.686  22.865  1.00  0.00     0.125 A 
ATOM      9  C   UNL A   1      30.653  26.826  23.333  1.00  0.00     0.157 A 
ATOM     10  O   UNL A   1      31.004  28.856  22.519  1.00  0.00    -0.445 OA
ATOM     11  N   UNL A   1      29.425  27.425  23.264  1.00  0.00    -0.222 NA
ATOM     12  C   UNL A   1      29.684  28.637  22.813  1.00  0.00     0.197 A 
BRANCH  12  13
ATOM     13  C   UNL A   1      28.735  29.766  22.558  1.00  0.00     0.076 C 
ATOM     14  C   UNL A   1      28.864  30.816  23.668  1.00  0.00     0.013 C 
ATOM     15  C   UNL A   1      28.983  30.374  21.170  1.00  0.00     0.013 C 
ATOM     16  C   UNL A   1      28.045  32.075  23.393  1.00  0.00     0.001 C 
ATOM     17  C   UNL A   1      28.127  31.614  20.927  1.00  0.00     0.001 C 
ATOM     18  C   UNL A   1      28.343  32.656  22.017  1.00  0.00     0.000 C 
ENDBRANCH  12  13
ENDBRANCH   7   8
ENDBRANCH   6   7
ENDBRANCH   4   6
ENDBRANCH   1   2
BRANCH   1  19
ATOM     19  C   UNL A   1      31.785  31.631  26.641  1.00  0.00     0.042 C 
BRANCH  19  20
ATOM     20  C   UNL A   1      32.870  32.430  27.358  1.00  0.00     0.118 C 
BRANCH  20  21
ATOM     21  N   UNL A   1      32.481  33.801  27.645  1.00  0.00    -0.352 N 
ATOM     22  C   UNL A   1      33.043  34.735  28.483  1.00  0.00     0.251 C 
ATOM     23  H   UNL A   1      31.684  34.113  27.159  1.00  0.00     0.163 HD
ATOM     24  O   UNL A   1      32.492  35.822  28.620  1.00  0.00    -0.269 OA
BRANCH  22  25
ATOM     25  C   UNL A   1      34.251  34.421  29.282  1.00  0.00     0.039 A 
ATOM     26  C   UNL A   1      34.058  34.000  30.603  1.00  0.00     0.014 A 
ATOM     27  C   UNL A   1      35.543  34.483  28.755  1.00  0.00     0.014 A 
ATOM     28  C   UNL A   1      35.133  33.507  31.342  1.00  0.00     0.010 A 
ATOM     29  C   UNL A   1      36.606  33.930  29.468  1.00  0.00     0.010 A 
ATOM     30  C   UNL A   1      36.398  33.394  30.747  1.00  0.00    -0.014 A 
BRANCH  30  31
ATOM     31  C   UNL A   1      37.470  32.600  31.395  1.00  0.00     0.031 A 
ATOM     32  C   UNL A   1      37.980  32.954  32.757  1.00  0.00     0.074 A 
ATOM     33  C   UNL A   1      38.043  31.601  30.693  1.00  0.00     0.049 A 
ATOM     34  N   UNL A   1      38.968  32.420  33.432  1.00  0.00    -0.248 NA
ATOM     35  C   UNL A   1      37.309  34.065  33.446  1.00  0.00     0.031 C 
ATOM     36  C   UNL A   1      37.663  31.198  29.336  1.00  0.00     0.029 A 
ATOM     37  N   UNL A   1      39.074  30.752  31.012  1.00  0.00    -0.354 N 
ATOM     38  C   UNL A   1      39.045  33.137  34.617  1.00  0.00     0.074 A 
ATOM     39  C   UNL A   1      38.026  34.164  34.557  1.00  0.00     0.031 C 
ATOM     40  C   UNL A   1      38.436  30.174  28.947  1.00  0.00     0.029 A 
ATOM     41  C   UNL A   1      39.392  29.872  30.007  1.00  0.00     0.049 A 
ATOM     42  H   UNL A   1      39.541  30.773  31.878  1.00  0.00     0.167 HD
ATOM     43  C   UNL A   1      39.883  32.942  35.664  1.00  0.00     0.037 A 
ATOM     44  C   UNL A   1      40.353  28.933  29.940  1.00  0.00     0.037 A 
ATOM     45  C   UNL A   1      40.883  31.909  35.722  1.00  0.00     0.049 A 
ATOM     46  C   UNL A   1      41.267  28.738  31.117  1.00  0.00     0.074 A 
ATOM     47  C   UNL A   1      41.749  31.602  36.759  1.00  0.00     0.029 A 
ATOM     48  N   UNL A   1      41.156  31.015  34.697  1.00  0.00    -0.354 N 
ATOM     49  N   UNL A   1      41.290  29.383  32.256  1.00  0.00    -0.248 NA
ATOM     50  C   UNL A   1      42.286  27.686  30.998  1.00  0.00     0.031 C 
ATOM     51  C   UNL A   1      42.567  30.543  36.348  1.00  0.00     0.029 A 
ATOM     52  C   UNL A   1      42.186  30.166  35.071  1.00  0.00     0.049 A 
ATOM     53  H   UNL A   1      40.687  30.987  33.832  1.00  0.00     0.167 HD
ATOM     54  C   UNL A   1      42.304  28.799  33.003  1.00  0.00     0.074 A 
ATOM     55  C   UNL A   1      42.870  27.743  32.188  1.00  0.00     0.031 C 
ATOM     56  C   UNL A   1      42.725  29.111  34.252  1.00  0.00     0.037 A 
BRANCH  43  57
ATOM     57  C   UNL A   1      39.754  33.871  36.834  1.00  0.00     0.064 A 
ATOM     58  C   UNL A   1      40.405  35.113  36.856  1.00  0.00     0.173 A 
ATOM     59  C   UNL A   1      38.942  33.534  37.926  1.00  0.00     0.173 A 
ATOM     60  F   UNL A   1      41.202  35.477  35.840  1.00  0.00    -0.203 F 
ATOM     61  C   UNL A   1      40.266  35.974  37.941  1.00  0.00     0.198 A 
ATOM     62  C   UNL A   1      38.785  34.408  38.998  1.00  0.00     0.198 A 
ATOM     63  F   UNL A   1      38.293  32.360  37.950  1.00  0.00    -0.203 F 
ATOM     64  F   UNL A   1      40.928  37.140  37.960  1.00  0.00    -0.200 F 
ATOM     65  C   UNL A   1      39.452  35.624  39.008  1.00  0.00     0.200 A 
ATOM     66  F   UNL A   1      37.990  34.072  40.024  1.00  0.00    -0.200 F 
ATOM     67  F   UNL A   1      39.314  36.456  40.050  1.00  0.00    -0.200 F 
ENDBRANCH  43  57
BRANCH  44  68
ATOM     68  C   UNL A   1      40.481  28.093  28.723  1.00  0.00     0.064 A 
ATOM     69  C   UNL A   1      39.813  26.864  28.625  1.00  0.00     0.173 A 
ATOM     70  C   UNL A   1      41.258  28.504  27.630  1.00  0.00     0.173 A 
ATOM     71  F   UNL A   1      39.074  26.423  29.653  1.00  0.00    -0.203 F 
ATOM     72  C   UNL A   1      39.927  26.072  27.485  1.00  0.00     0.198 A 
ATOM     73  C   UNL A   1      41.352  27.722  26.481  1.00  0.00     0.198 A 
ATOM     74  F   UNL A   1      41.912  29.674  27.673  1.00  0.00    -0.203 F 
ATOM     75  F   UNL A   1      39.306  24.886  27.432  1.00  0.00    -0.200 F 
ATOM     76  C   UNL A   1      40.692  26.504  26.411  1.00  0.00     0.200 A 
ATOM     77  F   UNL A   1      42.081  28.148  25.440  1.00  0.00    -0.200 F 
ATOM     78  F   UNL A   1      40.796  25.744  25.313  1.00  0.00    -0.200 F 
ENDBRANCH  44  68
BRANCH  56  79
ATOM     79  C   UNL A   1      43.827  28.276  34.831  1.00  0.00     0.064 A 
ATOM     80  C   UNL A   1      45.172  28.645  34.700  1.00  0.00     0.173 A 
ATOM     81  C   UNL A   1      43.525  27.123  35.571  1.00  0.00     0.173 A 
ATOM     82  F   UNL A   1      45.509  29.730  33.986  1.00  0.00    -0.203 F 
ATOM     83  C   UNL A   1      46.181  27.879  35.279  1.00  0.00     0.198 A 
ATOM     84  C   UNL A   1      44.533  26.374  36.168  1.00  0.00     0.198 A 
ATOM     85  F   UNL A   1      42.251  26.733  35.726  1.00  0.00    -0.203 F 
ATOM     86  F   UNL A   1      47.464  28.231  35.116  1.00  0.00    -0.200 F 
ATOM     87  C   UNL A   1      45.860  26.750  36.019  1.00  0.00     0.200 A 
ATOM     88  F   UNL A   1      44.223  25.287  36.889  1.00  0.00    -0.200 F 
ATOM     89  F   UNL A   1      46.832  26.021  36.585  1.00  0.00    -0.200 F 
ENDBRANCH  56  79
ENDBRANCH  30  31
ENDBRANCH  22  25
ENDBRANCH  20  21
ENDBRANCH  19  20
ENDBRANCH   1  19
TORSDOF 13
ENDMDL
MODEL 2
REMARK VINA RESULT:     -12.4      0.194      1.642
REMARK SMILES O=C(CCc1cnc(C2CCCCC2)o1)NCCCNC(=O)c1ccc(-c2c3nc(c(-c4c(F)c(F)c(F)c(F)c4F)c4ccc([nH]4)c(-c4c(F)c(F)c(F)c(F)c4F)c4nc(c(-c5c(F)c(F)c(F)c(F)c5F)c5ccc2[nH]5)C=C4)C=C3)cc1
REMARK SMILES IDX 17 1 16 2 1 3 2 4 3 6 4 7 5 8 6 9 15 10 7 11 8 12 9 13 10 14
REMARK SMILES IDX 14 15 11 16 13 17 12 18 18 19 19 20 20 21 21 22 22 24 23 25
REMARK SMILES IDX 24 26 85 27 25 28 84 29 26 30 27 31 28 32 78 33 29 34 83 35
REMARK SMILES IDX 77 36 79 37 30 38 82 39 76 40 75 41 31 43 63 44 43 45 62 46
REMARK SMILES IDX 44 47 47 48 61 49 80 50 45 51 46 52 60 54 81 55 48 56 32 57
REMARK SMILES IDX 33 58 41 59 34 60 35 61 39 62 42 63 36 64 37 65 40 66 38 67
REMARK SMILES IDX 64 68 65 69 73 70 66 71 67 72 71 73 74 74 68 75 69 76 72 77
REMARK SMILES IDX 70 78 49 79 50 80 58 81 51 82 52 83 56 84 59 85 53 86 54 87
REMARK SMILES IDX 57 88 55 89
REMARK H PARENT 16 5 20 23 79 42 47 53
REMARK Flexibility Score: inf
ROOT
ATOM      1  C   UNL A   1      32.076  30.259  26.674  1.00  0.00     0.117 C 
ENDROOT
BRANCH   1   2
ATOM      2  N   UNL A   1      32.487  29.936  25.323  1.00  0.00    -0.356 N 
ATOM      3  O   UNL A   1      34.042  28.355  25.919  1.00  0.00    -0.275 OA
ATOM      4  C   UNL A   1      33.436  28.976  25.051  1.00  0.00     0.220 C 
ATOM      5  H   UNL A   1      32.074  30.421  24.573  1.00  0.00     0.163 HD
BRANCH   4   6
ATOM      6  C   UNL A   1      33.715  28.754  23.579  1.00  0.00     0.108 C 
BRANCH   6   7
ATOM      7  C   UNL A   1      32.999  27.527  23.021  1.00  0.00     0.087 C 
BRANCH   7   8
ATOM      8  C   UNL A   1      31.524  27.639  23.125  1.00  0.00     0.125 A 
ATOM      9  C   UNL A   1      30.509  26.765  23.440  1.00  0.00     0.157 A 
ATOM     10  O   UNL A   1      30.957  28.847  22.828  1.00  0.00    -0.445 OA
ATOM     11  N   UNL A   1      29.300  27.395  23.320  1.00  0.00    -0.222 NA
ATOM     12  C   UNL A   1      29.614  28.634  22.993  1.00  0.00     0.197 A 
BRANCH  12  13
ATOM     13  C   UNL A   1      28.706  29.799  22.756  1.00  0.00     0.076 C 
ATOM     14  C   UNL A   1      29.080  30.951  23.696  1.00  0.00     0.013 C 
ATOM     15  C   UNL A   1      28.758  30.230  21.283  1.00  0.00     0.013 C 
ATOM     16  C   UNL A   1      28.305  32.234  23.403  1.00  0.00     0.001 C 
ATOM     17  C   UNL A   1      27.951  31.500  21.029  1.00  0.00     0.001 C 
ATOM     18  C   UNL A   1      28.406  32.635  21.938  1.00  0.00     0.000 C 
ENDBRANCH  12  13
ENDBRANCH   7   8
ENDBRANCH   6   7
ENDBRANCH   4   6
ENDBRANCH   1   2
BRANCH   1  19
ATOM     19  C   UNL A   1      31.728  31.735  26.842  1.00  0.00     0.042 C 
BRANCH  19  20
ATOM     20  C   UNL A   1      32.873  32.610  27.346  1.00  0.00     0.118 C 
BRANCH  20  21
ATOM     21  N   UNL A   1      32.462  33.965  27.674  1.00  0.00    -0.352 N 
ATOM     22  C   UNL A   1      33.002  34.879  28.547  1.00  0.00     0.251 C 
ATOM     23  H   UNL A   1      31.664  34.281  27.191  1.00  0.00     0.163 HD
ATOM     24  O   UNL A   1      32.433  35.953  28.714  1.00  0.00    -0.269 OA
BRANCH  22  25
ATOM     25  C   UNL A   1      34.206  34.557  29.348  1.00  0.00     0.039 A 
ATOM     26  C   UNL A   1      34.010  34.161  30.676  1.00  0.00     0.014 A 
ATOM     27  C   UNL A   1      35.497  34.587  28.817  1.00  0.00     0.014 A 
ATOM     28  C   UNL A   1      35.079  33.661  31.420  1.00  0.00     0.010 A 
ATOM     29  C   UNL A   1      36.553  34.027  29.535  1.00  0.00     0.010 A 
ATOM     30  C   UNL A   1      36.340  33.516  30.823  1.00  0.00    -0.014 A 
BRANCH  30  31
ATOM     31  C   UNL A   1      37.399  32.713  31.481  1.00  0.00     0.031 A 
ATOM     32  C   UNL A   1      37.903  33.066  32.846  1.00  0.00     0.074 A 
ATOM     33  C   UNL A   1      37.968  31.707  30.786  1.00  0.00     0.049 A 
ATOM     34  N   UNL A   1      38.881  32.525  33.529  1.00  0.00    -0.248 NA
ATOM     35  C   UNL A   1      37.238  34.185  33.527  1.00  0.00     0.031 C 
ATOM     36  C   UNL A   1      37.594  31.304  29.427  1.00  0.00     0.029 A 
ATOM     37  N   UNL A   1      38.988  30.850  31.114  1.00  0.00    -0.354 N 
ATOM     38  C   UNL A   1      38.956  33.244  34.713  1.00  0.00     0.074 A 
ATOM     39  C   UNL A   1      37.947  34.280  34.643  1.00  0.00     0.031 C 
ATOM     40  C   UNL A   1      38.360  30.272  29.046  1.00  0.00     0.029 A 
ATOM     41  C   UNL A   1      39.305  29.964  30.113  1.00  0.00     0.049 A 
ATOM     42  H   UNL A   1      39.450  30.868  31.983  1.00  0.00     0.167 HD
ATOM     43  C   UNL A   1      39.785  33.044  35.766  1.00  0.00     0.037 A 
ATOM     44  C   UNL A   1      40.259  29.015  30.056  1.00  0.00     0.037 A 
ATOM     45  C   UNL A   1      40.775  32.001  35.834  1.00  0.00     0.049 A 
ATOM     46  C   UNL A   1      41.161  28.815  31.240  1.00  0.00     0.074 A 
ATOM     47  C   UNL A   1      41.630  31.689  36.878  1.00  0.00     0.029 A 
ATOM     48  N   UNL A   1      41.047  31.102  34.813  1.00  0.00    -0.354 N 
ATOM     49  N   UNL A   1      41.182  29.462  32.378  1.00  0.00    -0.248 NA
ATOM     50  C   UNL A   1      42.172  27.753  31.131  1.00  0.00     0.031 C 
ATOM     51  C   UNL A   1      42.441  30.621  36.476  1.00  0.00     0.029 A 
ATOM     52  C   UNL A   1      42.066  30.245  35.197  1.00  0.00     0.049 A 
ATOM     53  H   UNL A   1      40.584  31.076  33.945  1.00  0.00     0.167 HD
ATOM     54  C   UNL A   1      42.185  28.872  33.133  1.00  0.00     0.074 A 
ATOM     55  C   UNL A   1      42.747  27.808  32.325  1.00  0.00     0.031 C 
ATOM     56  C   UNL A   1      42.601  29.183  34.384  1.00  0.00     0.037 A 
BRANCH  43  57
ATOM     57  C   UNL A   1      39.656  33.977  36.933  1.00  0.00     0.064 A 
ATOM     58  C   UNL A   1      38.876  33.646  38.050  1.00  0.00     0.173 A 
ATOM     59  C   UNL A   1      40.352  35.194  36.953  1.00  0.00     0.173 A 
ATOM     60  F   UNL A   1      38.183  32.498  38.075  1.00  0.00    -0.203 F 
ATOM     61  C   UNL A   1      38.777  34.513  39.136  1.00  0.00     0.198 A 
ATOM     62  C   UNL A   1      40.270  36.048  38.049  1.00  0.00     0.198 A 
ATOM     63  F   UNL A   1      41.117  35.553  35.911  1.00  0.00    -0.203 F 
ATOM     64  F   UNL A   1      37.993  34.196  40.176  1.00  0.00    -0.200 F 
ATOM     65  C   UNL A   1      39.479  35.710  39.137  1.00  0.00     0.200 A 
ATOM     66  F   UNL A   1      40.957  37.199  38.054  1.00  0.00    -0.200 F 
ATOM     67  F   UNL A   1      39.387  36.541  40.184  1.00  0.00    -0.200 F 
ENDBRANCH  43  57
BRANCH  44  68
ATOM     68  C   UNL A   1      40.387  28.171  28.842  1.00  0.00     0.064 A 
ATOM     69  C   UNL A   1      39.711  26.947  28.744  1.00  0.00     0.173 A 
ATOM     70  C   UNL A   1      41.173  28.574  27.752  1.00  0.00     0.173 A 
ATOM     71  F   UNL A   1      38.964  26.513  29.769  1.00  0.00    -0.203 F 
ATOM     72  C   UNL A   1      39.826  26.151  27.607  1.00  0.00     0.198 A 
ATOM     73  C   UNL A   1      41.267  27.788  26.606  1.00  0.00     0.198 A 
ATOM     74  F   UNL A   1      41.834  29.739  27.795  1.00  0.00    -0.203 F 
ATOM     75  F   UNL A   1      39.197  24.969  27.553  1.00  0.00    -0.200 F 
ATOM     76  C   UNL A   1      40.600  26.575  26.536  1.00  0.00     0.200 A 
ATOM     77  F   UNL A   1      42.005  28.206  25.568  1.00  0.00    -0.200 F 
ATOM     78  F   UNL A   1      40.704  25.811  25.440  1.00  0.00    -0.200 F 
ENDBRANCH  44  68
BRANCH  56  79
ATOM     79  C   UNL A   1      43.690  28.339  34.973  1.00  0.00     0.064 A 
ATOM     80  C   UNL A   1      43.407  27.150  35.660  1.00  0.00     0.173 A 
ATOM     81  C   UNL A   1      45.035  28.699  34.800  1.00  0.00     0.173 A 
ATOM     82  F   UNL A   1      42.136  26.776  35.866  1.00  0.00    -0.203 F 
ATOM     83  C   UNL A   1      44.434  26.357  36.165  1.00  0.00     0.198 A 
ATOM     84  C   UNL A   1      46.059  27.892  35.285  1.00  0.00     0.198 A 
ATOM     85  F   UNL A   1      45.354  29.826  34.145  1.00  0.00    -0.203 F 
ATOM     86  F   UNL A   1      44.142  25.241  36.847  1.00  0.00    -0.200 F 
ATOM     87  C   UNL A   1      45.757  26.724  35.970  1.00  0.00     0.200 A 
ATOM     88  F   UNL A   1      47.338  28.242  35.090  1.00  0.00    -0.200 F 
ATOM     89  F   UNL A   1      46.745  25.953  36.448  1.00  0.00    -0.200 F 
ENDBRANCH  56  79
ENDBRANCH  30  31
ENDBRANCH  22  25
ENDBRANCH  20  21
ENDBRANCH  19  20
ENDBRANCH   1  19
TORSDOF 13
ENDMDL
MODEL 3
REMARK VINA RESULT:     -12.3      1.556      3.402
REMARK SMILES O=C(CCc1cnc(C2CCCCC2)o1)NCCCNC(=O)c1ccc(-c2c3nc(c(-c4c(F)c(F)c(F)c(F)c4F)c4ccc([nH]4)c(-c4c(F)c(F)c(F)c(F)c4F)c4nc(c(-c5c(F)c(F)c(F)c(F)c5F)c5ccc2[nH]5)C=C4)C=C3)cc1
REMARK SMILES IDX 17 1 16 2 1 3 2 4 3 6 4 7 5 8 6 9 15 10 7 11 8 12 9 13 10 14
REMARK SMILES IDX 14 15 11 16 13 17 12 18 18 19 19 20 20 21 21 22 22 24 23 25
REMARK SMILES IDX 24 26 85 27 25 28 84 29 26 30 27 31 28 32 78 33 29 34 83 35
REMARK SMILES IDX 77 36 79 37 30 38 82 39 76 40 75 41 31 43 63 44 43 45 62 46
REMARK SMILES IDX 44 47 47 48 61 49 80 50 45 51 46 52 60 54 81 55 48 56 32 57
REMARK SMILES IDX 33 58 41 59 34 60 35 61 39 62 42 63 36 64 37 65 40 66 38 67
REMARK SMILES IDX 64 68 65 69 73 70 66 71 67 72 71 73 74 74 68 75 69 76 72 77
REMARK SMILES IDX 70 78 49 79 50 80 58 81 51 82 52 83 56 84 59 85 53 86 54 87
REMARK SMILES IDX 57 88 55 89
REMARK H PARENT 16 5 20 23 79 42 47 53
REMARK Flexibility Score: inf
ROOT
ATOM      1  C   UNL A   1      32.110  30.339  26.569  1.00  0.00     0.117 C 
ENDROOT
BRANCH   1   2
ATOM      2  N   UNL A   1      32.193  29.974  25.169  1.00  0.00    -0.356 N 
ATOM      3  O   UNL A   1      34.025  28.608  25.389  1.00  0.00    -0.275 OA
ATOM      4  C   UNL A   1      33.146  29.103  24.690  1.00  0.00     0.220 C 
ATOM      5  H   UNL A   1      31.546  30.363  24.538  1.00  0.00     0.163 HD
BRANCH   4   6
ATOM      6  C   UNL A   1      33.060  28.817  23.205  1.00  0.00     0.108 C 
BRANCH   6   7
ATOM      7  C   UNL A   1      32.062  27.710  22.875  1.00  0.00     0.087 C 
BRANCH   7   8
ATOM      8  C   UNL A   1      32.730  26.420  22.574  1.00  0.00     0.125 A 
ATOM      9  C   UNL A   1      32.847  25.633  21.452  1.00  0.00     0.157 A 
ATOM     10  O   UNL A   1      33.374  25.785  23.599  1.00  0.00    -0.445 OA
ATOM     11  N   UNL A   1      33.536  24.490  21.756  1.00  0.00    -0.222 NA
ATOM     12  C   UNL A   1      33.860  24.639  23.026  1.00  0.00     0.197 A 
BRANCH  12  13
ATOM     13  C   UNL A   1      34.649  23.721  23.906  1.00  0.00     0.076 C 
ATOM     14  C   UNL A   1      35.822  23.125  23.120  1.00  0.00     0.013 C 
ATOM     15  C   UNL A   1      35.127  24.462  25.163  1.00  0.00     0.013 C 
ATOM     16  C   UNL A   1      36.767  22.304  23.994  1.00  0.00     0.001 C 
ATOM     17  C   UNL A   1      36.049  23.598  26.021  1.00  0.00     0.001 C 
ATOM     18  C   UNL A   1      37.235  23.087  25.213  1.00  0.00     0.000 C 
ENDBRANCH  12  13
ENDBRANCH   7   8
ENDBRANCH   6   7
ENDBRANCH   4   6
ENDBRANCH   1   2
BRANCH   1  19
ATOM     19  C   UNL A   1      31.759  31.811  26.769  1.00  0.00     0.042 C 
BRANCH  19  20
ATOM     20  C   UNL A   1      32.884  32.665  27.346  1.00  0.00     0.118 C 
BRANCH  20  21
ATOM     21  N   UNL A   1      32.463  34.012  27.697  1.00  0.00    -0.352 N 
ATOM     22  C   UNL A   1      33.002  34.917  28.580  1.00  0.00     0.251 C 
ATOM     23  H   UNL A   1      31.661  34.328  27.223  1.00  0.00     0.163 HD
ATOM     24  O   UNL A   1      32.425  35.984  28.766  1.00  0.00    -0.269 OA
BRANCH  22  25
ATOM     25  C   UNL A   1      34.213  34.593  29.368  1.00  0.00     0.039 A 
ATOM     26  C   UNL A   1      34.033  34.222  30.705  1.00  0.00     0.014 A 
ATOM     27  C   UNL A   1      35.497  34.599  28.817  1.00  0.00     0.014 A 
ATOM     28  C   UNL A   1      35.106  33.721  31.441  1.00  0.00     0.010 A 
ATOM     29  C   UNL A   1      36.556  34.037  29.529  1.00  0.00     0.010 A 
ATOM     30  C   UNL A   1      36.356  33.550  30.829  1.00  0.00    -0.014 A 
BRANCH  30  31
ATOM     31  C   UNL A   1      37.416  32.745  31.484  1.00  0.00     0.031 A 
ATOM     32  C   UNL A   1      37.922  33.096  32.849  1.00  0.00     0.074 A 
ATOM     33  C   UNL A   1      37.982  31.739  30.787  1.00  0.00     0.049 A 
ATOM     34  N   UNL A   1      38.900  32.553  33.530  1.00  0.00    -0.248 NA
ATOM     35  C   UNL A   1      37.259  34.215  33.533  1.00  0.00     0.031 C 
ATOM     36  C   UNL A   1      37.606  31.339  29.428  1.00  0.00     0.029 A 
ATOM     37  N   UNL A   1      39.002  30.880  31.112  1.00  0.00    -0.354 N 
ATOM     38  C   UNL A   1      38.977  33.270  34.715  1.00  0.00     0.074 A 
ATOM     39  C   UNL A   1      37.970  34.308  34.648  1.00  0.00     0.031 C 
ATOM     40  C   UNL A   1      38.370  30.306  29.045  1.00  0.00     0.029 A 
ATOM     41  C   UNL A   1      39.316  29.995  30.111  1.00  0.00     0.049 A 
ATOM     42  H   UNL A   1      39.464  30.897  31.981  1.00  0.00     0.167 HD
ATOM     43  C   UNL A   1      39.807  33.068  35.766  1.00  0.00     0.037 A 
ATOM     44  C   UNL A   1      40.268  29.046  30.051  1.00  0.00     0.037 A 
ATOM     45  C   UNL A   1      40.796  32.024  35.832  1.00  0.00     0.049 A 
ATOM     46  C   UNL A   1      41.172  28.843  31.233  1.00  0.00     0.074 A 
ATOM     47  C   UNL A   1      41.652  31.709  36.874  1.00  0.00     0.029 A 
ATOM     48  N   UNL A   1      41.065  31.125  34.810  1.00  0.00    -0.354 N 
ATOM     49  N   UNL A   1      41.196  29.489  32.372  1.00  0.00    -0.248 NA
ATOM     50  C   UNL A   1      42.181  27.780  31.122  1.00  0.00     0.031 C 
ATOM     51  C   UNL A   1      42.461  30.641  36.470  1.00  0.00     0.029 A 
ATOM     52  C   UNL A   1      42.084  30.267  35.191  1.00  0.00     0.049 A 
ATOM     53  H   UNL A   1      40.601  31.102  33.942  1.00  0.00     0.167 HD
ATOM     54  C   UNL A   1      42.199  28.896  33.125  1.00  0.00     0.074 A 
ATOM     55  C   UNL A   1      42.759  27.833  32.315  1.00  0.00     0.031 C 
ATOM     56  C   UNL A   1      42.616  29.205  34.376  1.00  0.00     0.037 A 
BRANCH  43  57
ATOM     57  C   UNL A   1      39.682  33.999  36.935  1.00  0.00     0.064 A 
ATOM     58  C   UNL A   1      38.899  33.670  38.051  1.00  0.00     0.173 A 
ATOM     59  C   UNL A   1      40.381  35.215  36.956  1.00  0.00     0.173 A 
ATOM     60  F   UNL A   1      38.204  32.523  38.075  1.00  0.00    -0.203 F 
ATOM     61  C   UNL A   1      38.803  34.535  39.138  1.00  0.00     0.198 A 
ATOM     62  C   UNL A   1      40.302  36.067  38.054  1.00  0.00     0.198 A 
ATOM     63  F   UNL A   1      41.148  35.572  35.915  1.00  0.00    -0.203 F 
ATOM     64  F   UNL A   1      38.019  34.219  40.178  1.00  0.00    -0.200 F 
ATOM     65  C   UNL A   1      39.509  35.730  39.141  1.00  0.00     0.200 A 
ATOM     66  F   UNL A   1      40.992  37.216  38.060  1.00  0.00    -0.200 F 
ATOM     67  F   UNL A   1      39.419  36.560  40.189  1.00  0.00    -0.200 F 
ENDBRANCH  43  57
BRANCH  44  68
ATOM     68  C   UNL A   1      40.394  28.203  28.835  1.00  0.00     0.064 A 
ATOM     69  C   UNL A   1      39.715  26.981  28.736  1.00  0.00     0.173 A 
ATOM     70  C   UNL A   1      41.181  28.605  27.746  1.00  0.00     0.173 A 
ATOM     71  F   UNL A   1      38.966  26.548  29.760  1.00  0.00    -0.203 F 
ATOM     72  C   UNL A   1      39.827  26.186  27.598  1.00  0.00     0.198 A 
ATOM     73  C   UNL A   1      41.273  27.820  26.599  1.00  0.00     0.198 A 
ATOM     74  F   UNL A   1      41.845  29.768  27.791  1.00  0.00    -0.203 F 
ATOM     75  F   UNL A   1      39.195  25.006  27.543  1.00  0.00    -0.200 F 
ATOM     76  C   UNL A   1      40.602  26.609  26.527  1.00  0.00     0.200 A 
ATOM     77  F   UNL A   1      42.012  28.238  25.561  1.00  0.00    -0.200 F 
ATOM     78  F   UNL A   1      40.704  25.846  25.430  1.00  0.00    -0.200 F 
ENDBRANCH  44  68
BRANCH  56  79
ATOM     79  C   UNL A   1      43.706  28.359  34.963  1.00  0.00     0.064 A 
ATOM     80  C   UNL A   1      45.056  28.717  34.847  1.00  0.00     0.173 A 
ATOM     81  C   UNL A   1      43.388  27.205  35.695  1.00  0.00     0.173 A 
ATOM     82  F   UNL A   1      45.407  29.803  34.141  1.00  0.00    -0.203 F 
ATOM     83  C   UNL A   1      46.052  27.942  35.433  1.00  0.00     0.198 A 
ATOM     84  C   UNL A   1      44.384  26.445  36.299  1.00  0.00     0.198 A 
ATOM     85  F   UNL A   1      42.109  26.824  35.835  1.00  0.00    -0.203 F 
ATOM     86  F   UNL A   1      47.340  28.284  35.284  1.00  0.00    -0.200 F 
ATOM     87  C   UNL A   1      45.715  26.812  36.164  1.00  0.00     0.200 A 
ATOM     88  F   UNL A   1      44.058  25.358  37.012  1.00  0.00    -0.200 F 
ATOM     89  F   UNL A   1      46.676  26.073  36.737  1.00  0.00    -0.200 F 
ENDBRANCH  56  79
ENDBRANCH  30  31
ENDBRANCH  22  25
ENDBRANCH  20  21
ENDBRANCH  19  20
ENDBRANCH   1  19
TORSDOF 13
ENDMDL
