MODEL 1
REMARK VINA RESULT:     -11.5      0.000      0.000
REMARK SMILES CC(=O)NCCNC(=O)C[N@@H+]1CC[C@@H](C(=O)NCCCNC(=O)c2ccc(-c3c4nc(c(-c5c(F)c(F)c(F)c(F)c5F)c5ccc([nH]5)c(-c5c(F)c(F)c(F)c(F)c5F)c5nc(c(-c6c(F)c(F)c(F)c(F)c6F)c6ccc3[nH]6)C=C5)C=C4)cc2)[C@H]1C
REMARK SMILES IDX 15 1 16 2 17 3 14 5 11 6 12 7 87 8 13 10 88 11 10 12 8 13
REMARK SMILES IDX 7 14 9 16 6 17 5 18 4 19 1 20 2 21 3 22 18 24 19 25 20 26
REMARK SMILES IDX 21 27 22 28 23 30 24 31 25 32 86 33 26 34 85 35 27 36 28 37
REMARK SMILES IDX 29 38 79 39 30 40 84 41 78 42 80 43 31 44 83 45 77 46 76 47
REMARK SMILES IDX 32 49 64 50 44 51 63 52 45 53 48 54 62 55 81 56 46 57 47 58
REMARK SMILES IDX 61 60 82 61 49 62 33 63 34 64 42 65 35 66 36 67 40 68 43 69
REMARK SMILES IDX 37 70 38 71 41 72 39 73 65 74 66 75 74 76 67 77 68 78 72 79
REMARK SMILES IDX 75 80 69 81 70 82 73 83 71 84 50 85 51 86 59 87 52 88 53 89
REMARK SMILES IDX 57 90 60 91 54 92 55 93 58 94 56 95
REMARK H PARENT 17 4 11 9 7 15 4 23 21 29 80 48 48 59
REMARK Flexibility Score: inf
ROOT
ATOM      1  C   UNL A   1      31.415  25.072  26.320  1.00  0.00     0.229 C 
ATOM      2  O   UNL A   1      31.049  24.372  27.274  1.00  0.00    -0.275 OA
ATOM      3  N   UNL A   1      31.331  26.416  26.498  1.00  0.00    -0.356 N 
ATOM      4  H   UNL A   1      30.924  26.675  27.357  1.00  0.00     0.163 HD
ENDROOT
BRANCH   1   5
ATOM      5  C   UNL A   1      31.868  24.386  25.037  1.00  0.00     0.142 C 
ATOM      6  N   UNL A   1      33.299  22.528  24.660  1.00  0.00    -0.324 N 
ATOM      7  C   UNL A   1      32.088  22.305  23.872  1.00  0.00     0.263 C 
ATOM      8  C   UNL A   1      33.347  23.980  24.923  1.00  0.00     0.194 C 
ATOM      9  H   UNL A   1      33.272  22.026  25.548  1.00  0.00     0.348 HD
ATOM     10  C   UNL A   1      31.063  23.169  24.596  1.00  0.00     0.081 C 
ATOM     11  C   UNL A   1      34.203  24.308  26.127  1.00  0.00     0.076 C 
BRANCH   6  12
ATOM     12  C   UNL A   1      34.506  21.956  24.034  1.00  0.00     0.363 C 
BRANCH  12  13
ATOM     13  C   UNL A   1      35.192  20.952  24.977  1.00  0.00     0.275 C 
ATOM     14  N   UNL A   1      34.710  19.682  25.133  1.00  0.00    -0.349 N 
ATOM     15  H   UNL A   1      35.300  19.084  25.646  1.00  0.00     0.163 HD
ATOM     16  O   UNL A   1      36.223  21.242  25.593  1.00  0.00    -0.269 OA
BRANCH  14  17
ATOM     17  C   UNL A   1      33.476  19.057  24.671  1.00  0.00     0.137 C 
BRANCH  17  18
ATOM     18  C   UNL A   1      33.657  17.870  23.707  1.00  0.00     0.137 C 
BRANCH  18  19
ATOM     19  N   UNL A   1      34.514  16.817  24.235  1.00  0.00    -0.355 N 
ATOM     20  C   UNL A   1      32.793  15.817  25.685  1.00  0.00     0.114 C 
ATOM     21  C   UNL A   1      34.160  15.790  25.060  1.00  0.00     0.216 C 
ATOM     22  O   UNL A   1      34.954  14.872  25.267  1.00  0.00    -0.275 OA
ATOM     23  H   UNL A   1      35.459  16.849  23.964  1.00  0.00     0.163 HD
ENDBRANCH  18  19
ENDBRANCH  17  18
ENDBRANCH  14  17
ENDBRANCH  12  13
ENDBRANCH   6  12
ENDBRANCH   1   5
BRANCH   3  24
ATOM     24  C   UNL A   1      31.722  27.553  25.674  1.00  0.00     0.117 C 
BRANCH  24  25
ATOM     25  C   UNL A   1      33.165  28.034  25.888  1.00  0.00     0.042 C 
BRANCH  25  26
ATOM     26  C   UNL A   1      33.558  28.374  27.315  1.00  0.00     0.118 C 
BRANCH  26  27
ATOM     27  N   UNL A   1      33.602  29.804  27.539  1.00  0.00    -0.352 N 
ATOM     28  C   UNL A   1      34.574  30.587  28.111  1.00  0.00     0.251 C 
ATOM     29  H   UNL A   1      32.806  30.294  27.230  1.00  0.00     0.163 HD
ATOM     30  O   UNL A   1      34.278  31.733  28.448  1.00  0.00    -0.269 OA
BRANCH  28  31
ATOM     31  C   UNL A   1      35.961  30.103  28.343  1.00  0.00     0.039 A 
ATOM     32  C   UNL A   1      36.283  29.609  29.615  1.00  0.00     0.014 A 
ATOM     33  C   UNL A   1      36.976  30.227  27.392  1.00  0.00     0.014 A 
ATOM     34  C   UNL A   1      37.596  29.228  29.919  1.00  0.00     0.010 A 
ATOM     35  C   UNL A   1      38.268  29.764  27.666  1.00  0.00     0.010 A 
ATOM     36  C   UNL A   1      38.601  29.286  28.942  1.00  0.00    -0.014 A 
BRANCH  36  37
ATOM     37  C   UNL A   1      40.007  28.900  29.254  1.00  0.00     0.031 A 
ATOM     38  C   UNL A   1      40.889  29.820  30.060  1.00  0.00     0.074 A 
ATOM     39  C   UNL A   1      40.509  27.739  28.787  1.00  0.00     0.049 A 
ATOM     40  N   UNL A   1      42.152  29.687  30.387  1.00  0.00    -0.248 NA
ATOM     41  C   UNL A   1      40.279  31.069  30.541  1.00  0.00     0.031 C 
ATOM     42  C   UNL A   1      39.779  26.773  27.967  1.00  0.00     0.029 A 
ATOM     43  N   UNL A   1      41.756  27.180  28.929  1.00  0.00    -0.354 N 
ATOM     44  C   UNL A   1      42.487  30.840  31.088  1.00  0.00     0.074 A 
ATOM     45  C   UNL A   1      41.312  31.682  31.098  1.00  0.00     0.031 C 
ATOM     46  C   UNL A   1      40.582  25.732  27.696  1.00  0.00     0.029 A 
ATOM     47  C   UNL A   1      41.894  25.973  28.290  1.00  0.00     0.049 A 
ATOM     48  H   UNL A   1      42.482  27.604  29.442  1.00  0.00     0.167 HD
ATOM     49  C   UNL A   1      43.659  31.157  31.691  1.00  0.00     0.037 A 
ATOM     50  C   UNL A   1      42.960  25.155  28.184  1.00  0.00     0.037 A 
ATOM     51  C   UNL A   1      44.818  30.305  31.713  1.00  0.00     0.049 A 
ATOM     52  C   UNL A   1      44.252  25.532  28.857  1.00  0.00     0.074 A 
ATOM     53  C   UNL A   1      46.026  30.507  32.358  1.00  0.00     0.029 A 
ATOM     54  N   UNL A   1      44.914  29.086  31.059  1.00  0.00    -0.354 N 
ATOM     55  N   UNL A   1      44.533  26.592  29.574  1.00  0.00    -0.248 NA
ATOM     56  C   UNL A   1      45.376  24.596  28.706  1.00  0.00     0.031 C 
ATOM     57  C   UNL A   1      46.870  29.433  32.056  1.00  0.00     0.029 A 
ATOM     58  C   UNL A   1      46.171  28.537  31.263  1.00  0.00     0.049 A 
ATOM     59  H   UNL A   1      44.196  28.671  30.529  1.00  0.00     0.167 HD
ATOM     60  C   UNL A   1      45.853  26.441  29.980  1.00  0.00     0.074 A 
ATOM     61  C   UNL A   1      46.313  25.178  29.443  1.00  0.00     0.031 C 
ATOM     62  C   UNL A   1      46.615  27.277  30.727  1.00  0.00     0.037 A 
BRANCH  49  63
ATOM     63  C   UNL A   1      43.747  32.487  32.384  1.00  0.00     0.064 A 
ATOM     64  C   UNL A   1      44.176  33.642  31.710  1.00  0.00     0.173 A 
ATOM     65  C   UNL A   1      43.358  32.619  33.726  1.00  0.00     0.173 A 
ATOM     66  F   UNL A   1      44.565  33.571  30.429  1.00  0.00    -0.203 F 
ATOM     67  C   UNL A   1      44.241  34.870  32.363  1.00  0.00     0.198 A 
ATOM     68  C   UNL A   1      43.395  33.855  34.366  1.00  0.00     0.198 A 
ATOM     69  F   UNL A   1      42.929  31.550  34.414  1.00  0.00    -0.203 F 
ATOM     70  F   UNL A   1      44.700  35.949  31.713  1.00  0.00    -0.200 F 
ATOM     71  C   UNL A   1      43.845  34.978  33.688  1.00  0.00     0.200 A 
ATOM     72  F   UNL A   1      42.997  33.960  35.642  1.00  0.00    -0.200 F 
ATOM     73  F   UNL A   1      43.902  36.162  34.312  1.00  0.00    -0.200 F 
ENDBRANCH  49  63
BRANCH  50  74
ATOM     74  C   UNL A   1      42.846  23.883  27.422  1.00  0.00     0.064 A 
ATOM     75  C   UNL A   1      42.455  22.696  28.057  1.00  0.00     0.173 A 
ATOM     76  C   UNL A   1      43.127  23.826  26.049  1.00  0.00     0.173 A 
ATOM     77  F   UNL A   1      42.200  22.695  29.374  1.00  0.00    -0.203 F 
ATOM     78  C   UNL A   1      42.369  21.497  27.353  1.00  0.00     0.198 A 
ATOM     79  C   UNL A   1      43.011  22.632  25.340  1.00  0.00     0.198 A 
ATOM     80  F   UNL A   1      43.503  24.934  25.394  1.00  0.00    -0.203 F 
ATOM     81  F   UNL A   1      42.039  20.367  27.996  1.00  0.00    -0.200 F 
ATOM     82  C   UNL A   1      42.641  21.467  25.994  1.00  0.00     0.200 A 
ATOM     83  F   UNL A   1      43.263  22.609  24.025  1.00  0.00    -0.200 F 
ATOM     84  F   UNL A   1      42.554  20.314  25.316  1.00  0.00    -0.200 F 
ENDBRANCH  50  74
BRANCH  62  85
ATOM     85  C   UNL A   1      48.020  26.842  31.030  1.00  0.00     0.064 A 
ATOM     86  C   UNL A   1      48.313  26.016  32.125  1.00  0.00     0.173 A 
ATOM     87  C   UNL A   1      49.078  27.219  30.189  1.00  0.00     0.173 A 
ATOM     88  F   UNL A   1      47.338  25.641  32.968  1.00  0.00    -0.203 F 
ATOM     89  C   UNL A   1      49.617  25.602  32.380  1.00  0.00     0.198 A 
ATOM     90  C   UNL A   1      50.376  26.778  30.430  1.00  0.00     0.198 A 
ATOM     91  F   UNL A   1      48.851  28.003  29.125  1.00  0.00    -0.203 F 
ATOM     92  F   UNL A   1      49.880  24.848  33.457  1.00  0.00    -0.200 F 
ATOM     93  C   UNL A   1      50.646  25.976  31.528  1.00  0.00     0.200 A 
ATOM     94  F   UNL A   1      51.367  27.131  29.599  1.00  0.00    -0.200 F 
ATOM     95  F   UNL A   1      51.899  25.568  31.770  1.00  0.00    -0.200 F 
ENDBRANCH  62  85
ENDBRANCH  36  37
ENDBRANCH  28  31
ENDBRANCH  26  27
ENDBRANCH  25  26
ENDBRANCH  24  25
ENDBRANCH   3  24
TORSDOF 15
ENDMDL
MODEL 2
REMARK VINA RESULT:     -11.5      3.711      8.935
REMARK SMILES CC(=O)NCCNC(=O)C[N@@H+]1CC[C@@H](C(=O)NCCCNC(=O)c2ccc(-c3c4nc(c(-c5c(F)c(F)c(F)c(F)c5F)c5ccc([nH]5)c(-c5c(F)c(F)c(F)c(F)c5F)c5nc(c(-c6c(F)c(F)c(F)c(F)c6F)c6ccc3[nH]6)C=C5)C=C4)cc2)[C@H]1C
REMARK SMILES IDX 15 1 16 2 17 3 14 5 11 6 12 7 87 8 13 10 88 11 10 12 8 13
REMARK SMILES IDX 7 14 9 16 6 17 5 18 4 19 1 20 2 21 3 22 18 24 19 25 20 26
REMARK SMILES IDX 21 27 22 28 23 30 24 31 25 32 86 33 26 34 85 35 27 36 28 37
REMARK SMILES IDX 29 38 79 39 30 40 84 41 78 42 80 43 31 44 83 45 77 46 76 47
REMARK SMILES IDX 32 49 64 50 44 51 63 52 45 53 48 54 62 55 81 56 46 57 47 58
REMARK SMILES IDX 61 60 82 61 49 62 33 63 34 64 42 65 35 66 36 67 40 68 43 69
REMARK SMILES IDX 37 70 38 71 41 72 39 73 65 74 66 75 74 76 67 77 68 78 72 79
REMARK SMILES IDX 75 80 69 81 70 82 73 83 71 84 50 85 51 86 59 87 52 88 53 89
REMARK SMILES IDX 57 90 60 91 54 92 55 93 58 94 56 95
REMARK H PARENT 17 4 11 9 7 15 4 23 21 29 80 48 48 59
REMARK Flexibility Score: inf
ROOT
ATOM      1  C   UNL A   1      32.867  28.870  24.818  1.00  0.00     0.229 C 
ATOM      2  O   UNL A   1      33.612  28.863  23.829  1.00  0.00    -0.275 OA
ATOM      3  N   UNL A   1      32.353  30.076  25.172  1.00  0.00    -0.356 N 
ATOM      4  H   UNL A   1      32.690  30.823  24.625  1.00  0.00     0.163 HD
ENDROOT
BRANCH   1   5
ATOM      5  C   UNL A   1      32.634  27.564  25.571  1.00  0.00     0.142 C 
ATOM      6  N   UNL A   1      32.041  25.391  24.819  1.00  0.00    -0.324 N 
ATOM      7  C   UNL A   1      33.182  25.237  25.720  1.00  0.00     0.263 C 
ATOM      8  C   UNL A   1      31.436  26.696  25.152  1.00  0.00     0.194 C 
ATOM      9  H   UNL A   1      32.329  25.394  23.839  1.00  0.00     0.348 HD
ATOM     10  C   UNL A   1      33.825  26.617  25.671  1.00  0.00     0.081 C 
ATOM     11  C   UNL A   1      30.609  27.243  24.010  1.00  0.00     0.076 C 
BRANCH   6  12
ATOM     12  C   UNL A   1      31.122  24.238  24.852  1.00  0.00     0.363 C 
BRANCH  12  13
ATOM     13  C   UNL A   1      31.169  23.534  26.219  1.00  0.00     0.275 C 
ATOM     14  N   UNL A   1      31.681  22.274  26.351  1.00  0.00    -0.349 N 
ATOM     15  H   UNL A   1      31.792  21.976  27.283  1.00  0.00     0.163 HD
ATOM     16  O   UNL A   1      30.786  24.096  27.251  1.00  0.00    -0.269 OA
BRANCH  14  17
ATOM     17  C   UNL A   1      32.093  21.293  25.354  1.00  0.00     0.137 C 
BRANCH  17  18
ATOM     18  C   UNL A   1      33.285  20.404  25.754  1.00  0.00     0.137 C 
BRANCH  18  19
ATOM     19  N   UNL A   1      32.903  19.043  26.106  1.00  0.00    -0.355 N 
ATOM     20  C   UNL A   1      33.107  18.142  23.824  1.00  0.00     0.114 C 
ATOM     21  C   UNL A   1      32.898  17.943  25.299  1.00  0.00     0.216 C 
ATOM     22  O   UNL A   1      32.732  16.827  25.790  1.00  0.00    -0.275 OA
ATOM     23  H   UNL A   1      32.616  18.899  27.037  1.00  0.00     0.163 HD
ENDBRANCH  18  19
ENDBRANCH  17  18
ENDBRANCH  14  17
ENDBRANCH  12  13
ENDBRANCH   6  12
ENDBRANCH   1   5
BRANCH   3  24
ATOM     24  C   UNL A   1      31.402  30.488  26.197  1.00  0.00     0.117 C 
BRANCH  24  25
ATOM     25  C   UNL A   1      31.398  31.993  26.501  1.00  0.00     0.042 C 
BRANCH  25  26
ATOM     26  C   UNL A   1      32.711  32.586  26.986  1.00  0.00     0.118 C 
BRANCH  26  27
ATOM     27  N   UNL A   1      32.559  33.962  27.411  1.00  0.00    -0.352 N 
ATOM     28  C   UNL A   1      33.079  34.622  28.497  1.00  0.00     0.251 C 
ATOM     29  H   UNL A   1      31.992  34.514  26.825  1.00  0.00     0.163 HD
ATOM     30  O   UNL A   1      32.592  35.708  28.809  1.00  0.00    -0.269 OA
BRANCH  28  31
ATOM     31  C   UNL A   1      34.197  34.073  29.310  1.00  0.00     0.039 A 
ATOM     32  C   UNL A   1      35.508  34.392  28.929  1.00  0.00     0.014 A 
ATOM     33  C   UNL A   1      34.001  33.169  30.356  1.00  0.00     0.014 A 
ATOM     34  C   UNL A   1      36.601  33.829  29.599  1.00  0.00     0.010 A 
ATOM     35  C   UNL A   1      35.090  32.675  31.083  1.00  0.00     0.010 A 
ATOM     36  C   UNL A   1      36.404  32.975  30.695  1.00  0.00    -0.014 A 
BRANCH  36  37
ATOM     37  C   UNL A   1      37.556  32.353  31.409  1.00  0.00     0.031 A 
ATOM     38  C   UNL A   1      38.312  31.209  30.782  1.00  0.00     0.074 A 
ATOM     39  C   UNL A   1      37.906  32.789  32.635  1.00  0.00     0.049 A 
ATOM     40  N   UNL A   1      39.305  30.502  31.269  1.00  0.00    -0.248 NA
ATOM     41  C   UNL A   1      37.882  30.785  29.442  1.00  0.00     0.031 C 
ATOM     42  C   UNL A   1      37.239  33.861  33.373  1.00  0.00     0.029 A 
ATOM     43  N   UNL A   1      38.906  32.374  33.483  1.00  0.00    -0.354 N 
ATOM     44  C   UNL A   1      39.596  29.544  30.305  1.00  0.00     0.074 A 
ATOM     45  C   UNL A   1      38.648  29.726  29.229  1.00  0.00     0.031 C 
ATOM     46  C   UNL A   1      37.859  34.036  34.551  1.00  0.00     0.029 A 
ATOM     47  C   UNL A   1      38.942  33.064  34.670  1.00  0.00     0.049 A 
ATOM     48  H   UNL A   1      39.537  31.653  33.260  1.00  0.00     0.167 HD
ATOM     49  C   UNL A   1      40.581  28.612  30.305  1.00  0.00     0.037 A 
ATOM     50  C   UNL A   1      39.750  32.923  35.740  1.00  0.00     0.037 A 
ATOM     51  C   UNL A   1      41.549  28.452  31.358  1.00  0.00     0.049 A 
ATOM     52  C   UNL A   1      40.831  31.877  35.718  1.00  0.00     0.074 A 
ATOM     53  C   UNL A   1      42.627  27.586  31.415  1.00  0.00     0.029 A 
ATOM     54  N   UNL A   1      41.556  29.176  32.540  1.00  0.00    -0.354 N 
ATOM     55  N   UNL A   1      41.139  31.024  34.772  1.00  0.00    -0.248 NA
ATOM     56  C   UNL A   1      41.681  31.777  36.913  1.00  0.00     0.031 C 
ATOM     57  C   UNL A   1      43.258  27.752  32.653  1.00  0.00     0.029 A 
ATOM     58  C   UNL A   1      42.603  28.757  33.346  1.00  0.00     0.049 A 
ATOM     59  H   UNL A   1      40.912  29.883  32.774  1.00  0.00     0.167 HD
ATOM     60  C   UNL A   1      42.228  30.304  35.246  1.00  0.00     0.074 A 
ATOM     61  C   UNL A   1      42.540  30.832  36.557  1.00  0.00     0.031 C 
ATOM     62  C   UNL A   1      42.906  29.293  34.648  1.00  0.00     0.037 A 
BRANCH  49  63
ATOM     63  C   UNL A   1      40.666  27.689  29.123  1.00  0.00     0.064 A 
ATOM     64  C   UNL A   1      39.804  26.589  28.983  1.00  0.00     0.173 A 
ATOM     65  C   UNL A   1      41.589  27.931  28.093  1.00  0.00     0.173 A 
ATOM     66  F   UNL A   1      38.907  26.308  29.940  1.00  0.00    -0.203 F 
ATOM     67  C   UNL A   1      39.887  25.749  27.875  1.00  0.00     0.198 A 
ATOM     68  C   UNL A   1      41.648  27.107  26.973  1.00  0.00     0.198 A 
ATOM     69  F   UNL A   1      42.429  28.975  28.170  1.00  0.00    -0.203 F 
ATOM     70  F   UNL A   1      39.087  24.677  27.789  1.00  0.00    -0.200 F 
ATOM     71  C   UNL A   1      40.803  26.012  26.868  1.00  0.00     0.200 A 
ATOM     72  F   UNL A   1      42.523  27.371  25.993  1.00  0.00    -0.200 F 
ATOM     73  F   UNL A   1      40.876  25.206  25.800  1.00  0.00    -0.200 F 
ENDBRANCH  49  63
BRANCH  50  74
ATOM     74  C   UNL A   1      39.578  33.811  36.919  1.00  0.00     0.064 A 
ATOM     75  C   UNL A   1      40.199  35.068  36.972  1.00  0.00     0.173 A 
ATOM     76  C   UNL A   1      38.797  33.424  38.018  1.00  0.00     0.173 A 
ATOM     77  F   UNL A   1      40.977  35.472  35.956  1.00  0.00    -0.203 F 
ATOM     78  C   UNL A   1      40.060  35.894  38.084  1.00  0.00     0.198 A 
ATOM     79  C   UNL A   1      38.635  34.264  39.118  1.00  0.00     0.198 A 
ATOM     80  F   UNL A   1      38.181  32.233  38.018  1.00  0.00    -0.203 F 
ATOM     81  F   UNL A   1      40.703  37.070  38.127  1.00  0.00    -0.200 F 
ATOM     82  C   UNL A   1      39.274  35.495  39.154  1.00  0.00     0.200 A 
ATOM     83  F   UNL A   1      37.865  33.880  40.144  1.00  0.00    -0.200 F 
ATOM     84  F   UNL A   1      39.137  36.291  40.223  1.00  0.00    -0.200 F 
ENDBRANCH  50  74
BRANCH  62  85
ATOM     85  C   UNL A   1      44.068  28.706  35.394  1.00  0.00     0.064 A 
ATOM     86  C   UNL A   1      45.366  29.216  35.251  1.00  0.00     0.173 A 
ATOM     87  C   UNL A   1      43.872  27.651  36.300  1.00  0.00     0.173 A 
ATOM     88  F   UNL A   1      45.608  30.214  34.387  1.00  0.00    -0.203 F 
ATOM     89  C   UNL A   1      46.431  28.677  35.969  1.00  0.00     0.198 A 
ATOM     90  C   UNL A   1      44.934  27.134  37.037  1.00  0.00     0.198 A 
ATOM     91  F   UNL A   1      42.649  27.131  36.479  1.00  0.00    -0.203 F 
ATOM     92  F   UNL A   1      47.670  29.151  35.783  1.00  0.00    -0.200 F 
ATOM     93  C   UNL A   1      46.212  27.643  36.867  1.00  0.00     0.200 A 
ATOM     94  F   UNL A   1      44.719  26.144  37.914  1.00  0.00    -0.200 F 
ATOM     95  F   UNL A   1      47.236  27.132  37.564  1.00  0.00    -0.200 F 
ENDBRANCH  62  85
ENDBRANCH  36  37
ENDBRANCH  28  31
ENDBRANCH  26  27
ENDBRANCH  25  26
ENDBRANCH  24  25
ENDBRANCH   3  24
TORSDOF 15
ENDMDL
MODEL 3
REMARK VINA RESULT:     -11.5      0.179      1.968
REMARK SMILES CC(=O)NCCNC(=O)C[N@@H+]1CC[C@@H](C(=O)NCCCNC(=O)c2ccc(-c3c4nc(c(-c5c(F)c(F)c(F)c(F)c5F)c5ccc([nH]5)c(-c5c(F)c(F)c(F)c(F)c5F)c5nc(c(-c6c(F)c(F)c(F)c(F)c6F)c6ccc3[nH]6)C=C5)C=C4)cc2)[C@H]1C
REMARK SMILES IDX 15 1 16 2 17 3 14 5 11 6 12 7 87 8 13 10 88 11 10 12 8 13
REMARK SMILES IDX 7 14 9 16 6 17 5 18 4 19 1 20 2 21 3 22 18 24 19 25 20 26
REMARK SMILES IDX 21 27 22 28 23 30 24 31 25 32 86 33 26 34 85 35 27 36 28 37
REMARK SMILES IDX 29 38 79 39 30 40 84 41 78 42 80 43 31 44 83 45 77 46 76 47
REMARK SMILES IDX 32 49 64 50 44 51 63 52 45 53 48 54 62 55 81 56 46 57 47 58
REMARK SMILES IDX 61 60 82 61 49 62 33 63 34 64 42 65 35 66 36 67 40 68 43 69
REMARK SMILES IDX 37 70 38 71 41 72 39 73 65 74 66 75 74 76 67 77 68 78 72 79
REMARK SMILES IDX 75 80 69 81 70 82 73 83 71 84 50 85 51 86 59 87 52 88 53 89
REMARK SMILES IDX 57 90 60 91 54 92 55 93 58 94 56 95
REMARK H PARENT 17 4 11 9 7 15 4 23 21 29 80 48 48 59
REMARK Flexibility Score: inf
ROOT
ATOM      1  C   UNL A   1      31.433  25.288  26.240  1.00  0.00     0.229 C 
ATOM      2  O   UNL A   1      31.073  24.604  27.208  1.00  0.00    -0.275 OA
ATOM      3  N   UNL A   1      31.348  26.635  26.394  1.00  0.00    -0.356 N 
ATOM      4  H   UNL A   1      30.945  26.909  27.250  1.00  0.00     0.163 HD
ENDROOT
BRANCH   1   5
ATOM      5  C   UNL A   1      31.883  24.579  24.967  1.00  0.00     0.142 C 
ATOM      6  N   UNL A   1      33.289  22.697  24.620  1.00  0.00    -0.324 N 
ATOM      7  C   UNL A   1      32.078  22.480  23.831  1.00  0.00     0.263 C 
ATOM      8  C   UNL A   1      33.356  24.152  24.864  1.00  0.00     0.194 C 
ATOM      9  H   UNL A   1      33.253  22.208  25.515  1.00  0.00     0.348 HD
ATOM     10  C   UNL A   1      31.063  23.367  24.540  1.00  0.00     0.081 C 
ATOM     11  C   UNL A   1      34.212  24.484  26.067  1.00  0.00     0.076 C 
BRANCH   6  12
ATOM     12  C   UNL A   1      34.491  22.100  24.007  1.00  0.00     0.363 C 
BRANCH  12  13
ATOM     13  C   UNL A   1      35.206  21.162  24.994  1.00  0.00     0.275 C 
ATOM     14  N   UNL A   1      34.739  19.901  25.238  1.00  0.00    -0.349 N 
ATOM     15  H   UNL A   1      35.346  19.340  25.775  1.00  0.00     0.163 HD
ATOM     16  O   UNL A   1      36.246  21.498  25.570  1.00  0.00    -0.269 OA
BRANCH  14  17
ATOM     17  C   UNL A   1      33.502  19.238  24.842  1.00  0.00     0.137 C 
BRANCH  17  18
ATOM     18  C   UNL A   1      33.670  18.032  23.900  1.00  0.00     0.137 C 
BRANCH  18  19
ATOM     19  N   UNL A   1      34.654  17.064  24.364  1.00  0.00    -0.355 N 
ATOM     20  C   UNL A   1      33.033  15.612  25.515  1.00  0.00     0.114 C 
ATOM     21  C   UNL A   1      34.424  15.888  25.017  1.00  0.00     0.216 C 
ATOM     22  O   UNL A   1      35.345  15.088  25.175  1.00  0.00    -0.275 OA
ATOM     23  H   UNL A   1      35.597  17.283  24.185  1.00  0.00     0.163 HD
ENDBRANCH  18  19
ENDBRANCH  17  18
ENDBRANCH  14  17
ENDBRANCH  12  13
ENDBRANCH   6  12
ENDBRANCH   1   5
BRANCH   3  24
ATOM     24  C   UNL A   1      31.734  27.757  25.547  1.00  0.00     0.117 C 
BRANCH  24  25
ATOM     25  C   UNL A   1      33.193  28.209  25.707  1.00  0.00     0.042 C 
BRANCH  25  26
ATOM     26  C   UNL A   1      33.682  28.416  27.131  1.00  0.00     0.118 C 
BRANCH  26  27
ATOM     27  N   UNL A   1      33.692  29.815  27.503  1.00  0.00    -0.352 N 
ATOM     28  C   UNL A   1      34.634  30.552  28.178  1.00  0.00     0.251 C 
ATOM     29  H   UNL A   1      32.894  30.321  27.225  1.00  0.00     0.163 HD
ATOM     30  O   UNL A   1      34.307  31.651  28.624  1.00  0.00    -0.269 OA
BRANCH  28  31
ATOM     31  C   UNL A   1      36.025  30.070  28.394  1.00  0.00     0.039 A 
ATOM     32  C   UNL A   1      36.355  29.554  29.654  1.00  0.00     0.014 A 
ATOM     33  C   UNL A   1      37.035  30.218  27.441  1.00  0.00     0.014 A 
ATOM     34  C   UNL A   1      37.671  29.173  29.945  1.00  0.00     0.010 A 
ATOM     35  C   UNL A   1      38.330  29.757  27.700  1.00  0.00     0.010 A 
ATOM     36  C   UNL A   1      38.672  29.256  28.965  1.00  0.00    -0.014 A 
BRANCH  36  37
ATOM     37  C   UNL A   1      40.081  28.872  29.263  1.00  0.00     0.031 A 
ATOM     38  C   UNL A   1      40.972  29.797  30.052  1.00  0.00     0.074 A 
ATOM     39  C   UNL A   1      40.577  27.708  28.798  1.00  0.00     0.049 A 
ATOM     40  N   UNL A   1      42.239  29.665  30.365  1.00  0.00    -0.248 NA
ATOM     41  C   UNL A   1      40.369  31.049  30.532  1.00  0.00     0.031 C 
ATOM     42  C   UNL A   1      39.838  26.736  27.993  1.00  0.00     0.029 A 
ATOM     43  N   UNL A   1      41.826  27.149  28.929  1.00  0.00    -0.354 N 
ATOM     44  C   UNL A   1      42.583  30.822  31.055  1.00  0.00     0.074 A 
ATOM     45  C   UNL A   1      41.408  31.666  31.073  1.00  0.00     0.031 C 
ATOM     46  C   UNL A   1      40.637  25.693  27.720  1.00  0.00     0.029 A 
ATOM     47  C   UNL A   1      41.955  25.937  28.296  1.00  0.00     0.049 A 
ATOM     48  H   UNL A   1      42.558  27.576  29.430  1.00  0.00     0.167 HD
ATOM     49  C   UNL A   1      43.762  31.143  31.642  1.00  0.00     0.037 A 
ATOM     50  C   UNL A   1      43.020  25.118  28.183  1.00  0.00     0.037 A 
ATOM     51  C   UNL A   1      44.921  30.290  31.656  1.00  0.00     0.049 A 
ATOM     52  C   UNL A   1      44.320  25.499  28.839  1.00  0.00     0.074 A 
ATOM     53  C   UNL A   1      46.137  30.497  32.286  1.00  0.00     0.029 A 
ATOM     54  N   UNL A   1      45.009  29.067  31.010  1.00  0.00    -0.354 N 
ATOM     55  N   UNL A   1      44.610  26.564  29.546  1.00  0.00    -0.248 NA
ATOM     56  C   UNL A   1      45.441  24.562  28.681  1.00  0.00     0.031 C 
ATOM     57  C   UNL A   1      46.977  29.420  31.981  1.00  0.00     0.029 A 
ATOM     58  C   UNL A   1      46.268  28.519  31.202  1.00  0.00     0.049 A 
ATOM     59  H   UNL A   1      44.285  28.649  30.490  1.00  0.00     0.167 HD
ATOM     60  C   UNL A   1      45.934  26.415  29.937  1.00  0.00     0.074 A 
ATOM     61  C   UNL A   1      46.388  25.148  29.403  1.00  0.00     0.031 C 
ATOM     62  C   UNL A   1      46.706  27.255  30.669  1.00  0.00     0.037 A 
BRANCH  49  63
ATOM     63  C   UNL A   1      43.859  32.478  32.325  1.00  0.00     0.064 A 
ATOM     64  C   UNL A   1      43.529  32.638  33.680  1.00  0.00     0.173 A 
ATOM     65  C   UNL A   1      44.330  33.603  31.629  1.00  0.00     0.173 A 
ATOM     66  F   UNL A   1      43.068  31.598  34.390  1.00  0.00    -0.203 F 
ATOM     67  C   UNL A   1      43.635  33.879  34.302  1.00  0.00     0.198 A 
ATOM     68  C   UNL A   1      44.464  34.835  32.263  1.00  0.00     0.198 A 
ATOM     69  F   UNL A   1      44.670  33.504  30.335  1.00  0.00    -0.203 F 
ATOM     70  F   UNL A   1      43.267  34.017  35.584  1.00  0.00    -0.200 F 
ATOM     71  C   UNL A   1      44.109  34.974  33.596  1.00  0.00     0.200 A 
ATOM     72  F   UNL A   1      44.936  35.889  31.584  1.00  0.00    -0.200 F 
ATOM     73  F   UNL A   1      44.217  36.167  34.199  1.00  0.00    -0.200 F 
ENDBRANCH  49  63
BRANCH  50  74
ATOM     74  C   UNL A   1      42.896  23.841  27.432  1.00  0.00     0.064 A 
ATOM     75  C   UNL A   1      43.285  23.756  26.087  1.00  0.00     0.173 A 
ATOM     76  C   UNL A   1      42.385  22.684  28.037  1.00  0.00     0.173 A 
ATOM     77  F   UNL A   1      43.756  24.843  25.458  1.00  0.00    -0.203 F 
ATOM     78  C   UNL A   1      43.149  22.569  25.371  1.00  0.00     0.198 A 
ATOM     79  C   UNL A   1      42.276  21.489  27.328  1.00  0.00     0.198 A 
ATOM     80  F   UNL A   1      41.999  22.712  29.321  1.00  0.00    -0.203 F 
ATOM     81  F   UNL A   1      43.484  22.529  24.074  1.00  0.00    -0.200 F 
ATOM     82  C   UNL A   1      42.651  21.434  25.994  1.00  0.00     0.200 A 
ATOM     83  F   UNL A   1      41.806  20.392  27.936  1.00  0.00    -0.200 F 
ATOM     84  F   UNL A   1      42.524  20.291  25.307  1.00  0.00    -0.200 F 
ENDBRANCH  50  74
BRANCH  62  85
ATOM     85  C   UNL A   1      48.113  26.822  30.959  1.00  0.00     0.064 A 
ATOM     86  C   UNL A   1      49.188  27.234  30.158  1.00  0.00     0.173 A 
ATOM     87  C   UNL A   1      48.395  26.024  32.079  1.00  0.00     0.173 A 
ATOM     88  F   UNL A   1      48.969  27.985  29.068  1.00  0.00    -0.203 F 
ATOM     89  C   UNL A   1      50.492  26.844  30.454  1.00  0.00     0.198 A 
ATOM     90  C   UNL A   1      49.703  25.660  32.388  1.00  0.00     0.198 A 
ATOM     91  F   UNL A   1      47.404  25.609  32.880  1.00  0.00    -0.203 F 
ATOM     92  F   UNL A   1      51.498  27.213  29.650  1.00  0.00    -0.200 F 
ATOM     93  C   UNL A   1      50.748  26.065  31.573  1.00  0.00     0.200 A 
ATOM     94  F   UNL A   1      49.951  24.918  33.476  1.00  0.00    -0.200 F 
ATOM     95  F   UNL A   1      52.005  25.698  31.860  1.00  0.00    -0.200 F 
ENDBRANCH  62  85
ENDBRANCH  36  37
ENDBRANCH  28  31
ENDBRANCH  26  27
ENDBRANCH  25  26
ENDBRANCH  24  25
ENDBRANCH   3  24
TORSDOF 15
ENDMDL
