MODEL 1
REMARK VINA RESULT:     -12.4      0.000      0.000
REMARK SMILES O=C(NCCCNC(=O)c1ccc(COc2cccc(Cl)c2Cl)o1)c1ccc(-c2c3nc(c(-c4c(F)c(F)c(F)c(F)c4F)c4ccc([nH]4)c(-c4c(F)c(F)c(F)c(F)c4F)c4nc(c(-c5c(F)c(F)c(F)c(F)c5F)c5ccc2[nH]5)C=C4)C=C3)cc1
REMARK SMILES IDX 5 1 4 2 3 3 1 4 2 5 25 7 26 8 87 9 27 10 86 11 28 12 29 13
REMARK SMILES IDX 30 14 80 15 31 16 85 17 79 18 81 19 32 20 84 21 78 22 77 23
REMARK SMILES IDX 33 25 65 26 45 27 64 28 46 29 49 30 63 31 82 32 47 33 48 34
REMARK SMILES IDX 62 36 83 37 50 38 34 39 35 40 43 41 36 42 37 43 41 44 44 45
REMARK SMILES IDX 38 46 39 47 42 48 40 49 66 50 67 51 75 52 68 53 69 54 73 55
REMARK SMILES IDX 76 56 70 57 71 58 74 59 72 60 51 61 52 62 60 63 53 64 54 65
REMARK SMILES IDX 58 66 61 67 55 68 56 69 59 70 57 71 6 72 7 73 8 74 9 76
REMARK SMILES IDX 10 77 11 78 24 79 12 80 13 81 14 82 15 83 16 84 17 85 22 86
REMARK SMILES IDX 18 87 20 88 23 89 19 90 21 91
REMARK H PARENT 3 6 81 24 49 35 7 75
REMARK Flexibility Score: inf
ROOT
ATOM      1  C   UNL A   1      31.427  32.213  26.604  1.00  0.00     0.042 C 
ENDROOT
BRANCH   1   2
ATOM      2  C   UNL A   1      32.672  32.782  27.279  1.00  0.00     0.118 C 
BRANCH   2   3
ATOM      3  N   UNL A   1      32.504  34.186  27.625  1.00  0.00    -0.352 N 
ATOM      4  O   UNL A   1      32.540  36.004  28.943  1.00  0.00    -0.269 OA
ATOM      5  C   UNL A   1      33.026  34.908  28.664  1.00  0.00     0.251 C 
ATOM      6  H   UNL A   1      31.922  34.696  27.016  1.00  0.00     0.163 HD
BRANCH   5   7
ATOM      7  C   UNL A   1      34.175  34.400  29.446  1.00  0.00     0.039 A 
ATOM      8  C   UNL A   1      33.981  33.741  30.663  1.00  0.00     0.014 A 
ATOM      9  C   UNL A   1      35.457  34.486  28.895  1.00  0.00     0.014 A 
ATOM     10  C   UNL A   1      35.072  33.240  31.366  1.00  0.00     0.010 A 
ATOM     11  C   UNL A   1      36.546  33.925  29.568  1.00  0.00     0.010 A 
ATOM     12  C   UNL A   1      36.360  33.299  30.809  1.00  0.00    -0.014 A 
BRANCH  12  13
ATOM     13  C   UNL A   1      37.473  32.585  31.478  1.00  0.00     0.031 A 
ATOM     14  C   UNL A   1      38.174  31.439  30.817  1.00  0.00     0.074 A 
ATOM     15  C   UNL A   1      37.836  32.989  32.711  1.00  0.00     0.049 A 
ATOM     16  N   UNL A   1      39.163  30.710  31.270  1.00  0.00    -0.248 NA
ATOM     17  C   UNL A   1      37.704  31.049  29.479  1.00  0.00     0.031 C 
ATOM     18  C   UNL A   1      37.198  34.072  33.464  1.00  0.00     0.029 A 
ATOM     19  N   UNL A   1      38.826  32.543  33.548  1.00  0.00    -0.354 N 
ATOM     20  C   UNL A   1      39.421  29.767  30.286  1.00  0.00     0.074 A 
ATOM     21  C   UNL A   1      38.479  30.004  29.213  1.00  0.00     0.031 C 
ATOM     22  C   UNL A   1      37.827  34.222  34.638  1.00  0.00     0.029 A 
ATOM     23  C   UNL A   1      38.880  33.219  34.741  1.00  0.00     0.049 A 
ATOM     24  H   UNL A   1      39.439  31.808  33.315  1.00  0.00     0.167 HD
ATOM     25  C   UNL A   1      40.367  28.798  30.283  1.00  0.00     0.037 A 
ATOM     26  C   UNL A   1      39.676  33.039  35.810  1.00  0.00     0.037 A 
ATOM     27  C   UNL A   1      41.326  28.594  31.337  1.00  0.00     0.049 A 
ATOM     28  C   UNL A   1      40.708  31.952  35.778  1.00  0.00     0.074 A 
ATOM     29  C   UNL A   1      42.395  27.715  31.372  1.00  0.00     0.029 A 
ATOM     30  N   UNL A   1      41.327  29.272  32.545  1.00  0.00    -0.354 N 
ATOM     31  N   UNL A   1      40.987  31.113  34.812  1.00  0.00    -0.248 NA
ATOM     32  C   UNL A   1      41.523  31.776  36.986  1.00  0.00     0.031 C 
ATOM     33  C   UNL A   1      43.018  27.833  32.620  1.00  0.00     0.029 A 
ATOM     34  C   UNL A   1      42.352  28.804  33.351  1.00  0.00     0.049 A 
ATOM     35  H   UNL A   1      40.691  29.982  32.796  1.00  0.00     0.167 HD
ATOM     36  C   UNL A   1      42.003  30.303  35.295  1.00  0.00     0.074 A 
ATOM     37  C   UNL A   1      42.311  30.770  36.631  1.00  0.00     0.031 C 
ATOM     38  C   UNL A   1      42.621  29.263  34.687  1.00  0.00     0.037 A 
BRANCH  25  39
ATOM     39  C   UNL A   1      40.419  27.874  29.107  1.00  0.00     0.064 A 
ATOM     40  C   UNL A   1      39.652  26.701  29.062  1.00  0.00     0.173 A 
ATOM     41  C   UNL A   1      41.182  28.208  27.979  1.00  0.00     0.173 A 
ATOM     42  F   UNL A   1      38.912  26.337  30.120  1.00  0.00    -0.203 F 
ATOM     43  C   UNL A   1      39.652  25.892  27.928  1.00  0.00     0.198 A 
ATOM     44  C   UNL A   1      41.169  27.404  26.842  1.00  0.00     0.198 A 
ATOM     45  F   UNL A   1      41.930  29.322  27.975  1.00  0.00    -0.203 F 
ATOM     46  F   UNL A   1      38.924  24.767  27.909  1.00  0.00    -0.200 F 
ATOM     47  C   UNL A   1      40.404  26.248  26.818  1.00  0.00     0.200 A 
ATOM     48  F   UNL A   1      41.891  27.752  25.768  1.00  0.00    -0.200 F 
ATOM     49  F   UNL A   1      40.394  25.473  25.723  1.00  0.00    -0.200 F 
ENDBRANCH  25  39
BRANCH  26  50
ATOM     50  C   UNL A   1      39.502  33.900  37.005  1.00  0.00     0.064 A 
ATOM     51  C   UNL A   1      40.077  35.175  37.067  1.00  0.00     0.173 A 
ATOM     52  C   UNL A   1      38.735  33.471  38.099  1.00  0.00     0.173 A 
ATOM     53  F   UNL A   1      40.834  35.619  36.051  1.00  0.00    -0.203 F 
ATOM     54  C   UNL A   1      39.895  35.991  38.182  1.00  0.00     0.198 A 
ATOM     55  C   UNL A   1      38.536  34.295  39.204  1.00  0.00     0.198 A 
ATOM     56  F   UNL A   1      38.164  32.258  38.083  1.00  0.00    -0.203 F 
ATOM     57  F   UNL A   1      40.476  37.197  38.229  1.00  0.00    -0.200 F 
ATOM     58  C   UNL A   1      39.119  35.553  39.246  1.00  0.00     0.200 A 
ATOM     59  F   UNL A   1      37.776  33.872  40.223  1.00  0.00    -0.200 F 
ATOM     60  F   UNL A   1      38.937  36.341  40.314  1.00  0.00    -0.200 F 
ENDBRANCH  26  50
BRANCH  38  61
ATOM     61  C   UNL A   1      43.669  28.545  35.478  1.00  0.00     0.064 A 
ATOM     62  C   UNL A   1      45.021  28.901  35.371  1.00  0.00     0.173 A 
ATOM     63  C   UNL A   1      43.322  27.516  36.364  1.00  0.00     0.173 A 
ATOM     64  F   UNL A   1      45.399  29.867  34.519  1.00  0.00    -0.203 F 
ATOM     65  C   UNL A   1      45.992  28.241  36.116  1.00  0.00     0.198 A 
ATOM     66  C   UNL A   1      44.294  26.870  37.122  1.00  0.00     0.198 A 
ATOM     67  F   UNL A   1      42.040  27.144  36.499  1.00  0.00    -0.203 F 
ATOM     68  F   UNL A   1      47.284  28.573  35.975  1.00  0.00    -0.200 F 
ATOM     69  C   UNL A   1      45.628  27.231  36.994  1.00  0.00     0.200 A 
ATOM     70  F   UNL A   1      43.942  25.898  37.973  1.00  0.00    -0.200 F 
ATOM     71  F   UNL A   1      46.565  26.597  37.712  1.00  0.00    -0.200 F 
ENDBRANCH  38  61
ENDBRANCH  12  13
ENDBRANCH   5   7
ENDBRANCH   2   3
ENDBRANCH   1   2
BRANCH   1  72
ATOM     72  C   UNL A   1      31.624  30.799  26.066  1.00  0.00     0.118 C 
BRANCH  72  73
ATOM     73  N   UNL A   1      31.686  29.823  27.144  1.00  0.00    -0.349 N 
ATOM     74  C   UNL A   1      31.781  28.464  27.068  1.00  0.00     0.286 C 
ATOM     75  H   UNL A   1      31.655  30.196  28.054  1.00  0.00     0.163 HD
ATOM     76  O   UNL A   1      31.477  27.831  28.107  1.00  0.00    -0.266 OA
BRANCH  74  77
ATOM     77  C   UNL A   1      32.227  27.818  25.864  1.00  0.00     0.191 A 
ATOM     78  C   UNL A   1      33.478  27.681  25.273  1.00  0.00     0.057 A 
ATOM     79  O   UNL A   1      31.321  27.094  25.140  1.00  0.00    -0.452 OA
ATOM     80  C   UNL A   1      33.313  26.855  24.136  1.00  0.00     0.050 A 
ATOM     81  C   UNL A   1      31.984  26.489  24.115  1.00  0.00     0.142 A 
BRANCH  81  82
ATOM     82  C   UNL A   1      31.205  25.532  23.285  1.00  0.00     0.304 C 
BRANCH  82  83
ATOM     83  O   UNL A   1      30.650  24.512  24.136  1.00  0.00    -0.484 OA
BRANCH  83  84
ATOM     84  C   UNL A   1      31.485  23.430  24.269  1.00  0.00     0.140 A 
ATOM     85  C   UNL A   1      31.779  22.684  23.123  1.00  0.00     0.048 A 
ATOM     86  C   UNL A   1      32.103  23.131  25.491  1.00  0.00     0.101 A 
ATOM     87  C   UNL A   1      32.636  21.589  23.200  1.00  0.00     0.005 A 
ATOM     88  C   UNL A   1      32.980  22.040  25.556  1.00  0.00     0.063 A 
ATOM     89  Cl  UNL A   1      31.772  24.112  26.879  1.00  0.00    -0.079 Cl
ATOM     90  C   UNL A   1      33.234  21.267  24.416  1.00  0.00     0.022 A 
ATOM     91  Cl  UNL A   1      33.791  21.588  27.016  1.00  0.00    -0.083 Cl
ENDBRANCH  83  84
ENDBRANCH  82  83
ENDBRANCH  81  82
ENDBRANCH  74  77
ENDBRANCH  72  73
ENDBRANCH   1  72
TORSDOF 13
ENDMDL
MODEL 2
REMARK VINA RESULT:     -12.4      0.752      1.781
REMARK SMILES O=C(NCCCNC(=O)c1ccc(COc2cccc(Cl)c2Cl)o1)c1ccc(-c2c3nc(c(-c4c(F)c(F)c(F)c(F)c4F)c4ccc([nH]4)c(-c4c(F)c(F)c(F)c(F)c4F)c4nc(c(-c5c(F)c(F)c(F)c(F)c5F)c5ccc2[nH]5)C=C4)C=C3)cc1
REMARK SMILES IDX 5 1 4 2 3 3 1 4 2 5 25 7 26 8 87 9 27 10 86 11 28 12 29 13
REMARK SMILES IDX 30 14 80 15 31 16 85 17 79 18 81 19 32 20 84 21 78 22 77 23
REMARK SMILES IDX 33 25 65 26 45 27 64 28 46 29 49 30 63 31 82 32 47 33 48 34
REMARK SMILES IDX 62 36 83 37 50 38 34 39 35 40 43 41 36 42 37 43 41 44 44 45
REMARK SMILES IDX 38 46 39 47 42 48 40 49 66 50 67 51 75 52 68 53 69 54 73 55
REMARK SMILES IDX 76 56 70 57 71 58 74 59 72 60 51 61 52 62 60 63 53 64 54 65
REMARK SMILES IDX 58 66 61 67 55 68 56 69 59 70 57 71 6 72 7 73 8 74 9 76
REMARK SMILES IDX 10 77 11 78 24 79 12 80 13 81 14 82 15 83 16 84 17 85 22 86
REMARK SMILES IDX 18 87 20 88 23 89 19 90 21 91
REMARK H PARENT 3 6 81 24 49 35 7 75
REMARK Flexibility Score: inf
ROOT
ATOM      1  C   UNL A   1      31.410  32.184  26.578  1.00  0.00     0.042 C 
ENDROOT
BRANCH   1   2
ATOM      2  C   UNL A   1      32.646  32.728  27.290  1.00  0.00     0.118 C 
BRANCH   2   3
ATOM      3  N   UNL A   1      32.509  34.143  27.604  1.00  0.00    -0.352 N 
ATOM      4  O   UNL A   1      32.595  35.990  28.878  1.00  0.00    -0.269 OA
ATOM      5  C   UNL A   1      33.057  34.879  28.620  1.00  0.00     0.251 C 
ATOM      6  H   UNL A   1      31.930  34.650  26.990  1.00  0.00     0.163 HD
BRANCH   5   7
ATOM      7  C   UNL A   1      34.204  34.367  29.402  1.00  0.00     0.039 A 
ATOM      8  C   UNL A   1      34.006  33.664  30.593  1.00  0.00     0.014 A 
ATOM      9  C   UNL A   1      35.492  34.496  28.873  1.00  0.00     0.014 A 
ATOM     10  C   UNL A   1      35.097  33.161  31.295  1.00  0.00     0.010 A 
ATOM     11  C   UNL A   1      36.582  33.933  29.542  1.00  0.00     0.010 A 
ATOM     12  C   UNL A   1      36.391  33.263  30.759  1.00  0.00    -0.014 A 
BRANCH  12  13
ATOM     13  C   UNL A   1      37.509  32.549  31.420  1.00  0.00     0.031 A 
ATOM     14  C   UNL A   1      38.198  31.396  30.758  1.00  0.00     0.074 A 
ATOM     15  C   UNL A   1      37.886  32.958  32.647  1.00  0.00     0.049 A 
ATOM     16  N   UNL A   1      39.189  30.665  31.205  1.00  0.00    -0.248 NA
ATOM     17  C   UNL A   1      37.712  31.000  29.427  1.00  0.00     0.031 C 
ATOM     18  C   UNL A   1      37.260  34.047  33.400  1.00  0.00     0.029 A 
ATOM     19  N   UNL A   1      38.884  32.513  33.476  1.00  0.00    -0.354 N 
ATOM     20  C   UNL A   1      39.433  29.716  30.223  1.00  0.00     0.074 A 
ATOM     21  C   UNL A   1      38.480  29.950  29.160  1.00  0.00     0.031 C 
ATOM     22  C   UNL A   1      37.902  34.202  34.567  1.00  0.00     0.029 A 
ATOM     23  C   UNL A   1      38.953  33.195  34.664  1.00  0.00     0.049 A 
ATOM     24  H   UNL A   1      39.491  31.774  33.241  1.00  0.00     0.167 HD
ATOM     25  C   UNL A   1      40.375  28.743  30.216  1.00  0.00     0.037 A 
ATOM     26  C   UNL A   1      39.759  33.019  35.726  1.00  0.00     0.037 A 
ATOM     27  C   UNL A   1      41.345  28.542  31.261  1.00  0.00     0.049 A 
ATOM     28  C   UNL A   1      40.787  31.927  35.689  1.00  0.00     0.074 A 
ATOM     29  C   UNL A   1      42.411  27.658  31.289  1.00  0.00     0.029 A 
ATOM     30  N   UNL A   1      41.361  29.226  32.465  1.00  0.00    -0.354 N 
ATOM     31  N   UNL A   1      41.052  31.081  34.725  1.00  0.00    -0.248 NA
ATOM     32  C   UNL A   1      41.614  31.755  36.889  1.00  0.00     0.031 C 
ATOM     33  C   UNL A   1      43.047  27.781  32.530  1.00  0.00     0.029 A 
ATOM     34  C   UNL A   1      42.393  28.759  33.262  1.00  0.00     0.049 A 
ATOM     35  H   UNL A   1      40.731  29.940  32.718  1.00  0.00     0.167 HD
ATOM     36  C   UNL A   1      42.071  30.270  35.201  1.00  0.00     0.074 A 
ATOM     37  C   UNL A   1      42.395  30.743  36.532  1.00  0.00     0.031 C 
ATOM     38  C   UNL A   1      42.678  29.224  34.593  1.00  0.00     0.037 A 
BRANCH  25  39
ATOM     39  C   UNL A   1      40.411  27.812  29.045  1.00  0.00     0.064 A 
ATOM     40  C   UNL A   1      39.624  26.652  29.006  1.00  0.00     0.173 A 
ATOM     41  C   UNL A   1      41.178  28.128  27.914  1.00  0.00     0.173 A 
ATOM     42  F   UNL A   1      38.880  26.306  30.067  1.00  0.00    -0.203 F 
ATOM     43  C   UNL A   1      39.610  25.837  27.877  1.00  0.00     0.198 A 
ATOM     44  C   UNL A   1      41.151  27.319  26.782  1.00  0.00     0.198 A 
ATOM     45  F   UNL A   1      41.945  29.229  27.905  1.00  0.00    -0.203 F 
ATOM     46  F   UNL A   1      38.863  24.725  27.864  1.00  0.00    -0.200 F 
ATOM     47  C   UNL A   1      40.368  26.175  26.764  1.00  0.00     0.200 A 
ATOM     48  F   UNL A   1      41.879  27.649  25.706  1.00  0.00    -0.200 F 
ATOM     49  F   UNL A   1      40.343  25.395  25.674  1.00  0.00    -0.200 F 
ENDBRANCH  25  39
BRANCH  26  50
ATOM     50  C   UNL A   1      39.602  33.886  36.917  1.00  0.00     0.064 A 
ATOM     51  C   UNL A   1      38.820  33.484  38.007  1.00  0.00     0.173 A 
ATOM     52  C   UNL A   1      40.255  35.126  37.000  1.00  0.00     0.173 A 
ATOM     53  F   UNL A   1      38.162  32.315  37.964  1.00  0.00    -0.203 F 
ATOM     54  C   UNL A   1      38.691  34.292  39.135  1.00  0.00     0.198 A 
ATOM     55  C   UNL A   1      40.142  35.923  38.135  1.00  0.00     0.198 A 
ATOM     56  F   UNL A   1      41.016  35.552  35.981  1.00  0.00    -0.203 F 
ATOM     57  F   UNL A   1      37.915  33.898  40.154  1.00  0.00    -0.200 F 
ATOM     58  C   UNL A   1      39.357  35.507  39.200  1.00  0.00     0.200 A 
ATOM     59  F   UNL A   1      40.798  37.090  38.200  1.00  0.00    -0.200 F 
ATOM     60  F   UNL A   1      39.240  36.279  40.289  1.00  0.00    -0.200 F 
ENDBRANCH  26  50
BRANCH  38  61
ATOM     61  C   UNL A   1      43.731  28.507  35.377  1.00  0.00     0.064 A 
ATOM     62  C   UNL A   1      43.393  27.460  36.245  1.00  0.00     0.173 A 
ATOM     63  C   UNL A   1      45.084  28.848  35.244  1.00  0.00     0.173 A 
ATOM     64  F   UNL A   1      42.109  27.114  36.418  1.00  0.00    -0.203 F 
ATOM     65  C   UNL A   1      44.375  26.786  36.965  1.00  0.00     0.198 A 
ATOM     66  C   UNL A   1      46.066  28.160  35.950  1.00  0.00     0.198 A 
ATOM     67  F   UNL A   1      45.452  29.844  34.423  1.00  0.00    -0.203 F 
ATOM     68  F   UNL A   1      44.030  25.810  37.816  1.00  0.00    -0.200 F 
ATOM     69  C   UNL A   1      45.710  27.133  36.813  1.00  0.00     0.200 A 
ATOM     70  F   UNL A   1      47.354  28.493  35.801  1.00  0.00    -0.200 F 
ATOM     71  F   UNL A   1      46.655  26.483  37.506  1.00  0.00    -0.200 F 
ENDBRANCH  38  61
ENDBRANCH  12  13
ENDBRANCH   5   7
ENDBRANCH   2   3
ENDBRANCH   1   2
BRANCH   1  72
ATOM     72  C   UNL A   1      31.598  30.771  26.035  1.00  0.00     0.118 C 
BRANCH  72  73
ATOM     73  N   UNL A   1      31.603  29.786  27.106  1.00  0.00    -0.349 N 
ATOM     74  C   UNL A   1      31.782  28.435  27.029  1.00  0.00     0.286 C 
ATOM     75  H   UNL A   1      31.458  30.144  28.011  1.00  0.00     0.163 HD
ATOM     76  O   UNL A   1      31.409  27.772  28.027  1.00  0.00    -0.266 OA
BRANCH  74  77
ATOM     77  C   UNL A   1      32.385  27.831  25.873  1.00  0.00     0.191 A 
ATOM     78  C   UNL A   1      33.651  27.928  25.308  1.00  0.00     0.057 A 
ATOM     79  O   UNL A   1      31.669  26.893  25.182  1.00  0.00    -0.452 OA
ATOM     80  C   UNL A   1      33.693  27.022  24.222  1.00  0.00     0.050 A 
ATOM     81  C   UNL A   1      32.472  26.384  24.205  1.00  0.00     0.142 A 
BRANCH  81  82
ATOM     82  C   UNL A   1      31.933  25.239  23.424  1.00  0.00     0.304 C 
BRANCH  82  83
ATOM     83  O   UNL A   1      33.027  24.509  22.840  1.00  0.00    -0.484 OA
BRANCH  83  84
ATOM     84  C   UNL A   1      33.131  23.234  23.340  1.00  0.00     0.140 A 
ATOM     85  C   UNL A   1      32.143  22.308  22.987  1.00  0.00     0.048 A 
ATOM     86  C   UNL A   1      34.238  22.837  24.102  1.00  0.00     0.101 A 
ATOM     87  C   UNL A   1      32.212  20.998  23.450  1.00  0.00     0.005 A 
ATOM     88  C   UNL A   1      34.311  21.510  24.549  1.00  0.00     0.063 A 
ATOM     89  Cl  UNL A   1      35.480  23.986  24.470  1.00  0.00    -0.079 Cl
ATOM     90  C   UNL A   1      33.293  20.600  24.233  1.00  0.00     0.022 A 
ATOM     91  Cl  UNL A   1      35.633  20.922  25.496  1.00  0.00    -0.083 Cl
ENDBRANCH  83  84
ENDBRANCH  82  83
ENDBRANCH  81  82
ENDBRANCH  74  77
ENDBRANCH  72  73
ENDBRANCH   1  72
TORSDOF 13
ENDMDL
MODEL 3
REMARK VINA RESULT:     -12.3      5.989     11.477
REMARK SMILES O=C(NCCCNC(=O)c1ccc(COc2cccc(Cl)c2Cl)o1)c1ccc(-c2c3nc(c(-c4c(F)c(F)c(F)c(F)c4F)c4ccc([nH]4)c(-c4c(F)c(F)c(F)c(F)c4F)c4nc(c(-c5c(F)c(F)c(F)c(F)c5F)c5ccc2[nH]5)C=C4)C=C3)cc1
REMARK SMILES IDX 5 1 4 2 3 3 1 4 2 5 25 7 26 8 87 9 27 10 86 11 28 12 29 13
REMARK SMILES IDX 30 14 80 15 31 16 85 17 79 18 81 19 32 20 84 21 78 22 77 23
REMARK SMILES IDX 33 25 65 26 45 27 64 28 46 29 49 30 63 31 82 32 47 33 48 34
REMARK SMILES IDX 62 36 83 37 50 38 34 39 35 40 43 41 36 42 37 43 41 44 44 45
REMARK SMILES IDX 38 46 39 47 42 48 40 49 66 50 67 51 75 52 68 53 69 54 73 55
REMARK SMILES IDX 76 56 70 57 71 58 74 59 72 60 51 61 52 62 60 63 53 64 54 65
REMARK SMILES IDX 58 66 61 67 55 68 56 69 59 70 57 71 6 72 7 73 8 74 9 76
REMARK SMILES IDX 10 77 11 78 24 79 12 80 13 81 14 82 15 83 16 84 17 85 22 86
REMARK SMILES IDX 18 87 20 88 23 89 19 90 21 91
REMARK H PARENT 3 6 81 24 49 35 7 75
REMARK Flexibility Score: inf
ROOT
ATOM      1  C   UNL A   1      37.907  19.663  25.008  1.00  0.00     0.042 C 
ENDROOT
BRANCH   1   2
ATOM      2  C   UNL A   1      39.110  20.228  25.758  1.00  0.00     0.118 C 
BRANCH   2   3
ATOM      3  N   UNL A   1      40.126  19.212  25.992  1.00  0.00    -0.352 N 
ATOM      4  O   UNL A   1      42.190  18.328  26.021  1.00  0.00    -0.269 OA
ATOM      5  C   UNL A   1      41.485  19.333  26.109  1.00  0.00     0.251 C 
ATOM      6  H   UNL A   1      39.782  18.293  26.078  1.00  0.00     0.163 HD
BRANCH   5   7
ATOM      7  C   UNL A   1      42.116  20.647  26.357  1.00  0.00     0.039 A 
ATOM      8  C   UNL A   1      42.425  21.507  25.300  1.00  0.00     0.014 A 
ATOM      9  C   UNL A   1      42.298  21.070  27.678  1.00  0.00     0.014 A 
ATOM     10  C   UNL A   1      42.988  22.754  25.557  1.00  0.00     0.010 A 
ATOM     11  C   UNL A   1      42.800  22.348  27.939  1.00  0.00     0.010 A 
ATOM     12  C   UNL A   1      43.149  23.198  26.879  1.00  0.00    -0.014 A 
BRANCH  12  13
ATOM     13  C   UNL A   1      43.560  24.600  27.129  1.00  0.00     0.031 A 
ATOM     14  C   UNL A   1      42.591  25.616  27.649  1.00  0.00     0.074 A 
ATOM     15  C   UNL A   1      44.835  24.944  26.864  1.00  0.00     0.049 A 
ATOM     16  N   UNL A   1      42.793  26.882  27.916  1.00  0.00    -0.248 NA
ATOM     17  C   UNL A   1      41.213  25.163  27.893  1.00  0.00     0.031 C 
ATOM     18  C   UNL A   1      45.855  24.043  26.321  1.00  0.00     0.029 A 
ATOM     19  N   UNL A   1      45.495  26.137  27.016  1.00  0.00    -0.354 N 
ATOM     20  C   UNL A   1      41.571  27.380  28.342  1.00  0.00     0.074 A 
ATOM     21  C   UNL A   1      40.624  26.286  28.286  1.00  0.00     0.031 C 
ATOM     22  C   UNL A   1      47.014  24.706  26.209  1.00  0.00     0.029 A 
ATOM     23  C   UNL A   1      46.810  26.088  26.627  1.00  0.00     0.049 A 
ATOM     24  H   UNL A   1      45.065  26.950  27.370  1.00  0.00     0.167 HD
ATOM     25  C   UNL A   1      41.275  28.638  28.747  1.00  0.00     0.037 A 
ATOM     26  C   UNL A   1      47.745  27.054  26.591  1.00  0.00     0.037 A 
ATOM     27  C   UNL A   1      42.232  29.710  28.837  1.00  0.00     0.049 A 
ATOM     28  C   UNL A   1      47.382  28.438  27.039  1.00  0.00     0.074 A 
ATOM     29  C   UNL A   1      42.052  30.985  29.346  1.00  0.00     0.029 A 
ATOM     30  N   UNL A   1      43.544  29.635  28.399  1.00  0.00    -0.354 N 
ATOM     31  N   UNL A   1      46.240  28.879  27.505  1.00  0.00    -0.248 NA
ATOM     32  C   UNL A   1      48.430  29.462  26.942  1.00  0.00     0.031 C 
ATOM     33  C   UNL A   1      43.247  31.695  29.177  1.00  0.00     0.029 A 
ATOM     34  C   UNL A   1      44.176  30.853  28.588  1.00  0.00     0.049 A 
ATOM     35  H   UNL A   1      43.965  28.834  28.009  1.00  0.00     0.167 HD
ATOM     36  C   UNL A   1      46.426  30.230  27.751  1.00  0.00     0.074 A 
ATOM     37  C   UNL A   1      47.801  30.533  27.408  1.00  0.00     0.031 C 
ATOM     38  C   UNL A   1      45.535  31.139  28.213  1.00  0.00     0.037 A 
BRANCH  25  39
ATOM     39  C   UNL A   1      39.858  28.937  29.126  1.00  0.00     0.064 A 
ATOM     40  C   UNL A   1      38.920  29.365  28.176  1.00  0.00     0.173 A 
ATOM     41  C   UNL A   1      39.415  28.712  30.437  1.00  0.00     0.173 A 
ATOM     42  F   UNL A   1      39.300  29.600  26.911  1.00  0.00    -0.203 F 
ATOM     43  C   UNL A   1      37.588  29.564  28.529  1.00  0.00     0.198 A 
ATOM     44  C   UNL A   1      38.079  28.898  30.783  1.00  0.00     0.198 A 
ATOM     45  F   UNL A   1      40.276  28.299  31.380  1.00  0.00    -0.203 F 
ATOM     46  F   UNL A   1      36.709  29.988  27.610  1.00  0.00    -0.200 F 
ATOM     47  C   UNL A   1      37.167  29.323  29.829  1.00  0.00     0.200 A 
ATOM     48  F   UNL A   1      37.673  28.660  32.038  1.00  0.00    -0.200 F 
ATOM     49  F   UNL A   1      35.882  29.504  30.163  1.00  0.00    -0.200 F 
ENDBRANCH  25  39
BRANCH  26  50
ATOM     50  C   UNL A   1      49.103  26.740  26.088  1.00  0.00     0.064 A 
ATOM     51  C   UNL A   1      50.070  26.168  26.924  1.00  0.00     0.173 A 
ATOM     52  C   UNL A   1      49.453  26.982  24.750  1.00  0.00     0.173 A 
ATOM     53  F   UNL A   1      49.786  25.936  28.215  1.00  0.00    -0.203 F 
ATOM     54  C   UNL A   1      51.339  25.854  26.444  1.00  0.00     0.198 A 
ATOM     55  C   UNL A   1      50.714  26.648  24.266  1.00  0.00     0.198 A 
ATOM     56  F   UNL A   1      48.559  27.527  23.912  1.00  0.00    -0.203 F 
ATOM     57  F   UNL A   1      52.256  25.331  27.270  1.00  0.00    -0.200 F 
ATOM     58  C   UNL A   1      51.658  26.088  25.114  1.00  0.00     0.200 A 
ATOM     59  F   UNL A   1      51.013  26.864  22.977  1.00  0.00    -0.200 F 
ATOM     60  F   UNL A   1      52.876  25.776  24.650  1.00  0.00    -0.200 F 
ENDBRANCH  26  50
BRANCH  38  61
ATOM     61  C   UNL A   1      46.018  32.549  28.344  1.00  0.00     0.064 A 
ATOM     62  C   UNL A   1      45.865  33.462  27.291  1.00  0.00     0.173 A 
ATOM     63  C   UNL A   1      46.612  32.999  29.531  1.00  0.00     0.173 A 
ATOM     64  F   UNL A   1      45.320  33.069  26.130  1.00  0.00    -0.203 F 
ATOM     65  C   UNL A   1      46.304  34.776  27.419  1.00  0.00     0.198 A 
ATOM     66  C   UNL A   1      47.032  34.318  29.663  1.00  0.00     0.198 A 
ATOM     67  F   UNL A   1      46.777  32.158  30.564  1.00  0.00    -0.203 F 
ATOM     68  F   UNL A   1      46.180  35.626  26.389  1.00  0.00    -0.200 F 
ATOM     69  C   UNL A   1      46.881  35.204  28.605  1.00  0.00     0.200 A 
ATOM     70  F   UNL A   1      47.587  34.732  30.809  1.00  0.00    -0.200 F 
ATOM     71  F   UNL A   1      47.303  36.471  28.727  1.00  0.00    -0.200 F 
ENDBRANCH  38  61
ENDBRANCH  12  13
ENDBRANCH   5   7
ENDBRANCH   2   3
ENDBRANCH   1   2
BRANCH   1  72
ATOM     72  C   UNL A   1      36.707  20.605  24.992  1.00  0.00     0.118 C 
BRANCH  72  73
ATOM     73  N   UNL A   1      35.452  19.869  25.000  1.00  0.00    -0.349 N 
ATOM     74  C   UNL A   1      34.175  20.349  25.008  1.00  0.00     0.286 C 
ATOM     75  H   UNL A   1      35.537  18.888  25.000  1.00  0.00     0.163 HD
ATOM     76  O   UNL A   1      33.283  19.538  25.354  1.00  0.00    -0.266 OA
BRANCH  74  77
ATOM     77  C   UNL A   1      33.888  21.701  24.614  1.00  0.00     0.191 A 
ATOM     78  C   UNL A   1      33.221  22.247  23.524  1.00  0.00     0.057 A 
ATOM     79  O   UNL A   1      34.228  22.713  25.469  1.00  0.00    -0.452 OA
ATOM     80  C   UNL A   1      33.172  23.647  23.724  1.00  0.00     0.050 A 
ATOM     81  C   UNL A   1      33.767  23.882  24.944  1.00  0.00     0.142 A 
BRANCH  81  82
ATOM     82  C   UNL A   1      33.904  25.097  25.792  1.00  0.00     0.304 C 
BRANCH  82  83
ATOM     83  O   UNL A   1      32.593  25.597  26.117  1.00  0.00    -0.484 OA
BRANCH  83  84
ATOM     84  C   UNL A   1      32.479  26.947  25.896  1.00  0.00     0.140 A 
ATOM     85  C   UNL A   1      33.458  27.786  26.441  1.00  0.00     0.048 A 
ATOM     86  C   UNL A   1      31.472  27.470  25.074  1.00  0.00     0.101 A 
ATOM     87  C   UNL A   1      33.399  29.161  26.231  1.00  0.00     0.005 A 
ATOM     88  C   UNL A   1      31.431  28.853  24.850  1.00  0.00     0.063 A 
ATOM     89  Cl  UNL A   1      30.312  26.401  24.358  1.00  0.00    -0.079 Cl
ATOM     90  C   UNL A   1      32.385  29.693  25.438  1.00  0.00     0.022 A 
ATOM     91  Cl  UNL A   1      30.228  29.596  23.853  1.00  0.00    -0.083 Cl
ENDBRANCH  83  84
ENDBRANCH  82  83
ENDBRANCH  81  82
ENDBRANCH  74  77
ENDBRANCH  72  73
ENDBRANCH   1  72
TORSDOF 13
ENDMDL
