MODEL 1
REMARK VINA RESULT:     -12.8      0.000      0.000
REMARK SMILES COc1cc(/C=N/NC(N)=O)ccc1OCc1cccc(C(=O)NCCCNC(=O)c2ccc(-c3c4nc(c(-c5c(F)c(F)c(F)c(F)c5F)c5ccc([nH]5)c(-c5c(F)c(F)c(F)c(F)c5F)c5nc(c(-c6c(F)c(F)c(F)c(F)c6F)c6ccc3[nH]6)C=C5)C=C4)cc2)c1
REMARK SMILES IDX 22 1 23 2 24 3 21 5 17 6 18 7 94 8 19 9 20 10 16 11 15 12
REMARK SMILES IDX 14 13 3 14 4 15 5 16 13 17 12 18 2 19 1 20 6 21 7 22 8 23
REMARK SMILES IDX 9 24 10 26 11 27 25 30 26 31 27 32 28 33 29 34 30 36 31 37
REMARK SMILES IDX 32 38 93 39 33 40 92 41 34 42 35 43 36 44 86 45 37 46 91 47
REMARK SMILES IDX 85 48 87 49 38 50 90 51 84 52 83 53 39 55 71 56 51 57 70 58
REMARK SMILES IDX 52 59 55 60 69 61 88 62 53 63 54 64 68 66 89 67 56 68 40 69
REMARK SMILES IDX 41 70 49 71 42 72 43 73 47 74 50 75 44 76 45 77 48 78 46 79
REMARK SMILES IDX 72 80 73 81 81 82 74 83 75 84 79 85 82 86 76 87 77 88 80 89
REMARK SMILES IDX 78 90 57 91 58 92 66 93 59 94 60 95 64 96 67 97 61 98 62 99
REMARK SMILES IDX 65 100 63 101
REMARK H PARENT 24 4 8 25 10 28 10 29 28 35 87 54 55 65
REMARK Flexibility Score: inf
ROOT
ATOM      1  C   UNL A   1      33.537  29.010  26.847  1.00  0.00     0.251 C 
ATOM      2  O   UNL A   1      34.679  28.890  27.286  1.00  0.00    -0.269 OA
ATOM      3  N   UNL A   1      32.934  30.244  26.897  1.00  0.00    -0.352 N 
ATOM      4  H   UNL A   1      33.476  30.949  27.317  1.00  0.00     0.163 HD
ENDROOT
BRANCH   1   5
ATOM      5  C   UNL A   1      32.874  27.862  26.185  1.00  0.00     0.040 A 
ATOM      6  C   UNL A   1      32.914  25.961  24.667  1.00  0.00    -0.010 A 
ATOM      7  C   UNL A   1      31.750  25.479  25.277  1.00  0.00     0.007 A 
ATOM      8  C   UNL A   1      33.435  27.186  25.098  1.00  0.00     0.021 A 
ATOM      9  C   UNL A   1      31.103  26.222  26.268  1.00  0.00     0.001 A 
ATOM     10  C   UNL A   1      31.671  27.407  26.731  1.00  0.00     0.014 A 
BRANCH   6  11
ATOM     11  C   UNL A   1      33.675  25.135  23.648  1.00  0.00     0.265 C 
BRANCH  11  12
ATOM     12  O   UNL A   1      34.597  24.191  24.207  1.00  0.00    -0.485 OA
BRANCH  12  13
ATOM     13  C   UNL A   1      34.196  22.884  24.312  1.00  0.00     0.161 A 
ATOM     14  C   UNL A   1      34.676  21.929  25.220  1.00  0.00     0.161 A 
ATOM     15  C   UNL A   1      34.117  20.647  25.234  1.00  0.00     0.060 A 
ATOM     16  C   UNL A   1      33.102  20.310  24.333  1.00  0.00    -0.002 A 
ATOM     17  C   UNL A   1      33.212  22.520  23.382  1.00  0.00     0.051 A 
ATOM     18  C   UNL A   1      32.662  21.238  23.389  1.00  0.00     0.014 A 
BRANCH  14  19
ATOM     19  O   UNL A   1      35.768  22.236  25.986  1.00  0.00    -0.493 OA
ATOM     20  C   UNL A   1      37.023  22.102  25.327  1.00  0.00     0.278 C 
ENDBRANCH  14  19
BRANCH  16  21
ATOM     21  C   UNL A   1      32.502  18.958  24.343  1.00  0.00     0.141 C 
ATOM     22  N   UNL A   1      32.662  18.169  25.357  1.00  0.00    -0.179 NA
BRANCH  22  23
ATOM     23  N   UNL A   1      32.151  16.901  25.311  1.00  0.00    -0.229 N 
ATOM     24  C   UNL A   1      32.848  15.712  25.277  1.00  0.00     0.332 C 
ATOM     25  H   UNL A   1      31.170  16.830  25.301  1.00  0.00     0.195 HD
ATOM     26  N   UNL A   1      32.026  14.626  25.358  1.00  0.00    -0.350 N 
ATOM     27  O   UNL A   1      34.058  15.551  25.202  1.00  0.00    -0.247 OA
ATOM     28  H   UNL A   1      31.051  14.751  25.418  1.00  0.00     0.161 HD
ATOM     29  H   UNL A   1      32.406  13.718  25.355  1.00  0.00     0.161 HD
ENDBRANCH  22  23
ENDBRANCH  16  21
ENDBRANCH  12  13
ENDBRANCH  11  12
ENDBRANCH   6  11
ENDBRANCH   1   5
BRANCH   3  30
ATOM     30  C   UNL A   1      31.626  30.681  26.432  1.00  0.00     0.118 C 
BRANCH  30  31
ATOM     31  C   UNL A   1      31.421  32.165  26.725  1.00  0.00     0.042 C 
BRANCH  31  32
ATOM     32  C   UNL A   1      32.724  32.881  27.051  1.00  0.00     0.118 C 
BRANCH  32  33
ATOM     33  N   UNL A   1      32.486  34.223  27.558  1.00  0.00    -0.352 N 
ATOM     34  C   UNL A   1      33.022  34.849  28.653  1.00  0.00     0.251 C 
ATOM     35  H   UNL A   1      31.845  34.761  27.038  1.00  0.00     0.163 HD
ATOM     36  O   UNL A   1      32.523  35.892  29.065  1.00  0.00    -0.269 OA
BRANCH  34  37
ATOM     37  C   UNL A   1      34.194  34.269  29.339  1.00  0.00     0.039 A 
ATOM     38  C   UNL A   1      33.986  33.450  30.451  1.00  0.00     0.014 A 
ATOM     39  C   UNL A   1      35.494  34.560  28.915  1.00  0.00     0.014 A 
ATOM     40  C   UNL A   1      35.079  32.890  31.113  1.00  0.00     0.010 A 
ATOM     41  C   UNL A   1      36.577  33.936  29.521  1.00  0.00     0.010 A 
ATOM     42  C   UNL A   1      36.383  33.110  30.637  1.00  0.00    -0.014 A 
BRANCH  42  43
ATOM     43  C   UNL A   1      37.558  32.503  31.307  1.00  0.00     0.031 A 
ATOM     44  C   UNL A   1      38.314  31.391  30.634  1.00  0.00     0.074 A 
ATOM     45  C   UNL A   1      37.901  32.910  32.544  1.00  0.00     0.049 A 
ATOM     46  N   UNL A   1      39.318  30.681  31.083  1.00  0.00    -0.248 NA
ATOM     47  C   UNL A   1      37.860  31.002  29.289  1.00  0.00     0.031 C 
ATOM     48  C   UNL A   1      37.209  33.944  33.315  1.00  0.00     0.029 A 
ATOM     49  N   UNL A   1      38.911  32.496  33.374  1.00  0.00    -0.354 N 
ATOM     50  C   UNL A   1      39.600  29.755  30.087  1.00  0.00     0.074 A 
ATOM     51  C   UNL A   1      38.627  29.954  29.035  1.00  0.00     0.031 C 
ATOM     52  C   UNL A   1      37.827  34.098  34.496  1.00  0.00     0.029 A 
ATOM     53  C   UNL A   1      38.933  33.149  34.581  1.00  0.00     0.049 A 
ATOM     54  H   UNL A   1      39.558  31.795  33.128  1.00  0.00     0.167 HD
ATOM     55  C   UNL A   1      40.597  28.840  30.044  1.00  0.00     0.037 A 
ATOM     56  C   UNL A   1      39.750  32.994  35.639  1.00  0.00     0.037 A 
ATOM     57  C   UNL A   1      41.578  28.670  31.083  1.00  0.00     0.049 A 
ATOM     58  C   UNL A   1      40.855  31.975  35.563  1.00  0.00     0.074 A 
ATOM     59  C   UNL A   1      42.667  27.817  31.112  1.00  0.00     0.029 A 
ATOM     60  N   UNL A   1      41.586  29.371  32.281  1.00  0.00    -0.354 N 
ATOM     61  N   UNL A   1      41.157  31.153  34.587  1.00  0.00    -0.248 NA
ATOM     62  C   UNL A   1      41.738  31.868  36.732  1.00  0.00     0.031 C 
ATOM     63  C   UNL A   1      43.306  27.969  32.346  1.00  0.00     0.029 A 
ATOM     64  C   UNL A   1      42.649  28.955  33.066  1.00  0.00     0.049 A 
ATOM     65  H   UNL A   1      40.932  30.062  32.535  1.00  0.00     0.167 HD
ATOM     66  C   UNL A   1      42.278  30.453  35.010  1.00  0.00     0.074 A 
ATOM     67  C   UNL A   1      42.612  30.959  36.326  1.00  0.00     0.031 C 
ATOM     68  C   UNL A   1      42.969  29.478  34.369  1.00  0.00     0.037 A 
BRANCH  55  69
ATOM     69  C   UNL A   1      40.676  27.954  28.833  1.00  0.00     0.064 A 
ATOM     70  C   UNL A   1      39.917  26.779  28.728  1.00  0.00     0.173 A 
ATOM     71  C   UNL A   1      41.497  28.301  27.749  1.00  0.00     0.173 A 
ATOM     72  F   UNL A   1      39.123  26.394  29.740  1.00  0.00    -0.203 F 
ATOM     73  C   UNL A   1      40.001  25.968  27.599  1.00  0.00     0.198 A 
ATOM     74  C   UNL A   1      41.554  27.505  26.608  1.00  0.00     0.198 A 
ATOM     75  F   UNL A   1      42.241  29.417  27.793  1.00  0.00    -0.203 F 
ATOM     76  F   UNL A   1      39.306  24.823  27.546  1.00  0.00    -0.200 F 
ATOM     77  C   UNL A   1      40.813  26.335  26.537  1.00  0.00     0.200 A 
ATOM     78  F   UNL A   1      42.330  27.868  25.577  1.00  0.00    -0.200 F 
ATOM     79  F   UNL A   1      40.888  25.557  25.449  1.00  0.00    -0.200 F 
ENDBRANCH  55  69
BRANCH  56  80
ATOM     80  C   UNL A   1      39.571  33.842  36.846  1.00  0.00     0.064 A 
ATOM     81  C   UNL A   1      38.783  33.408  37.920  1.00  0.00     0.173 A 
ATOM     82  C   UNL A   1      40.184  35.099  36.953  1.00  0.00     0.173 A 
ATOM     83  F   UNL A   1      38.161  32.221  37.858  1.00  0.00    -0.203 F 
ATOM     84  C   UNL A   1      38.597  34.208  39.046  1.00  0.00     0.198 A 
ATOM     85  C   UNL A   1      40.021  35.885  38.091  1.00  0.00     0.198 A 
ATOM     86  F   UNL A   1      40.954  35.558  35.955  1.00  0.00    -0.203 F 
ATOM     87  F   UNL A   1      37.802  33.786  40.040  1.00  0.00    -0.200 F 
ATOM     88  C   UNL A   1      39.221  35.442  39.134  1.00  0.00     0.200 A 
ATOM     89  F   UNL A   1      40.639  37.071  38.180  1.00  0.00    -0.200 F 
ATOM     90  F   UNL A   1      39.045  36.208  40.219  1.00  0.00    -0.200 F 
ENDBRANCH  56  80
BRANCH  68  91
ATOM     91  C   UNL A   1      44.174  28.919  35.066  1.00  0.00     0.064 A 
ATOM     92  C   UNL A   1      44.086  27.802  35.909  1.00  0.00     0.173 A 
ATOM     93  C   UNL A   1      45.441  29.487  34.857  1.00  0.00     0.173 A 
ATOM     94  F   UNL A   1      42.897  27.232  36.153  1.00  0.00    -0.203 F 
ATOM     95  C   UNL A   1      45.219  27.290  36.538  1.00  0.00     0.198 A 
ATOM     96  C   UNL A   1      46.574  28.953  35.462  1.00  0.00     0.198 A 
ATOM     97  F   UNL A   1      45.578  30.553  34.054  1.00  0.00    -0.203 F 
ATOM     98  F   UNL A   1      45.104  26.252  37.378  1.00  0.00    -0.200 F 
ATOM     99  C   UNL A   1      46.462  27.861  36.307  1.00  0.00     0.200 A 
ATOM    100  F   UNL A   1      47.776  29.497  35.226  1.00  0.00    -0.200 F 
ATOM    101  F   UNL A   1      47.551  27.362  36.907  1.00  0.00    -0.200 F 
ENDBRANCH  68  91
ENDBRANCH  42  43
ENDBRANCH  34  37
ENDBRANCH  32  33
ENDBRANCH  31  32
ENDBRANCH  30  31
ENDBRANCH   3  30
TORSDOF 16
ENDMDL
MODEL 2
REMARK VINA RESULT:     -12.7      5.353     11.500
REMARK SMILES COc1cc(/C=N/NC(N)=O)ccc1OCc1cccc(C(=O)NCCCNC(=O)c2ccc(-c3c4nc(c(-c5c(F)c(F)c(F)c(F)c5F)c5ccc([nH]5)c(-c5c(F)c(F)c(F)c(F)c5F)c5nc(c(-c6c(F)c(F)c(F)c(F)c6F)c6ccc3[nH]6)C=C5)C=C4)cc2)c1
REMARK SMILES IDX 22 1 23 2 24 3 21 5 17 6 18 7 94 8 19 9 20 10 16 11 15 12
REMARK SMILES IDX 14 13 3 14 4 15 5 16 13 17 12 18 2 19 1 20 6 21 7 22 8 23
REMARK SMILES IDX 9 24 10 26 11 27 25 30 26 31 27 32 28 33 29 34 30 36 31 37
REMARK SMILES IDX 32 38 93 39 33 40 92 41 34 42 35 43 36 44 86 45 37 46 91 47
REMARK SMILES IDX 85 48 87 49 38 50 90 51 84 52 83 53 39 55 71 56 51 57 70 58
REMARK SMILES IDX 52 59 55 60 69 61 88 62 53 63 54 64 68 66 89 67 56 68 40 69
REMARK SMILES IDX 41 70 49 71 42 72 43 73 47 74 50 75 44 76 45 77 48 78 46 79
REMARK SMILES IDX 72 80 73 81 81 82 74 83 75 84 79 85 82 86 76 87 77 88 80 89
REMARK SMILES IDX 78 90 57 91 58 92 66 93 59 94 60 95 64 96 67 97 61 98 62 99
REMARK SMILES IDX 65 100 63 101
REMARK H PARENT 24 4 8 25 10 28 10 29 28 35 87 54 55 65
REMARK Flexibility Score: inf
ROOT
ATOM      1  C   UNL A   1      36.238  22.638  23.594  1.00  0.00     0.251 C 
ATOM      2  O   UNL A   1      36.606  23.384  22.690  1.00  0.00    -0.269 OA
ATOM      3  N   UNL A   1      37.046  21.588  23.959  1.00  0.00    -0.352 N 
ATOM      4  H   UNL A   1      37.872  21.503  23.431  1.00  0.00     0.163 HD
ENDROOT
BRANCH   1   5
ATOM      5  C   UNL A   1      34.993  22.938  24.340  1.00  0.00     0.040 A 
ATOM      6  C   UNL A   1      33.518  24.494  25.491  1.00  0.00    -0.010 A 
ATOM      7  C   UNL A   1      32.478  23.567  25.361  1.00  0.00     0.007 A 
ATOM      8  C   UNL A   1      34.789  24.141  25.021  1.00  0.00     0.021 A 
ATOM      9  C   UNL A   1      32.710  22.305  24.809  1.00  0.00     0.001 A 
ATOM     10  C   UNL A   1      33.964  21.994  24.287  1.00  0.00     0.014 A 
BRANCH   6  11
ATOM     11  C   UNL A   1      33.270  25.896  26.013  1.00  0.00     0.265 C 
BRANCH  11  12
ATOM     12  O   UNL A   1      31.889  26.266  26.111  1.00  0.00    -0.485 OA
BRANCH  12  13
ATOM     13  C   UNL A   1      31.411  27.206  25.235  1.00  0.00     0.161 A 
ATOM     14  C   UNL A   1      31.497  28.599  25.370  1.00  0.00     0.161 A 
ATOM     15  C   UNL A   1      31.006  29.424  24.352  1.00  0.00     0.060 A 
ATOM     16  C   UNL A   1      30.412  28.864  23.216  1.00  0.00    -0.002 A 
ATOM     17  C   UNL A   1      30.771  26.658  24.114  1.00  0.00     0.051 A 
ATOM     18  C   UNL A   1      30.272  27.480  23.104  1.00  0.00     0.014 A 
BRANCH  14  19
ATOM     19  O   UNL A   1      31.945  29.122  26.553  1.00  0.00    -0.493 OA
ATOM     20  C   UNL A   1      32.150  30.531  26.548  1.00  0.00     0.278 C 
ENDBRANCH  14  19
BRANCH  16  21
ATOM     21  C   UNL A   1      29.894  29.727  22.132  1.00  0.00     0.141 C 
ATOM     22  N   UNL A   1      28.722  30.271  22.221  1.00  0.00    -0.179 NA
BRANCH  22  23
ATOM     23  N   UNL A   1      28.242  31.010  21.175  1.00  0.00    -0.229 N 
ATOM     24  C   UNL A   1      28.023  32.371  21.134  1.00  0.00     0.332 C 
ATOM     25  H   UNL A   1      28.028  30.510  20.354  1.00  0.00     0.195 HD
ATOM     26  N   UNL A   1      27.652  32.799  19.893  1.00  0.00    -0.350 N 
ATOM     27  O   UNL A   1      28.137  33.179  22.044  1.00  0.00    -0.247 OA
ATOM     28  H   UNL A   1      27.558  32.151  19.156  1.00  0.00     0.161 HD
ATOM     29  H   UNL A   1      27.478  33.754  19.733  1.00  0.00     0.161 HD
ENDBRANCH  22  23
ENDBRANCH  16  21
ENDBRANCH  12  13
ENDBRANCH  11  12
ENDBRANCH   6  11
ENDBRANCH   1   5
BRANCH   3  30
ATOM     30  C   UNL A   1      36.885  20.581  24.997  1.00  0.00     0.118 C 
BRANCH  30  31
ATOM     31  C   UNL A   1      38.074  19.624  25.006  1.00  0.00     0.042 C 
BRANCH  31  32
ATOM     32  C   UNL A   1      39.182  20.078  25.945  1.00  0.00     0.118 C 
BRANCH  32  33
ATOM     33  N   UNL A   1      40.285  19.131  25.971  1.00  0.00    -0.352 N 
ATOM     34  C   UNL A   1      41.634  19.365  26.030  1.00  0.00     0.251 C 
ATOM     35  H   UNL A   1      40.024  18.181  25.942  1.00  0.00     0.163 HD
ATOM     36  O   UNL A   1      42.422  18.453  25.798  1.00  0.00    -0.269 OA
BRANCH  34  37
ATOM     37  C   UNL A   1      42.140  20.711  26.366  1.00  0.00     0.039 A 
ATOM     38  C   UNL A   1      42.452  21.591  25.327  1.00  0.00     0.014 A 
ATOM     39  C   UNL A   1      42.343  21.094  27.695  1.00  0.00     0.014 A 
ATOM     40  C   UNL A   1      42.929  22.869  25.623  1.00  0.00     0.010 A 
ATOM     41  C   UNL A   1      42.736  22.393  27.991  1.00  0.00     0.010 A 
ATOM     42  C   UNL A   1      43.051  23.287  26.958  1.00  0.00    -0.014 A 
BRANCH  42  43
ATOM     43  C   UNL A   1      43.530  24.649  27.296  1.00  0.00     0.031 A 
ATOM     44  C   UNL A   1      42.574  25.660  27.868  1.00  0.00     0.074 A 
ATOM     45  C   UNL A   1      44.804  24.991  27.029  1.00  0.00     0.049 A 
ATOM     46  N   UNL A   1      42.776  26.920  28.159  1.00  0.00    -0.248 NA
ATOM     47  C   UNL A   1      41.197  25.202  28.114  1.00  0.00     0.031 C 
ATOM     48  C   UNL A   1      45.807  24.110  26.428  1.00  0.00     0.029 A 
ATOM     49  N   UNL A   1      45.471  26.174  27.219  1.00  0.00    -0.354 N 
ATOM     50  C   UNL A   1      41.552  27.405  28.602  1.00  0.00     0.074 A 
ATOM     51  C   UNL A   1      40.600  26.323  28.488  1.00  0.00     0.031 C 
ATOM     52  C   UNL A   1      46.966  24.776  26.318  1.00  0.00     0.029 A 
ATOM     53  C   UNL A   1      46.780  26.140  26.804  1.00  0.00     0.049 A 
ATOM     54  H   UNL A   1      45.052  26.973  27.613  1.00  0.00     0.167 HD
ATOM     55  C   UNL A   1      41.257  28.636  29.084  1.00  0.00     0.037 A 
ATOM     56  C   UNL A   1      47.719  27.103  26.809  1.00  0.00     0.037 A 
ATOM     57  C   UNL A   1      42.219  29.697  29.220  1.00  0.00     0.049 A 
ATOM     58  C   UNL A   1      47.368  28.460  27.357  1.00  0.00     0.074 A 
ATOM     59  C   UNL A   1      42.042  30.961  29.756  1.00  0.00     0.029 A 
ATOM     60  N   UNL A   1      43.544  29.617  28.816  1.00  0.00    -0.354 N 
ATOM     61  N   UNL A   1      46.227  28.887  27.841  1.00  0.00    -0.248 NA
ATOM     62  C   UNL A   1      48.439  29.465  27.369  1.00  0.00     0.031 C 
ATOM     63  C   UNL A   1      43.246  31.660  29.633  1.00  0.00     0.029 A 
ATOM     64  C   UNL A   1      44.191  30.815  29.070  1.00  0.00     0.049 A 
ATOM     65  H   UNL A   1      43.963  28.824  28.408  1.00  0.00     0.167 HD
ATOM     66  C   UNL A   1      46.448  30.198  28.239  1.00  0.00     0.074 A 
ATOM     67  C   UNL A   1      47.838  30.490  27.956  1.00  0.00     0.031 C 
ATOM     68  C   UNL A   1      45.578  31.082  28.788  1.00  0.00     0.037 A 
BRANCH  55  69
ATOM     69  C   UNL A   1      39.838  28.898  29.501  1.00  0.00     0.064 A 
ATOM     70  C   UNL A   1      38.884  29.395  28.599  1.00  0.00     0.173 A 
ATOM     71  C   UNL A   1      39.417  28.618  30.810  1.00  0.00     0.173 A 
ATOM     72  F   UNL A   1      39.236  29.691  27.338  1.00  0.00    -0.203 F 
ATOM     73  C   UNL A   1      37.573  29.633  29.001  1.00  0.00     0.198 A 
ATOM     74  C   UNL A   1      38.096  28.826  31.199  1.00  0.00     0.198 A 
ATOM     75  F   UNL A   1      40.285  28.136  31.712  1.00  0.00    -0.203 F 
ATOM     76  F   UNL A   1      36.694  30.160  28.135  1.00  0.00    -0.200 F 
ATOM     77  C   UNL A   1      37.177  29.342  30.297  1.00  0.00     0.200 A 
ATOM     78  F   UNL A   1      37.712  28.531  32.449  1.00  0.00    -0.200 F 
ATOM     79  F   UNL A   1      35.913  29.565  30.679  1.00  0.00    -0.200 F 
ENDBRANCH  55  69
BRANCH  56  80
ATOM     80  C   UNL A   1      49.086  26.809  26.305  1.00  0.00     0.064 A 
ATOM     81  C   UNL A   1      49.432  27.069  24.972  1.00  0.00     0.173 A 
ATOM     82  C   UNL A   1      50.073  26.269  27.142  1.00  0.00     0.173 A 
ATOM     83  F   UNL A   1      48.518  27.569  24.128  1.00  0.00    -0.203 F 
ATOM     84  C   UNL A   1      50.707  26.779  24.490  1.00  0.00     0.198 A 
ATOM     85  C   UNL A   1      51.356  26.006  26.666  1.00  0.00     0.198 A 
ATOM     86  F   UNL A   1      49.794  26.009  28.428  1.00  0.00    -0.203 F 
ATOM     87  F   UNL A   1      50.997  26.995  23.199  1.00  0.00    -0.200 F 
ATOM     88  C   UNL A   1      51.669  26.253  25.338  1.00  0.00     0.200 A 
ATOM     89  F   UNL A   1      52.288  25.514  27.493  1.00  0.00    -0.200 F 
ATOM     90  F   UNL A   1      52.896  25.979  24.875  1.00  0.00    -0.200 F 
ENDBRANCH  56  80
BRANCH  68  91
ATOM     91  C   UNL A   1      46.114  32.436  29.151  1.00  0.00     0.064 A 
ATOM     92  C   UNL A   1      46.061  33.514  28.256  1.00  0.00     0.173 A 
ATOM     93  C   UNL A   1      46.652  32.666  30.427  1.00  0.00     0.173 A 
ATOM     94  F   UNL A   1      45.569  33.342  27.020  1.00  0.00    -0.203 F 
ATOM     95  C   UNL A   1      46.552  34.767  28.616  1.00  0.00     0.198 A 
ATOM     96  C   UNL A   1      47.112  33.927  30.793  1.00  0.00     0.198 A 
ATOM     97  F   UNL A   1      46.719  31.669  31.322  1.00  0.00    -0.203 F 
ATOM     98  F   UNL A   1      46.536  35.770  27.727  1.00  0.00    -0.200 F 
ATOM     99  C   UNL A   1      47.069  34.974  29.886  1.00  0.00     0.200 A 
ATOM    100  F   UNL A   1      47.598  34.129  32.026  1.00  0.00    -0.200 F 
ATOM    101  F   UNL A   1      47.534  36.182  30.233  1.00  0.00    -0.200 F 
ENDBRANCH  68  91
ENDBRANCH  42  43
ENDBRANCH  34  37
ENDBRANCH  32  33
ENDBRANCH  31  32
ENDBRANCH  30  31
ENDBRANCH   3  30
TORSDOF 16
ENDMDL
MODEL 3
REMARK VINA RESULT:     -12.7      5.553     11.509
REMARK SMILES COc1cc(/C=N/NC(N)=O)ccc1OCc1cccc(C(=O)NCCCNC(=O)c2ccc(-c3c4nc(c(-c5c(F)c(F)c(F)c(F)c5F)c5ccc([nH]5)c(-c5c(F)c(F)c(F)c(F)c5F)c5nc(c(-c6c(F)c(F)c(F)c(F)c6F)c6ccc3[nH]6)C=C5)C=C4)cc2)c1
REMARK SMILES IDX 22 1 23 2 24 3 21 5 17 6 18 7 94 8 19 9 20 10 16 11 15 12
REMARK SMILES IDX 14 13 3 14 4 15 5 16 13 17 12 18 2 19 1 20 6 21 7 22 8 23
REMARK SMILES IDX 9 24 10 26 11 27 25 30 26 31 27 32 28 33 29 34 30 36 31 37
REMARK SMILES IDX 32 38 93 39 33 40 92 41 34 42 35 43 36 44 86 45 37 46 91 47
REMARK SMILES IDX 85 48 87 49 38 50 90 51 84 52 83 53 39 55 71 56 51 57 70 58
REMARK SMILES IDX 52 59 55 60 69 61 88 62 53 63 54 64 68 66 89 67 56 68 40 69
REMARK SMILES IDX 41 70 49 71 42 72 43 73 47 74 50 75 44 76 45 77 48 78 46 79
REMARK SMILES IDX 72 80 73 81 81 82 74 83 75 84 79 85 82 86 76 87 77 88 80 89
REMARK SMILES IDX 78 90 57 91 58 92 66 93 59 94 60 95 64 96 67 97 61 98 62 99
REMARK SMILES IDX 65 100 63 101
REMARK H PARENT 24 4 8 25 10 28 10 29 28 35 87 54 55 65
REMARK Flexibility Score: inf
ROOT
ATOM      1  C   UNL A   1      36.321  22.667  23.711  1.00  0.00     0.251 C 
ATOM      2  O   UNL A   1      36.555  23.355  22.720  1.00  0.00    -0.269 OA
ATOM      3  N   UNL A   1      37.128  21.585  23.973  1.00  0.00    -0.352 N 
ATOM      4  H   UNL A   1      37.836  21.432  23.308  1.00  0.00     0.163 HD
ENDROOT
BRANCH   1   5
ATOM      5  C   UNL A   1      35.251  23.068  24.656  1.00  0.00     0.040 A 
ATOM      6  C   UNL A   1      33.842  24.762  25.687  1.00  0.00    -0.010 A 
ATOM      7  C   UNL A   1      32.974  23.749  26.109  1.00  0.00     0.007 A 
ATOM      8  C   UNL A   1      35.009  24.399  25.005  1.00  0.00     0.021 A 
ATOM      9  C   UNL A   1      33.283  22.404  25.887  1.00  0.00     0.001 A 
ATOM     10  C   UNL A   1      34.415  22.064  25.150  1.00  0.00     0.014 A 
BRANCH   6  11
ATOM     11  C   UNL A   1      33.487  26.227  25.847  1.00  0.00     0.265 C 
BRANCH  11  12
ATOM     12  O   UNL A   1      32.111  26.483  26.159  1.00  0.00    -0.485 OA
BRANCH  12  13
ATOM     13  C   UNL A   1      31.328  27.057  25.192  1.00  0.00     0.161 A 
ATOM     14  C   UNL A   1      30.348  26.418  24.417  1.00  0.00     0.161 A 
ATOM     15  C   UNL A   1      29.591  27.165  23.508  1.00  0.00     0.060 A 
ATOM     16  C   UNL A   1      29.825  28.535  23.353  1.00  0.00    -0.002 A 
ATOM     17  C   UNL A   1      31.585  28.420  24.993  1.00  0.00     0.051 A 
ATOM     18  C   UNL A   1      30.839  29.163  24.078  1.00  0.00     0.014 A 
BRANCH  14  19
ATOM     19  O   UNL A   1      30.241  25.055  24.479  1.00  0.00    -0.493 OA
ATOM     20  C   UNL A   1      30.693  24.363  23.320  1.00  0.00     0.278 C 
ENDBRANCH  14  19
BRANCH  16  21
ATOM     21  C   UNL A   1      29.028  29.334  22.396  1.00  0.00     0.141 C 
ATOM     22  N   UNL A   1      29.545  30.358  21.796  1.00  0.00    -0.179 NA
BRANCH  22  23
ATOM     23  N   UNL A   1      28.765  31.117  20.967  1.00  0.00    -0.229 N 
ATOM     24  C   UNL A   1      28.237  32.366  21.215  1.00  0.00     0.332 C 
ATOM     25  H   UNL A   1      28.556  30.723  20.089  1.00  0.00     0.195 HD
ATOM     26  N   UNL A   1      27.606  32.889  20.125  1.00  0.00    -0.350 N 
ATOM     27  O   UNL A   1      28.293  33.014  22.251  1.00  0.00    -0.247 OA
ATOM     28  H   UNL A   1      27.559  32.371  19.288  1.00  0.00     0.161 HD
ATOM     29  H   UNL A   1      27.198  33.783  20.173  1.00  0.00     0.161 HD
ENDBRANCH  22  23
ENDBRANCH  16  21
ENDBRANCH  12  13
ENDBRANCH  11  12
ENDBRANCH   6  11
ENDBRANCH   1   5
BRANCH   3  30
ATOM     30  C   UNL A   1      37.108  20.630  25.070  1.00  0.00     0.118 C 
BRANCH  30  31
ATOM     31  C   UNL A   1      38.322  19.706  24.999  1.00  0.00     0.042 C 
BRANCH  31  32
ATOM     32  C   UNL A   1      39.307  19.950  26.133  1.00  0.00     0.118 C 
BRANCH  32  33
ATOM     33  N   UNL A   1      40.436  19.035  26.068  1.00  0.00    -0.352 N 
ATOM     34  C   UNL A   1      41.778  19.309  26.020  1.00  0.00     0.251 C 
ATOM     35  H   UNL A   1      40.202  18.079  26.058  1.00  0.00     0.163 HD
ATOM     36  O   UNL A   1      42.571  18.422  25.723  1.00  0.00    -0.269 OA
BRANCH  34  37
ATOM     37  C   UNL A   1      42.269  20.670  26.318  1.00  0.00     0.039 A 
ATOM     38  C   UNL A   1      42.580  21.521  25.255  1.00  0.00     0.014 A 
ATOM     39  C   UNL A   1      42.459  21.095  27.636  1.00  0.00     0.014 A 
ATOM     40  C   UNL A   1      43.044  22.811  25.515  1.00  0.00     0.010 A 
ATOM     41  C   UNL A   1      42.838  22.406  27.895  1.00  0.00     0.010 A 
ATOM     42  C   UNL A   1      43.153  23.272  26.838  1.00  0.00    -0.014 A 
BRANCH  42  43
ATOM     43  C   UNL A   1      43.616  24.648  27.137  1.00  0.00     0.031 A 
ATOM     44  C   UNL A   1      42.642  25.672  27.649  1.00  0.00     0.074 A 
ATOM     45  C   UNL A   1      44.894  24.987  26.888  1.00  0.00     0.049 A 
ATOM     46  N   UNL A   1      42.831  26.943  27.900  1.00  0.00    -0.248 NA
ATOM     47  C   UNL A   1      41.262  25.216  27.880  1.00  0.00     0.031 C 
ATOM     48  C   UNL A   1      45.915  24.091  26.342  1.00  0.00     0.029 A 
ATOM     49  N   UNL A   1      45.551  26.180  27.049  1.00  0.00    -0.354 N 
ATOM     50  C   UNL A   1      41.595  27.437  28.297  1.00  0.00     0.074 A 
ATOM     51  C   UNL A   1      40.651  26.346  28.200  1.00  0.00     0.031 C 
ATOM     52  C   UNL A   1      47.074  24.759  26.235  1.00  0.00     0.029 A 
ATOM     53  C   UNL A   1      46.869  26.138  26.666  1.00  0.00     0.049 A 
ATOM     54  H   UNL A   1      45.119  26.990  27.405  1.00  0.00     0.167 HD
ATOM     55  C   UNL A   1      41.283  28.683  28.727  1.00  0.00     0.037 A 
ATOM     56  C   UNL A   1      47.803  27.107  26.658  1.00  0.00     0.037 A 
ATOM     57  C   UNL A   1      42.236  29.754  28.847  1.00  0.00     0.049 A 
ATOM     58  C   UNL A   1      47.433  28.480  27.149  1.00  0.00     0.074 A 
ATOM     59  C   UNL A   1      42.040  31.035  29.333  1.00  0.00     0.029 A 
ATOM     60  N   UNL A   1      43.571  29.666  28.476  1.00  0.00    -0.354 N 
ATOM     61  N   UNL A   1      46.279  28.918  27.590  1.00  0.00    -0.248 NA
ATOM     62  C   UNL A   1      48.498  29.492  27.149  1.00  0.00     0.031 C 
ATOM     63  C   UNL A   1      43.243  31.736  29.211  1.00  0.00     0.029 A 
ATOM     64  C   UNL A   1      44.205  30.877  28.702  1.00  0.00     0.049 A 
ATOM     65  H   UNL A   1      44.003  28.862  28.107  1.00  0.00     0.167 HD
ATOM     66  C   UNL A   1      46.484  30.244  27.945  1.00  0.00     0.074 A 
ATOM     67  C   UNL A   1      47.879  30.534  27.684  1.00  0.00     0.031 C 
ATOM     68  C   UNL A   1      45.597  31.142  28.442  1.00  0.00     0.037 A 
BRANCH  55  69
ATOM     69  C   UNL A   1      39.853  28.951  29.101  1.00  0.00     0.064 A 
ATOM     70  C   UNL A   1      38.907  29.366  28.151  1.00  0.00     0.173 A 
ATOM     71  C   UNL A   1      39.414  28.760  30.420  1.00  0.00     0.173 A 
ATOM     72  F   UNL A   1      39.276  29.575  26.878  1.00  0.00    -0.203 F 
ATOM     73  C   UNL A   1      37.586  29.612  28.514  1.00  0.00     0.198 A 
ATOM     74  C   UNL A   1      38.084  28.974  30.773  1.00  0.00     0.198 A 
ATOM     75  F   UNL A   1      40.274  28.358  31.368  1.00  0.00    -0.203 F 
ATOM     76  F   UNL A   1      36.714  30.059  27.598  1.00  0.00    -0.200 F 
ATOM     77  C   UNL A   1      37.173  29.409  29.821  1.00  0.00     0.200 A 
ATOM     78  F   UNL A   1      37.683  28.765  32.034  1.00  0.00    -0.200 F 
ATOM     79  F   UNL A   1      35.899  29.638  30.166  1.00  0.00    -0.200 F 
ENDBRANCH  55  69
BRANCH  56  80
ATOM     80  C   UNL A   1      49.183  26.803  26.196  1.00  0.00     0.064 A 
ATOM     81  C   UNL A   1      50.162  26.362  27.097  1.00  0.00     0.173 A 
ATOM     82  C   UNL A   1      49.550  26.943  24.850  1.00  0.00     0.173 A 
ATOM     83  F   UNL A   1      49.865  26.230  28.398  1.00  0.00    -0.203 F 
ATOM     84  C   UNL A   1      51.462  26.093  26.672  1.00  0.00     0.198 A 
ATOM     85  C   UNL A   1      50.842  26.645  24.421  1.00  0.00     0.198 A 
ATOM     86  F   UNL A   1      48.648  27.355  23.947  1.00  0.00    -0.203 F 
ATOM     87  F   UNL A   1      52.390  25.715  27.562  1.00  0.00    -0.200 F 
ATOM     88  C   UNL A   1      51.799  26.229  25.334  1.00  0.00     0.200 A 
ATOM     89  F   UNL A   1      51.160  26.762  23.125  1.00  0.00    -0.200 F 
ATOM     90  F   UNL A   1      53.048  25.965  24.926  1.00  0.00    -0.200 F 
ENDBRANCH  56  80
BRANCH  68  91
ATOM     91  C   UNL A   1      46.117  32.511  28.769  1.00  0.00     0.064 A 
ATOM     92  C   UNL A   1      46.672  32.809  30.022  1.00  0.00     0.173 A 
ATOM     93  C   UNL A   1      46.096  33.527  27.801  1.00  0.00     0.173 A 
ATOM     94  F   UNL A   1      46.703  31.877  30.986  1.00  0.00    -0.203 F 
ATOM     95  C   UNL A   1      47.160  34.083  30.303  1.00  0.00     0.198 A 
ATOM     96  C   UNL A   1      46.614  34.788  28.075  1.00  0.00     0.198 A 
ATOM     97  F   UNL A   1      45.582  33.290  26.584  1.00  0.00    -0.203 F 
ATOM     98  F   UNL A   1      47.640  34.359  31.523  1.00  0.00    -0.200 F 
ATOM     99  C   UNL A   1      47.139  35.068  29.326  1.00  0.00     0.200 A 
ATOM    100  F   UNL A   1      46.606  35.735  27.125  1.00  0.00    -0.200 F 
ATOM    101  F   UNL A   1      47.617  36.290  29.596  1.00  0.00    -0.200 F 
ENDBRANCH  68  91
ENDBRANCH  42  43
ENDBRANCH  34  37
ENDBRANCH  32  33
ENDBRANCH  31  32
ENDBRANCH  30  31
ENDBRANCH   3  30
TORSDOF 16
ENDMDL
