MODEL 1
REMARK VINA RESULT:     -11.9      0.000      0.000
REMARK SMILES CO[C@@H]1C[C@H](C(=O)NCCCNC(=O)c2ccc(-c3c4nc(c(-c5c(F)c(F)c(F)c(F)c5F)c5ccc([nH]5)c(-c5c(F)c(F)c(F)c(F)c5F)c5nc(c(-c6c(F)c(F)c(F)c(F)c6F)c6ccc3[nH]6)C=C5)C=C4)cc2)N(C(=O)[C@H](CC(C)C)NC(N)=O)C1
REMARK SMILES IDX 9 1 8 2 6 3 7 4 5 6 3 7 4 8 90 9 78 10 2 11 1 12 79 13 80 14
REMARK SMILES IDX 81 15 86 16 87 17 88 19 89 20 82 23 83 24 84 25 85 26 10 27
REMARK SMILES IDX 11 28 12 29 13 30 14 32 15 33 16 34 77 35 17 36 76 37 18 38
REMARK SMILES IDX 19 39 20 40 70 41 21 42 75 43 69 44 71 45 22 46 74 47 68 48
REMARK SMILES IDX 67 49 23 51 55 52 35 53 54 54 36 55 39 56 53 57 72 58 37 59
REMARK SMILES IDX 38 60 52 62 73 63 40 64 24 65 25 66 33 67 26 68 27 69 31 70
REMARK SMILES IDX 34 71 28 72 29 73 32 74 30 75 56 76 57 77 65 78 58 79 59 80
REMARK SMILES IDX 63 81 66 82 60 83 61 84 64 85 62 86 41 87 42 88 50 89 43 90
REMARK SMILES IDX 44 91 48 92 51 93 45 94 46 95 49 96 47 97
REMARK H PARENT 8 5 86 18 88 21 88 22 12 31 71 50 39 61
REMARK Flexibility Score: inf
ROOT
ATOM      1  C   UNL A   1      33.486  27.821  24.825  1.00  0.00     0.117 C 
ENDROOT
BRANCH   1   2
ATOM      2  N   UNL A   1      32.681  27.010  25.736  1.00  0.00    -0.354 N 
ATOM      3  C   UNL A   1      31.644  26.141  25.603  1.00  0.00     0.242 C 
ATOM      4  O   UNL A   1      31.097  25.817  26.669  1.00  0.00    -0.273 OA
ATOM      5  H   UNL A   1      32.956  27.119  26.675  1.00  0.00     0.163 HD
BRANCH   3   6
ATOM      6  C   UNL A   1      31.066  25.556  24.277  1.00  0.00     0.177 C 
ATOM      7  C   UNL A   1      29.889  27.267  23.125  1.00  0.00     0.139 C 
ATOM      8  C   UNL A   1      29.653  26.032  23.977  1.00  0.00     0.069 C 
ATOM      9  C   UNL A   1      31.121  26.849  22.278  1.00  0.00     0.152 C 
ATOM     10  N   UNL A   1      31.799  25.793  23.050  1.00  0.00    -0.326 N 
BRANCH   7  11
ATOM     11  O   UNL A   1      30.182  28.425  23.906  1.00  0.00    -0.380 OA
ATOM     12  C   UNL A   1      30.034  29.669  23.222  1.00  0.00     0.195 C 
ENDBRANCH   7  11
BRANCH  10  13
ATOM     13  C   UNL A   1      32.913  25.124  22.564  1.00  0.00     0.246 C 
ATOM     14  O   UNL A   1      33.597  25.664  21.682  1.00  0.00    -0.272 OA
BRANCH  13  15
ATOM     15  C   UNL A   1      33.231  23.619  22.964  1.00  0.00     0.173 C 
BRANCH  15  16
ATOM     16  N   UNL A   1      32.594  22.716  22.010  1.00  0.00    -0.327 N 
ATOM     17  C   UNL A   1      32.157  21.481  22.378  1.00  0.00     0.312 C 
ATOM     18  H   UNL A   1      32.478  23.009  21.077  1.00  0.00     0.166 HD
ATOM     19  N   UNL A   1      31.777  20.718  21.330  1.00  0.00    -0.352 N 
ATOM     20  O   UNL A   1      32.153  21.046  23.520  1.00  0.00    -0.249 OA
ATOM     21  H   UNL A   1      31.788  21.091  20.419  1.00  0.00     0.161 HD
ATOM     22  H   UNL A   1      31.488  19.788  21.477  1.00  0.00     0.161 HD
ENDBRANCH  15  16
BRANCH  15  23
ATOM     23  C   UNL A   1      34.704  23.254  23.209  1.00  0.00     0.038 C 
BRANCH  23  24
ATOM     24  C   UNL A   1      35.297  22.971  24.598  1.00  0.00    -0.015 C 
ATOM     25  C   UNL A   1      36.681  23.605  24.751  1.00  0.00     0.007 C 
ATOM     26  C   UNL A   1      34.350  23.590  25.643  1.00  0.00     0.007 C 
ENDBRANCH  23  24
ENDBRANCH  15  23
ENDBRANCH  13  15
ENDBRANCH  10  13
ENDBRANCH   3   6
ENDBRANCH   1   2
BRANCH   1  27
ATOM     27  C   UNL A   1      33.280  29.327  25.047  1.00  0.00     0.042 C 
BRANCH  27  28
ATOM     28  C   UNL A   1      32.480  29.697  26.294  1.00  0.00     0.118 C 
BRANCH  28  29
ATOM     29  N   UNL A   1      32.416  31.133  26.495  1.00  0.00    -0.352 N 
ATOM     30  C   UNL A   1      33.191  31.968  27.263  1.00  0.00     0.251 C 
ATOM     31  H   UNL A   1      31.695  31.585  25.998  1.00  0.00     0.163 HD
ATOM     32  O   UNL A   1      32.792  33.113  27.469  1.00  0.00    -0.269 OA
BRANCH  30  33
ATOM     33  C   UNL A   1      34.491  31.542  27.850  1.00  0.00     0.039 A 
ATOM     34  C   UNL A   1      34.591  30.234  28.342  1.00  0.00     0.014 A 
ATOM     35  C   UNL A   1      35.563  32.418  28.036  1.00  0.00     0.014 A 
ATOM     36  C   UNL A   1      35.751  29.810  29.001  1.00  0.00     0.010 A 
ATOM     37  C   UNL A   1      36.752  31.971  28.627  1.00  0.00     0.010 A 
ATOM     38  C   UNL A   1      36.851  30.671  29.144  1.00  0.00    -0.014 A 
BRANCH  38  39
ATOM     39  C   UNL A   1      38.071  30.224  29.877  1.00  0.00     0.031 A 
ATOM     40  C   UNL A   1      38.321  30.671  31.295  1.00  0.00     0.074 A 
ATOM     41  C   UNL A   1      38.960  29.410  29.272  1.00  0.00     0.049 A 
ATOM     42  N   UNL A   1      39.315  30.372  32.099  1.00  0.00    -0.248 NA
ATOM     43  C   UNL A   1      37.339  31.594  31.886  1.00  0.00     0.031 C 
ATOM     44  C   UNL A   1      38.870  28.942  27.889  1.00  0.00     0.029 A 
ATOM     45  N   UNL A   1      40.111  28.829  29.746  1.00  0.00    -0.354 N 
ATOM     46  C   UNL A   1      39.078  31.070  33.277  1.00  0.00     0.074 A 
ATOM     47  C   UNL A   1      37.880  31.854  33.067  1.00  0.00     0.031 C 
ATOM     48  C   UNL A   1      39.905  28.123  27.634  1.00  0.00     0.029 A 
ATOM     49  C   UNL A   1      40.742  28.026  28.827  1.00  0.00     0.049 A 
ATOM     50  H   UNL A   1      40.452  28.973  30.658  1.00  0.00     0.167 HD
ATOM     51  C   UNL A   1      39.773  31.038  34.440  1.00  0.00     0.037 A 
ATOM     52  C   UNL A   1      41.864  27.288  28.933  1.00  0.00     0.037 A 
ATOM     53  C   UNL A   1      40.950  30.240  34.666  1.00  0.00     0.049 A 
ATOM     54  C   UNL A   1      42.599  27.247  30.247  1.00  0.00     0.074 A 
ATOM     55  C   UNL A   1      41.710  30.124  35.819  1.00  0.00     0.029 A 
ATOM     56  N   UNL A   1      41.536  29.413  33.720  1.00  0.00    -0.354 N 
ATOM     57  N   UNL A   1      42.331  27.871  31.367  1.00  0.00    -0.248 NA
ATOM     58  C   UNL A   1      43.785  26.381  30.313  1.00  0.00     0.031 C 
ATOM     59  C   UNL A   1      42.769  29.246  35.563  1.00  0.00     0.029 A 
ATOM     60  C   UNL A   1      42.646  28.785  34.262  1.00  0.00     0.049 A 
ATOM     61  H   UNL A   1      41.210  29.290  32.799  1.00  0.00     0.167 HD
ATOM     62  C   UNL A   1      43.295  27.457  32.275  1.00  0.00     0.074 A 
ATOM     63  C   UNL A   1      44.139  26.505  31.584  1.00  0.00     0.031 C 
ATOM     64  C   UNL A   1      43.473  27.835  33.565  1.00  0.00     0.037 A 
BRANCH  51  65
ATOM     65  C   UNL A   1      39.266  31.879  35.577  1.00  0.00     0.064 A 
ATOM     66  C   UNL A   1      38.384  31.355  36.535  1.00  0.00     0.173 A 
ATOM     67  C   UNL A   1      39.705  33.202  35.745  1.00  0.00     0.173 A 
ATOM     68  F   UNL A   1      37.925  30.101  36.415  1.00  0.00    -0.203 F 
ATOM     69  C   UNL A   1      37.944  32.130  37.605  1.00  0.00     0.198 A 
ATOM     70  C   UNL A   1      39.284  33.964  36.833  1.00  0.00     0.198 A 
ATOM     71  F   UNL A   1      40.555  33.750  34.864  1.00  0.00    -0.203 F 
ATOM     72  F   UNL A   1      37.068  31.621  38.483  1.00  0.00    -0.200 F 
ATOM     73  C   UNL A   1      38.400  33.430  37.757  1.00  0.00     0.200 A 
ATOM     74  F   UNL A   1      39.737  35.216  36.986  1.00  0.00    -0.200 F 
ATOM     75  F   UNL A   1      37.985  34.171  38.795  1.00  0.00    -0.200 F 
ENDBRANCH  51  65
BRANCH  52  76
ATOM     76  C   UNL A   1      42.352  26.497  27.772  1.00  0.00     0.064 A 
ATOM     77  C   UNL A   1      41.878  25.201  27.529  1.00  0.00     0.173 A 
ATOM     78  C   UNL A   1      43.322  27.011  26.899  1.00  0.00     0.173 A 
ATOM     79  F   UNL A   1      40.966  24.657  28.349  1.00  0.00    -0.203 F 
ATOM     80  C   UNL A   1      42.378  24.436  26.478  1.00  0.00     0.198 A 
ATOM     81  C   UNL A   1      43.800  26.257  25.830  1.00  0.00     0.198 A 
ATOM     82  F   UNL A   1      43.805  28.249  27.084  1.00  0.00    -0.203 F 
ATOM     83  F   UNL A   1      41.950  23.178  26.305  1.00  0.00    -0.200 F 
ATOM     84  C   UNL A   1      43.335  24.965  25.627  1.00  0.00     0.200 A 
ATOM     85  F   UNL A   1      44.715  26.776  25.001  1.00  0.00    -0.200 F 
ATOM     86  F   UNL A   1      43.820  24.228  24.617  1.00  0.00    -0.200 F 
ENDBRANCH  52  76
BRANCH  64  87
ATOM     87  C   UNL A   1      44.605  27.196  34.315  1.00  0.00     0.064 A 
ATOM     88  C   UNL A   1      44.434  25.996  35.021  1.00  0.00     0.173 A 
ATOM     89  C   UNL A   1      45.877  27.788  34.323  1.00  0.00     0.173 A 
ATOM     90  F   UNL A   1      43.233  25.398  35.055  1.00  0.00    -0.203 F 
ATOM     91  C   UNL A   1      45.484  25.434  35.743  1.00  0.00     0.198 A 
ATOM     92  C   UNL A   1      46.932  27.207  35.021  1.00  0.00     0.198 A 
ATOM     93  F   UNL A   1      46.096  28.931  33.657  1.00  0.00    -0.203 F 
ATOM     94  F   UNL A   1      45.280  24.320  36.461  1.00  0.00    -0.200 F 
ATOM     95  C   UNL A   1      46.732  26.037  35.739  1.00  0.00     0.200 A 
ATOM     96  F   UNL A   1      48.142  27.785  35.007  1.00  0.00    -0.200 F 
ATOM     97  F   UNL A   1      47.740  25.498  36.438  1.00  0.00    -0.200 F 
ENDBRANCH  64  87
ENDBRANCH  38  39
ENDBRANCH  30  33
ENDBRANCH  28  29
ENDBRANCH  27  28
ENDBRANCH   1  27
TORSDOF 16
ENDMDL
MODEL 2
REMARK VINA RESULT:     -11.9      1.298      2.122
REMARK SMILES CO[C@@H]1C[C@H](C(=O)NCCCNC(=O)c2ccc(-c3c4nc(c(-c5c(F)c(F)c(F)c(F)c5F)c5ccc([nH]5)c(-c5c(F)c(F)c(F)c(F)c5F)c5nc(c(-c6c(F)c(F)c(F)c(F)c6F)c6ccc3[nH]6)C=C5)C=C4)cc2)N(C(=O)[C@H](CC(C)C)NC(N)=O)C1
REMARK SMILES IDX 9 1 8 2 6 3 7 4 5 6 3 7 4 8 90 9 78 10 2 11 1 12 79 13 80 14
REMARK SMILES IDX 81 15 86 16 87 17 88 19 89 20 82 23 83 24 84 25 85 26 10 27
REMARK SMILES IDX 11 28 12 29 13 30 14 32 15 33 16 34 77 35 17 36 76 37 18 38
REMARK SMILES IDX 19 39 20 40 70 41 21 42 75 43 69 44 71 45 22 46 74 47 68 48
REMARK SMILES IDX 67 49 23 51 55 52 35 53 54 54 36 55 39 56 53 57 72 58 37 59
REMARK SMILES IDX 38 60 52 62 73 63 40 64 24 65 25 66 33 67 26 68 27 69 31 70
REMARK SMILES IDX 34 71 28 72 29 73 32 74 30 75 56 76 57 77 65 78 58 79 59 80
REMARK SMILES IDX 63 81 66 82 60 83 61 84 64 85 62 86 41 87 42 88 50 89 43 90
REMARK SMILES IDX 44 91 48 92 51 93 45 94 46 95 49 96 47 97
REMARK H PARENT 8 5 86 18 88 21 88 22 12 31 71 50 39 61
REMARK Flexibility Score: inf
ROOT
ATOM      1  C   UNL A   1      32.095  27.371  26.696  1.00  0.00     0.117 C 
ENDROOT
BRANCH   1   2
ATOM      2  N   UNL A   1      33.195  26.680  26.026  1.00  0.00    -0.354 N 
ATOM      3  C   UNL A   1      33.300  25.760  25.030  1.00  0.00     0.242 C 
ATOM      4  O   UNL A   1      34.430  25.263  24.899  1.00  0.00    -0.273 OA
ATOM      5  H   UNL A   1      34.073  26.942  26.384  1.00  0.00     0.163 HD
BRANCH   3   6
ATOM      6  C   UNL A   1      32.164  25.257  24.086  1.00  0.00     0.177 C 
ATOM      7  C   UNL A   1      32.623  25.979  21.871  1.00  0.00     0.139 C 
ATOM      8  C   UNL A   1      31.733  26.295  23.060  1.00  0.00     0.069 C 
ATOM      9  C   UNL A   1      32.693  24.429  21.917  1.00  0.00     0.152 C 
ATOM     10  N   UNL A   1      32.401  24.055  23.312  1.00  0.00    -0.326 N 
BRANCH   7  11
ATOM     11  O   UNL A   1      33.926  26.549  21.993  1.00  0.00    -0.380 OA
ATOM     12  C   UNL A   1      33.951  27.958  22.214  1.00  0.00     0.195 C 
ENDBRANCH   7  11
BRANCH  10  13
ATOM     13  C   UNL A   1      32.306  22.733  23.717  1.00  0.00     0.246 C 
ATOM     14  O   UNL A   1      32.020  21.869  22.875  1.00  0.00    -0.272 OA
BRANCH  13  15
ATOM     15  C   UNL A   1      32.365  22.315  25.250  1.00  0.00     0.173 C 
BRANCH  15  16
ATOM     16  N   UNL A   1      31.009  22.166  25.767  1.00  0.00    -0.327 N 
ATOM     17  C   UNL A   1      30.533  22.960  26.764  1.00  0.00     0.312 C 
ATOM     18  H   UNL A   1      30.423  21.473  25.384  1.00  0.00     0.166 HD
ATOM     19  N   UNL A   1      29.338  22.552  27.244  1.00  0.00    -0.352 N 
ATOM     20  O   UNL A   1      31.123  23.915  27.248  1.00  0.00    -0.249 OA
ATOM     21  H   UNL A   1      28.881  21.781  26.838  1.00  0.00     0.161 HD
ATOM     22  H   UNL A   1      28.923  23.027  28.001  1.00  0.00     0.161 HD
ENDBRANCH  15  16
BRANCH  15  23
ATOM     23  C   UNL A   1      33.259  21.121  25.618  1.00  0.00     0.038 C 
BRANCH  23  24
ATOM     24  C   UNL A   1      34.460  20.658  24.779  1.00  0.00    -0.015 C 
ATOM     25  C   UNL A   1      35.783  21.053  25.438  1.00  0.00     0.007 C 
ATOM     26  C   UNL A   1      34.395  19.122  24.682  1.00  0.00     0.007 C 
ENDBRANCH  23  24
ENDBRANCH  15  23
ENDBRANCH  13  15
ENDBRANCH  10  13
ENDBRANCH   3   6
ENDBRANCH   1   2
BRANCH   1  27
ATOM     27  C   UNL A   1      31.703  28.674  25.983  1.00  0.00     0.042 C 
BRANCH  27  28
ATOM     28  C   UNL A   1      32.861  29.624  25.682  1.00  0.00     0.118 C 
BRANCH  28  29
ATOM     29  N   UNL A   1      32.593  30.974  26.144  1.00  0.00    -0.352 N 
ATOM     30  C   UNL A   1      33.214  31.734  27.106  1.00  0.00     0.251 C 
ATOM     31  H   UNL A   1      31.840  31.420  25.691  1.00  0.00     0.163 HD
ATOM     32  O   UNL A   1      32.655  32.758  27.494  1.00  0.00    -0.269 OA
BRANCH  30  33
ATOM     33  C   UNL A   1      34.532  31.368  27.690  1.00  0.00     0.039 A 
ATOM     34  C   UNL A   1      34.719  30.044  28.109  1.00  0.00     0.014 A 
ATOM     35  C   UNL A   1      35.537  32.306  27.946  1.00  0.00     0.014 A 
ATOM     36  C   UNL A   1      35.898  29.666  28.764  1.00  0.00     0.010 A 
ATOM     37  C   UNL A   1      36.746  31.910  28.532  1.00  0.00     0.010 A 
ATOM     38  C   UNL A   1      36.931  30.592  28.976  1.00  0.00    -0.014 A 
BRANCH  38  39
ATOM     39  C   UNL A   1      38.169  30.192  29.704  1.00  0.00     0.031 A 
ATOM     40  C   UNL A   1      38.420  30.669  31.113  1.00  0.00     0.074 A 
ATOM     41  C   UNL A   1      39.075  29.393  29.104  1.00  0.00     0.049 A 
ATOM     42  N   UNL A   1      39.428  30.410  31.912  1.00  0.00    -0.248 NA
ATOM     43  C   UNL A   1      37.418  31.573  31.698  1.00  0.00     0.031 C 
ATOM     44  C   UNL A   1      38.986  28.900  27.729  1.00  0.00     0.029 A 
ATOM     45  N   UNL A   1      40.246  28.852  29.576  1.00  0.00    -0.354 N 
ATOM     46  C   UNL A   1      39.183  31.120  33.081  1.00  0.00     0.074 A 
ATOM     47  C   UNL A   1      37.962  31.867  32.870  1.00  0.00     0.031 C 
ATOM     48  C   UNL A   1      40.040  28.107  27.477  1.00  0.00     0.029 A 
ATOM     49  C   UNL A   1      40.891  28.052  28.664  1.00  0.00     0.049 A 
ATOM     50  H   UNL A   1      40.591  29.020  30.483  1.00  0.00     0.167 HD
ATOM     51  C   UNL A   1      39.889  31.126  34.238  1.00  0.00     0.037 A 
ATOM     52  C   UNL A   1      42.034  27.347  28.772  1.00  0.00     0.037 A 
ATOM     53  C   UNL A   1      41.090  30.365  34.465  1.00  0.00     0.049 A 
ATOM     54  C   UNL A   1      42.781  27.347  30.078  1.00  0.00     0.074 A 
ATOM     55  C   UNL A   1      41.862  30.288  35.613  1.00  0.00     0.029 A 
ATOM     56  N   UNL A   1      41.689  29.539  33.527  1.00  0.00    -0.354 N 
ATOM     57  N   UNL A   1      42.506  27.982  31.191  1.00  0.00    -0.248 NA
ATOM     58  C   UNL A   1      43.992  26.516  30.148  1.00  0.00     0.031 C 
ATOM     59  C   UNL A   1      42.944  29.436  35.360  1.00  0.00     0.029 A 
ATOM     60  C   UNL A   1      42.822  28.951  34.069  1.00  0.00     0.049 A 
ATOM     61  H   UNL A   1      41.359  29.393  32.611  1.00  0.00     0.167 HD
ATOM     62  C   UNL A   1      43.490  27.609  32.097  1.00  0.00     0.074 A 
ATOM     63  C   UNL A   1      44.354  26.671  31.413  1.00  0.00     0.031 C 
ATOM     64  C   UNL A   1      43.669  28.013  33.379  1.00  0.00     0.037 A 
BRANCH  51  65
ATOM     65  C   UNL A   1      39.369  31.971  35.366  1.00  0.00     0.064 A 
ATOM     66  C   UNL A   1      38.524  31.434  36.350  1.00  0.00     0.173 A 
ATOM     67  C   UNL A   1      39.759  33.313  35.499  1.00  0.00     0.173 A 
ATOM     68  F   UNL A   1      38.112  30.160  36.263  1.00  0.00    -0.203 F 
ATOM     69  C   UNL A   1      38.072  32.214  37.411  1.00  0.00     0.198 A 
ATOM     70  C   UNL A   1      39.327  34.082  36.578  1.00  0.00     0.198 A 
ATOM     71  F   UNL A   1      40.572  33.874  34.591  1.00  0.00    -0.203 F 
ATOM     72  F   UNL A   1      37.232  31.690  38.315  1.00  0.00    -0.200 F 
ATOM     73  C   UNL A   1      38.480  33.534  37.528  1.00  0.00     0.200 A 
ATOM     74  F   UNL A   1      39.734  35.353  36.697  1.00  0.00    -0.200 F 
ATOM     75  F   UNL A   1      38.054  34.280  38.558  1.00  0.00    -0.200 F 
ENDBRANCH  51  65
BRANCH  52  76
ATOM     76  C   UNL A   1      42.533  26.552  27.618  1.00  0.00     0.064 A 
ATOM     77  C   UNL A   1      42.093  25.239  27.401  1.00  0.00     0.173 A 
ATOM     78  C   UNL A   1      43.481  27.078  26.728  1.00  0.00     0.173 A 
ATOM     79  F   UNL A   1      41.205  24.683  28.238  1.00  0.00    -0.203 F 
ATOM     80  C   UNL A   1      42.605  24.471  26.357  1.00  0.00     0.198 A 
ATOM     81  C   UNL A   1      43.970  26.320  25.667  1.00  0.00     0.198 A 
ATOM     82  F   UNL A   1      43.930  28.332  26.889  1.00  0.00    -0.203 F 
ATOM     83  F   UNL A   1      42.212  23.199  26.209  1.00  0.00    -0.200 F 
ATOM     84  C   UNL A   1      43.540  25.013  25.488  1.00  0.00     0.200 A 
ATOM     85  F   UNL A   1      44.862  26.852  24.821  1.00  0.00    -0.200 F 
ATOM     86  F   UNL A   1      44.035  24.274  24.486  1.00  0.00    -0.200 F 
ENDBRANCH  52  76
BRANCH  64  87
ATOM     87  C   UNL A   1      44.824  27.418  34.128  1.00  0.00     0.064 A 
ATOM     88  C   UNL A   1      46.087  28.028  34.138  1.00  0.00     0.173 A 
ATOM     89  C   UNL A   1      44.666  26.224  34.848  1.00  0.00     0.173 A 
ATOM     90  F   UNL A   1      46.294  29.164  33.453  1.00  0.00    -0.203 F 
ATOM     91  C   UNL A   1      47.160  27.444  34.807  1.00  0.00     0.198 A 
ATOM     92  C   UNL A   1      45.733  25.659  35.541  1.00  0.00     0.198 A 
ATOM     93  F   UNL A   1      43.477  25.604  34.878  1.00  0.00    -0.203 F 
ATOM     94  F   UNL A   1      48.372  28.014  34.750  1.00  0.00    -0.200 F 
ATOM     95  C   UNL A   1      46.981  26.263  35.510  1.00  0.00     0.200 A 
ATOM     96  F   UNL A   1      45.556  24.522  36.230  1.00  0.00    -0.200 F 
ATOM     97  F   UNL A   1      48.016  25.700  36.149  1.00  0.00    -0.200 F 
ENDBRANCH  64  87
ENDBRANCH  38  39
ENDBRANCH  30  33
ENDBRANCH  28  29
ENDBRANCH  27  28
ENDBRANCH   1  27
TORSDOF 16
ENDMDL
MODEL 3
REMARK VINA RESULT:     -11.6      4.201      9.672
REMARK SMILES CO[C@@H]1C[C@H](C(=O)NCCCNC(=O)c2ccc(-c3c4nc(c(-c5c(F)c(F)c(F)c(F)c5F)c5ccc([nH]5)c(-c5c(F)c(F)c(F)c(F)c5F)c5nc(c(-c6c(F)c(F)c(F)c(F)c6F)c6ccc3[nH]6)C=C5)C=C4)cc2)N(C(=O)[C@H](CC(C)C)NC(N)=O)C1
REMARK SMILES IDX 9 1 8 2 6 3 7 4 5 6 3 7 4 8 90 9 78 10 2 11 1 12 79 13 80 14
REMARK SMILES IDX 81 15 86 16 87 17 88 19 89 20 82 23 83 24 84 25 85 26 10 27
REMARK SMILES IDX 11 28 12 29 13 30 14 32 15 33 16 34 77 35 17 36 76 37 18 38
REMARK SMILES IDX 19 39 20 40 70 41 21 42 75 43 69 44 71 45 22 46 74 47 68 48
REMARK SMILES IDX 67 49 23 51 55 52 35 53 54 54 36 55 39 56 53 57 72 58 37 59
REMARK SMILES IDX 38 60 52 62 73 63 40 64 24 65 25 66 33 67 26 68 27 69 31 70
REMARK SMILES IDX 34 71 28 72 29 73 32 74 30 75 56 76 57 77 65 78 58 79 59 80
REMARK SMILES IDX 63 81 66 82 60 83 61 84 64 85 62 86 41 87 42 88 50 89 43 90
REMARK SMILES IDX 44 91 48 92 51 93 45 94 46 95 49 96 47 97
REMARK H PARENT 8 5 86 18 88 21 88 22 12 31 71 50 39 61
REMARK Flexibility Score: inf
ROOT
ATOM      1  C   UNL A   1      34.973  23.529  25.920  1.00  0.00     0.117 C 
ENDROOT
BRANCH   1   2
ATOM      2  N   UNL A   1      34.820  23.788  24.489  1.00  0.00    -0.354 N 
ATOM      3  C   UNL A   1      33.826  23.628  23.575  1.00  0.00     0.242 C 
ATOM      4  O   UNL A   1      34.178  23.778  22.394  1.00  0.00    -0.273 OA
ATOM      5  H   UNL A   1      35.634  24.170  24.090  1.00  0.00     0.163 HD
BRANCH   3   6
ATOM      6  C   UNL A   1      32.339  23.248  23.853  1.00  0.00     0.177 C 
ATOM      7  C   UNL A   1      32.227  20.958  24.471  1.00  0.00     0.139 C 
ATOM      8  C   UNL A   1      31.953  21.885  23.299  1.00  0.00     0.069 C 
ATOM      9  C   UNL A   1      31.791  21.825  25.683  1.00  0.00     0.152 C 
ATOM     10  N   UNL A   1      31.886  23.224  25.230  1.00  0.00    -0.326 N 
BRANCH   7  11
ATOM     11  O   UNL A   1      33.604  20.597  24.576  1.00  0.00    -0.380 OA
ATOM     12  C   UNL A   1      33.870  19.198  24.489  1.00  0.00     0.195 C 
ENDBRANCH   7  11
BRANCH  10  13
ATOM     13  C   UNL A   1      31.502  24.287  26.033  1.00  0.00     0.246 C 
ATOM     14  O   UNL A   1      31.348  24.093  27.248  1.00  0.00    -0.272 OA
BRANCH  13  15
ATOM     15  C   UNL A   1      31.073  25.692  25.423  1.00  0.00     0.173 C 
BRANCH  15  16
ATOM     16  N   UNL A   1      29.666  25.648  25.042  1.00  0.00    -0.327 N 
ATOM     17  C   UNL A   1      29.196  26.331  23.964  1.00  0.00     0.312 C 
ATOM     18  H   UNL A   1      29.040  25.109  25.580  1.00  0.00     0.166 HD
ATOM     19  N   UNL A   1      27.847  26.332  23.881  1.00  0.00    -0.352 N 
ATOM     20  O   UNL A   1      29.885  26.948  23.165  1.00  0.00    -0.249 OA
ATOM     21  H   UNL A   1      27.313  25.827  24.535  1.00  0.00     0.161 HD
ATOM     22  H   UNL A   1      27.399  26.838  23.164  1.00  0.00     0.161 HD
ENDBRANCH  15  16
BRANCH  15  23
ATOM     23  C   UNL A   1      31.412  26.946  26.244  1.00  0.00     0.038 C 
BRANCH  23  24
ATOM     24  C   UNL A   1      32.360  28.055  25.764  1.00  0.00    -0.015 C 
ATOM     25  C   UNL A   1      31.608  29.367  25.533  1.00  0.00     0.007 C 
ATOM     26  C   UNL A   1      33.413  28.275  26.866  1.00  0.00     0.007 C 
ENDBRANCH  23  24
ENDBRANCH  15  23
ENDBRANCH  13  15
ENDBRANCH  10  13
ENDBRANCH   3   6
ENDBRANCH   1   2
BRANCH   1  27
ATOM     27  C   UNL A   1      35.887  22.326  26.202  1.00  0.00     0.042 C 
BRANCH  27  28
ATOM     28  C   UNL A   1      36.973  22.077  25.158  1.00  0.00     0.118 C 
BRANCH  28  29
ATOM     29  N   UNL A   1      37.911  21.053  25.581  1.00  0.00    -0.352 N 
ATOM     30  C   UNL A   1      39.171  21.157  26.120  1.00  0.00     0.251 C 
ATOM     31  H   UNL A   1      37.591  20.130  25.460  1.00  0.00     0.163 HD
ATOM     32  O   UNL A   1      39.872  20.148  26.168  1.00  0.00    -0.269 OA
BRANCH  30  33
ATOM     33  C   UNL A   1      39.714  22.437  26.650  1.00  0.00     0.039 A 
ATOM     34  C   UNL A   1      39.253  23.631  26.080  1.00  0.00     0.014 A 
ATOM     35  C   UNL A   1      40.741  22.493  27.596  1.00  0.00     0.014 A 
ATOM     36  C   UNL A   1      39.805  24.860  26.461  1.00  0.00     0.010 A 
ATOM     37  C   UNL A   1      41.240  23.727  28.033  1.00  0.00     0.010 A 
ATOM     38  C   UNL A   1      40.800  24.924  27.449  1.00  0.00    -0.014 A 
BRANCH  38  39
ATOM     39  C   UNL A   1      41.408  26.233  27.826  1.00  0.00     0.031 A 
ATOM     40  C   UNL A   1      42.819  26.571  27.414  1.00  0.00     0.074 A 
ATOM     41  C   UNL A   1      40.694  27.128  28.539  1.00  0.00     0.049 A 
ATOM     42  N   UNL A   1      43.510  27.665  27.632  1.00  0.00    -0.248 NA
ATOM     43  C   UNL A   1      43.563  25.538  26.677  1.00  0.00     0.031 C 
ATOM     44  C   UNL A   1      39.339  26.913  29.048  1.00  0.00     0.029 A 
ATOM     45  N   UNL A   1      41.007  28.399  28.954  1.00  0.00    -0.354 N 
ATOM     46  C   UNL A   1      44.761  27.448  27.067  1.00  0.00     0.074 A 
ATOM     47  C   UNL A   1      44.757  26.097  26.547  1.00  0.00     0.031 C 
ATOM     48  C   UNL A   1      38.926  28.023  29.681  1.00  0.00     0.029 A 
ATOM     49  C   UNL A   1      39.993  29.020  29.644  1.00  0.00     0.049 A 
ATOM     50  H   UNL A   1      41.876  28.826  28.775  1.00  0.00     0.167 HD
ATOM     51  C   UNL A   1      45.807  28.302  26.961  1.00  0.00     0.037 A 
ATOM     52  C   UNL A   1      39.926  30.254  30.179  1.00  0.00     0.037 A 
ATOM     53  C   UNL A   1      45.810  29.655  27.452  1.00  0.00     0.049 A 
ATOM     54  C   UNL A   1      41.091  31.193  30.018  1.00  0.00     0.074 A 
ATOM     55  C   UNL A   1      46.815  30.605  27.369  1.00  0.00     0.029 A 
ATOM     56  N   UNL A   1      44.749  30.257  28.112  1.00  0.00    -0.354 N 
ATOM     57  N   UNL A   1      42.246  30.989  29.433  1.00  0.00    -0.248 NA
ATOM     58  C   UNL A   1      40.935  32.543  30.577  1.00  0.00     0.031 C 
ATOM     59  C   UNL A   1      46.372  31.772  28.002  1.00  0.00     0.029 A 
ATOM     60  C   UNL A   1      45.076  31.562  28.442  1.00  0.00     0.049 A 
ATOM     61  H   UNL A   1      43.891  29.820  28.315  1.00  0.00     0.167 HD
ATOM     62  C   UNL A   1      42.941  32.187  29.532  1.00  0.00     0.074 A 
ATOM     63  C   UNL A   1      42.068  33.122  30.208  1.00  0.00     0.031 C 
ATOM     64  C   UNL A   1      44.195  32.485  29.109  1.00  0.00     0.037 A 
BRANCH  51  65
ATOM     65  C   UNL A   1      47.042  27.806  26.262  1.00  0.00     0.064 A 
ATOM     66  C   UNL A   1      48.133  27.296  26.984  1.00  0.00     0.173 A 
ATOM     67  C   UNL A   1      47.116  27.785  24.861  1.00  0.00     0.173 A 
ATOM     68  F   UNL A   1      48.117  27.303  28.325  1.00  0.00    -0.203 F 
ATOM     69  C   UNL A   1      49.260  26.807  26.330  1.00  0.00     0.198 A 
ATOM     70  C   UNL A   1      48.235  27.269  24.210  1.00  0.00     0.198 A 
ATOM     71  F   UNL A   1      46.099  28.252  24.123  1.00  0.00    -0.203 F 
ATOM     72  F   UNL A   1      50.307  26.365  27.041  1.00  0.00    -0.200 F 
ATOM     73  C   UNL A   1      49.307  26.786  24.944  1.00  0.00     0.200 A 
ATOM     74  F   UNL A   1      48.272  27.236  22.871  1.00  0.00    -0.200 F 
ATOM     75  F   UNL A   1      50.388  26.303  24.315  1.00  0.00    -0.200 F 
ENDBRANCH  51  65
BRANCH  52  76
ATOM     76  C   UNL A   1      38.698  30.693  30.893  1.00  0.00     0.064 A 
ATOM     77  C   UNL A   1      37.593  31.194  30.191  1.00  0.00     0.173 A 
ATOM     78  C   UNL A   1      38.615  30.648  32.292  1.00  0.00     0.173 A 
ATOM     79  F   UNL A   1      37.632  31.279  28.853  1.00  0.00    -0.203 F 
ATOM     80  C   UNL A   1      36.465  31.663  30.862  1.00  0.00     0.198 A 
ATOM     81  C   UNL A   1      37.476  31.089  32.961  1.00  0.00     0.198 A 
ATOM     82  F   UNL A   1      39.643  30.172  33.011  1.00  0.00    -0.203 F 
ATOM     83  F   UNL A   1      35.448  32.193  30.169  1.00  0.00    -0.200 F 
ATOM     84  C   UNL A   1      36.405  31.606  32.246  1.00  0.00     0.200 A 
ATOM     85  F   UNL A   1      37.416  31.019  34.298  1.00  0.00    -0.200 F 
ATOM     86  F   UNL A   1      35.323  32.061  32.892  1.00  0.00    -0.200 F 
ENDBRANCH  52  76
BRANCH  64  87
ATOM     87  C   UNL A   1      44.678  33.886  29.341  1.00  0.00     0.064 A 
ATOM     88  C   UNL A   1      44.463  34.903  28.399  1.00  0.00     0.173 A 
ATOM     89  C   UNL A   1      45.361  34.217  30.521  1.00  0.00     0.173 A 
ATOM     90  F   UNL A   1      43.828  34.634  27.248  1.00  0.00    -0.203 F 
ATOM     91  C   UNL A   1      44.951  36.191  28.611  1.00  0.00     0.198 A 
ATOM     92  C   UNL A   1      45.820  35.513  30.743  1.00  0.00     0.198 A 
ATOM     93  F   UNL A   1      45.585  33.284  31.458  1.00  0.00    -0.203 F 
ATOM     94  F   UNL A   1      44.787  37.130  27.669  1.00  0.00    -0.200 F 
ATOM     95  C   UNL A   1      45.625  36.495  29.783  1.00  0.00     0.200 A 
ATOM     96  F   UNL A   1      46.462  35.808  31.882  1.00  0.00    -0.200 F 
ATOM     97  F   UNL A   1      46.097  37.732  29.984  1.00  0.00    -0.200 F 
ENDBRANCH  64  87
ENDBRANCH  38  39
ENDBRANCH  30  33
ENDBRANCH  28  29
ENDBRANCH  27  28
ENDBRANCH   1  27
TORSDOF 16
ENDMDL
