MODEL 1
REMARK VINA RESULT:     -13.4      0.000      0.000
REMARK SMILES O=C(NCCCNC(=O)[C@@H]1CCCC[C@@H]1c1nc(C2CCCCC2)no1)c1ccc(-c2c3nc(c(-c4c(F)c(F)c(F)c(F)c4F)c4ccc([nH]4)c(-c4c(F)c(F)c(F)c(F)c4F)c4nc(c(-c5c(F)c(F)c(F)c(F)c5F)c5ccc2[nH]5)C=C4)C=C3)cc1
REMARK SMILES IDX 5 1 4 2 3 3 1 4 2 5 27 7 28 8 89 9 29 10 88 11 30 12 31 13
REMARK SMILES IDX 32 14 82 15 33 16 87 17 81 18 83 19 34 20 86 21 80 22 79 23
REMARK SMILES IDX 35 25 67 26 47 27 66 28 48 29 51 30 65 31 84 32 49 33 50 34
REMARK SMILES IDX 64 36 85 37 52 38 36 39 37 40 45 41 38 42 39 43 43 44 46 45
REMARK SMILES IDX 40 46 41 47 44 48 42 49 68 50 69 51 77 52 70 53 71 54 75 55
REMARK SMILES IDX 78 56 72 57 73 58 76 59 74 60 53 61 54 62 62 63 55 64 56 65
REMARK SMILES IDX 60 66 63 67 57 68 58 69 61 70 59 71 6 72 7 73 8 74 9 76
REMARK SMILES IDX 10 77 11 78 15 79 12 80 14 81 13 82 16 83 17 84 26 85 18 86
REMARK SMILES IDX 25 87 19 88 20 89 24 90 21 91 23 92 22 93
REMARK H PARENT 3 6 83 24 51 35 7 75
REMARK Flexibility Score: inf
ROOT
ATOM      1  C   UNL A   1      31.908  28.558  26.488  1.00  0.00     0.042 C 
ENDROOT
BRANCH   1   2
ATOM      2  C   UNL A   1      32.903  29.544  25.900  1.00  0.00     0.118 C 
BRANCH   2   3
ATOM      3  N   UNL A   1      32.633  30.920  26.302  1.00  0.00    -0.352 N 
ATOM      4  O   UNL A   1      32.730  32.790  27.552  1.00  0.00    -0.269 OA
ATOM      5  C   UNL A   1      33.256  31.735  27.220  1.00  0.00     0.251 C 
ATOM      6  H   UNL A   1      31.874  31.339  25.836  1.00  0.00     0.163 HD
BRANCH   5   7
ATOM      7  C   UNL A   1      34.542  31.331  27.836  1.00  0.00     0.039 A 
ATOM      8  C   UNL A   1      34.762  30.015  28.232  1.00  0.00     0.014 A 
ATOM      9  C   UNL A   1      35.557  32.279  28.001  1.00  0.00     0.014 A 
ATOM     10  C   UNL A   1      35.880  29.699  28.989  1.00  0.00     0.010 A 
ATOM     11  C   UNL A   1      36.751  31.921  28.639  1.00  0.00     0.010 A 
ATOM     12  C   UNL A   1      36.902  30.639  29.187  1.00  0.00    -0.014 A 
BRANCH  12  13
ATOM     13  C   UNL A   1      38.118  30.227  29.937  1.00  0.00     0.031 A 
ATOM     14  C   UNL A   1      38.320  30.621  31.376  1.00  0.00     0.074 A 
ATOM     15  C   UNL A   1      39.016  29.428  29.324  1.00  0.00     0.049 A 
ATOM     16  N   UNL A   1      39.296  30.298  32.189  1.00  0.00    -0.248 NA
ATOM     17  C   UNL A   1      37.308  31.499  31.978  1.00  0.00     0.031 C 
ATOM     18  C   UNL A   1      38.934  28.988  27.929  1.00  0.00     0.029 A 
ATOM     19  N   UNL A   1      40.145  28.812  29.798  1.00  0.00    -0.354 N 
ATOM     20  C   UNL A   1      39.033  30.960  33.382  1.00  0.00     0.074 A 
ATOM     21  C   UNL A   1      37.818  31.720  33.182  1.00  0.00     0.031 C 
ATOM     22  C   UNL A   1      39.917  28.111  27.684  1.00  0.00     0.029 A 
ATOM     23  C   UNL A   1      40.746  27.988  28.876  1.00  0.00     0.049 A 
ATOM     24  H   UNL A   1      40.493  28.946  30.709  1.00  0.00     0.167 HD
ATOM     25  C   UNL A   1      39.740  30.931  34.538  1.00  0.00     0.037 A 
ATOM     26  C   UNL A   1      41.848  27.224  28.974  1.00  0.00     0.037 A 
ATOM     27  C   UNL A   1      40.929  30.144  34.742  1.00  0.00     0.049 A 
ATOM     28  C   UNL A   1      42.606  27.208  30.269  1.00  0.00     0.074 A 
ATOM     29  C   UNL A   1      41.696  30.015  35.888  1.00  0.00     0.029 A 
ATOM     30  N   UNL A   1      41.525  29.347  33.774  1.00  0.00    -0.354 N 
ATOM     31  N   UNL A   1      42.334  27.820  31.394  1.00  0.00    -0.248 NA
ATOM     32  C   UNL A   1      43.831  26.398  30.304  1.00  0.00     0.031 C 
ATOM     33  C   UNL A   1      42.779  29.178  35.600  1.00  0.00     0.029 A 
ATOM     34  C   UNL A   1      42.660  28.740  34.292  1.00  0.00     0.049 A 
ATOM     35  H   UNL A   1      41.191  29.230  32.855  1.00  0.00     0.167 HD
ATOM     36  C   UNL A   1      43.336  27.454  32.280  1.00  0.00     0.074 A 
ATOM     37  C   UNL A   1      44.214  26.549  31.564  1.00  0.00     0.031 C 
ATOM     38  C   UNL A   1      43.515  27.834  33.568  1.00  0.00     0.037 A 
BRANCH  25  39
ATOM     39  C   UNL A   1      39.263  31.797  35.671  1.00  0.00     0.064 A 
ATOM     40  C   UNL A   1      38.355  31.331  36.633  1.00  0.00     0.173 A 
ATOM     41  C   UNL A   1      39.755  33.105  35.815  1.00  0.00     0.173 A 
ATOM     42  F   UNL A   1      37.844  30.094  36.536  1.00  0.00    -0.203 F 
ATOM     43  C   UNL A   1      37.936  32.150  37.680  1.00  0.00     0.198 A 
ATOM     44  C   UNL A   1      39.356  33.909  36.879  1.00  0.00     0.198 A 
ATOM     45  F   UNL A   1      40.631  33.599  34.927  1.00  0.00    -0.203 F 
ATOM     46  F   UNL A   1      37.031  31.699  38.558  1.00  0.00    -0.200 F 
ATOM     47  C   UNL A   1      38.442  33.435  37.806  1.00  0.00     0.200 A 
ATOM     48  F   UNL A   1      39.856  35.147  37.005  1.00  0.00    -0.200 F 
ATOM     49  F   UNL A   1      38.041  34.218  38.816  1.00  0.00    -0.200 F 
ENDBRANCH  25  39
BRANCH  26  50
ATOM     50  C   UNL A   1      42.290  26.409  27.813  1.00  0.00     0.064 A 
ATOM     51  C   UNL A   1      43.279  26.877  26.936  1.00  0.00     0.173 A 
ATOM     52  C   UNL A   1      41.746  25.140  27.564  1.00  0.00     0.173 A 
ATOM     53  F   UNL A   1      43.817  28.092  27.123  1.00  0.00    -0.203 F 
ATOM     54  C   UNL A   1      43.695  26.116  25.847  1.00  0.00     0.198 A 
ATOM     55  C   UNL A   1      42.186  24.366  26.493  1.00  0.00     0.198 A 
ATOM     56  F   UNL A   1      40.802  24.643  28.375  1.00  0.00    -0.203 F 
ATOM     57  F   UNL A   1      44.612  26.604  25.001  1.00  0.00    -0.200 F 
ATOM     58  C   UNL A   1      43.153  24.857  25.631  1.00  0.00     0.200 A 
ATOM     59  F   UNL A   1      41.674  23.142  26.300  1.00  0.00    -0.200 F 
ATOM     60  F   UNL A   1      43.561  24.120  24.589  1.00  0.00    -0.200 F 
ENDBRANCH  26  50
BRANCH  38  61
ATOM     61  C   UNL A   1      44.680  27.233  34.298  1.00  0.00     0.064 A 
ATOM     62  C   UNL A   1      45.932  27.862  34.337  1.00  0.00     0.173 A 
ATOM     63  C   UNL A   1      44.534  26.015  34.979  1.00  0.00     0.173 A 
ATOM     64  F   UNL A   1      46.126  29.019  33.686  1.00  0.00    -0.203 F 
ATOM     65  C   UNL A   1      47.006  27.277  35.001  1.00  0.00     0.198 A 
ATOM     66  C   UNL A   1      45.601  25.447  35.668  1.00  0.00     0.198 A 
ATOM     67  F   UNL A   1      43.354  25.375  34.976  1.00  0.00    -0.203 F 
ATOM     68  F   UNL A   1      48.209  27.867  34.976  1.00  0.00    -0.200 F 
ATOM     69  C   UNL A   1      46.838  26.073  35.671  1.00  0.00     0.200 A 
ATOM     70  F   UNL A   1      45.433  24.291  36.325  1.00  0.00    -0.200 F 
ATOM     71  F   UNL A   1      47.873  25.511  36.311  1.00  0.00    -0.200 F 
ENDBRANCH  38  61
ENDBRANCH  12  13
ENDBRANCH   5   7
ENDBRANCH   2   3
ENDBRANCH   1   2
BRANCH   1  72
ATOM     72  C   UNL A   1      32.438  27.136  26.544  1.00  0.00     0.117 C 
BRANCH  72  73
ATOM     73  N   UNL A   1      31.386  26.172  26.811  1.00  0.00    -0.356 N 
ATOM     74  C   UNL A   1      31.158  24.898  26.419  1.00  0.00     0.223 C 
ATOM     75  H   UNL A   1      30.686  26.523  27.408  1.00  0.00     0.163 HD
ATOM     76  O   UNL A   1      30.112  24.402  26.856  1.00  0.00    -0.275 OA
BRANCH  74  77
ATOM     77  C   UNL A   1      32.049  24.120  25.435  1.00  0.00     0.091 C 
ATOM     78  C   UNL A   1      33.527  24.453  25.776  1.00  0.00     0.014 C 
ATOM     79  C   UNL A   1      31.764  24.300  23.929  1.00  0.00     0.091 C 
ATOM     80  C   UNL A   1      34.546  23.807  24.846  1.00  0.00     0.001 C 
ATOM     81  C   UNL A   1      32.836  23.657  23.038  1.00  0.00     0.014 C 
ATOM     82  C   UNL A   1      34.245  24.101  23.386  1.00  0.00     0.001 C 
BRANCH  79  83
ATOM     83  C   UNL A   1      31.477  25.706  23.518  1.00  0.00     0.230 A 
ATOM     84  N   UNL A   1      30.338  26.361  23.575  1.00  0.00    -0.196 NA
ATOM     85  O   UNL A   1      32.513  26.467  23.063  1.00  0.00    -0.339 OA
ATOM     86  C   UNL A   1      30.698  27.600  23.108  1.00  0.00     0.175 A 
ATOM     87  N   UNL A   1      31.996  27.730  22.804  1.00  0.00    -0.062 NA
BRANCH  86  88
ATOM     88  C   UNL A   1      29.726  28.698  22.844  1.00  0.00     0.061 C 
ATOM     89  C   UNL A   1      28.291  28.227  23.126  1.00  0.00     0.012 C 
ATOM     90  C   UNL A   1      30.029  29.981  23.629  1.00  0.00     0.012 C 
ATOM     91  C   UNL A   1      27.278  29.310  22.774  1.00  0.00     0.001 C 
ATOM     92  C   UNL A   1      29.020  31.078  23.285  1.00  0.00     0.001 C 
ATOM     93  C   UNL A   1      27.579  30.619  23.501  1.00  0.00     0.000 C 
ENDBRANCH  86  88
ENDBRANCH  79  83
ENDBRANCH  74  77
ENDBRANCH  72  73
ENDBRANCH   1  72
TORSDOF 12
ENDMDL
MODEL 2
REMARK VINA RESULT:     -13.3      0.049      1.127
REMARK SMILES O=C(NCCCNC(=O)[C@@H]1CCCC[C@@H]1c1nc(C2CCCCC2)no1)c1ccc(-c2c3nc(c(-c4c(F)c(F)c(F)c(F)c4F)c4ccc([nH]4)c(-c4c(F)c(F)c(F)c(F)c4F)c4nc(c(-c5c(F)c(F)c(F)c(F)c5F)c5ccc2[nH]5)C=C4)C=C3)cc1
REMARK SMILES IDX 5 1 4 2 3 3 1 4 2 5 27 7 28 8 89 9 29 10 88 11 30 12 31 13
REMARK SMILES IDX 32 14 82 15 33 16 87 17 81 18 83 19 34 20 86 21 80 22 79 23
REMARK SMILES IDX 35 25 67 26 47 27 66 28 48 29 51 30 65 31 84 32 49 33 50 34
REMARK SMILES IDX 64 36 85 37 52 38 36 39 37 40 45 41 38 42 39 43 43 44 46 45
REMARK SMILES IDX 40 46 41 47 44 48 42 49 68 50 69 51 77 52 70 53 71 54 75 55
REMARK SMILES IDX 78 56 72 57 73 58 76 59 74 60 53 61 54 62 62 63 55 64 56 65
REMARK SMILES IDX 60 66 63 67 57 68 58 69 61 70 59 71 6 72 7 73 8 74 9 76
REMARK SMILES IDX 10 77 11 78 15 79 12 80 14 81 13 82 16 83 17 84 26 85 18 86
REMARK SMILES IDX 25 87 19 88 20 89 24 90 21 91 23 92 22 93
REMARK H PARENT 3 6 83 24 51 35 7 75
REMARK Flexibility Score: inf
ROOT
ATOM      1  C   UNL A   1      31.930  28.560  26.541  1.00  0.00     0.042 C 
ENDROOT
BRANCH   1   2
ATOM      2  C   UNL A   1      32.911  29.547  25.932  1.00  0.00     0.118 C 
BRANCH   2   3
ATOM      3  N   UNL A   1      32.646  30.924  26.335  1.00  0.00    -0.352 N 
ATOM      4  O   UNL A   1      32.751  32.793  27.583  1.00  0.00    -0.269 OA
ATOM      5  C   UNL A   1      33.274  31.737  27.250  1.00  0.00     0.251 C 
ATOM      6  H   UNL A   1      31.886  31.343  25.871  1.00  0.00     0.163 HD
BRANCH   5   7
ATOM      7  C   UNL A   1      34.561  31.331  27.862  1.00  0.00     0.039 A 
ATOM      8  C   UNL A   1      34.772  30.020  28.278  1.00  0.00     0.014 A 
ATOM      9  C   UNL A   1      35.587  32.271  28.001  1.00  0.00     0.014 A 
ATOM     10  C   UNL A   1      35.893  29.705  29.031  1.00  0.00     0.010 A 
ATOM     11  C   UNL A   1      36.783  31.912  28.634  1.00  0.00     0.010 A 
ATOM     12  C   UNL A   1      36.927  30.639  29.203  1.00  0.00    -0.014 A 
BRANCH  12  13
ATOM     13  C   UNL A   1      38.145  30.226  29.950  1.00  0.00     0.031 A 
ATOM     14  C   UNL A   1      38.357  30.630  31.384  1.00  0.00     0.074 A 
ATOM     15  C   UNL A   1      39.036  29.421  29.337  1.00  0.00     0.049 A 
ATOM     16  N   UNL A   1      39.335  30.309  32.195  1.00  0.00    -0.248 NA
ATOM     17  C   UNL A   1      37.351  31.516  31.987  1.00  0.00     0.031 C 
ATOM     18  C   UNL A   1      38.946  28.972  27.945  1.00  0.00     0.029 A 
ATOM     19  N   UNL A   1      40.167  28.803  29.809  1.00  0.00    -0.354 N 
ATOM     20  C   UNL A   1      39.082  30.980  33.385  1.00  0.00     0.074 A 
ATOM     21  C   UNL A   1      37.868  31.743  33.186  1.00  0.00     0.031 C 
ATOM     22  C   UNL A   1      39.924  28.089  27.700  1.00  0.00     0.029 A 
ATOM     23  C   UNL A   1      40.760  27.971  28.889  1.00  0.00     0.049 A 
ATOM     24  H   UNL A   1      40.519  28.943  30.717  1.00  0.00     0.167 HD
ATOM     25  C   UNL A   1      39.795  30.956  34.537  1.00  0.00     0.037 A 
ATOM     26  C   UNL A   1      41.859  27.204  28.986  1.00  0.00     0.037 A 
ATOM     27  C   UNL A   1      40.982  30.166  34.739  1.00  0.00     0.049 A 
ATOM     28  C   UNL A   1      42.624  27.194  30.277  1.00  0.00     0.074 A 
ATOM     29  C   UNL A   1      41.754  30.042  35.882  1.00  0.00     0.029 A 
ATOM     30  N   UNL A   1      41.570  29.360  33.773  1.00  0.00    -0.354 N 
ATOM     31  N   UNL A   1      42.360  27.814  31.400  1.00  0.00    -0.248 NA
ATOM     32  C   UNL A   1      43.847  26.380  30.311  1.00  0.00     0.031 C 
ATOM     33  C   UNL A   1      42.833  29.199  35.594  1.00  0.00     0.029 A 
ATOM     34  C   UNL A   1      42.705  28.753  34.289  1.00  0.00     0.049 A 
ATOM     35  H   UNL A   1      41.231  29.238  32.857  1.00  0.00     0.167 HD
ATOM     36  C   UNL A   1      43.365  27.451  32.283  1.00  0.00     0.074 A 
ATOM     37  C   UNL A   1      44.236  26.538  31.568  1.00  0.00     0.031 C 
ATOM     38  C   UNL A   1      43.553  27.839  33.567  1.00  0.00     0.037 A 
BRANCH  25  39
ATOM     39  C   UNL A   1      39.327  31.831  35.666  1.00  0.00     0.064 A 
ATOM     40  C   UNL A   1      39.757  33.159  35.805  1.00  0.00     0.173 A 
ATOM     41  C   UNL A   1      38.403  31.341  36.603  1.00  0.00     0.173 A 
ATOM     42  F   UNL A   1      40.650  33.674  34.945  1.00  0.00    -0.203 F 
ATOM     43  C   UNL A   1      39.301  33.955  36.855  1.00  0.00     0.198 A 
ATOM     44  C   UNL A   1      37.927  32.149  37.633  1.00  0.00     0.198 A 
ATOM     45  F   UNL A   1      37.953  30.081  36.513  1.00  0.00    -0.203 F 
ATOM     46  F   UNL A   1      39.764  35.205  36.995  1.00  0.00    -0.200 F 
ATOM     47  C   UNL A   1      38.382  33.452  37.763  1.00  0.00     0.200 A 
ATOM     48  F   UNL A   1      37.029  31.664  38.502  1.00  0.00    -0.200 F 
ATOM     49  F   UNL A   1      37.941  34.220  38.768  1.00  0.00    -0.200 F 
ENDBRANCH  25  39
BRANCH  26  50
ATOM     50  C   UNL A   1      42.292  26.380  27.828  1.00  0.00     0.064 A 
ATOM     51  C   UNL A   1      43.263  26.848  26.932  1.00  0.00     0.173 A 
ATOM     52  C   UNL A   1      41.757  25.103  27.602  1.00  0.00     0.173 A 
ATOM     53  F   UNL A   1      43.792  28.069  27.096  1.00  0.00    -0.203 F 
ATOM     54  C   UNL A   1      43.670  26.077  25.845  1.00  0.00     0.198 A 
ATOM     55  C   UNL A   1      42.188  24.320  26.534  1.00  0.00     0.198 A 
ATOM     56  F   UNL A   1      40.830  24.606  28.433  1.00  0.00    -0.203 F 
ATOM     57  F   UNL A   1      44.570  26.565  24.980  1.00  0.00    -0.200 F 
ATOM     58  C   UNL A   1      43.138  24.811  25.652  1.00  0.00     0.200 A 
ATOM     59  F   UNL A   1      41.686  23.089  26.363  1.00  0.00    -0.200 F 
ATOM     60  F   UNL A   1      43.537  24.065  24.613  1.00  0.00    -0.200 F 
ENDBRANCH  26  50
BRANCH  38  61
ATOM     61  C   UNL A   1      44.720  27.238  34.294  1.00  0.00     0.064 A 
ATOM     62  C   UNL A   1      45.974  27.864  34.323  1.00  0.00     0.173 A 
ATOM     63  C   UNL A   1      44.574  26.025  34.983  1.00  0.00     0.173 A 
ATOM     64  F   UNL A   1      46.168  29.017  33.666  1.00  0.00    -0.203 F 
ATOM     65  C   UNL A   1      47.049  27.279  34.986  1.00  0.00     0.198 A 
ATOM     66  C   UNL A   1      45.642  25.458  35.670  1.00  0.00     0.198 A 
ATOM     67  F   UNL A   1      43.392  25.389  34.990  1.00  0.00    -0.203 F 
ATOM     68  F   UNL A   1      48.254  27.866  34.952  1.00  0.00    -0.200 F 
ATOM     69  C   UNL A   1      46.881  26.080  35.664  1.00  0.00     0.200 A 
ATOM     70  F   UNL A   1      45.475  24.306  36.335  1.00  0.00    -0.200 F 
ATOM     71  F   UNL A   1      47.918  25.519  36.302  1.00  0.00    -0.200 F 
ENDBRANCH  38  61
ENDBRANCH  12  13
ENDBRANCH   5   7
ENDBRANCH   2   3
ENDBRANCH   1   2
BRANCH   1  72
ATOM     72  C   UNL A   1      32.433  27.128  26.522  1.00  0.00     0.117 C 
BRANCH  72  73
ATOM     73  N   UNL A   1      31.373  26.174  26.795  1.00  0.00    -0.356 N 
ATOM     74  C   UNL A   1      31.132  24.901  26.406  1.00  0.00     0.223 C 
ATOM     75  H   UNL A   1      30.679  26.532  27.394  1.00  0.00     0.163 HD
ATOM     76  O   UNL A   1      30.084  24.416  26.848  1.00  0.00    -0.275 OA
BRANCH  74  77
ATOM     77  C   UNL A   1      32.012  24.114  25.419  1.00  0.00     0.091 C 
ATOM     78  C   UNL A   1      33.494  24.434  25.754  1.00  0.00     0.014 C 
ATOM     79  C   UNL A   1      31.722  24.294  23.915  1.00  0.00     0.091 C 
ATOM     80  C   UNL A   1      34.503  23.777  24.822  1.00  0.00     0.001 C 
ATOM     81  C   UNL A   1      32.785  23.640  23.020  1.00  0.00     0.014 C 
ATOM     82  C   UNL A   1      34.200  24.072  23.362  1.00  0.00     0.001 C 
BRANCH  79  83
ATOM     83  C   UNL A   1      31.447  25.702  23.502  1.00  0.00     0.230 A 
ATOM     84  N   UNL A   1      30.314  26.367  23.563  1.00  0.00    -0.196 NA
ATOM     85  O   UNL A   1      32.488  26.452  23.040  1.00  0.00    -0.339 OA
ATOM     86  C   UNL A   1      30.684  27.603  23.093  1.00  0.00     0.175 A 
ATOM     87  N   UNL A   1      31.981  27.719  22.781  1.00  0.00    -0.062 NA
BRANCH  86  88
ATOM     88  C   UNL A   1      29.720  28.709  22.832  1.00  0.00     0.061 C 
ATOM     89  C   UNL A   1      28.283  28.253  23.126  1.00  0.00     0.012 C 
ATOM     90  C   UNL A   1      30.042  29.991  23.610  1.00  0.00     0.012 C 
ATOM     91  C   UNL A   1      27.278  29.345  22.778  1.00  0.00     0.001 C 
ATOM     92  C   UNL A   1      29.041  31.098  23.269  1.00  0.00     0.001 C 
ATOM     93  C   UNL A   1      27.597  30.653  23.497  1.00  0.00     0.000 C 
ENDBRANCH  86  88
ENDBRANCH  79  83
ENDBRANCH  74  77
ENDBRANCH  72  73
ENDBRANCH   1  72
TORSDOF 12
ENDMDL
MODEL 3
REMARK VINA RESULT:     -13.2      1.080      2.105
REMARK SMILES O=C(NCCCNC(=O)[C@@H]1CCCC[C@@H]1c1nc(C2CCCCC2)no1)c1ccc(-c2c3nc(c(-c4c(F)c(F)c(F)c(F)c4F)c4ccc([nH]4)c(-c4c(F)c(F)c(F)c(F)c4F)c4nc(c(-c5c(F)c(F)c(F)c(F)c5F)c5ccc2[nH]5)C=C4)C=C3)cc1
REMARK SMILES IDX 5 1 4 2 3 3 1 4 2 5 27 7 28 8 89 9 29 10 88 11 30 12 31 13
REMARK SMILES IDX 32 14 82 15 33 16 87 17 81 18 83 19 34 20 86 21 80 22 79 23
REMARK SMILES IDX 35 25 67 26 47 27 66 28 48 29 51 30 65 31 84 32 49 33 50 34
REMARK SMILES IDX 64 36 85 37 52 38 36 39 37 40 45 41 38 42 39 43 43 44 46 45
REMARK SMILES IDX 40 46 41 47 44 48 42 49 68 50 69 51 77 52 70 53 71 54 75 55
REMARK SMILES IDX 78 56 72 57 73 58 76 59 74 60 53 61 54 62 62 63 55 64 56 65
REMARK SMILES IDX 60 66 63 67 57 68 58 69 61 70 59 71 6 72 7 73 8 74 9 76
REMARK SMILES IDX 10 77 11 78 15 79 12 80 14 81 13 82 16 83 17 84 26 85 18 86
REMARK SMILES IDX 25 87 19 88 20 89 24 90 21 91 23 92 22 93
REMARK H PARENT 3 6 83 24 51 35 7 75
REMARK Flexibility Score: inf
ROOT
ATOM      1  C   UNL A   1      33.277  29.315  23.580  1.00  0.00     0.042 C 
ENDROOT
BRANCH   1   2
ATOM      2  C   UNL A   1      33.292  29.254  25.098  1.00  0.00     0.118 C 
BRANCH   2   3
ATOM      3  N   UNL A   1      32.779  30.474  25.713  1.00  0.00    -0.352 N 
ATOM      4  O   UNL A   1      32.498  32.067  27.278  1.00  0.00    -0.269 OA
ATOM      5  C   UNL A   1      33.207  31.184  26.811  1.00  0.00     0.251 C 
ATOM      6  H   UNL A   1      31.989  30.854  25.264  1.00  0.00     0.163 HD
BRANCH   5   7
ATOM      7  C   UNL A   1      34.504  30.869  27.455  1.00  0.00     0.039 A 
ATOM      8  C   UNL A   1      34.808  29.569  27.849  1.00  0.00     0.014 A 
ATOM      9  C   UNL A   1      35.446  31.885  27.648  1.00  0.00     0.014 A 
ATOM     10  C   UNL A   1      35.928  29.327  28.630  1.00  0.00     0.010 A 
ATOM     11  C   UNL A   1      36.647  31.608  28.311  1.00  0.00     0.010 A 
ATOM     12  C   UNL A   1      36.876  30.336  28.856  1.00  0.00    -0.014 A 
BRANCH  12  13
ATOM     13  C   UNL A   1      38.101  30.005  29.632  1.00  0.00     0.031 A 
ATOM     14  C   UNL A   1      38.274  30.467  31.054  1.00  0.00     0.074 A 
ATOM     15  C   UNL A   1      39.036  29.220  29.059  1.00  0.00     0.049 A 
ATOM     16  N   UNL A   1      39.254  30.219  31.888  1.00  0.00    -0.248 NA
ATOM     17  C   UNL A   1      37.221  31.327  31.612  1.00  0.00     0.031 C 
ATOM     18  C   UNL A   1      38.986  28.720  27.684  1.00  0.00     0.029 A 
ATOM     19  N   UNL A   1      40.186  28.671  29.567  1.00  0.00    -0.354 N 
ATOM     20  C   UNL A   1      38.954  30.918  33.050  1.00  0.00     0.074 A 
ATOM     21  C   UNL A   1      37.710  31.619  32.809  1.00  0.00     0.031 C 
ATOM     22  C   UNL A   1      40.006  27.874  27.482  1.00  0.00     0.029 A 
ATOM     23  C   UNL A   1      40.829  27.835  28.685  1.00  0.00     0.049 A 
ATOM     24  H   UNL A   1      40.519  28.857  30.475  1.00  0.00     0.167 HD
ATOM     25  C   UNL A   1      39.651  30.966  34.212  1.00  0.00     0.037 A 
ATOM     26  C   UNL A   1      41.960  27.122  28.823  1.00  0.00     0.037 A 
ATOM     27  C   UNL A   1      40.869  30.238  34.457  1.00  0.00     0.049 A 
ATOM     28  C   UNL A   1      42.706  27.191  30.123  1.00  0.00     0.074 A 
ATOM     29  C   UNL A   1      41.629  30.188  35.613  1.00  0.00     0.029 A 
ATOM     30  N   UNL A   1      41.506  29.427  33.527  1.00  0.00    -0.354 N 
ATOM     31  N   UNL A   1      42.398  27.837  31.220  1.00  0.00    -0.248 NA
ATOM     32  C   UNL A   1      43.963  26.434  30.201  1.00  0.00     0.031 C 
ATOM     33  C   UNL A   1      42.749  29.386  35.369  1.00  0.00     0.029 A 
ATOM     34  C   UNL A   1      42.660  28.890  34.079  1.00  0.00     0.049 A 
ATOM     35  H   UNL A   1      41.185  29.258  32.612  1.00  0.00     0.167 HD
ATOM     36  C   UNL A   1      43.406  27.550  32.128  1.00  0.00     0.074 A 
ATOM     37  C   UNL A   1      44.327  26.653  31.457  1.00  0.00     0.031 C 
ATOM     38  C   UNL A   1      43.558  27.990  33.400  1.00  0.00     0.037 A 
BRANCH  25  39
ATOM     39  C   UNL A   1      39.128  31.858  35.303  1.00  0.00     0.064 A 
ATOM     40  C   UNL A   1      38.326  31.368  36.345  1.00  0.00     0.173 A 
ATOM     41  C   UNL A   1      39.470  33.220  35.326  1.00  0.00     0.173 A 
ATOM     42  F   UNL A   1      37.959  30.078  36.365  1.00  0.00    -0.203 F 
ATOM     43  C   UNL A   1      37.863  32.213  37.351  1.00  0.00     0.198 A 
ATOM     44  C   UNL A   1      39.029  34.055  36.350  1.00  0.00     0.198 A 
ATOM     45  F   UNL A   1      40.240  33.740  34.359  1.00  0.00    -0.203 F 
ATOM     46  F   UNL A   1      37.058  31.732  38.308  1.00  0.00    -0.200 F 
ATOM     47  C   UNL A   1      38.220  33.553  37.357  1.00  0.00     0.200 A 
ATOM     48  F   UNL A   1      39.386  35.347  36.359  1.00  0.00    -0.200 F 
ATOM     49  F   UNL A   1      37.778  34.362  38.329  1.00  0.00    -0.200 F 
ENDBRANCH  25  39
BRANCH  26  50
ATOM     50  C   UNL A   1      42.445  26.278  27.700  1.00  0.00     0.064 A 
ATOM     51  C   UNL A   1      43.376  26.773  26.776  1.00  0.00     0.173 A 
ATOM     52  C   UNL A   1      42.001  24.958  27.536  1.00  0.00     0.173 A 
ATOM     53  F   UNL A   1      43.818  28.035  26.882  1.00  0.00    -0.203 F 
ATOM     54  C   UNL A   1      43.833  25.984  25.723  1.00  0.00     0.198 A 
ATOM     55  C   UNL A   1      42.483  24.160  26.501  1.00  0.00     0.198 A 
ATOM     56  F   UNL A   1      41.116  24.435  28.396  1.00  0.00    -0.203 F 
ATOM     57  F   UNL A   1      44.692  26.495  24.830  1.00  0.00    -0.200 F 
ATOM     58  C   UNL A   1      43.392  24.676  25.591  1.00  0.00     0.200 A 
ATOM     59  F   UNL A   1      42.069  22.890  26.390  1.00  0.00    -0.200 F 
ATOM     60  F   UNL A   1      43.839  23.914  24.584  1.00  0.00    -0.200 F 
ENDBRANCH  26  50
BRANCH  38  61
ATOM     61  C   UNL A   1      44.740  27.468  34.163  1.00  0.00     0.064 A 
ATOM     62  C   UNL A   1      44.699  26.241  34.839  1.00  0.00     0.173 A 
ATOM     63  C   UNL A   1      45.934  28.203  34.204  1.00  0.00     0.173 A 
ATOM     64  F   UNL A   1      43.574  25.510  34.844  1.00  0.00    -0.203 F 
ATOM     65  C   UNL A   1      45.800  25.785  35.559  1.00  0.00     0.198 A 
ATOM     66  C   UNL A   1      47.043  27.730  34.898  1.00  0.00     0.198 A 
ATOM     67  F   UNL A   1      46.026  29.381  33.567  1.00  0.00    -0.203 F 
ATOM     68  F   UNL A   1      45.719  24.638  36.246  1.00  0.00    -0.200 F 
ATOM     69  C   UNL A   1      46.972  26.526  35.583  1.00  0.00     0.200 A 
ATOM     70  F   UNL A   1      48.179  28.442  34.910  1.00  0.00    -0.200 F 
ATOM     71  F   UNL A   1      48.031  26.085  36.276  1.00  0.00    -0.200 F 
ENDBRANCH  38  61
ENDBRANCH  12  13
ENDBRANCH   5   7
ENDBRANCH   2   3
ENDBRANCH   1   2
BRANCH   1  72
ATOM     72  C   UNL A   1      34.071  28.197  22.929  1.00  0.00     0.117 C 
BRANCH  72  73
ATOM     73  N   UNL A   1      33.266  27.424  22.001  1.00  0.00    -0.356 N 
ATOM     74  C   UNL A   1      32.433  26.366  22.135  1.00  0.00     0.223 C 
ATOM     75  H   UNL A   1      33.342  27.739  21.072  1.00  0.00     0.163 HD
ATOM     76  O   UNL A   1      31.930  25.967  21.079  1.00  0.00    -0.275 OA
BRANCH  74  77
ATOM     77  C   UNL A   1      32.176  25.627  23.461  1.00  0.00     0.091 C 
ATOM     78  C   UNL A   1      31.507  24.268  23.118  1.00  0.00     0.014 C 
ATOM     79  C   UNL A   1      31.390  26.384  24.552  1.00  0.00     0.091 C 
ATOM     80  C   UNL A   1      31.127  23.433  24.333  1.00  0.00     0.001 C 
ATOM     81  C   UNL A   1      31.005  25.489  25.738  1.00  0.00     0.014 C 
ATOM     82  C   UNL A   1      30.282  24.222  25.320  1.00  0.00     0.001 C 
BRANCH  79  83
ATOM     83  C   UNL A   1      30.218  27.158  24.045  1.00  0.00     0.230 A 
ATOM     84  N   UNL A   1      30.200  28.361  23.513  1.00  0.00    -0.196 NA
ATOM     85  O   UNL A   1      28.993  26.562  24.070  1.00  0.00    -0.339 OA
ATOM     86  C   UNL A   1      28.871  28.517  23.207  1.00  0.00     0.175 A 
ATOM     87  N   UNL A   1      28.101  27.462  23.501  1.00  0.00    -0.062 NA
BRANCH  86  88
ATOM     88  C   UNL A   1      28.284  29.787  22.695  1.00  0.00     0.061 C 
ATOM     89  C   UNL A   1      28.643  30.959  23.622  1.00  0.00     0.012 C 
ATOM     90  C   UNL A   1      28.692  30.106  21.251  1.00  0.00     0.012 C 
ATOM     91  C   UNL A   1      27.975  32.249  23.160  1.00  0.00     0.001 C 
ATOM     92  C   UNL A   1      28.028  31.399  20.773  1.00  0.00     0.001 C 
ATOM     93  C   UNL A   1      28.320  32.572  21.708  1.00  0.00     0.000 C 
ENDBRANCH  86  88
ENDBRANCH  79  83
ENDBRANCH  74  77
ENDBRANCH  72  73
ENDBRANCH   1  72
TORSDOF 12
ENDMDL
