MODEL 1
REMARK VINA RESULT:     -11.9      0.000      0.000
REMARK SMILES CC(C)C[C@H](NC(=O)Cc1ccccc1)C(=O)NCCCNC(=O)c1ccc(-c2c3nc(c(-c4c(F)c(F)c(F)c(F)c4F)c4ccc([nH]4)c(-c4c(F)c(F)c(F)c(F)c4F)c4nc(c(-c5c(F)c(F)c(F)c(F)c5F)c5ccc2[nH]5)C=C4)C=C3)cc1
REMARK SMILES IDX 19 1 18 2 16 3 17 4 5 6 4 7 2 8 1 9 3 10 6 11 7 12 8 14 9 15
REMARK SMILES IDX 10 16 11 17 15 18 12 19 14 20 13 21 20 22 21 23 22 24 23 25
REMARK SMILES IDX 24 27 25 28 26 29 87 30 27 31 86 32 28 33 29 34 30 35 80 36
REMARK SMILES IDX 31 37 85 38 79 39 81 40 32 41 84 42 78 43 77 44 33 46 65 47
REMARK SMILES IDX 45 48 64 49 46 50 49 51 63 52 82 53 47 54 48 55 62 57 83 58
REMARK SMILES IDX 50 59 34 60 35 61 43 62 36 63 37 64 41 65 44 66 38 67 39 68
REMARK SMILES IDX 42 69 40 70 66 71 67 72 75 73 68 74 69 75 73 76 76 77 70 78
REMARK SMILES IDX 71 79 74 80 72 81 51 82 52 83 60 84 53 85 54 86 58 87 61 88
REMARK SMILES IDX 55 89 56 90 59 91 57 92
REMARK H PARENT 18 5 6 13 22 26 81 45 49 56
REMARK Flexibility Score: inf
ROOT
ATOM      1  C   UNL A   1      31.720  30.593  26.961  1.00  0.00     0.117 C 
ENDROOT
BRANCH   1   2
ATOM      2  N   UNL A   1      33.096  30.197  27.186  1.00  0.00    -0.354 N 
ATOM      3  C   UNL A   1      33.796  29.111  26.770  1.00  0.00     0.242 C 
ATOM      4  O   UNL A   1      34.923  28.952  27.248  1.00  0.00    -0.273 OA
ATOM      5  H   UNL A   1      33.614  30.827  27.737  1.00  0.00     0.163 HD
BRANCH   3   6
ATOM      6  C   UNL A   1      33.241  28.140  25.720  1.00  0.00     0.171 C 
BRANCH   6   7
ATOM      7  C   UNL A   1      33.961  26.779  25.756  1.00  0.00     0.038 C 
BRANCH   7   8
ATOM      8  C   UNL A   1      33.057  25.534  25.672  1.00  0.00    -0.015 C 
ATOM      9  C   UNL A   1      33.757  24.260  26.128  1.00  0.00     0.007 C 
ATOM     10  C   UNL A   1      31.792  25.786  26.500  1.00  0.00     0.007 C 
ENDBRANCH   7   8
ENDBRANCH   6   7
BRANCH   6  11
ATOM     11  N   UNL A   1      33.251  28.694  24.364  1.00  0.00    -0.344 N 
ATOM     12  C   UNL A   1      32.287  28.593  23.401  1.00  0.00     0.225 C 
ATOM     13  H   UNL A   1      34.056  29.204  24.115  1.00  0.00     0.164 HD
ATOM     14  O   UNL A   1      32.580  28.952  22.259  1.00  0.00    -0.275 OA
BRANCH  12  15
ATOM     15  C   UNL A   1      30.876  28.135  23.748  1.00  0.00     0.135 C 
BRANCH  15  16
ATOM     16  C   UNL A   1      29.748  29.110  23.493  1.00  0.00    -0.039 A 
ATOM     17  C   UNL A   1      28.550  28.733  22.873  1.00  0.00     0.004 A 
ATOM     18  C   UNL A   1      29.911  30.452  23.876  1.00  0.00     0.004 A 
ATOM     19  C   UNL A   1      27.497  29.646  22.752  1.00  0.00     0.000 A 
ATOM     20  C   UNL A   1      28.869  31.371  23.727  1.00  0.00     0.000 A 
ATOM     21  C   UNL A   1      27.652  30.959  23.189  1.00  0.00     0.000 A 
ENDBRANCH  15  16
ENDBRANCH  12  15
ENDBRANCH   6  11
ENDBRANCH   3   6
ENDBRANCH   1   2
BRANCH   1  22
ATOM     22  C   UNL A   1      31.609  32.094  26.761  1.00  0.00     0.042 C 
BRANCH  22  23
ATOM     23  C   UNL A   1      32.823  32.866  27.250  1.00  0.00     0.118 C 
BRANCH  23  24
ATOM     24  N   UNL A   1      32.510  34.238  27.626  1.00  0.00    -0.352 N 
ATOM     25  C   UNL A   1      33.027  34.998  28.650  1.00  0.00     0.251 C 
ATOM     26  H   UNL A   1      31.833  34.686  27.068  1.00  0.00     0.163 HD
ATOM     27  O   UNL A   1      32.528  36.071  28.945  1.00  0.00    -0.269 OA
BRANCH  25  28
ATOM     28  C   UNL A   1      34.178  34.471  29.412  1.00  0.00     0.039 A 
ATOM     29  C   UNL A   1      33.949  33.818  30.622  1.00  0.00     0.014 A 
ATOM     30  C   UNL A   1      35.469  34.566  28.886  1.00  0.00     0.014 A 
ATOM     31  C   UNL A   1      35.010  33.177  31.263  1.00  0.00     0.010 A 
ATOM     32  C   UNL A   1      36.498  33.837  29.467  1.00  0.00     0.010 A 
ATOM     33  C   UNL A   1      36.280  33.136  30.662  1.00  0.00    -0.014 A 
BRANCH  33  34
ATOM     34  C   UNL A   1      37.392  32.358  31.257  1.00  0.00     0.031 A 
ATOM     35  C   UNL A   1      37.904  32.711  32.626  1.00  0.00     0.074 A 
ATOM     36  C   UNL A   1      37.990  31.391  30.534  1.00  0.00     0.049 A 
ATOM     37  N   UNL A   1      38.916  32.207  33.286  1.00  0.00    -0.248 NA
ATOM     38  C   UNL A   1      37.206  33.797  33.334  1.00  0.00     0.031 C 
ATOM     39  C   UNL A   1      37.620  30.999  29.173  1.00  0.00     0.029 A 
ATOM     40  N   UNL A   1      39.045  30.567  30.840  1.00  0.00    -0.354 N 
ATOM     41  C   UNL A   1      38.982  32.922  34.474  1.00  0.00     0.074 A 
ATOM     42  C   UNL A   1      37.953  33.936  34.418  1.00  0.00     0.031 C 
ATOM     43  C   UNL A   1      38.413  29.994  28.772  1.00  0.00     0.029 A 
ATOM     44  C   UNL A   1      39.378  29.700  29.828  1.00  0.00     0.049 A 
ATOM     45  H   UNL A   1      39.518  30.595  31.703  1.00  0.00     0.167 HD
ATOM     46  C   UNL A   1      39.808  32.730  35.529  1.00  0.00     0.037 A 
ATOM     47  C   UNL A   1      40.359  28.781  29.756  1.00  0.00     0.037 A 
ATOM     48  C   UNL A   1      40.815  31.704  35.585  1.00  0.00     0.049 A 
ATOM     49  C   UNL A   1      41.275  28.600  30.936  1.00  0.00     0.074 A 
ATOM     50  C   UNL A   1      41.660  31.383  36.632  1.00  0.00     0.029 A 
ATOM     51  N   UNL A   1      41.118  30.839  34.544  1.00  0.00    -0.354 N 
ATOM     52  N   UNL A   1      41.276  29.227  32.087  1.00  0.00    -0.248 NA
ATOM     53  C   UNL A   1      42.325  27.581  30.807  1.00  0.00     0.031 C 
ATOM     54  C   UNL A   1      42.514  30.361  36.204  1.00  0.00     0.029 A 
ATOM     55  C   UNL A   1      42.160  30.003  34.913  1.00  0.00     0.049 A 
ATOM     56  H   UNL A   1      40.659  30.820  33.673  1.00  0.00     0.167 HD
ATOM     57  C   UNL A   1      42.307  28.664  32.828  1.00  0.00     0.074 A 
ATOM     58  C   UNL A   1      42.894  27.629  32.004  1.00  0.00     0.031 C 
ATOM     59  C   UNL A   1      42.732  28.978  34.077  1.00  0.00     0.037 A 
BRANCH  46  60
ATOM     60  C   UNL A   1      39.654  33.647  36.709  1.00  0.00     0.064 A 
ATOM     61  C   UNL A   1      40.326  34.878  36.781  1.00  0.00     0.173 A 
ATOM     62  C   UNL A   1      38.799  33.307  37.769  1.00  0.00     0.173 A 
ATOM     63  F   UNL A   1      41.166  35.247  35.802  1.00  0.00    -0.203 F 
ATOM     64  C   UNL A   1      40.170  35.718  37.881  1.00  0.00     0.198 A 
ATOM     65  C   UNL A   1      38.620  34.165  38.850  1.00  0.00     0.198 A 
ATOM     66  F   UNL A   1      38.129  32.145  37.751  1.00  0.00    -0.203 F 
ATOM     67  F   UNL A   1      40.864  36.862  37.951  1.00  0.00    -0.200 F 
ATOM     68  C   UNL A   1      39.311  35.365  38.911  1.00  0.00     0.200 A 
ATOM     69  F   UNL A   1      37.778  33.828  39.837  1.00  0.00    -0.200 F 
ATOM     70  F   UNL A   1      39.156  36.178  39.964  1.00  0.00    -0.200 F 
ENDBRANCH  46  60
BRANCH  47  71
ATOM     71  C   UNL A   1      40.516  27.952  28.531  1.00  0.00     0.064 A 
ATOM     72  C   UNL A   1      39.903  26.696  28.427  1.00  0.00     0.173 A 
ATOM     73  C   UNL A   1      41.287  28.390  27.444  1.00  0.00     0.173 A 
ATOM     74  F   UNL A   1      39.172  26.222  29.447  1.00  0.00    -0.203 F 
ATOM     75  C   UNL A   1      40.073  25.900  27.295  1.00  0.00     0.198 A 
ATOM     76  C   UNL A   1      41.430  27.609  26.300  1.00  0.00     0.198 A 
ATOM     77  F   UNL A   1      41.891  29.587  27.488  1.00  0.00    -0.203 F 
ATOM     78  F   UNL A   1      39.516  24.684  27.246  1.00  0.00    -0.200 F 
ATOM     79  C   UNL A   1      40.831  26.361  26.230  1.00  0.00     0.200 A 
ATOM     80  F   UNL A   1      42.149  28.065  25.265  1.00  0.00    -0.200 F 
ATOM     81  F   UNL A   1      40.991  25.598  25.140  1.00  0.00    -0.200 F 
ENDBRANCH  47  71
BRANCH  59  82
ATOM     82  C   UNL A   1      43.871  28.175  34.636  1.00  0.00     0.064 A 
ATOM     83  C   UNL A   1      45.201  28.604  34.523  1.00  0.00     0.173 A 
ATOM     84  C   UNL A   1      43.623  26.978  35.327  1.00  0.00     0.173 A 
ATOM     85  F   UNL A   1      45.491  29.734  33.860  1.00  0.00    -0.203 F 
ATOM     86  C   UNL A   1      46.244  27.851  35.055  1.00  0.00     0.198 A 
ATOM     87  C   UNL A   1      44.666  26.246  35.888  1.00  0.00     0.198 A 
ATOM     88  F   UNL A   1      42.369  26.526  35.470  1.00  0.00    -0.203 F 
ATOM     89  F   UNL A   1      47.511  28.254  34.887  1.00  0.00    -0.200 F 
ATOM     90  C   UNL A   1      45.976  26.679  35.744  1.00  0.00     0.200 A 
ATOM     91  F   UNL A   1      44.403  25.122  36.568  1.00  0.00    -0.200 F 
ATOM     92  F   UNL A   1      46.980  25.959  36.263  1.00  0.00    -0.200 F 
ENDBRANCH  59  82
ENDBRANCH  33  34
ENDBRANCH  25  28
ENDBRANCH  23  24
ENDBRANCH  22  23
ENDBRANCH   1  22
TORSDOF 15
ENDMDL
MODEL 2
REMARK VINA RESULT:     -11.9      0.815      7.560
REMARK SMILES CC(C)C[C@H](NC(=O)Cc1ccccc1)C(=O)NCCCNC(=O)c1ccc(-c2c3nc(c(-c4c(F)c(F)c(F)c(F)c4F)c4ccc([nH]4)c(-c4c(F)c(F)c(F)c(F)c4F)c4nc(c(-c5c(F)c(F)c(F)c(F)c5F)c5ccc2[nH]5)C=C4)C=C3)cc1
REMARK SMILES IDX 19 1 18 2 16 3 17 4 5 6 4 7 2 8 1 9 3 10 6 11 7 12 8 14 9 15
REMARK SMILES IDX 10 16 11 17 15 18 12 19 14 20 13 21 20 22 21 23 22 24 23 25
REMARK SMILES IDX 24 27 25 28 26 29 87 30 27 31 86 32 28 33 29 34 30 35 80 36
REMARK SMILES IDX 31 37 85 38 79 39 81 40 32 41 84 42 78 43 77 44 33 46 65 47
REMARK SMILES IDX 45 48 64 49 46 50 49 51 63 52 82 53 47 54 48 55 62 57 83 58
REMARK SMILES IDX 50 59 34 60 35 61 43 62 36 63 37 64 41 65 44 66 38 67 39 68
REMARK SMILES IDX 42 69 40 70 66 71 67 72 75 73 68 74 69 75 73 76 76 77 70 78
REMARK SMILES IDX 71 79 74 80 72 81 51 82 52 83 60 84 53 85 54 86 58 87 61 88
REMARK SMILES IDX 55 89 56 90 59 91 57 92
REMARK H PARENT 18 5 6 13 22 26 81 45 49 56
REMARK Flexibility Score: inf
ROOT
ATOM      1  C   UNL A   1      31.909  30.452  26.752  1.00  0.00     0.117 C 
ENDROOT
BRANCH   1   2
ATOM      2  N   UNL A   1      33.318  30.156  26.915  1.00  0.00    -0.354 N 
ATOM      3  C   UNL A   1      34.085  29.147  26.430  1.00  0.00     0.242 C 
ATOM      4  O   UNL A   1      35.237  29.058  26.866  1.00  0.00    -0.273 OA
ATOM      5  H   UNL A   1      33.805  30.801  27.478  1.00  0.00     0.163 HD
BRANCH   3   6
ATOM      6  C   UNL A   1      33.570  28.180  25.356  1.00  0.00     0.171 C 
BRANCH   6   7
ATOM      7  C   UNL A   1      33.922  26.717  25.683  1.00  0.00     0.038 C 
BRANCH   7   8
ATOM      8  C   UNL A   1      32.795  25.876  26.315  1.00  0.00    -0.015 C 
ATOM      9  C   UNL A   1      31.452  26.597  26.327  1.00  0.00     0.007 C 
ATOM     10  C   UNL A   1      32.691  24.545  25.561  1.00  0.00     0.007 C 
ENDBRANCH   7   8
ENDBRANCH   6   7
BRANCH   6  11
ATOM     11  N   UNL A   1      34.020  28.530  24.006  1.00  0.00    -0.344 N 
ATOM     12  C   UNL A   1      33.586  28.025  22.813  1.00  0.00     0.225 C 
ATOM     13  H   UNL A   1      34.725  29.216  23.953  1.00  0.00     0.164 HD
ATOM     14  O   UNL A   1      34.240  28.301  21.804  1.00  0.00    -0.275 OA
BRANCH  12  15
ATOM     15  C   UNL A   1      32.294  27.223  22.722  1.00  0.00     0.135 C 
BRANCH  15  16
ATOM     16  C   UNL A   1      30.996  27.999  22.705  1.00  0.00    -0.039 A 
ATOM     17  C   UNL A   1      30.909  29.316  22.239  1.00  0.00     0.004 A 
ATOM     18  C   UNL A   1      29.830  27.384  23.194  1.00  0.00     0.004 A 
ATOM     19  C   UNL A   1      29.669  29.956  22.147  1.00  0.00     0.000 A 
ATOM     20  C   UNL A   1      28.596  28.035  23.130  1.00  0.00     0.000 A 
ATOM     21  C   UNL A   1      28.512  29.312  22.581  1.00  0.00     0.000 A 
ENDBRANCH  15  16
ENDBRANCH  12  15
ENDBRANCH   6  11
ENDBRANCH   3   6
ENDBRANCH   1   2
BRANCH   1  22
ATOM     22  C   UNL A   1      31.651  31.946  26.829  1.00  0.00     0.042 C 
BRANCH  22  23
ATOM     23  C   UNL A   1      32.770  32.724  27.503  1.00  0.00     0.118 C 
BRANCH  23  24
ATOM     24  N   UNL A   1      32.452  34.134  27.684  1.00  0.00    -0.352 N 
ATOM     25  C   UNL A   1      32.986  35.037  28.574  1.00  0.00     0.251 C 
ATOM     26  H   UNL A   1      31.757  34.491  27.085  1.00  0.00     0.163 HD
ATOM     27  O   UNL A   1      32.484  36.139  28.723  1.00  0.00    -0.269 OA
BRANCH  25  28
ATOM     28  C   UNL A   1      34.162  34.634  29.373  1.00  0.00     0.039 A 
ATOM     29  C   UNL A   1      33.974  34.208  30.688  1.00  0.00     0.014 A 
ATOM     30  C   UNL A   1      35.431  34.614  28.793  1.00  0.00     0.014 A 
ATOM     31  C   UNL A   1      35.052  33.672  31.392  1.00  0.00     0.010 A 
ATOM     32  C   UNL A   1      36.475  33.982  29.454  1.00  0.00     0.010 A 
ATOM     33  C   UNL A   1      36.297  33.505  30.761  1.00  0.00    -0.014 A 
BRANCH  33  34
ATOM     34  C   UNL A   1      37.425  32.826  31.444  1.00  0.00     0.031 A 
ATOM     35  C   UNL A   1      38.099  31.653  30.789  1.00  0.00     0.074 A 
ATOM     36  C   UNL A   1      37.784  33.215  32.683  1.00  0.00     0.049 A 
ATOM     37  N   UNL A   1      39.045  30.877  31.254  1.00  0.00    -0.248 NA
ATOM     38  C   UNL A   1      37.626  31.283  29.445  1.00  0.00     0.031 C 
ATOM     39  C   UNL A   1      37.164  34.301  33.443  1.00  0.00     0.029 A 
ATOM     40  N   UNL A   1      38.754  32.732  33.526  1.00  0.00    -0.354 N 
ATOM     41  C   UNL A   1      39.267  29.924  30.269  1.00  0.00     0.074 A 
ATOM     42  C   UNL A   1      38.315  30.177  29.210  1.00  0.00     0.031 C 
ATOM     43  C   UNL A   1      37.786  34.422  34.626  1.00  0.00     0.029 A 
ATOM     44  C   UNL A   1      38.816  33.393  34.729  1.00  0.00     0.049 A 
ATOM     45  H   UNL A   1      39.348  31.983  33.291  1.00  0.00     0.167 HD
ATOM     46  C   UNL A   1      40.200  28.944  30.238  1.00  0.00     0.037 A 
ATOM     47  C   UNL A   1      39.607  33.184  35.798  1.00  0.00     0.037 A 
ATOM     48  C   UNL A   1      41.158  28.713  31.287  1.00  0.00     0.049 A 
ATOM     49  C   UNL A   1      40.625  32.076  35.744  1.00  0.00     0.074 A 
ATOM     50  C   UNL A   1      42.187  27.791  31.325  1.00  0.00     0.029 A 
ATOM     51  N   UNL A   1      41.196  29.409  32.486  1.00  0.00    -0.354 N 
ATOM     52  N   UNL A   1      40.881  31.233  34.774  1.00  0.00    -0.248 NA
ATOM     53  C   UNL A   1      41.467  31.894  36.935  1.00  0.00     0.031 C 
ATOM     54  C   UNL A   1      42.812  27.888  32.573  1.00  0.00     0.029 A 
ATOM     55  C   UNL A   1      42.213  28.913  33.286  1.00  0.00     0.049 A 
ATOM     56  H   UNL A   1      40.591  30.147  32.732  1.00  0.00     0.167 HD
ATOM     57  C   UNL A   1      41.925  30.437  35.225  1.00  0.00     0.074 A 
ATOM     58  C   UNL A   1      42.271  30.914  36.547  1.00  0.00     0.031 C 
ATOM     59  C   UNL A   1      42.541  29.402  34.602  1.00  0.00     0.037 A 
BRANCH  46  60
ATOM     60  C   UNL A   1      40.232  28.052  29.030  1.00  0.00     0.064 A 
ATOM     61  C   UNL A   1      39.518  26.843  28.986  1.00  0.00     0.173 A 
ATOM     62  C   UNL A   1      40.959  28.424  27.889  1.00  0.00     0.173 A 
ATOM     63  F   UNL A   1      38.818  26.434  30.054  1.00  0.00    -0.203 F 
ATOM     64  C   UNL A   1      39.557  26.028  27.857  1.00  0.00     0.198 A 
ATOM     65  C   UNL A   1      40.967  27.622  26.750  1.00  0.00     0.198 A 
ATOM     66  F   UNL A   1      41.656  29.569  27.875  1.00  0.00    -0.203 F 
ATOM     67  F   UNL A   1      38.911  24.854  27.860  1.00  0.00    -0.200 F 
ATOM     68  C   UNL A   1      40.274  26.422  26.738  1.00  0.00     0.200 A 
ATOM     69  F   UNL A   1      41.649  28.012  25.665  1.00  0.00    -0.200 F 
ATOM     70  F   UNL A   1      40.301  25.640  25.650  1.00  0.00    -0.200 F 
ENDBRANCH  46  60
BRANCH  47  71
ATOM     71  C   UNL A   1      39.482  34.049  37.000  1.00  0.00     0.064 A 
ATOM     72  C   UNL A   1      38.721  33.642  38.106  1.00  0.00     0.173 A 
ATOM     73  C   UNL A   1      40.110  35.301  37.071  1.00  0.00     0.173 A 
ATOM     74  F   UNL A   1      38.083  32.462  38.080  1.00  0.00    -0.203 F 
ATOM     75  C   UNL A   1      38.573  34.463  39.222  1.00  0.00     0.198 A 
ATOM     76  C   UNL A   1      39.989  36.107  38.200  1.00  0.00     0.198 A 
ATOM     77  F   UNL A   1      40.855  35.737  36.044  1.00  0.00    -0.203 F 
ATOM     78  F   UNL A   1      37.798  34.070  40.241  1.00  0.00    -0.200 F 
ATOM     79  C   UNL A   1      39.213  35.692  39.271  1.00  0.00     0.200 A 
ATOM     80  F   UNL A   1      40.623  37.287  38.251  1.00  0.00    -0.200 F 
ATOM     81  F   UNL A   1      39.075  36.479  40.347  1.00  0.00    -0.200 F 
ENDBRANCH  47  71
BRANCH  59  82
ATOM     82  C   UNL A   1      43.668  28.733  35.335  1.00  0.00     0.064 A 
ATOM     83  C   UNL A   1      43.444  27.661  36.212  1.00  0.00     0.173 A 
ATOM     84  C   UNL A   1      44.994  29.145  35.128  1.00  0.00     0.173 A 
ATOM     85  F   UNL A   1      42.194  27.239  36.455  1.00  0.00    -0.203 F 
ATOM     86  C   UNL A   1      44.502  27.047  36.877  1.00  0.00     0.198 A 
ATOM     87  C   UNL A   1      46.052  28.505  35.768  1.00  0.00     0.198 A 
ATOM     88  F   UNL A   1      45.265  30.160  34.294  1.00  0.00    -0.203 F 
ATOM     89  F   UNL A   1      44.258  26.061  37.751  1.00  0.00    -0.200 F 
ATOM     90  C   UNL A   1      45.805  27.463  36.647  1.00  0.00     0.200 A 
ATOM     91  F   UNL A   1      47.311  28.899  35.531  1.00  0.00    -0.200 F 
ATOM     92  F   UNL A   1      46.822  26.865  37.282  1.00  0.00    -0.200 F 
ENDBRANCH  59  82
ENDBRANCH  33  34
ENDBRANCH  25  28
ENDBRANCH  23  24
ENDBRANCH  22  23
ENDBRANCH   1  22
TORSDOF 15
ENDMDL
MODEL 3
REMARK VINA RESULT:     -11.9      0.671      7.447
REMARK SMILES CC(C)C[C@H](NC(=O)Cc1ccccc1)C(=O)NCCCNC(=O)c1ccc(-c2c3nc(c(-c4c(F)c(F)c(F)c(F)c4F)c4ccc([nH]4)c(-c4c(F)c(F)c(F)c(F)c4F)c4nc(c(-c5c(F)c(F)c(F)c(F)c5F)c5ccc2[nH]5)C=C4)C=C3)cc1
REMARK SMILES IDX 19 1 18 2 16 3 17 4 5 6 4 7 2 8 1 9 3 10 6 11 7 12 8 14 9 15
REMARK SMILES IDX 10 16 11 17 15 18 12 19 14 20 13 21 20 22 21 23 22 24 23 25
REMARK SMILES IDX 24 27 25 28 26 29 87 30 27 31 86 32 28 33 29 34 30 35 80 36
REMARK SMILES IDX 31 37 85 38 79 39 81 40 32 41 84 42 78 43 77 44 33 46 65 47
REMARK SMILES IDX 45 48 64 49 46 50 49 51 63 52 82 53 47 54 48 55 62 57 83 58
REMARK SMILES IDX 50 59 34 60 35 61 43 62 36 63 37 64 41 65 44 66 38 67 39 68
REMARK SMILES IDX 42 69 40 70 66 71 67 72 75 73 68 74 69 75 73 76 76 77 70 78
REMARK SMILES IDX 71 79 74 80 72 81 51 82 52 83 60 84 53 85 54 86 58 87 61 88
REMARK SMILES IDX 55 89 56 90 59 91 57 92
REMARK H PARENT 18 5 6 13 22 26 81 45 49 56
REMARK Flexibility Score: inf
ROOT
ATOM      1  C   UNL A   1      31.840  30.530  26.974  1.00  0.00     0.117 C 
ENDROOT
BRANCH   1   2
ATOM      2  N   UNL A   1      33.219  30.122  27.159  1.00  0.00    -0.354 N 
ATOM      3  C   UNL A   1      33.895  29.025  26.735  1.00  0.00     0.242 C 
ATOM      4  O   UNL A   1      35.035  28.861  27.179  1.00  0.00    -0.273 OA
ATOM      5  H   UNL A   1      33.761  30.754  27.686  1.00  0.00     0.163 HD
BRANCH   3   6
ATOM      6  C   UNL A   1      33.297  28.046  25.716  1.00  0.00     0.171 C 
BRANCH   6   7
ATOM      7  C   UNL A   1      34.003  26.678  25.750  1.00  0.00     0.038 C 
BRANCH   7   8
ATOM      8  C   UNL A   1      33.091  25.444  25.602  1.00  0.00    -0.015 C 
ATOM      9  C   UNL A   1      33.725  24.168  26.142  1.00  0.00     0.007 C 
ATOM     10  C   UNL A   1      31.758  25.730  26.304  1.00  0.00     0.007 C 
ENDBRANCH   7   8
ENDBRANCH   6   7
BRANCH   6  11
ATOM     11  N   UNL A   1      33.274  28.582  24.353  1.00  0.00    -0.344 N 
ATOM     12  C   UNL A   1      32.203  28.716  23.515  1.00  0.00     0.225 C 
ATOM     13  H   UNL A   1      34.141  28.883  23.995  1.00  0.00     0.164 HD
ATOM     14  O   UNL A   1      32.431  28.995  22.336  1.00  0.00    -0.275 OA
BRANCH  12  15
ATOM     15  C   UNL A   1      30.777  28.612  24.040  1.00  0.00     0.135 C 
BRANCH  15  16
ATOM     16  C   UNL A   1      29.760  29.585  23.486  1.00  0.00    -0.039 A 
ATOM     17  C   UNL A   1      29.605  30.883  23.989  1.00  0.00     0.004 A 
ATOM     18  C   UNL A   1      28.923  29.169  22.436  1.00  0.00     0.004 A 
ATOM     19  C   UNL A   1      28.724  31.780  23.377  1.00  0.00     0.000 A 
ATOM     20  C   UNL A   1      28.022  30.057  21.844  1.00  0.00     0.000 A 
ATOM     21  C   UNL A   1      27.942  31.372  22.299  1.00  0.00     0.000 A 
ENDBRANCH  15  16
ENDBRANCH  12  15
ENDBRANCH   6  11
ENDBRANCH   3   6
ENDBRANCH   1   2
BRANCH   1  22
ATOM     22  C   UNL A   1      31.735  32.031  26.780  1.00  0.00     0.042 C 
BRANCH  22  23
ATOM     23  C   UNL A   1      32.844  32.815  27.463  1.00  0.00     0.118 C 
BRANCH  23  24
ATOM     24  N   UNL A   1      32.494  34.209  27.696  1.00  0.00    -0.352 N 
ATOM     25  C   UNL A   1      32.994  35.086  28.632  1.00  0.00     0.251 C 
ATOM     26  H   UNL A   1      31.802  34.577  27.100  1.00  0.00     0.163 HD
ATOM     27  O   UNL A   1      32.467  36.170  28.817  1.00  0.00    -0.269 OA
BRANCH  25  28
ATOM     28  C   UNL A   1      34.164  34.673  29.435  1.00  0.00     0.039 A 
ATOM     29  C   UNL A   1      33.963  34.209  30.735  1.00  0.00     0.014 A 
ATOM     30  C   UNL A   1      35.441  34.682  28.871  1.00  0.00     0.014 A 
ATOM     31  C   UNL A   1      35.039  33.666  31.439  1.00  0.00     0.010 A 
ATOM     32  C   UNL A   1      36.483  34.044  29.529  1.00  0.00     0.010 A 
ATOM     33  C   UNL A   1      36.293  33.530  30.820  1.00  0.00    -0.014 A 
BRANCH  33  34
ATOM     34  C   UNL A   1      37.419  32.844  31.498  1.00  0.00     0.031 A 
ATOM     35  C   UNL A   1      38.083  31.666  30.842  1.00  0.00     0.074 A 
ATOM     36  C   UNL A   1      37.788  33.233  32.735  1.00  0.00     0.049 A 
ATOM     37  N   UNL A   1      39.026  30.884  31.304  1.00  0.00    -0.248 NA
ATOM     38  C   UNL A   1      37.601  31.296  29.501  1.00  0.00     0.031 C 
ATOM     39  C   UNL A   1      37.178  34.324  33.496  1.00  0.00     0.029 A 
ATOM     40  N   UNL A   1      38.758  32.745  33.574  1.00  0.00    -0.354 N 
ATOM     41  C   UNL A   1      39.236  29.928  30.320  1.00  0.00     0.074 A 
ATOM     42  C   UNL A   1      38.281  30.185  29.265  1.00  0.00     0.031 C 
ATOM     43  C   UNL A   1      37.806  34.443  34.676  1.00  0.00     0.029 A 
ATOM     44  C   UNL A   1      38.830  33.408  34.776  1.00  0.00     0.049 A 
ATOM     45  H   UNL A   1      39.346  31.992  33.338  1.00  0.00     0.167 HD
ATOM     46  C   UNL A   1      40.163  28.942  30.287  1.00  0.00     0.037 A 
ATOM     47  C   UNL A   1      39.625  33.195  35.841  1.00  0.00     0.037 A 
ATOM     48  C   UNL A   1      41.124  28.706  31.331  1.00  0.00     0.049 A 
ATOM     49  C   UNL A   1      40.635  32.081  35.785  1.00  0.00     0.074 A 
ATOM     50  C   UNL A   1      42.147  27.777  31.367  1.00  0.00     0.029 A 
ATOM     51  N   UNL A   1      41.173  29.403  32.530  1.00  0.00    -0.354 N 
ATOM     52  N   UNL A   1      40.880  31.234  34.815  1.00  0.00    -0.248 NA
ATOM     53  C   UNL A   1      41.481  31.895  36.972  1.00  0.00     0.031 C 
ATOM     54  C   UNL A   1      42.779  27.871  32.611  1.00  0.00     0.029 A 
ATOM     55  C   UNL A   1      42.190  28.902  33.326  1.00  0.00     0.049 A 
ATOM     56  H   UNL A   1      40.574  30.146  32.777  1.00  0.00     0.167 HD
ATOM     57  C   UNL A   1      41.922  30.432  35.263  1.00  0.00     0.074 A 
ATOM     58  C   UNL A   1      42.277  30.909  36.583  1.00  0.00     0.031 C 
ATOM     59  C   UNL A   1      42.528  29.391  34.639  1.00  0.00     0.037 A 
BRANCH  46  60
ATOM     60  C   UNL A   1      40.183  28.047  29.081  1.00  0.00     0.064 A 
ATOM     61  C   UNL A   1      40.904  28.382  27.923  1.00  0.00     0.173 A 
ATOM     62  C   UNL A   1      39.497  26.822  29.091  1.00  0.00     0.173 A 
ATOM     63  F   UNL A   1      41.565  29.547  27.854  1.00  0.00    -0.203 F 
ATOM     64  C   UNL A   1      40.914  27.540  26.814  1.00  0.00     0.198 A 
ATOM     65  C   UNL A   1      39.538  25.967  27.993  1.00  0.00     0.198 A 
ATOM     66  F   UNL A   1      38.795  26.449  30.171  1.00  0.00    -0.203 F 
ATOM     67  F   UNL A   1      41.566  27.908  25.703  1.00  0.00    -0.200 F 
ATOM     68  C   UNL A   1      40.238  26.330  26.853  1.00  0.00     0.200 A 
ATOM     69  F   UNL A   1      38.897  24.791  28.038  1.00  0.00    -0.200 F 
ATOM     70  F   UNL A   1      40.257  25.517  25.788  1.00  0.00    -0.200 F 
ENDBRANCH  46  60
BRANCH  47  71
ATOM     71  C   UNL A   1      39.511  34.064  37.043  1.00  0.00     0.064 A 
ATOM     72  C   UNL A   1      40.173  35.298  37.107  1.00  0.00     0.173 A 
ATOM     73  C   UNL A   1      38.747  33.679  38.154  1.00  0.00     0.173 A 
ATOM     74  F   UNL A   1      40.932  35.703  36.078  1.00  0.00    -0.203 F 
ATOM     75  C   UNL A   1      40.095  36.101  38.243  1.00  0.00     0.198 A 
ATOM     76  C   UNL A   1      38.643  34.497  39.277  1.00  0.00     0.198 A 
ATOM     77  F   UNL A   1      38.088  32.510  38.144  1.00  0.00    -0.203 F 
ATOM     78  F   UNL A   1      40.779  37.251  38.295  1.00  0.00    -0.200 F 
ATOM     79  C   UNL A   1      39.325  35.703  39.324  1.00  0.00     0.200 A 
ATOM     80  F   UNL A   1      37.883  34.116  40.313  1.00  0.00    -0.200 F 
ATOM     81  F   UNL A   1      39.246  36.477  40.415  1.00  0.00    -0.200 F 
ENDBRANCH  47  71
BRANCH  59  82
ATOM     82  C   UNL A   1      43.653  28.716  35.368  1.00  0.00     0.064 A 
ATOM     83  C   UNL A   1      44.989  29.099  35.179  1.00  0.00     0.173 A 
ATOM     84  C   UNL A   1      43.388  27.696  36.296  1.00  0.00     0.173 A 
ATOM     85  F   UNL A   1      45.297  30.059  34.293  1.00  0.00    -0.203 F 
ATOM     86  C   UNL A   1      46.020  28.468  35.869  1.00  0.00     0.198 A 
ATOM     87  C   UNL A   1      44.419  27.092  37.010  1.00  0.00     0.198 A 
ATOM     88  F   UNL A   1      42.128  27.296  36.520  1.00  0.00    -0.203 F 
ATOM     89  F   UNL A   1      47.293  28.814  35.632  1.00  0.00    -0.200 F 
ATOM     90  C   UNL A   1      45.733  27.472  36.791  1.00  0.00     0.200 A 
ATOM     91  F   UNL A   1      44.137  26.140  37.911  1.00  0.00    -0.200 F 
ATOM     92  F   UNL A   1      46.726  26.871  37.461  1.00  0.00    -0.200 F 
ENDBRANCH  59  82
ENDBRANCH  33  34
ENDBRANCH  25  28
ENDBRANCH  23  24
ENDBRANCH  22  23
ENDBRANCH   1  22
TORSDOF 15
ENDMDL
