MODEL 1
REMARK VINA RESULT:     -12.2      0.000      0.000
REMARK SMILES CCN(C(=O)N[C@@H]1CCOC1)[C@H]1COC[C@H]1C(=O)NCCCNC(=O)c1ccc(-c2c3nc(c(-c4c(F)c(F)c(F)c(F)c4F)c4ccc([nH]4)c(-c4c(F)c(F)c(F)c(F)c4F)c4nc(c(-c5c(F)c(F)c(F)c(F)c5F)c5ccc2[nH]5)C=C4)C=C3)cc1
REMARK SMILES IDX 20 1 19 2 17 3 18 4 16 6 12 7 13 8 14 9 15 10 3 11 2 12 1 13
REMARK SMILES IDX 4 14 5 15 6 16 7 18 8 19 11 20 9 21 10 22 21 23 22 24 23 25
REMARK SMILES IDX 24 26 25 28 26 29 27 30 88 31 28 32 87 33 29 34 30 35 31 36
REMARK SMILES IDX 81 37 32 38 86 39 80 40 82 41 33 42 85 43 79 44 78 45 34 47
REMARK SMILES IDX 66 48 46 49 65 50 47 51 50 52 64 53 83 54 48 55 49 56 63 58
REMARK SMILES IDX 84 59 51 60 35 61 36 62 44 63 37 64 38 65 42 66 45 67 39 68
REMARK SMILES IDX 40 69 43 70 41 71 67 72 68 73 76 74 69 75 70 76 74 77 77 78
REMARK SMILES IDX 71 79 72 80 75 81 73 82 52 83 53 84 61 85 54 86 55 87 59 88
REMARK SMILES IDX 62 89 56 90 57 91 60 92 58 93
REMARK H PARENT 19 5 6 17 23 27 82 46 50 57
REMARK Flexibility Score: inf
ROOT
ATOM      1  C   UNL A   1      31.271  30.973  26.041  1.00  0.00     0.117 C 
ENDROOT
BRANCH   1   2
ATOM      2  N   UNL A   1      32.433  30.269  26.540  1.00  0.00    -0.356 N 
ATOM      3  C   UNL A   1      32.673  28.961  26.787  1.00  0.00     0.227 C 
ATOM      4  O   UNL A   1      33.737  28.718  27.372  1.00  0.00    -0.275 OA
ATOM      5  H   UNL A   1      33.198  30.858  26.741  1.00  0.00     0.163 HD
BRANCH   3   6
ATOM      6  C   UNL A   1      31.809  27.805  26.325  1.00  0.00     0.129 C 
ATOM      7  C   UNL A   1      30.999  27.775  25.028  1.00  0.00     0.127 C 
ATOM      8  C   UNL A   1      30.417  26.356  25.173  1.00  0.00     0.186 C 
ATOM      9  O   UNL A   1      31.441  25.536  25.762  1.00  0.00    -0.378 OA
ATOM     10  C   UNL A   1      32.345  26.399  26.477  1.00  0.00     0.176 C 
BRANCH   7  11
ATOM     11  N   UNL A   1      31.658  28.105  23.729  1.00  0.00    -0.319 N 
BRANCH  11  12
ATOM     12  C   UNL A   1      33.037  27.654  23.466  1.00  0.00     0.118 C 
ATOM     13  C   UNL A   1      33.966  28.752  22.975  1.00  0.00     0.027 C 
ENDBRANCH  11  12
BRANCH  11  14
ATOM     14  C   UNL A   1      30.789  28.455  22.706  1.00  0.00     0.318 C 
ATOM     15  O   UNL A   1      30.574  27.732  21.734  1.00  0.00    -0.249 OA
ATOM     16  N   UNL A   1      30.318  29.730  22.649  1.00  0.00    -0.333 N 
ATOM     17  H   UNL A   1      30.895  30.386  22.194  1.00  0.00     0.165 HD
BRANCH  16  18
ATOM     18  C   UNL A   1      29.042  30.244  23.191  1.00  0.00     0.112 C 
ATOM     19  C   UNL A   1      27.929  29.880  22.224  1.00  0.00     0.056 C 
ATOM     20  C   UNL A   1      28.847  31.760  23.206  1.00  0.00     0.185 C 
ATOM     21  C   UNL A   1      28.077  30.960  21.170  1.00  0.00     0.162 C 
ATOM     22  O   UNL A   1      28.472  32.150  21.870  1.00  0.00    -0.379 OA
ENDBRANCH  16  18
ENDBRANCH  11  14
ENDBRANCH   7  11
ENDBRANCH   3   6
ENDBRANCH   1   2
BRANCH   1  23
ATOM     23  C   UNL A   1      31.272  32.427  26.494  1.00  0.00     0.042 C 
BRANCH  23  24
ATOM     24  C   UNL A   1      32.540  32.877  27.207  1.00  0.00     0.118 C 
BRANCH  24  25
ATOM     25  N   UNL A   1      32.443  34.261  27.637  1.00  0.00    -0.352 N 
ATOM     26  C   UNL A   1      33.029  34.957  28.661  1.00  0.00     0.251 C 
ATOM     27  H   UNL A   1      31.837  34.806  27.085  1.00  0.00     0.163 HD
ATOM     28  O   UNL A   1      32.550  36.064  28.940  1.00  0.00    -0.269 OA
BRANCH  26  29
ATOM     29  C   UNL A   1      34.191  34.471  29.457  1.00  0.00     0.039 A 
ATOM     30  C   UNL A   1      35.462  34.548  28.865  1.00  0.00     0.014 A 
ATOM     31  C   UNL A   1      34.077  33.821  30.687  1.00  0.00     0.014 A 
ATOM     32  C   UNL A   1      36.588  33.989  29.487  1.00  0.00     0.010 A 
ATOM     33  C   UNL A   1      35.214  33.337  31.350  1.00  0.00     0.010 A 
ATOM     34  C   UNL A   1      36.481  33.384  30.746  1.00  0.00    -0.014 A 
BRANCH  34  35
ATOM     35  C   UNL A   1      37.654  32.744  31.412  1.00  0.00     0.031 A 
ATOM     36  C   UNL A   1      38.354  31.574  30.765  1.00  0.00     0.074 A 
ATOM     37  C   UNL A   1      38.074  33.171  32.620  1.00  0.00     0.049 A 
ATOM     38  N   UNL A   1      39.307  30.809  31.238  1.00  0.00    -0.248 NA
ATOM     39  C   UNL A   1      37.914  31.209  29.409  1.00  0.00     0.031 C 
ATOM     40  C   UNL A   1      37.515  34.296  33.365  1.00  0.00     0.029 A 
ATOM     41  N   UNL A   1      39.066  32.690  33.444  1.00  0.00    -0.354 N 
ATOM     42  C   UNL A   1      39.559  29.860  30.253  1.00  0.00     0.074 A 
ATOM     43  C   UNL A   1      38.635  30.122  29.170  1.00  0.00     0.031 C 
ATOM     44  C   UNL A   1      38.156  34.414  34.538  1.00  0.00     0.029 A 
ATOM     45  C   UNL A   1      39.158  33.357  34.641  1.00  0.00     0.049 A 
ATOM     46  H   UNL A   1      39.654  31.939  33.198  1.00  0.00     0.167 HD
ATOM     47  C   UNL A   1      40.487  28.873  30.240  1.00  0.00     0.037 A 
ATOM     48  C   UNL A   1      39.949  33.138  35.711  1.00  0.00     0.037 A 
ATOM     49  C   UNL A   1      41.451  28.638  31.284  1.00  0.00     0.049 A 
ATOM     50  C   UNL A   1      40.954  32.020  35.683  1.00  0.00     0.074 A 
ATOM     51  C   UNL A   1      42.480  27.711  31.316  1.00  0.00     0.029 A 
ATOM     52  N   UNL A   1      41.509  29.338  32.478  1.00  0.00    -0.354 N 
ATOM     53  N   UNL A   1      41.207  31.160  34.727  1.00  0.00    -0.248 NA
ATOM     54  C   UNL A   1      41.789  31.848  36.881  1.00  0.00     0.031 C 
ATOM     55  C   UNL A   1      43.136  27.825  32.546  1.00  0.00     0.029 A 
ATOM     56  C   UNL A   1      42.541  28.848  33.263  1.00  0.00     0.049 A 
ATOM     57  H   UNL A   1      40.906  30.075  32.731  1.00  0.00     0.167 HD
ATOM     58  C   UNL A   1      42.252  30.371  35.192  1.00  0.00     0.074 A 
ATOM     59  C   UNL A   1      42.587  30.855  36.515  1.00  0.00     0.031 C 
ATOM     60  C   UNL A   1      42.879  29.343  34.573  1.00  0.00     0.037 A 
BRANCH  47  61
ATOM     61  C   UNL A   1      40.518  27.957  29.050  1.00  0.00     0.064 A 
ATOM     62  C   UNL A   1      39.720  26.805  28.986  1.00  0.00     0.173 A 
ATOM     63  C   UNL A   1      41.314  28.269  27.937  1.00  0.00     0.173 A 
ATOM     64  F   UNL A   1      38.948  26.460  30.028  1.00  0.00    -0.203 F 
ATOM     65  C   UNL A   1      39.735  25.987  27.860  1.00  0.00     0.198 A 
ATOM     66  C   UNL A   1      41.305  27.462  26.802  1.00  0.00     0.198 A 
ATOM     67  F   UNL A   1      42.087  29.364  27.944  1.00  0.00    -0.203 F 
ATOM     68  F   UNL A   1      38.993  24.871  27.835  1.00  0.00    -0.200 F 
ATOM     69  C   UNL A   1      40.520  26.319  26.766  1.00  0.00     0.200 A 
ATOM     70  F   UNL A   1      42.056  27.792  25.742  1.00  0.00    -0.200 F 
ATOM     71  F   UNL A   1      40.526  25.535  25.679  1.00  0.00    -0.200 F 
ENDBRANCH  47  61
BRANCH  48  72
ATOM     72  C   UNL A   1      39.832  34.014  36.904  1.00  0.00     0.064 A 
ATOM     73  C   UNL A   1      38.986  33.668  37.968  1.00  0.00     0.173 A 
ATOM     74  C   UNL A   1      40.554  35.211  37.003  1.00  0.00     0.173 A 
ATOM     75  F   UNL A   1      38.260  32.543  37.906  1.00  0.00    -0.203 F 
ATOM     76  C   UNL A   1      38.854  34.499  39.079  1.00  0.00     0.198 A 
ATOM     77  C   UNL A   1      40.438  36.029  38.126  1.00  0.00     0.198 A 
ATOM     78  F   UNL A   1      41.379  35.582  36.013  1.00  0.00    -0.203 F 
ATOM     79  F   UNL A   1      38.008  34.166  40.063  1.00  0.00    -0.200 F 
ATOM     80  C   UNL A   1      39.583  35.676  39.159  1.00  0.00     0.200 A 
ATOM     81  F   UNL A   1      41.153  37.159  38.204  1.00  0.00    -0.200 F 
ATOM     82  F   UNL A   1      39.457  36.473  40.229  1.00  0.00    -0.200 F 
ENDBRANCH  48  72
BRANCH  60  83
ATOM     83  C   UNL A   1      44.021  28.692  35.296  1.00  0.00     0.064 A 
ATOM     84  C   UNL A   1      43.821  27.610  36.164  1.00  0.00     0.173 A 
ATOM     85  C   UNL A   1      45.336  29.132  35.083  1.00  0.00     0.173 A 
ATOM     86  F   UNL A   1      42.579  27.164  36.411  1.00  0.00    -0.203 F 
ATOM     87  C   UNL A   1      44.895  27.003  36.808  1.00  0.00     0.198 A 
ATOM     88  C   UNL A   1      46.411  28.507  35.711  1.00  0.00     0.198 A 
ATOM     89  F   UNL A   1      45.581  30.161  34.258  1.00  0.00    -0.203 F 
ATOM     90  F   UNL A   1      44.677  25.995  37.665  1.00  0.00    -0.200 F 
ATOM     91  C   UNL A   1      46.188  27.447  36.576  1.00  0.00     0.200 A 
ATOM     92  F   UNL A   1      47.661  28.931  35.478  1.00  0.00    -0.200 F 
ATOM     93  F   UNL A   1      47.222  26.857  37.194  1.00  0.00    -0.200 F 
ENDBRANCH  60  83
ENDBRANCH  34  35
ENDBRANCH  26  29
ENDBRANCH  24  25
ENDBRANCH  23  24
ENDBRANCH   1  23
TORSDOF 14
ENDMDL
MODEL 2
REMARK VINA RESULT:     -12.0      6.335     11.361
REMARK SMILES CCN(C(=O)N[C@@H]1CCOC1)[C@H]1COC[C@H]1C(=O)NCCCNC(=O)c1ccc(-c2c3nc(c(-c4c(F)c(F)c(F)c(F)c4F)c4ccc([nH]4)c(-c4c(F)c(F)c(F)c(F)c4F)c4nc(c(-c5c(F)c(F)c(F)c(F)c5F)c5ccc2[nH]5)C=C4)C=C3)cc1
REMARK SMILES IDX 20 1 19 2 17 3 18 4 16 6 12 7 13 8 14 9 15 10 3 11 2 12 1 13
REMARK SMILES IDX 4 14 5 15 6 16 7 18 8 19 11 20 9 21 10 22 21 23 22 24 23 25
REMARK SMILES IDX 24 26 25 28 26 29 27 30 88 31 28 32 87 33 29 34 30 35 31 36
REMARK SMILES IDX 81 37 32 38 86 39 80 40 82 41 33 42 85 43 79 44 78 45 34 47
REMARK SMILES IDX 66 48 46 49 65 50 47 51 50 52 64 53 83 54 48 55 49 56 63 58
REMARK SMILES IDX 84 59 51 60 35 61 36 62 44 63 37 64 38 65 42 66 45 67 39 68
REMARK SMILES IDX 40 69 43 70 41 71 67 72 68 73 76 74 69 75 70 76 74 77 77 78
REMARK SMILES IDX 71 79 72 80 75 81 73 82 52 83 53 84 61 85 54 86 55 87 59 88
REMARK SMILES IDX 62 89 56 90 57 91 60 92 58 93
REMARK H PARENT 19 5 6 17 23 27 82 46 50 57
REMARK Flexibility Score: inf
ROOT
ATOM      1  C   UNL A   1      36.732  20.226  24.999  1.00  0.00     0.117 C 
ENDROOT
BRANCH   1   2
ATOM      2  N   UNL A   1      36.688  21.487  25.708  1.00  0.00    -0.356 N 
ATOM      3  C   UNL A   1      36.178  22.699  25.387  1.00  0.00     0.227 C 
ATOM      4  O   UNL A   1      36.460  23.617  26.169  1.00  0.00    -0.275 OA
ATOM      5  H   UNL A   1      37.114  21.459  26.597  1.00  0.00     0.163 HD
BRANCH   3   6
ATOM      6  C   UNL A   1      35.237  22.980  24.234  1.00  0.00     0.129 C 
ATOM      7  C   UNL A   1      34.026  22.126  23.857  1.00  0.00     0.127 C 
ATOM      8  C   UNL A   1      33.530  22.972  22.669  1.00  0.00     0.186 C 
ATOM      9  O   UNL A   1      33.746  24.352  23.010  1.00  0.00    -0.378 OA
ATOM     10  C   UNL A   1      34.792  24.406  23.999  1.00  0.00     0.176 C 
BRANCH   7  11
ATOM     11  N   UNL A   1      33.016  21.765  24.897  1.00  0.00    -0.319 N 
BRANCH  11  12
ATOM     12  C   UNL A   1      31.717  22.460  24.936  1.00  0.00     0.118 C 
ATOM     13  C   UNL A   1      31.640  23.575  25.967  1.00  0.00     0.027 C 
ENDBRANCH  11  12
BRANCH  11  14
ATOM     14  C   UNL A   1      33.208  20.525  25.490  1.00  0.00     0.318 C 
ATOM     15  O   UNL A   1      33.399  20.383  26.697  1.00  0.00    -0.249 OA
ATOM     16  N   UNL A   1      33.414  19.441  24.695  1.00  0.00    -0.333 N 
ATOM     17  H   UNL A   1      34.342  19.287  24.401  1.00  0.00     0.165 HD
BRANCH  16  18
ATOM     18  C   UNL A   1      32.407  18.466  24.222  1.00  0.00     0.112 C 
ATOM     19  C   UNL A   1      32.777  17.095  24.759  1.00  0.00     0.056 C 
ATOM     20  C   UNL A   1      32.400  18.134  22.731  1.00  0.00     0.185 C 
ATOM     21  C   UNL A   1      33.854  16.666  23.783  1.00  0.00     0.162 C 
ATOM     22  O   UNL A   1      33.464  17.189  22.504  1.00  0.00    -0.379 OA
ENDBRANCH  16  18
ENDBRANCH  11  14
ENDBRANCH   7  11
ENDBRANCH   3   6
ENDBRANCH   1   2
BRANCH   1  23
ATOM     23  C   UNL A   1      38.166  19.745  24.822  1.00  0.00     0.042 C 
BRANCH  23  24
ATOM     24  C   UNL A   1      39.099  20.065  25.982  1.00  0.00     0.118 C 
BRANCH  24  25
ATOM     25  N   UNL A   1      40.239  19.164  26.010  1.00  0.00    -0.352 N 
ATOM     26  C   UNL A   1      41.589  19.379  26.088  1.00  0.00     0.251 C 
ATOM     27  H   UNL A   1      39.992  18.212  25.963  1.00  0.00     0.163 HD
ATOM     28  O   UNL A   1      42.331  18.422  25.824  1.00  0.00    -0.269 OA
BRANCH  26  29
ATOM     29  C   UNL A   1      42.219  20.677  26.460  1.00  0.00     0.039 A 
ATOM     30  C   UNL A   1      42.215  21.035  27.818  1.00  0.00     0.014 A 
ATOM     31  C   UNL A   1      42.681  21.613  25.534  1.00  0.00     0.014 A 
ATOM     32  C   UNL A   1      42.662  22.297  28.237  1.00  0.00     0.010 A 
ATOM     33  C   UNL A   1      43.207  22.842  25.959  1.00  0.00     0.010 A 
ATOM     34  C   UNL A   1      43.175  23.215  27.312  1.00  0.00    -0.014 A 
BRANCH  34  35
ATOM     35  C   UNL A   1      43.618  24.580  27.724  1.00  0.00     0.031 A 
ATOM     36  C   UNL A   1      42.601  25.638  28.078  1.00  0.00     0.074 A 
ATOM     37  C   UNL A   1      44.928  24.900  27.742  1.00  0.00     0.049 A 
ATOM     38  N   UNL A   1      42.780  26.910  28.339  1.00  0.00    -0.248 NA
ATOM     39  C   UNL A   1      41.195  25.210  28.130  1.00  0.00     0.031 C 
ATOM     40  C   UNL A   1      46.029  23.987  27.445  1.00  0.00     0.029 A 
ATOM     41  N   UNL A   1      45.553  26.096  28.008  1.00  0.00    -0.354 N 
ATOM     42  C   UNL A   1      41.512  27.436  28.559  1.00  0.00     0.074 A 
ATOM     43  C   UNL A   1      40.569  26.355  28.365  1.00  0.00     0.031 C 
ATOM     44  C   UNL A   1      47.191  24.653  27.529  1.00  0.00     0.029 A 
ATOM     45  C   UNL A   1      46.918  26.048  27.863  1.00  0.00     0.049 A 
ATOM     46  H   UNL A   1      45.068  26.910  28.276  1.00  0.00     0.167 HD
ATOM     47  C   UNL A   1      41.163  28.697  28.910  1.00  0.00     0.037 A 
ATOM     48  C   UNL A   1      47.849  27.017  27.972  1.00  0.00     0.037 A 
ATOM     49  C   UNL A   1      42.093  29.766  29.164  1.00  0.00     0.049 A 
ATOM     50  C   UNL A   1      47.434  28.416  28.338  1.00  0.00     0.074 A 
ATOM     51  C   UNL A   1      41.831  31.053  29.603  1.00  0.00     0.029 A 
ATOM     52  N   UNL A   1      43.467  29.672  29.006  1.00  0.00    -0.354 N 
ATOM     53  N   UNL A   1      46.237  28.885  28.583  1.00  0.00    -0.248 NA
ATOM     54  C   UNL A   1      48.506  29.418  28.449  1.00  0.00     0.031 C 
ATOM     55  C   UNL A   1      43.042  31.750  29.673  1.00  0.00     0.029 A 
ATOM     56  C   UNL A   1      44.062  30.885  29.316  1.00  0.00     0.049 A 
ATOM     57  H   UNL A   1      43.949  28.863  28.716  1.00  0.00     0.167 HD
ATOM     58  C   UNL A   1      46.412  30.223  28.913  1.00  0.00     0.074 A 
ATOM     59  C   UNL A   1      47.833  30.491  28.838  1.00  0.00     0.031 C 
ATOM     60  C   UNL A   1      45.477  31.142  29.254  1.00  0.00     0.037 A 
BRANCH  47  61
ATOM     61  C   UNL A   1      39.699  29.005  29.049  1.00  0.00     0.064 A 
ATOM     62  C   UNL A   1      38.923  29.403  27.951  1.00  0.00     0.173 A 
ATOM     63  C   UNL A   1      39.056  28.845  30.286  1.00  0.00     0.173 A 
ATOM     64  F   UNL A   1      39.493  29.578  26.749  1.00  0.00    -0.203 F 
ATOM     65  C   UNL A   1      37.560  29.650  28.091  1.00  0.00     0.198 A 
ATOM     66  C   UNL A   1      37.688  29.067  30.415  1.00  0.00     0.198 A 
ATOM     67  F   UNL A   1      39.752  28.458  31.365  1.00  0.00    -0.203 F 
ATOM     68  F   UNL A   1      36.845  30.065  27.037  1.00  0.00    -0.200 F 
ATOM     69  C   UNL A   1      36.942  29.475  29.320  1.00  0.00     0.200 A 
ATOM     70  F   UNL A   1      37.090  28.886  31.602  1.00  0.00    -0.200 F 
ATOM     71  F   UNL A   1      35.627  29.704  29.451  1.00  0.00    -0.200 F 
ENDBRANCH  47  61
BRANCH  48  72
ATOM     72  C   UNL A   1      49.280  26.693  27.745  1.00  0.00     0.064 A 
ATOM     73  C   UNL A   1      49.809  26.645  26.448  1.00  0.00     0.173 A 
ATOM     74  C   UNL A   1      50.144  26.417  28.815  1.00  0.00     0.173 A 
ATOM     75  F   UNL A   1      49.014  26.880  25.394  1.00  0.00    -0.203 F 
ATOM     76  C   UNL A   1      51.145  26.316  26.228  1.00  0.00     0.198 A 
ATOM     77  C   UNL A   1      51.486  26.112  28.595  1.00  0.00     0.198 A 
ATOM     78  F   UNL A   1      49.686  26.454  30.074  1.00  0.00    -0.203 F 
ATOM     79  F   UNL A   1      51.615  26.238  24.976  1.00  0.00    -0.200 F 
ATOM     80  C   UNL A   1      51.982  26.054  27.301  1.00  0.00     0.200 A 
ATOM     81  F   UNL A   1      52.294  25.870  29.635  1.00  0.00    -0.200 F 
ATOM     82  F   UNL A   1      53.268  25.741  27.089  1.00  0.00    -0.200 F 
ENDBRANCH  48  72
BRANCH  60  83
ATOM     83  C   UNL A   1      45.958  32.517  29.613  1.00  0.00     0.064 A 
ATOM     84  C   UNL A   1      46.063  33.534  28.653  1.00  0.00     0.173 A 
ATOM     85  C   UNL A   1      46.277  32.830  30.943  1.00  0.00     0.173 A 
ATOM     86  F   UNL A   1      45.784  33.277  27.366  1.00  0.00    -0.203 F 
ATOM     87  C   UNL A   1      46.489  34.810  29.009  1.00  0.00     0.198 A 
ATOM     88  C   UNL A   1      46.679  34.116  31.299  1.00  0.00     0.198 A 
ATOM     89  F   UNL A   1      46.189  31.894  31.899  1.00  0.00    -0.203 F 
ATOM     90  F   UNL A   1      46.619  35.757  28.069  1.00  0.00    -0.200 F 
ATOM     91  C   UNL A   1      46.789  35.102  30.331  1.00  0.00     0.200 A 
ATOM     92  F   UNL A   1      46.960  34.398  32.579  1.00  0.00    -0.200 F 
ATOM     93  F   UNL A   1      47.193  36.334  30.672  1.00  0.00    -0.200 F 
ENDBRANCH  60  83
ENDBRANCH  34  35
ENDBRANCH  26  29
ENDBRANCH  24  25
ENDBRANCH  23  24
ENDBRANCH   1  23
TORSDOF 14
ENDMDL
MODEL 3
REMARK VINA RESULT:     -11.9      6.336     11.254
REMARK SMILES CCN(C(=O)N[C@@H]1CCOC1)[C@H]1COC[C@H]1C(=O)NCCCNC(=O)c1ccc(-c2c3nc(c(-c4c(F)c(F)c(F)c(F)c4F)c4ccc([nH]4)c(-c4c(F)c(F)c(F)c(F)c4F)c4nc(c(-c5c(F)c(F)c(F)c(F)c5F)c5ccc2[nH]5)C=C4)C=C3)cc1
REMARK SMILES IDX 20 1 19 2 17 3 18 4 16 6 12 7 13 8 14 9 15 10 3 11 2 12 1 13
REMARK SMILES IDX 4 14 5 15 6 16 7 18 8 19 11 20 9 21 10 22 21 23 22 24 23 25
REMARK SMILES IDX 24 26 25 28 26 29 27 30 88 31 28 32 87 33 29 34 30 35 31 36
REMARK SMILES IDX 81 37 32 38 86 39 80 40 82 41 33 42 85 43 79 44 78 45 34 47
REMARK SMILES IDX 66 48 46 49 65 50 47 51 50 52 64 53 83 54 48 55 49 56 63 58
REMARK SMILES IDX 84 59 51 60 35 61 36 62 44 63 37 64 38 65 42 66 45 67 39 68
REMARK SMILES IDX 40 69 43 70 41 71 67 72 68 73 76 74 69 75 70 76 74 77 77 78
REMARK SMILES IDX 71 79 72 80 75 81 73 82 52 83 53 84 61 85 54 86 55 87 59 88
REMARK SMILES IDX 62 89 56 90 57 91 60 92 58 93
REMARK H PARENT 19 5 6 17 23 27 82 46 50 57
REMARK Flexibility Score: inf
ROOT
ATOM      1  C   UNL A   1      37.033  20.473  24.502  1.00  0.00     0.117 C 
ENDROOT
BRANCH   1   2
ATOM      2  N   UNL A   1      36.849  21.532  25.471  1.00  0.00    -0.356 N 
ATOM      3  C   UNL A   1      36.250  22.743  25.399  1.00  0.00     0.227 C 
ATOM      4  O   UNL A   1      36.417  23.476  26.383  1.00  0.00    -0.275 OA
ATOM      5  H   UNL A   1      37.237  21.333  26.355  1.00  0.00     0.163 HD
BRANCH   3   6
ATOM      6  C   UNL A   1      35.339  23.209  24.282  1.00  0.00     0.129 C 
ATOM      7  C   UNL A   1      34.114  22.451  23.771  1.00  0.00     0.127 C 
ATOM      8  C   UNL A   1      33.663  23.468  22.705  1.00  0.00     0.186 C 
ATOM      9  O   UNL A   1      33.908  24.780  23.240  1.00  0.00    -0.378 OA
ATOM     10  C   UNL A   1      34.936  24.666  24.243  1.00  0.00     0.176 C 
BRANCH   7  11
ATOM     11  N   UNL A   1      33.075  21.977  24.734  1.00  0.00    -0.319 N 
BRANCH  11  12
ATOM     12  C   UNL A   1      31.727  22.574  24.719  1.00  0.00     0.118 C 
ATOM     13  C   UNL A   1      30.922  22.320  25.984  1.00  0.00     0.027 C 
ENDBRANCH  11  12
BRANCH  11  14
ATOM     14  C   UNL A   1      33.324  20.732  25.294  1.00  0.00     0.318 C 
ATOM     15  O   UNL A   1      33.632  20.578  26.475  1.00  0.00    -0.249 OA
ATOM     16  N   UNL A   1      33.451  19.655  24.472  1.00  0.00    -0.333 N 
ATOM     17  H   UNL A   1      34.345  19.505  24.086  1.00  0.00     0.165 HD
BRANCH  16  18
ATOM     18  C   UNL A   1      32.402  18.684  24.091  1.00  0.00     0.112 C 
ATOM     19  C   UNL A   1      32.643  17.394  24.853  1.00  0.00     0.056 C 
ATOM     20  C   UNL A   1      32.449  18.124  22.670  1.00  0.00     0.185 C 
ATOM     21  C   UNL A   1      33.736  16.749  24.023  1.00  0.00     0.162 C 
ATOM     22  O   UNL A   1      33.453  17.090  22.657  1.00  0.00    -0.379 OA
ENDBRANCH  16  18
ENDBRANCH  11  14
ENDBRANCH   7  11
ENDBRANCH   3   6
ENDBRANCH   1   2
BRANCH   1  23
ATOM     23  C   UNL A   1      38.087  19.478  24.968  1.00  0.00     0.042 C 
BRANCH  23  24
ATOM     24  C   UNL A   1      39.201  20.073  25.819  1.00  0.00     0.118 C 
BRANCH  24  25
ATOM     25  N   UNL A   1      40.336  19.170  25.913  1.00  0.00    -0.352 N 
ATOM     26  C   UNL A   1      41.681  19.384  26.057  1.00  0.00     0.251 C 
ATOM     27  H   UNL A   1      40.090  18.219  25.862  1.00  0.00     0.163 HD
ATOM     28  O   UNL A   1      42.433  18.424  25.840  1.00  0.00    -0.269 OA
BRANCH  26  29
ATOM     29  C   UNL A   1      42.293  20.685  26.448  1.00  0.00     0.039 A 
ATOM     30  C   UNL A   1      42.256  21.038  27.807  1.00  0.00     0.014 A 
ATOM     31  C   UNL A   1      42.770  21.628  25.536  1.00  0.00     0.014 A 
ATOM     32  C   UNL A   1      42.686  22.301  28.241  1.00  0.00     0.010 A 
ATOM     33  C   UNL A   1      43.278  22.858  25.978  1.00  0.00     0.010 A 
ATOM     34  C   UNL A   1      43.213  23.226  27.331  1.00  0.00    -0.014 A 
BRANCH  34  35
ATOM     35  C   UNL A   1      43.638  24.592  27.758  1.00  0.00     0.031 A 
ATOM     36  C   UNL A   1      42.606  25.642  28.094  1.00  0.00     0.074 A 
ATOM     37  C   UNL A   1      44.945  24.922  27.805  1.00  0.00     0.049 A 
ATOM     38  N   UNL A   1      42.770  26.914  28.365  1.00  0.00    -0.248 NA
ATOM     39  C   UNL A   1      41.201  25.204  28.115  1.00  0.00     0.031 C 
ATOM     40  C   UNL A   1      46.058  24.018  27.528  1.00  0.00     0.029 A 
ATOM     41  N   UNL A   1      45.556  26.121  28.090  1.00  0.00    -0.354 N 
ATOM     42  C   UNL A   1      41.494  27.430  28.559  1.00  0.00     0.074 A 
ATOM     43  C   UNL A   1      40.562  26.344  28.341  1.00  0.00     0.031 C 
ATOM     44  C   UNL A   1      47.213  24.691  27.640  1.00  0.00     0.029 A 
ATOM     45  C   UNL A   1      46.924  26.083  27.974  1.00  0.00     0.049 A 
ATOM     46  H   UNL A   1      45.059  26.930  28.351  1.00  0.00     0.167 HD
ATOM     47  C   UNL A   1      41.128  28.688  28.908  1.00  0.00     0.037 A 
ATOM     48  C   UNL A   1      47.845  27.058  28.107  1.00  0.00     0.037 A 
ATOM     49  C   UNL A   1      42.046  29.762  29.186  1.00  0.00     0.049 A 
ATOM     50  C   UNL A   1      47.413  28.452  28.469  1.00  0.00     0.074 A 
ATOM     51  C   UNL A   1      41.765  31.045  29.625  1.00  0.00     0.029 A 
ATOM     52  N   UNL A   1      43.423  29.678  29.057  1.00  0.00    -0.354 N 
ATOM     53  N   UNL A   1      46.207  28.912  28.691  1.00  0.00    -0.248 NA
ATOM     54  C   UNL A   1      48.474  29.461  28.607  1.00  0.00     0.031 C 
ATOM     55  C   UNL A   1      42.969  31.750  29.724  1.00  0.00     0.029 A 
ATOM     56  C   UNL A   1      44.003  30.894  29.385  1.00  0.00     0.049 A 
ATOM     57  H   UNL A   1      43.917  28.874  28.774  1.00  0.00     0.167 HD
ATOM     58  C   UNL A   1      46.365  30.250  29.030  1.00  0.00     0.074 A 
ATOM     59  C   UNL A   1      47.785  30.528  28.986  1.00  0.00     0.031 C 
ATOM     60  C   UNL A   1      45.417  31.161  29.354  1.00  0.00     0.037 A 
BRANCH  47  61
ATOM     61  C   UNL A   1      39.660  28.985  29.017  1.00  0.00     0.064 A 
ATOM     62  C   UNL A   1      38.902  29.370  27.902  1.00  0.00     0.173 A 
ATOM     63  C   UNL A   1      38.994  28.826  30.242  1.00  0.00     0.173 A 
ATOM     64  F   UNL A   1      39.494  29.544  26.710  1.00  0.00    -0.203 F 
ATOM     65  C   UNL A   1      37.535  29.607  28.014  1.00  0.00     0.198 A 
ATOM     66  C   UNL A   1      37.622  29.038  30.343  1.00  0.00     0.198 A 
ATOM     67  F   UNL A   1      39.672  28.450  31.336  1.00  0.00    -0.203 F 
ATOM     68  F   UNL A   1      36.837  30.012  26.943  1.00  0.00    -0.200 F 
ATOM     69  C   UNL A   1      36.894  29.434  29.232  1.00  0.00     0.200 A 
ATOM     70  F   UNL A   1      37.003  28.858  31.519  1.00  0.00    -0.200 F 
ATOM     71  F   UNL A   1      35.576  29.654  29.335  1.00  0.00    -0.200 F 
ENDBRANCH  47  61
BRANCH  48  72
ATOM     72  C   UNL A   1      49.283  26.744  27.909  1.00  0.00     0.064 A 
ATOM     73  C   UNL A   1      50.103  26.420  28.999  1.00  0.00     0.173 A 
ATOM     74  C   UNL A   1      49.867  26.771  26.635  1.00  0.00     0.173 A 
ATOM     75  F   UNL A   1      49.592  26.404  30.239  1.00  0.00    -0.203 F 
ATOM     76  C   UNL A   1      51.459  26.150  28.823  1.00  0.00     0.198 A 
ATOM     77  C   UNL A   1      51.218  26.478  26.457  1.00  0.00     0.198 A 
ATOM     78  F   UNL A   1      49.122  27.072  25.561  1.00  0.00    -0.203 F 
ATOM     79  F   UNL A   1      52.229  25.883  29.885  1.00  0.00    -0.200 F 
ATOM     80  C   UNL A   1      52.013  26.176  27.552  1.00  0.00     0.200 A 
ATOM     81  F   UNL A   1      51.747  26.492  25.227  1.00  0.00    -0.200 F 
ATOM     82  F   UNL A   1      53.317  25.914  27.383  1.00  0.00    -0.200 F 
ENDBRANCH  48  72
BRANCH  60  83
ATOM     83  C   UNL A   1      45.880  32.537  29.729  1.00  0.00     0.064 A 
ATOM     84  C   UNL A   1      46.226  32.863  31.047  1.00  0.00     0.173 A 
ATOM     85  C   UNL A   1      46.019  33.530  28.746  1.00  0.00     0.173 A 
ATOM     86  F   UNL A   1      46.095  31.952  32.024  1.00  0.00    -0.203 F 
ATOM     87  C   UNL A   1      46.677  34.140  31.373  1.00  0.00     0.198 A 
ATOM     88  C   UNL A   1      46.493  34.798  29.072  1.00  0.00     0.198 A 
ATOM     89  F   UNL A   1      45.706  33.266  27.469  1.00  0.00    -0.203 F 
ATOM     90  F   UNL A   1      46.965  34.442  32.647  1.00  0.00    -0.200 F 
ATOM     91  C   UNL A   1      46.816  35.103  30.385  1.00  0.00     0.200 A 
ATOM     92  F   UNL A   1      46.637  35.725  28.114  1.00  0.00    -0.200 F 
ATOM     93  F   UNL A   1      47.256  36.330  30.700  1.00  0.00    -0.200 F 
ENDBRANCH  60  83
ENDBRANCH  34  35
ENDBRANCH  26  29
ENDBRANCH  24  25
ENDBRANCH  23  24
ENDBRANCH   1  23
TORSDOF 14
ENDMDL
