MODEL 1
REMARK VINA RESULT:     -12.5      0.000      0.000
REMARK SMILES CCc1cc(Nc2ccc(C(=O)NCCCNC(=O)c3ccc(-c4c5nc(c(-c6c(F)c(F)c(F)c(F)c6F)c6ccc([nH]6)c(-c6c(F)c(F)c(F)c(F)c6F)c6nc(c(-c7c(F)c(F)c(F)c(F)c7F)c7ccc4[nH]7)C=C6)C=C5)cc3)cc2)nc(C(C)C)n1
REMARK SMILES IDX 14 1 13 2 11 3 12 4 10 6 7 7 8 8 84 9 9 10 83 11 6 12 5 14
REMARK SMILES IDX 3 15 4 16 90 17 86 18 85 19 2 20 1 21 87 22 88 23 89 24
REMARK SMILES IDX 15 25 16 26 17 27 18 28 19 30 20 31 21 32 82 33 22 34 81 35
REMARK SMILES IDX 23 36 24 37 25 38 75 39 26 40 80 41 74 42 76 43 27 44 79 45
REMARK SMILES IDX 73 46 72 47 28 49 60 50 40 51 59 52 41 53 44 54 58 55 77 56
REMARK SMILES IDX 42 57 43 58 57 60 78 61 45 62 29 63 30 64 38 65 31 66 32 67
REMARK SMILES IDX 36 68 39 69 33 70 34 71 37 72 35 73 61 74 62 75 70 76 63 77
REMARK SMILES IDX 64 78 68 79 71 80 65 81 66 82 69 83 67 84 46 85 47 86 55 87
REMARK SMILES IDX 48 88 49 89 53 90 56 91 50 92 51 93 54 94 52 95
REMARK H PARENT 13 5 6 13 17 29 76 48 44 59
REMARK Flexibility Score: inf
ROOT
ATOM      1  C   UNL A   1      34.174  22.696  25.636  1.00  0.00     0.118 C 
ENDROOT
BRANCH   1   2
ATOM      2  N   UNL A   1      33.475  21.693  24.851  1.00  0.00    -0.352 N 
ATOM      3  C   UNL A   1      32.631  21.799  23.772  1.00  0.00     0.251 C 
ATOM      4  O   UNL A   1      32.232  20.759  23.251  1.00  0.00    -0.269 OA
ATOM      5  H   UNL A   1      33.636  20.768  25.145  1.00  0.00     0.163 HD
BRANCH   3   6
ATOM      6  C   UNL A   1      32.235  23.105  23.184  1.00  0.00     0.039 A 
ATOM      7  C   UNL A   1      31.683  25.636  22.066  1.00  0.00     0.040 A 
ATOM      8  C   UNL A   1      32.808  24.914  21.658  1.00  0.00     0.027 A 
ATOM      9  C   UNL A   1      30.820  25.062  23.004  1.00  0.00     0.027 A 
ATOM     10  C   UNL A   1      33.084  23.660  22.217  1.00  0.00     0.016 A 
ATOM     11  C   UNL A   1      31.069  23.789  23.525  1.00  0.00     0.016 A 
BRANCH   7  12
ATOM     12  N   UNL A   1      31.494  26.960  21.641  1.00  0.00    -0.340 N 
ATOM     13  H   UNL A   1      31.742  27.182  20.714  1.00  0.00     0.168 HD
BRANCH  12  14
ATOM     14  C   UNL A   1      30.972  27.997  22.444  1.00  0.00     0.134 A 
ATOM     15  C   UNL A   1      31.126  29.395  24.338  1.00  0.00     0.046 A 
ATOM     16  C   UNL A   1      31.666  28.376  23.575  1.00  0.00     0.071 A 
ATOM     17  N   UNL A   1      29.968  29.996  24.006  1.00  0.00    -0.238 NA
ATOM     18  C   UNL A   1      29.355  29.572  22.887  1.00  0.00     0.133 A 
ATOM     19  N   UNL A   1      29.827  28.604  22.085  1.00  0.00    -0.216 NA
BRANCH  15  20
ATOM     20  C   UNL A   1      31.868  29.879  25.561  1.00  0.00     0.053 C 
ATOM     21  C   UNL A   1      32.137  28.803  26.605  1.00  0.00     0.011 C 
ENDBRANCH  15  20
BRANCH  18  22
ATOM     22  C   UNL A   1      28.035  30.204  22.506  1.00  0.00     0.051 C 
ATOM     23  C   UNL A   1      27.591  31.215  23.564  1.00  0.00     0.016 C 
ATOM     24  C   UNL A   1      28.112  30.852  21.125  1.00  0.00     0.016 C 
ENDBRANCH  18  22
ENDBRANCH  12  14
ENDBRANCH   7  12
ENDBRANCH   3   6
ENDBRANCH   1   2
BRANCH   1  25
ATOM     25  C   UNL A   1      35.430  23.185  24.914  1.00  0.00     0.042 C 
BRANCH  25  26
ATOM     26  C   UNL A   1      36.529  23.665  25.859  1.00  0.00     0.118 C 
BRANCH  26  27
ATOM     27  N   UNL A   1      37.612  22.700  25.971  1.00  0.00    -0.352 N 
ATOM     28  C   UNL A   1      38.919  22.879  26.351  1.00  0.00     0.251 C 
ATOM     29  H   UNL A   1      37.371  21.774  25.738  1.00  0.00     0.163 HD
ATOM     30  O   UNL A   1      39.726  21.970  26.185  1.00  0.00    -0.269 OA
BRANCH  28  31
ATOM     31  C   UNL A   1      39.372  24.157  26.947  1.00  0.00     0.039 A 
ATOM     32  C   UNL A   1      40.043  25.073  26.131  1.00  0.00     0.014 A 
ATOM     33  C   UNL A   1      39.195  24.435  28.305  1.00  0.00     0.014 A 
ATOM     34  C   UNL A   1      40.494  26.284  26.662  1.00  0.00     0.010 A 
ATOM     35  C   UNL A   1      39.593  25.669  28.822  1.00  0.00     0.010 A 
ATOM     36  C   UNL A   1      40.250  26.604  28.007  1.00  0.00    -0.014 A 
BRANCH  36  37
ATOM     37  C   UNL A   1      40.672  27.911  28.573  1.00  0.00     0.031 A 
ATOM     38  C   UNL A   1      42.093  28.124  29.016  1.00  0.00     0.074 A 
ATOM     39  C   UNL A   1      39.755  28.882  28.754  1.00  0.00     0.049 A 
ATOM     40  N   UNL A   1      42.627  29.161  29.610  1.00  0.00    -0.248 NA
ATOM     41  C   UNL A   1      43.034  27.018  28.781  1.00  0.00     0.031 C 
ATOM     42  C   UNL A   1      38.336  28.779  28.413  1.00  0.00     0.029 A 
ATOM     43  N   UNL A   1      39.877  30.141  29.291  1.00  0.00    -0.354 N 
ATOM     44  C   UNL A   1      43.954  28.824  29.844  1.00  0.00     0.074 A 
ATOM     45  C   UNL A   1      44.139  27.475  29.354  1.00  0.00     0.031 C 
ATOM     46  C   UNL A   1      37.718  29.925  28.745  1.00  0.00     0.029 A 
ATOM     47  C   UNL A   1      38.689  30.830  29.352  1.00  0.00     0.049 A 
ATOM     48  H   UNL A   1      40.733  30.513  29.602  1.00  0.00     0.167 HD
ATOM     49  C   UNL A   1      44.931  29.577  30.404  1.00  0.00     0.037 A 
ATOM     50  C   UNL A   1      38.412  32.048  29.855  1.00  0.00     0.037 A 
ATOM     51  C   UNL A   1      44.756  30.935  30.846  1.00  0.00     0.049 A 
ATOM     52  C   UNL A   1      39.526  32.872  30.443  1.00  0.00     0.074 A 
ATOM     53  C   UNL A   1      45.709  31.810  31.339  1.00  0.00     0.029 A 
ATOM     54  N   UNL A   1      43.548  31.616  30.850  1.00  0.00    -0.354 N 
ATOM     55  N   UNL A   1      40.794  32.571  30.581  1.00  0.00    -0.248 NA
ATOM     56  C   UNL A   1      39.171  34.210  30.940  1.00  0.00     0.031 C 
ATOM     57  C   UNL A   1      45.071  33.006  31.680  1.00  0.00     0.029 A 
ATOM     58  C   UNL A   1      43.728  32.892  31.358  1.00  0.00     0.049 A 
ATOM     59  H   UNL A   1      42.691  31.247  30.537  1.00  0.00     0.167 HD
ATOM     60  C   UNL A   1      41.390  33.687  31.152  1.00  0.00     0.074 A 
ATOM     61  C   UNL A   1      40.350  34.678  31.321  1.00  0.00     0.031 C 
ATOM     62  C   UNL A   1      42.685  33.871  31.508  1.00  0.00     0.037 A 
BRANCH  49  63
ATOM     63  C   UNL A   1      46.288  28.961  30.569  1.00  0.00     0.064 A 
ATOM     64  C   UNL A   1      46.640  28.261  31.732  1.00  0.00     0.173 A 
ATOM     65  C   UNL A   1      47.217  29.001  29.518  1.00  0.00     0.173 A 
ATOM     66  F   UNL A   1      45.791  28.200  32.767  1.00  0.00    -0.203 F 
ATOM     67  C   UNL A   1      47.880  27.634  31.841  1.00  0.00     0.198 A 
ATOM     68  C   UNL A   1      48.444  28.352  29.621  1.00  0.00     0.198 A 
ATOM     69  F   UNL A   1      46.925  29.652  28.382  1.00  0.00    -0.203 F 
ATOM     70  F   UNL A   1      48.206  26.991  32.971  1.00  0.00    -0.200 F 
ATOM     71  C   UNL A   1      48.775  27.671  30.783  1.00  0.00     0.200 A 
ATOM     72  F   UNL A   1      49.303  28.378  28.593  1.00  0.00    -0.200 F 
ATOM     73  F   UNL A   1      49.960  27.052  30.883  1.00  0.00    -0.200 F 
ENDBRANCH  49  63
BRANCH  50  74
ATOM     74  C   UNL A   1      37.022  32.570  29.823  1.00  0.00     0.064 A 
ATOM     75  C   UNL A   1      36.543  33.284  28.716  1.00  0.00     0.173 A 
ATOM     76  C   UNL A   1      36.151  32.388  30.908  1.00  0.00     0.173 A 
ATOM     77  F   UNL A   1      37.346  33.503  27.663  1.00  0.00    -0.203 F 
ATOM     78  C   UNL A   1      35.258  33.823  28.707  1.00  0.00     0.198 A 
ATOM     79  C   UNL A   1      34.856  32.901  30.886  1.00  0.00     0.198 A 
ATOM     80  F   UNL A   1      36.559  31.707  31.990  1.00  0.00    -0.203 F 
ATOM     81  F   UNL A   1      34.846  34.549  27.659  1.00  0.00    -0.200 F 
ATOM     82  C   UNL A   1      34.415  33.627  29.790  1.00  0.00     0.200 A 
ATOM     83  F   UNL A   1      34.041  32.699  31.929  1.00  0.00    -0.200 F 
ATOM     84  F   UNL A   1      33.180  34.148  29.783  1.00  0.00    -0.200 F 
ENDBRANCH  50  74
BRANCH  62  85
ATOM     85  C   UNL A   1      43.056  35.207  32.081  1.00  0.00     0.064 A 
ATOM     86  C   UNL A   1      42.904  35.486  33.447  1.00  0.00     0.173 A 
ATOM     87  C   UNL A   1      43.608  36.203  31.262  1.00  0.00     0.173 A 
ATOM     88  F   UNL A   1      42.366  34.571  34.267  1.00  0.00    -0.203 F 
ATOM     89  C   UNL A   1      43.270  36.725  33.968  1.00  0.00     0.198 A 
ATOM     90  C   UNL A   1      43.998  37.430  31.791  1.00  0.00     0.198 A 
ATOM     91  F   UNL A   1      43.780  35.981  29.950  1.00  0.00    -0.203 F 
ATOM     92  F   UNL A   1      43.075  36.987  35.267  1.00  0.00    -0.200 F 
ATOM     93  C   UNL A   1      43.823  37.692  33.142  1.00  0.00     0.200 A 
ATOM     94  F   UNL A   1      44.543  38.358  30.994  1.00  0.00    -0.200 F 
ATOM     95  F   UNL A   1      44.181  38.880  33.646  1.00  0.00    -0.200 F 
ENDBRANCH  62  85
ENDBRANCH  36  37
ENDBRANCH  28  31
ENDBRANCH  26  27
ENDBRANCH  25  26
ENDBRANCH   1  25
TORSDOF 14
ENDMDL
MODEL 2
REMARK VINA RESULT:     -12.4      3.993      7.912
REMARK SMILES CCc1cc(Nc2ccc(C(=O)NCCCNC(=O)c3ccc(-c4c5nc(c(-c6c(F)c(F)c(F)c(F)c6F)c6ccc([nH]6)c(-c6c(F)c(F)c(F)c(F)c6F)c6nc(c(-c7c(F)c(F)c(F)c(F)c7F)c7ccc4[nH]7)C=C6)C=C5)cc3)cc2)nc(C(C)C)n1
REMARK SMILES IDX 14 1 13 2 11 3 12 4 10 6 7 7 8 8 84 9 9 10 83 11 6 12 5 14
REMARK SMILES IDX 3 15 4 16 90 17 86 18 85 19 2 20 1 21 87 22 88 23 89 24
REMARK SMILES IDX 15 25 16 26 17 27 18 28 19 30 20 31 21 32 82 33 22 34 81 35
REMARK SMILES IDX 23 36 24 37 25 38 75 39 26 40 80 41 74 42 76 43 27 44 79 45
REMARK SMILES IDX 73 46 72 47 28 49 60 50 40 51 59 52 41 53 44 54 58 55 77 56
REMARK SMILES IDX 42 57 43 58 57 60 78 61 45 62 29 63 30 64 38 65 31 66 32 67
REMARK SMILES IDX 36 68 39 69 33 70 34 71 37 72 35 73 61 74 62 75 70 76 63 77
REMARK SMILES IDX 64 78 68 79 71 80 65 81 66 82 69 83 67 84 46 85 47 86 55 87
REMARK SMILES IDX 48 88 49 89 53 90 56 91 50 92 51 93 54 94 52 95
REMARK H PARENT 13 5 6 13 17 29 76 48 44 59
REMARK Flexibility Score: inf
ROOT
ATOM      1  C   UNL A   1      31.619  28.240  23.928  1.00  0.00     0.118 C 
ENDROOT
BRANCH   1   2
ATOM      2  N   UNL A   1      30.244  27.876  23.630  1.00  0.00    -0.352 N 
ATOM      3  C   UNL A   1      29.532  26.723  23.855  1.00  0.00     0.251 C 
ATOM      4  O   UNL A   1      28.339  26.717  23.558  1.00  0.00    -0.269 OA
ATOM      5  H   UNL A   1      29.728  28.587  23.187  1.00  0.00     0.163 HD
BRANCH   3   6
ATOM      6  C   UNL A   1      30.129  25.519  24.489  1.00  0.00     0.039 A 
ATOM      7  C   UNL A   1      31.165  23.119  25.550  1.00  0.00     0.040 A 
ATOM      8  C   UNL A   1      31.069  23.296  24.168  1.00  0.00     0.027 A 
ATOM      9  C   UNL A   1      30.778  24.167  26.391  1.00  0.00     0.027 A 
ATOM     10  C   UNL A   1      30.550  24.485  23.642  1.00  0.00     0.016 A 
ATOM     11  C   UNL A   1      30.306  25.373  25.865  1.00  0.00     0.016 A 
BRANCH   7  12
ATOM     12  N   UNL A   1      31.521  21.871  26.086  1.00  0.00    -0.340 N 
ATOM     13  H   UNL A   1      31.032  21.559  26.881  1.00  0.00     0.168 HD
BRANCH  12  14
ATOM     14  C   UNL A   1      32.527  21.029  25.566  1.00  0.00     0.134 A 
ATOM     15  C   UNL A   1      34.785  20.647  24.998  1.00  0.00     0.046 A 
ATOM     16  C   UNL A   1      33.824  21.498  25.512  1.00  0.00     0.071 A 
ATOM     17  N   UNL A   1      34.479  19.411  24.558  1.00  0.00    -0.238 NA
ATOM     18  C   UNL A   1      33.194  19.027  24.649  1.00  0.00     0.133 A 
ATOM     19  N   UNL A   1      32.211  19.788  25.154  1.00  0.00    -0.216 NA
BRANCH  15  20
ATOM     20  C   UNL A   1      36.227  21.093  24.958  1.00  0.00     0.053 C 
ATOM     21  C   UNL A   1      36.508  22.236  23.991  1.00  0.00     0.011 C 
ENDBRANCH  15  20
BRANCH  18  22
ATOM     22  C   UNL A   1      32.813  17.658  24.132  1.00  0.00     0.051 C 
ATOM     23  C   UNL A   1      33.907  17.096  23.223  1.00  0.00     0.016 C 
ATOM     24  C   UNL A   1      32.509  16.699  25.282  1.00  0.00     0.016 C 
ENDBRANCH  18  22
ENDBRANCH  12  14
ENDBRANCH   7  12
ENDBRANCH   3   6
ENDBRANCH   1   2
BRANCH   1  25
ATOM     25  C   UNL A   1      31.767  28.698  25.379  1.00  0.00     0.042 C 
BRANCH  25  26
ATOM     26  C   UNL A   1      32.988  29.582  25.618  1.00  0.00     0.118 C 
BRANCH  26  27
ATOM     27  N   UNL A   1      32.617  30.922  26.046  1.00  0.00    -0.352 N 
ATOM     28  C   UNL A   1      33.127  31.699  27.056  1.00  0.00     0.251 C 
ATOM     29  H   UNL A   1      31.886  31.336  25.533  1.00  0.00     0.163 HD
ATOM     30  O   UNL A   1      32.538  32.724  27.386  1.00  0.00    -0.269 OA
BRANCH  28  31
ATOM     31  C   UNL A   1      34.370  31.313  27.763  1.00  0.00     0.039 A 
ATOM     32  C   UNL A   1      35.448  32.204  27.751  1.00  0.00     0.014 A 
ATOM     33  C   UNL A   1      34.503  30.068  28.382  1.00  0.00     0.014 A 
ATOM     34  C   UNL A   1      36.640  31.868  28.398  1.00  0.00     0.010 A 
ATOM     35  C   UNL A   1      35.673  29.757  29.078  1.00  0.00     0.010 A 
ATOM     36  C   UNL A   1      36.754  30.652  29.089  1.00  0.00    -0.014 A 
BRANCH  36  37
ATOM     37  C   UNL A   1      37.993  30.303  29.831  1.00  0.00     0.031 A 
ATOM     38  C   UNL A   1      38.983  29.335  29.243  1.00  0.00     0.074 A 
ATOM     39  C   UNL A   1      38.191  30.806  31.066  1.00  0.00     0.049 A 
ATOM     40  N   UNL A   1      40.074  28.845  29.775  1.00  0.00    -0.248 NA
ATOM     41  C   UNL A   1      38.698  28.834  27.890  1.00  0.00     0.031 C 
ATOM     42  C   UNL A   1      37.281  31.714  31.764  1.00  0.00     0.029 A 
ATOM     43  N   UNL A   1      39.213  30.607  31.961  1.00  0.00    -0.354 N 
ATOM     44  C   UNL A   1      40.590  27.960  28.836  1.00  0.00     0.074 A 
ATOM     45  C   UNL A   1      39.678  27.958  27.713  1.00  0.00     0.031 C 
ATOM     46  C   UNL A   1      37.784  31.996  32.977  1.00  0.00     0.029 A 
ATOM     47  C   UNL A   1      39.034  31.264  33.155  1.00  0.00     0.049 A 
ATOM     48  H   UNL A   1      39.999  30.047  31.766  1.00  0.00     0.167 HD
ATOM     49  C   UNL A   1      41.728  27.228  28.902  1.00  0.00     0.037 A 
ATOM     50  C   UNL A   1      39.786  31.264  34.272  1.00  0.00     0.037 A 
ATOM     51  C   UNL A   1      42.657  27.268  29.999  1.00  0.00     0.049 A 
ATOM     52  C   UNL A   1      41.061  30.463  34.302  1.00  0.00     0.074 A 
ATOM     53  C   UNL A   1      43.883  26.634  30.114  1.00  0.00     0.029 A 
ATOM     54  N   UNL A   1      42.465  27.982  31.172  1.00  0.00    -0.354 N 
ATOM     55  N   UNL A   1      41.577  29.696  33.373  1.00  0.00    -0.248 NA
ATOM     56  C   UNL A   1      41.860  30.533  35.534  1.00  0.00     0.031 C 
ATOM     57  C   UNL A   1      44.413  26.930  31.373  1.00  0.00     0.029 A 
ATOM     58  C   UNL A   1      43.538  27.785  32.026  1.00  0.00     0.049 A 
ATOM     59  H   UNL A   1      41.682  28.545  31.369  1.00  0.00     0.167 HD
ATOM     60  C   UNL A   1      42.770  29.217  33.895  1.00  0.00     0.074 A 
ATOM     61  C   UNL A   1      42.911  29.791  35.217  1.00  0.00     0.031 C 
ATOM     62  C   UNL A   1      43.669  28.374  33.331  1.00  0.00     0.037 A 
BRANCH  49  63
ATOM     63  C   UNL A   1      42.047  26.318  27.753  1.00  0.00     0.064 A 
ATOM     64  C   UNL A   1      42.995  26.668  26.781  1.00  0.00     0.173 A 
ATOM     65  C   UNL A   1      41.459  25.047  27.672  1.00  0.00     0.173 A 
ATOM     66  F   UNL A   1      43.580  27.875  26.810  1.00  0.00    -0.203 F 
ATOM     67  C   UNL A   1      43.333  25.783  25.759  1.00  0.00     0.198 A 
ATOM     68  C   UNL A   1      41.818  24.155  26.665  1.00  0.00     0.198 A 
ATOM     69  F   UNL A   1      40.552  24.662  28.581  1.00  0.00    -0.203 F 
ATOM     70  F   UNL A   1      44.222  26.146  24.825  1.00  0.00    -0.200 F 
ATOM     71  C   UNL A   1      42.752  24.524  25.708  1.00  0.00     0.200 A 
ATOM     72  F   UNL A   1      41.265  22.935  26.624  1.00  0.00    -0.200 F 
ATOM     73  F   UNL A   1      43.091  23.667  24.736  1.00  0.00    -0.200 F 
ENDBRANCH  49  63
BRANCH  50  74
ATOM     74  C   UNL A   1      39.360  32.050  35.458  1.00  0.00     0.064 A 
ATOM     75  C   UNL A   1      38.521  31.491  36.432  1.00  0.00     0.173 A 
ATOM     76  C   UNL A   1      39.762  33.383  35.630  1.00  0.00     0.173 A 
ATOM     77  F   UNL A   1      38.092  30.227  36.300  1.00  0.00    -0.203 F 
ATOM     78  C   UNL A   1      38.075  32.244  37.517  1.00  0.00     0.198 A 
ATOM     79  C   UNL A   1      39.339  34.126  36.731  1.00  0.00     0.198 A 
ATOM     80  F   UNL A   1      40.569  33.963  34.729  1.00  0.00    -0.203 F 
ATOM     81  F   UNL A   1      37.228  31.702  38.403  1.00  0.00    -0.200 F 
ATOM     82  C   UNL A   1      38.488  33.559  37.667  1.00  0.00     0.200 A 
ATOM     83  F   UNL A   1      39.751  35.392  36.878  1.00  0.00    -0.200 F 
ATOM     84  F   UNL A   1      38.057  34.284  38.708  1.00  0.00    -0.200 F 
ENDBRANCH  50  74
BRANCH  62  85
ATOM     85  C   UNL A   1      44.900  28.049  34.126  1.00  0.00     0.064 A 
ATOM     86  C   UNL A   1      46.047  28.854  34.062  1.00  0.00     0.173 A 
ATOM     87  C   UNL A   1      44.916  26.945  34.991  1.00  0.00     0.173 A 
ATOM     88  F   UNL A   1      46.085  29.911  33.237  1.00  0.00    -0.203 F 
ATOM     89  C   UNL A   1      47.175  28.550  34.819  1.00  0.00     0.198 A 
ATOM     90  C   UNL A   1      46.035  26.661  35.767  1.00  0.00     0.198 A 
ATOM     91  F   UNL A   1      43.840  26.150  35.092  1.00  0.00    -0.203 F 
ATOM     92  F   UNL A   1      48.276  29.305  34.710  1.00  0.00    -0.200 F 
ATOM     93  C   UNL A   1      47.166  27.459  35.676  1.00  0.00     0.200 A 
ATOM     94  F   UNL A   1      46.020  25.614  36.603  1.00  0.00    -0.200 F 
ATOM     95  F   UNL A   1      48.250  27.172  36.408  1.00  0.00    -0.200 F 
ENDBRANCH  62  85
ENDBRANCH  36  37
ENDBRANCH  28  31
ENDBRANCH  26  27
ENDBRANCH  25  26
ENDBRANCH   1  25
TORSDOF 14
ENDMDL
MODEL 3
REMARK VINA RESULT:     -12.4      0.303      1.612
REMARK SMILES CCc1cc(Nc2ccc(C(=O)NCCCNC(=O)c3ccc(-c4c5nc(c(-c6c(F)c(F)c(F)c(F)c6F)c6ccc([nH]6)c(-c6c(F)c(F)c(F)c(F)c6F)c6nc(c(-c7c(F)c(F)c(F)c(F)c7F)c7ccc4[nH]7)C=C6)C=C5)cc3)cc2)nc(C(C)C)n1
REMARK SMILES IDX 14 1 13 2 11 3 12 4 10 6 7 7 8 8 84 9 9 10 83 11 6 12 5 14
REMARK SMILES IDX 3 15 4 16 90 17 86 18 85 19 2 20 1 21 87 22 88 23 89 24
REMARK SMILES IDX 15 25 16 26 17 27 18 28 19 30 20 31 21 32 82 33 22 34 81 35
REMARK SMILES IDX 23 36 24 37 25 38 75 39 26 40 80 41 74 42 76 43 27 44 79 45
REMARK SMILES IDX 73 46 72 47 28 49 60 50 40 51 59 52 41 53 44 54 58 55 77 56
REMARK SMILES IDX 42 57 43 58 57 60 78 61 45 62 29 63 30 64 38 65 31 66 32 67
REMARK SMILES IDX 36 68 39 69 33 70 34 71 37 72 35 73 61 74 62 75 70 76 63 77
REMARK SMILES IDX 64 78 68 79 71 80 65 81 66 82 69 83 67 84 46 85 47 86 55 87
REMARK SMILES IDX 48 88 49 89 53 90 56 91 50 92 51 93 54 94 52 95
REMARK H PARENT 13 5 6 13 17 29 76 48 44 59
REMARK Flexibility Score: inf
ROOT
ATOM      1  C   UNL A   1      34.283  22.764  25.641  1.00  0.00     0.118 C 
ENDROOT
BRANCH   1   2
ATOM      2  N   UNL A   1      33.594  21.739  24.875  1.00  0.00    -0.352 N 
ATOM      3  C   UNL A   1      32.736  21.816  23.805  1.00  0.00     0.251 C 
ATOM      4  O   UNL A   1      32.350  20.763  23.300  1.00  0.00    -0.269 OA
ATOM      5  H   UNL A   1      33.775  20.821  25.179  1.00  0.00     0.163 HD
BRANCH   3   6
ATOM      6  C   UNL A   1      32.309  23.108  23.206  1.00  0.00     0.039 A 
ATOM      7  C   UNL A   1      31.696  25.615  22.066  1.00  0.00     0.040 A 
ATOM      8  C   UNL A   1      32.834  24.913  21.659  1.00  0.00     0.027 A 
ATOM      9  C   UNL A   1      30.851  25.032  23.015  1.00  0.00     0.027 A 
ATOM     10  C   UNL A   1      33.140  23.671  22.229  1.00  0.00     0.016 A 
ATOM     11  C   UNL A   1      31.129  23.770  23.548  1.00  0.00     0.016 A 
BRANCH   7  12
ATOM     12  N   UNL A   1      31.476  26.931  21.629  1.00  0.00    -0.340 N 
ATOM     13  H   UNL A   1      31.696  27.143  20.693  1.00  0.00     0.168 HD
BRANCH  12  14
ATOM     14  C   UNL A   1      30.963  27.971  22.432  1.00  0.00     0.134 A 
ATOM     15  C   UNL A   1      31.129  29.368  24.326  1.00  0.00     0.046 A 
ATOM     16  C   UNL A   1      31.661  28.345  23.563  1.00  0.00     0.071 A 
ATOM     17  N   UNL A   1      29.975  29.977  23.995  1.00  0.00    -0.238 NA
ATOM     18  C   UNL A   1      29.358  29.558  22.877  1.00  0.00     0.133 A 
ATOM     19  N   UNL A   1      29.822  28.587  22.075  1.00  0.00    -0.216 NA
BRANCH  15  20
ATOM     20  C   UNL A   1      31.876  29.846  25.549  1.00  0.00     0.053 C 
ATOM     21  C   UNL A   1      32.018  28.805  26.651  1.00  0.00     0.011 C 
ENDBRANCH  15  20
BRANCH  18  22
ATOM     22  C   UNL A   1      28.042  30.199  22.497  1.00  0.00     0.051 C 
ATOM     23  C   UNL A   1      27.573  31.164  23.587  1.00  0.00     0.016 C 
ATOM     24  C   UNL A   1      28.142  30.904  21.145  1.00  0.00     0.016 C 
ENDBRANCH  18  22
ENDBRANCH  12  14
ENDBRANCH   7  12
ENDBRANCH   3   6
ENDBRANCH   1   2
BRANCH   1  25
ATOM     25  C   UNL A   1      35.505  23.288  24.886  1.00  0.00     0.042 C 
BRANCH  25  26
ATOM     26  C   UNL A   1      36.623  23.779  25.803  1.00  0.00     0.118 C 
BRANCH  26  27
ATOM     27  N   UNL A   1      37.701  22.809  25.917  1.00  0.00    -0.352 N 
ATOM     28  C   UNL A   1      38.998  22.975  26.334  1.00  0.00     0.251 C 
ATOM     29  H   UNL A   1      37.464  21.890  25.655  1.00  0.00     0.163 HD
ATOM     30  O   UNL A   1      39.808  22.069  26.165  1.00  0.00    -0.269 OA
BRANCH  28  31
ATOM     31  C   UNL A   1      39.438  24.237  26.973  1.00  0.00     0.039 A 
ATOM     32  C   UNL A   1      40.133  25.170  26.197  1.00  0.00     0.014 A 
ATOM     33  C   UNL A   1      39.228  24.482  28.332  1.00  0.00     0.014 A 
ATOM     34  C   UNL A   1      40.573  26.367  26.770  1.00  0.00     0.010 A 
ATOM     35  C   UNL A   1      39.615  25.701  28.889  1.00  0.00     0.010 A 
ATOM     36  C   UNL A   1      40.295  26.654  28.115  1.00  0.00    -0.014 A 
BRANCH  36  37
ATOM     37  C   UNL A   1      40.705  27.945  28.724  1.00  0.00     0.031 A 
ATOM     38  C   UNL A   1      42.113  28.140  29.218  1.00  0.00     0.074 A 
ATOM     39  C   UNL A   1      39.788  28.918  28.898  1.00  0.00     0.049 A 
ATOM     40  N   UNL A   1      42.632  29.160  29.853  1.00  0.00    -0.248 NA
ATOM     41  C   UNL A   1      43.055  27.033  28.988  1.00  0.00     0.031 C 
ATOM     42  C   UNL A   1      38.381  28.831  28.508  1.00  0.00     0.029 A 
ATOM     43  N   UNL A   1      39.899  30.163  29.466  1.00  0.00    -0.354 N 
ATOM     44  C   UNL A   1      43.949  28.809  30.122  1.00  0.00     0.074 A 
ATOM     45  C   UNL A   1      44.143  27.471  29.607  1.00  0.00     0.031 C 
ATOM     46  C   UNL A   1      37.759  29.973  28.845  1.00  0.00     0.029 A 
ATOM     47  C   UNL A   1      38.714  30.858  29.504  1.00  0.00     0.049 A 
ATOM     48  H   UNL A   1      40.747  30.523  29.813  1.00  0.00     0.167 HD
ATOM     49  C   UNL A   1      44.911  29.544  30.730  1.00  0.00     0.037 A 
ATOM     50  C   UNL A   1      38.427  32.066  30.025  1.00  0.00     0.037 A 
ATOM     51  C   UNL A   1      44.729  30.892  31.197  1.00  0.00     0.049 A 
ATOM     52  C   UNL A   1      39.526  32.870  30.669  1.00  0.00     0.074 A 
ATOM     53  C   UNL A   1      45.670  31.750  31.741  1.00  0.00     0.029 A 
ATOM     54  N   UNL A   1      43.526  31.580  31.177  1.00  0.00    -0.354 N 
ATOM     55  N   UNL A   1      40.787  32.558  30.841  1.00  0.00    -0.248 NA
ATOM     56  C   UNL A   1      39.162  34.198  31.183  1.00  0.00     0.031 C 
ATOM     57  C   UNL A   1      45.028  32.942  32.088  1.00  0.00     0.029 A 
ATOM     58  C   UNL A   1      43.696  32.844  31.720  1.00  0.00     0.049 A 
ATOM     59  H   UNL A   1      42.677  31.224  30.828  1.00  0.00     0.167 HD
ATOM     60  C   UNL A   1      41.370  33.657  31.455  1.00  0.00     0.074 A 
ATOM     61  C   UNL A   1      40.330  34.651  31.614  1.00  0.00     0.031 C 
ATOM     62  C   UNL A   1      42.654  33.826  31.857  1.00  0.00     0.037 A 
BRANCH  49  63
ATOM     63  C   UNL A   1      46.259  28.916  30.925  1.00  0.00     0.064 A 
ATOM     64  C   UNL A   1      47.268  29.027  29.958  1.00  0.00     0.173 A 
ATOM     65  C   UNL A   1      46.570  28.268  32.130  1.00  0.00     0.173 A 
ATOM     66  F   UNL A   1      47.019  29.631  28.787  1.00  0.00    -0.203 F 
ATOM     67  C   UNL A   1      48.538  28.499  30.186  1.00  0.00     0.198 A 
ATOM     68  C   UNL A   1      47.847  27.764  32.364  1.00  0.00     0.198 A 
ATOM     69  F   UNL A   1      45.642  28.141  33.090  1.00  0.00    -0.203 F 
ATOM     70  F   UNL A   1      49.481  28.594  29.238  1.00  0.00    -0.200 F 
ATOM     71  C   UNL A   1      48.829  27.878  31.391  1.00  0.00     0.200 A 
ATOM     72  F   UNL A   1      48.130  27.175  33.534  1.00  0.00    -0.200 F 
ATOM     73  F   UNL A   1      50.055  27.387  31.615  1.00  0.00    -0.200 F 
ENDBRANCH  49  63
BRANCH  50  74
ATOM     74  C   UNL A   1      37.042  32.597  29.960  1.00  0.00     0.064 A 
ATOM     75  C   UNL A   1      36.597  33.322  28.846  1.00  0.00     0.173 A 
ATOM     76  C   UNL A   1      36.141  32.414  31.021  1.00  0.00     0.173 A 
ATOM     77  F   UNL A   1      37.429  33.542  27.817  1.00  0.00    -0.203 F 
ATOM     78  C   UNL A   1      35.316  33.869  28.807  1.00  0.00     0.198 A 
ATOM     79  C   UNL A   1      34.851  32.935  30.968  1.00  0.00     0.198 A 
ATOM     80  F   UNL A   1      36.516  31.723  32.108  1.00  0.00    -0.203 F 
ATOM     81  F   UNL A   1      34.936  34.605  27.753  1.00  0.00    -0.200 F 
ATOM     82  C   UNL A   1      34.443  33.672  29.866  1.00  0.00     0.200 A 
ATOM     83  F   UNL A   1      34.007  32.732  31.987  1.00  0.00    -0.200 F 
ATOM     84  F   UNL A   1      33.213  34.200  29.829  1.00  0.00    -0.200 F 
ENDBRANCH  50  74
BRANCH  62  85
ATOM     85  C   UNL A   1      43.013  35.146  32.473  1.00  0.00     0.064 A 
ATOM     86  C   UNL A   1      43.538  36.195  31.704  1.00  0.00     0.173 A 
ATOM     87  C   UNL A   1      42.790  35.377  33.839  1.00  0.00     0.173 A 
ATOM     88  F   UNL A   1      43.783  36.017  30.398  1.00  0.00    -0.203 F 
ATOM     89  C   UNL A   1      43.850  37.420  32.287  1.00  0.00     0.198 A 
ATOM     90  C   UNL A   1      43.077  36.612  34.412  1.00  0.00     0.198 A 
ATOM     91  F   UNL A   1      42.283  34.406  34.614  1.00  0.00    -0.203 F 
ATOM     92  F   UNL A   1      44.392  38.394  31.544  1.00  0.00    -0.200 F 
ATOM     93  C   UNL A   1      43.612  37.630  33.638  1.00  0.00     0.200 A 
ATOM     94  F   UNL A   1      42.835  36.816  35.714  1.00  0.00    -0.200 F 
ATOM     95  F   UNL A   1      43.906  38.812  34.194  1.00  0.00    -0.200 F 
ENDBRANCH  62  85
ENDBRANCH  36  37
ENDBRANCH  28  31
ENDBRANCH  26  27
ENDBRANCH  25  26
ENDBRANCH   1  25
TORSDOF 14
ENDMDL
