MODEL 1
REMARK VINA RESULT:     -14.1      0.000      0.000
REMARK SMILES Cc1ccc(S(=O)(=O)Nc2ccc(C(=O)CCC(=O)NCCCNC(=O)c3ccc(-c4c5nc(c(-c6c(F)c(F)c(F)c(F)c6F)c6ccc([nH]6)c(-c6c(F)c(F)c(F)c(F)c6F)c6nc(c(-c7c(F)c(F)c(F)c(F)c7F)c7ccc4[nH]7)C=C6)C=C5)cc3)cc2)c(C)c1
REMARK SMILES IDX 18 1 19 2 20 3 17 5 16 6 14 7 15 8 13 9 10 10 11 11 91 12
REMARK SMILES IDX 12 13 90 14 9 15 6 17 7 18 8 19 5 20 1 21 2 22 3 23 94 24
REMARK SMILES IDX 4 25 92 26 93 27 21 28 22 29 23 30 24 31 25 32 26 34 27 35
REMARK SMILES IDX 28 36 89 37 29 38 88 39 30 40 31 41 32 42 82 43 33 44 87 45
REMARK SMILES IDX 81 46 83 47 34 48 86 49 80 50 79 51 35 53 67 54 47 55 66 56
REMARK SMILES IDX 48 57 51 58 65 59 84 60 49 61 50 62 64 64 85 65 52 66 36 67
REMARK SMILES IDX 37 68 45 69 38 70 39 71 43 72 46 73 40 74 41 75 44 76 42 77
REMARK SMILES IDX 68 78 69 79 77 80 70 81 71 82 75 83 78 84 72 85 73 86 76 87
REMARK SMILES IDX 74 88 53 89 54 90 62 91 55 92 56 93 60 94 63 95 57 96 58 97
REMARK SMILES IDX 61 98 59 99
REMARK H PARENT 20 4 9 16 24 33 83 52 51 63
REMARK Flexibility Score: inf
ROOT
ATOM      1  C   UNL A   1      31.968  28.319  27.102  1.00  0.00     0.220 C 
ATOM      2  O   UNL A   1      31.050  27.986  27.853  1.00  0.00    -0.275 OA
ATOM      3  N   UNL A   1      33.163  28.695  27.671  1.00  0.00    -0.356 N 
ATOM      4  H   UNL A   1      33.334  28.367  28.584  1.00  0.00     0.163 HD
ENDROOT
BRANCH   1   5
ATOM      5  C   UNL A   1      31.778  28.337  25.572  1.00  0.00     0.108 C 
BRANCH   5   6
ATOM      6  C   UNL A   1      31.258  29.676  24.970  1.00  0.00     0.091 C 
BRANCH   6   7
ATOM      7  C   UNL A   1      30.243  29.581  23.786  1.00  0.00     0.163 C 
ATOM      8  O   UNL A   1      29.406  30.448  23.559  1.00  0.00    -0.294 OA
BRANCH   7   9
ATOM      9  C   UNL A   1      30.137  28.276  23.020  1.00  0.00     0.018 A 
ATOM     10  C   UNL A   1      31.268  24.827  23.256  1.00  0.00     0.049 A 
ATOM     11  C   UNL A   1      29.724  25.365  24.114  1.00  0.00     0.027 A 
ATOM     12  C   UNL A   1      32.199  26.025  22.297  1.00  0.00     0.027 A 
ATOM     13  C   UNL A   1      29.136  27.066  23.937  1.00  0.00     0.014 A 
ATOM     14  C   UNL A   1      31.617  27.739  22.171  1.00  0.00     0.014 A 
BRANCH  10  15
ATOM     15  N   UNL A   1      31.322  23.430  22.891  1.00  0.00    -0.280 N 
ATOM     16  H   UNL A   1      30.831  23.138  22.088  1.00  0.00     0.180 HD
BRANCH  15  17
ATOM     17  S   UNL A   1      32.183  22.268  23.770  1.00  0.00     0.262 S 
ATOM     18  O   UNL A   1      32.421  21.137  22.899  1.00  0.00    -0.201 OA
ATOM     19  O   UNL A   1      31.471  22.110  25.018  1.00  0.00    -0.201 OA
BRANCH  17  20
ATOM     20  C   UNL A   1      33.734  23.039  24.132  1.00  0.00     0.090 A 
ATOM     21  C   UNL A   1      37.786  23.363  25.426  1.00  0.00     0.044 C 
ATOM     22  C   UNL A   1      36.366  23.369  24.952  1.00  0.00    -0.051 A 
ATOM     23  C   UNL A   1      36.089  23.044  23.626  1.00  0.00     0.005 A 
ATOM     24  C   UNL A   1      35.310  23.724  25.805  1.00  0.00     0.008 A 
ATOM     25  C   UNL A   1      34.771  22.909  23.210  1.00  0.00     0.023 A 
ATOM     26  C   UNL A   1      33.975  23.570  25.405  1.00  0.00    -0.030 A 
ATOM     27  C   UNL A   1      32.869  24.106  26.272  1.00  0.00     0.046 C 
ENDBRANCH  17  20
ENDBRANCH  15  17
ENDBRANCH  10  15
ENDBRANCH   7   9
ENDBRANCH   6   7
ENDBRANCH   5   6
ENDBRANCH   1   5
BRANCH   3  28
ATOM     28  C   UNL A   1      34.211  29.531  27.071  1.00  0.00     0.117 C 
BRANCH  28  29
ATOM     29  C   UNL A   1      33.951  31.075  27.606  1.00  0.00     0.042 C 
BRANCH  29  30
ATOM     30  C   UNL A   1      32.639  32.774  27.217  1.00  0.00     0.118 C 
BRANCH  30  31
ATOM     31  N   UNL A   1      32.710  34.306  27.869  1.00  0.00    -0.352 N 
ATOM     32  C   UNL A   1      33.329  34.997  28.840  1.00  0.00     0.251 C 
ATOM     33  H   UNL A   1      32.097  34.901  27.380  1.00  0.00     0.163 HD
ATOM     34  O   UNL A   1      32.965  36.157  29.027  1.00  0.00    -0.269 OA
BRANCH  32  35
ATOM     35  C   UNL A   1      34.409  34.447  29.616  1.00  0.00     0.039 A 
ATOM     36  C   UNL A   1      35.693  34.603  29.083  1.00  0.00     0.014 A 
ATOM     37  C   UNL A   1      34.150  33.671  30.741  1.00  0.00     0.014 A 
ATOM     38  C   UNL A   1      36.744  33.971  29.701  1.00  0.00     0.010 A 
ATOM     39  C   UNL A   1      35.208  33.113  31.412  1.00  0.00     0.010 A 
ATOM     40  C   UNL A   1      36.491  33.246  30.870  1.00  0.00    -0.014 A 
BRANCH  40  41
ATOM     41  C   UNL A   1      37.591  32.582  31.554  1.00  0.00     0.031 A 
ATOM     42  C   UNL A   1      38.271  31.453  30.863  1.00  0.00     0.074 A 
ATOM     43  C   UNL A   1      37.858  33.005  32.796  1.00  0.00     0.049 A 
ATOM     44  N   UNL A   1      39.218  30.677  31.304  1.00  0.00    -0.248 NA
ATOM     45  C   UNL A   1      37.791  31.113  29.510  1.00  0.00     0.031 C 
ATOM     46  C   UNL A   1      37.137  34.079  33.493  1.00  0.00     0.029 A 
ATOM     47  N   UNL A   1      38.793  32.593  33.691  1.00  0.00    -0.354 N 
ATOM     48  C   UNL A   1      39.433  29.750  30.295  1.00  0.00     0.074 A 
ATOM     49  C   UNL A   1      38.474  30.010  29.249  1.00  0.00     0.031 C 
ATOM     50  C   UNL A   1      37.687  34.263  34.700  1.00  0.00     0.029 A 
ATOM     51  C   UNL A   1      38.765  33.301  34.865  1.00  0.00     0.049 A 
ATOM     52  H   UNL A   1      39.426  31.859  33.514  1.00  0.00     0.167 HD
ATOM     53  C   UNL A   1      40.383  28.789  30.263  1.00  0.00     0.037 A 
ATOM     54  C   UNL A   1      39.554  33.166  35.940  1.00  0.00     0.037 A 
ATOM     55  C   UNL A   1      41.318  28.611  31.343  1.00  0.00     0.049 A 
ATOM     56  C   UNL A   1      40.634  32.127  35.851  1.00  0.00     0.074 A 
ATOM     57  C   UNL A   1      42.361  27.716  31.455  1.00  0.00     0.029 A 
ATOM     58  N   UNL A   1      41.310  29.376  32.508  1.00  0.00    -0.354 N 
ATOM     59  N   UNL A   1      40.881  31.277  34.879  1.00  0.00    -0.248 NA
ATOM     60  C   UNL A   1      41.555  32.039  36.982  1.00  0.00     0.031 C 
ATOM     61  C   UNL A   1      42.960  27.914  32.705  1.00  0.00     0.029 A 
ATOM     62  C   UNL A   1      42.329  28.972  33.349  1.00  0.00     0.049 A 
ATOM     63  H   UNL A   1      40.672  30.099  32.704  1.00  0.00     0.167 HD
ATOM     64  C   UNL A   1      42.005  30.569  35.263  1.00  0.00     0.074 A 
ATOM     65  C   UNL A   1      42.398  31.109  36.555  1.00  0.00     0.031 C 
ATOM     66  C   UNL A   1      42.659  29.566  34.624  1.00  0.00     0.037 A 
BRANCH  53  67
ATOM     67  C   UNL A   1      40.432  27.900  29.054  1.00  0.00     0.064 A 
ATOM     68  C   UNL A   1      41.180  28.239  27.913  1.00  0.00     0.173 A 
ATOM     69  C   UNL A   1      39.704  26.701  29.019  1.00  0.00     0.173 A 
ATOM     70  F   UNL A   1      41.878  29.383  27.879  1.00  0.00    -0.203 F 
ATOM     71  C   UNL A   1      41.164  27.435  26.776  1.00  0.00     0.198 A 
ATOM     72  C   UNL A   1      39.720  25.881  27.892  1.00  0.00     0.198 A 
ATOM     73  F   UNL A   1      38.964  26.327  30.074  1.00  0.00    -0.203 F 
ATOM     74  F   UNL A   1      41.832  27.818  25.678  1.00  0.00    -0.200 F 
ATOM     75  C   UNL A   1      40.440  26.254  26.767  1.00  0.00     0.200 A 
ATOM     76  F   UNL A   1      39.024  24.735  27.888  1.00  0.00    -0.200 F 
ATOM     77  F   UNL A   1      40.427  25.481  25.672  1.00  0.00    -0.200 F 
ENDBRANCH  53  67
BRANCH  54  78
ATOM     78  C   UNL A   1      39.385  34.076  37.099  1.00  0.00     0.064 A 
ATOM     79  C   UNL A   1      38.685  33.661  38.240  1.00  0.00     0.173 A 
ATOM     80  C   UNL A   1      39.974  35.349  37.125  1.00  0.00     0.173 A 
ATOM     81  F   UNL A   1      38.114  32.448  38.271  1.00  0.00    -0.203 F 
ATOM     82  C   UNL A   1      38.557  34.493  39.351  1.00  0.00     0.198 A 
ATOM     83  C   UNL A   1      39.871  36.170  38.247  1.00  0.00     0.198 A 
ATOM     84  F   UNL A   1      40.684  35.783  36.073  1.00  0.00    -0.203 F 
ATOM     85  F   UNL A   1      37.854  34.083  40.415  1.00  0.00    -0.200 F 
ATOM     86  C   UNL A   1      39.154  35.745  39.355  1.00  0.00     0.200 A 
ATOM     87  F   UNL A   1      40.474  37.366  38.258  1.00  0.00    -0.200 F 
ATOM     88  F   UNL A   1      39.039  36.540  40.428  1.00  0.00    -0.200 F 
ENDBRANCH  54  78
BRANCH  66  89
ATOM     89  C   UNL A   1      43.877  29.035  35.313  1.00  0.00     0.064 A 
ATOM     90  C   UNL A   1      45.152  29.551  35.047  1.00  0.00     0.173 A 
ATOM     91  C   UNL A   1      43.755  28.022  36.273  1.00  0.00     0.173 A 
ATOM     92  F   UNL A   1      45.313  30.511  34.123  1.00  0.00    -0.203 F 
ATOM     93  C   UNL A   1      46.271  29.042  35.693  1.00  0.00     0.198 A 
ATOM     94  C   UNL A   1      44.871  27.542  36.946  1.00  0.00     0.198 A 
ATOM     95  F   UNL A   1      42.550  27.507  36.566  1.00  0.00    -0.203 F 
ATOM     96  F   UNL A   1      47.489  29.504  35.380  1.00  0.00    -0.200 F 
ATOM     97  C   UNL A   1      46.129  28.045  36.648  1.00  0.00     0.200 A 
ATOM     98  F   UNL A   1      44.730  26.593  37.881  1.00  0.00    -0.200 F 
ATOM     99  F   UNL A   1      47.208  27.562  37.276  1.00  0.00    -0.200 F 
ENDBRANCH  66  89
ENDBRANCH  40  41
ENDBRANCH  32  35
ENDBRANCH  30  31
ENDBRANCH  29  30
ENDBRANCH  28  29
ENDBRANCH   3  28
TORSDOF 16
ENDMDL
MODEL 2
REMARK VINA RESULT:     -14.0      0.493      7.237
REMARK SMILES Cc1ccc(S(=O)(=O)Nc2ccc(C(=O)CCC(=O)NCCCNC(=O)c3ccc(-c4c5nc(c(-c6c(F)c(F)c(F)c(F)c6F)c6ccc([nH]6)c(-c6c(F)c(F)c(F)c(F)c6F)c6nc(c(-c7c(F)c(F)c(F)c(F)c7F)c7ccc4[nH]7)C=C6)C=C5)cc3)cc2)c(C)c1
REMARK SMILES IDX 18 1 19 2 20 3 17 5 16 6 14 7 15 8 13 9 10 10 11 11 91 12
REMARK SMILES IDX 12 13 90 14 9 15 6 17 7 18 8 19 5 20 1 21 2 22 3 23 94 24
REMARK SMILES IDX 4 25 92 26 93 27 21 28 22 29 23 30 24 31 25 32 26 34 27 35
REMARK SMILES IDX 28 36 89 37 29 38 88 39 30 40 31 41 32 42 82 43 33 44 87 45
REMARK SMILES IDX 81 46 83 47 34 48 86 49 80 50 79 51 35 53 67 54 47 55 66 56
REMARK SMILES IDX 48 57 51 58 65 59 84 60 49 61 50 62 64 64 85 65 52 66 36 67
REMARK SMILES IDX 37 68 45 69 38 70 39 71 43 72 46 73 40 74 41 75 44 76 42 77
REMARK SMILES IDX 68 78 69 79 77 80 70 81 71 82 75 83 78 84 72 85 73 86 76 87
REMARK SMILES IDX 74 88 53 89 54 90 62 91 55 92 56 93 60 94 63 95 57 96 58 97
REMARK SMILES IDX 61 98 59 99
REMARK H PARENT 20 4 9 16 24 33 83 52 51 63
REMARK Flexibility Score: inf
ROOT
ATOM      1  C   UNL A   1      31.900  28.392  27.179  1.00  0.00     0.220 C 
ATOM      2  O   UNL A   1      31.050  28.013  27.987  1.00  0.00    -0.275 OA
ATOM      3  N   UNL A   1      33.106  28.833  27.672  1.00  0.00    -0.356 N 
ATOM      4  H   UNL A   1      33.353  28.518  28.572  1.00  0.00     0.163 HD
ENDROOT
BRANCH   1   5
ATOM      5  C   UNL A   1      31.613  28.396  25.665  1.00  0.00     0.108 C 
BRANCH   5   6
ATOM      6  C   UNL A   1      31.146  29.756  25.066  1.00  0.00     0.091 C 
BRANCH   6   7
ATOM      7  C   UNL A   1      30.282  29.707  23.767  1.00  0.00     0.163 C 
ATOM      8  O   UNL A   1      29.479  30.585  23.470  1.00  0.00    -0.294 OA
BRANCH   7   9
ATOM      9  C   UNL A   1      30.266  28.428  22.949  1.00  0.00     0.018 A 
ATOM     10  C   UNL A   1      31.305  24.954  23.224  1.00  0.00     0.049 A 
ATOM     11  C   UNL A   1      29.663  25.492  23.876  1.00  0.00     0.027 A 
ATOM     12  C   UNL A   1      32.378  26.164  22.446  1.00  0.00     0.027 A 
ATOM     13  C   UNL A   1      29.130  27.208  23.675  1.00  0.00     0.014 A 
ATOM     14  C   UNL A   1      31.844  27.891  22.299  1.00  0.00     0.014 A 
BRANCH  10  15
ATOM     15  N   UNL A   1      31.391  23.568  22.823  1.00  0.00    -0.280 N 
ATOM     16  H   UNL A   1      30.965  23.300  21.977  1.00  0.00     0.180 HD
BRANCH  15  17
ATOM     17  S   UNL A   1      32.185  22.381  23.731  1.00  0.00     0.262 S 
ATOM     18  O   UNL A   1      32.396  21.233  22.875  1.00  0.00    -0.201 OA
ATOM     19  O   UNL A   1      31.440  22.262  24.964  1.00  0.00    -0.201 OA
BRANCH  17  20
ATOM     20  C   UNL A   1      33.757  23.093  24.122  1.00  0.00     0.090 A 
ATOM     21  C   UNL A   1      37.796  23.262  25.484  1.00  0.00     0.044 C 
ATOM     22  C   UNL A   1      36.385  23.322  24.987  1.00  0.00    -0.051 A 
ATOM     23  C   UNL A   1      36.119  23.010  23.656  1.00  0.00     0.005 A 
ATOM     24  C   UNL A   1      35.329  23.714  25.823  1.00  0.00     0.008 A 
ATOM     25  C   UNL A   1      34.804  22.926  23.217  1.00  0.00     0.023 A 
ATOM     26  C   UNL A   1      33.997  23.611  25.400  1.00  0.00    -0.030 A 
ATOM     27  C   UNL A   1      32.897  24.186  26.250  1.00  0.00     0.046 C 
ENDBRANCH  17  20
ENDBRANCH  15  17
ENDBRANCH  10  15
ENDBRANCH   7   9
ENDBRANCH   6   7
ENDBRANCH   5   6
ENDBRANCH   1   5
BRANCH   3  28
ATOM     28  C   UNL A   1      34.068  29.723  27.007  1.00  0.00     0.117 C 
BRANCH  28  29
ATOM     29  C   UNL A   1      33.823  31.237  27.628  1.00  0.00     0.042 C 
BRANCH  29  30
ATOM     30  C   UNL A   1      32.555  32.983  27.309  1.00  0.00     0.118 C 
BRANCH  30  31
ATOM     31  N   UNL A   1      32.640  34.473  28.051  1.00  0.00    -0.352 N 
ATOM     32  C   UNL A   1      33.281  35.104  29.048  1.00  0.00     0.251 C 
ATOM     33  H   UNL A   1      32.015  35.096  27.614  1.00  0.00     0.163 HD
ATOM     34  O   UNL A   1      32.921  36.250  29.314  1.00  0.00    -0.269 OA
BRANCH  32  35
ATOM     35  C   UNL A   1      34.379  34.511  29.764  1.00  0.00     0.039 A 
ATOM     36  C   UNL A   1      35.639  34.630  29.170  1.00  0.00     0.014 A 
ATOM     37  C   UNL A   1      34.149  33.731  30.893  1.00  0.00     0.014 A 
ATOM     38  C   UNL A   1      36.698  33.957  29.729  1.00  0.00     0.010 A 
ATOM     39  C   UNL A   1      35.220  33.130  31.505  1.00  0.00     0.010 A 
ATOM     40  C   UNL A   1      36.479  33.227  30.902  1.00  0.00    -0.014 A 
BRANCH  40  41
ATOM     41  C   UNL A   1      37.588  32.520  31.524  1.00  0.00     0.031 A 
ATOM     42  C   UNL A   1      38.012  32.935  32.889  1.00  0.00     0.074 A 
ATOM     43  C   UNL A   1      38.188  31.585  30.776  1.00  0.00     0.049 A 
ATOM     44  N   UNL A   1      39.009  32.499  33.602  1.00  0.00    -0.248 NA
ATOM     45  C   UNL A   1      37.243  34.022  33.523  1.00  0.00     0.031 C 
ATOM     46  C   UNL A   1      37.801  31.228  29.404  1.00  0.00     0.029 A 
ATOM     47  N   UNL A   1      39.241  30.771  31.050  1.00  0.00    -0.354 N 
ATOM     48  C   UNL A   1      39.000  33.268  34.756  1.00  0.00     0.074 A 
ATOM     49  C   UNL A   1      37.947  34.246  34.622  1.00  0.00     0.031 C 
ATOM     50  C   UNL A   1      38.590  30.235  28.972  1.00  0.00     0.029 A 
ATOM     51  C   UNL A   1      39.548  29.921  30.020  1.00  0.00     0.049 A 
ATOM     52  H   UNL A   1      39.733  30.792  31.902  1.00  0.00     0.167 HD
ATOM     53  C   UNL A   1      39.801  33.126  35.834  1.00  0.00     0.037 A 
ATOM     54  C   UNL A   1      40.506  28.985  29.966  1.00  0.00     0.037 A 
ATOM     55  C   UNL A   1      40.816  32.106  35.896  1.00  0.00     0.049 A 
ATOM     56  C   UNL A   1      41.343  28.815  31.201  1.00  0.00     0.074 A 
ATOM     57  C   UNL A   1      41.685  31.801  36.922  1.00  0.00     0.029 A 
ATOM     58  N   UNL A   1      41.079  31.213  34.859  1.00  0.00    -0.354 N 
ATOM     59  N   UNL A   1      41.310  29.504  32.320  1.00  0.00    -0.248 NA
ATOM     60  C   UNL A   1      42.328  27.735  31.183  1.00  0.00     0.031 C 
ATOM     61  C   UNL A   1      42.500  30.748  36.490  1.00  0.00     0.029 A 
ATOM     62  C   UNL A   1      42.102  30.356  35.218  1.00  0.00     0.049 A 
ATOM     63  H   UNL A   1      40.607  31.195  33.996  1.00  0.00     0.167 HD
ATOM     64  C   UNL A   1      42.248  28.925  33.156  1.00  0.00     0.074 A 
ATOM     65  C   UNL A   1      42.819  27.814  32.412  1.00  0.00     0.031 C 
ATOM     66  C   UNL A   1      42.614  29.268  34.418  1.00  0.00     0.037 A 
BRANCH  53  67
ATOM     67  C   UNL A   1      39.602  34.076  36.980  1.00  0.00     0.064 A 
ATOM     68  C   UNL A   1      40.196  35.350  37.000  1.00  0.00     0.173 A 
ATOM     69  C   UNL A   1      38.827  33.705  38.089  1.00  0.00     0.173 A 
ATOM     70  F   UNL A   1      40.966  35.751  35.978  1.00  0.00    -0.203 F 
ATOM     71  C   UNL A   1      40.055  36.195  38.098  1.00  0.00     0.198 A 
ATOM     72  C   UNL A   1      38.659  34.569  39.171  1.00  0.00     0.198 A 
ATOM     73  F   UNL A   1      38.240  32.499  38.133  1.00  0.00    -0.203 F 
ATOM     74  F   UNL A   1      40.689  37.375  38.118  1.00  0.00    -0.200 F 
ATOM     75  C   UNL A   1      39.281  35.807  39.180  1.00  0.00     0.200 A 
ATOM     76  F   UNL A   1      37.904  34.194  40.214  1.00  0.00    -0.200 F 
ATOM     77  F   UNL A   1      39.145  36.621  40.236  1.00  0.00    -0.200 F 
ENDBRANCH  53  67
BRANCH  54  78
ATOM     78  C   UNL A   1      40.639  28.131  28.761  1.00  0.00     0.064 A 
ATOM     79  C   UNL A   1      39.961  26.909  28.669  1.00  0.00     0.173 A 
ATOM     80  C   UNL A   1      41.387  28.545  27.648  1.00  0.00     0.173 A 
ATOM     81  F   UNL A   1      39.223  26.474  29.702  1.00  0.00    -0.203 F 
ATOM     82  C   UNL A   1      40.047  26.120  27.524  1.00  0.00     0.198 A 
ATOM     83  C   UNL A   1      41.449  27.770  26.491  1.00  0.00     0.198 A 
ATOM     84  F   UNL A   1      42.029  29.722  27.669  1.00  0.00    -0.203 F 
ATOM     85  F   UNL A   1      39.414  24.940  27.478  1.00  0.00    -0.200 F 
ATOM     86  C   UNL A   1      40.787  26.553  26.434  1.00  0.00     0.200 A 
ATOM     87  F   UNL A   1      42.140  28.206  25.430  1.00  0.00    -0.200 F 
ATOM     88  F   UNL A   1      40.859  25.799  25.328  1.00  0.00    -0.200 F 
ENDBRANCH  54  78
BRANCH  66  89
ATOM     89  C   UNL A   1      43.650  28.398  35.057  1.00  0.00     0.064 A 
ATOM     90  C   UNL A   1      43.299  27.257  35.789  1.00  0.00     0.173 A 
ATOM     91  C   UNL A   1      45.011  28.699  34.903  1.00  0.00     0.173 A 
ATOM     92  F   UNL A   1      42.007  26.943  35.973  1.00  0.00    -0.203 F 
ATOM     93  C   UNL A   1      44.276  26.465  36.379  1.00  0.00     0.198 A 
ATOM     94  C   UNL A   1      45.986  27.883  35.461  1.00  0.00     0.198 A 
ATOM     95  F   UNL A   1      45.391  29.777  34.201  1.00  0.00    -0.203 F 
ATOM     96  F   UNL A   1      43.919  25.413  37.128  1.00  0.00    -0.200 F 
ATOM     97  C   UNL A   1      45.617  26.773  36.208  1.00  0.00     0.200 A 
ATOM     98  F   UNL A   1      47.282  28.171  35.279  1.00  0.00    -0.200 F 
ATOM     99  F   UNL A   1      46.558  26.004  36.770  1.00  0.00    -0.200 F 
ENDBRANCH  66  89
ENDBRANCH  40  41
ENDBRANCH  32  35
ENDBRANCH  30  31
ENDBRANCH  29  30
ENDBRANCH  28  29
ENDBRANCH   3  28
TORSDOF 16
ENDMDL
MODEL 3
REMARK VINA RESULT:     -13.9      1.546      7.528
REMARK SMILES Cc1ccc(S(=O)(=O)Nc2ccc(C(=O)CCC(=O)NCCCNC(=O)c3ccc(-c4c5nc(c(-c6c(F)c(F)c(F)c(F)c6F)c6ccc([nH]6)c(-c6c(F)c(F)c(F)c(F)c6F)c6nc(c(-c7c(F)c(F)c(F)c(F)c7F)c7ccc4[nH]7)C=C6)C=C5)cc3)cc2)c(C)c1
REMARK SMILES IDX 18 1 19 2 20 3 17 5 16 6 14 7 15 8 13 9 10 10 11 11 91 12
REMARK SMILES IDX 12 13 90 14 9 15 6 17 7 18 8 19 5 20 1 21 2 22 3 23 94 24
REMARK SMILES IDX 4 25 92 26 93 27 21 28 22 29 23 30 24 31 25 32 26 34 27 35
REMARK SMILES IDX 28 36 89 37 29 38 88 39 30 40 31 41 32 42 82 43 33 44 87 45
REMARK SMILES IDX 81 46 83 47 34 48 86 49 80 50 79 51 35 53 67 54 47 55 66 56
REMARK SMILES IDX 48 57 51 58 65 59 84 60 49 61 50 62 64 64 85 65 52 66 36 67
REMARK SMILES IDX 37 68 45 69 38 70 39 71 43 72 46 73 40 74 41 75 44 76 42 77
REMARK SMILES IDX 68 78 69 79 77 80 70 81 71 82 75 83 78 84 72 85 73 86 76 87
REMARK SMILES IDX 74 88 53 89 54 90 62 91 55 92 56 93 60 94 63 95 57 96 58 97
REMARK SMILES IDX 61 98 59 99
REMARK H PARENT 20 4 9 16 24 33 83 52 51 63
REMARK Flexibility Score: inf
ROOT
ATOM      1  C   UNL A   1      32.406  28.448  25.930  1.00  0.00     0.220 C 
ATOM      2  O   UNL A   1      31.561  27.615  26.264  1.00  0.00    -0.275 OA
ATOM      3  N   UNL A   1      33.491  28.632  26.756  1.00  0.00    -0.356 N 
ATOM      4  H   UNL A   1      33.710  27.887  27.362  1.00  0.00     0.163 HD
ENDROOT
BRANCH   1   5
ATOM      5  C   UNL A   1      32.242  29.276  24.641  1.00  0.00     0.108 C 
BRANCH   5   6
ATOM      6  C   UNL A   1      30.778  29.485  24.151  1.00  0.00     0.091 C 
BRANCH   6   7
ATOM      7  C   UNL A   1      30.404  28.906  22.749  1.00  0.00     0.163 C 
ATOM      8  O   UNL A   1      29.927  29.594  21.853  1.00  0.00    -0.294 OA
BRANCH   7   9
ATOM      9  C   UNL A   1      30.422  27.402  22.554  1.00  0.00     0.018 A 
ATOM     10  C   UNL A   1      31.738  24.416  24.161  1.00  0.00     0.049 A 
ATOM     11  C   UNL A   1      30.115  25.123  24.688  1.00  0.00     0.027 A 
ATOM     12  C   UNL A   1      32.654  25.215  22.841  1.00  0.00     0.027 A 
ATOM     13  C   UNL A   1      29.440  26.569  23.838  1.00  0.00     0.014 A 
ATOM     14  C   UNL A   1      31.981  26.694  22.034  1.00  0.00     0.014 A 
BRANCH  10  15
ATOM     15  N   UNL A   1      31.897  22.996  24.376  1.00  0.00    -0.280 N 
ATOM     16  H   UNL A   1      31.225  22.388  23.990  1.00  0.00     0.180 HD
BRANCH  15  17
ATOM     17  S   UNL A   1      33.176  22.322  25.255  1.00  0.00     0.262 S 
ATOM     18  O   UNL A   1      32.705  22.063  26.599  1.00  0.00    -0.201 OA
ATOM     19  O   UNL A   1      34.314  23.180  25.018  1.00  0.00    -0.201 OA
BRANCH  17  20
ATOM     20  C   UNL A   1      33.498  20.774  24.461  1.00  0.00     0.090 A 
ATOM     21  C   UNL A   1      33.402  16.557  23.823  1.00  0.00     0.044 C 
ATOM     22  C   UNL A   1      33.505  18.046  23.947  1.00  0.00    -0.051 A 
ATOM     23  C   UNL A   1      32.482  18.843  23.439  1.00  0.00     0.005 A 
ATOM     24  C   UNL A   1      34.621  18.656  24.538  1.00  0.00     0.008 A 
ATOM     25  C   UNL A   1      32.496  20.213  23.670  1.00  0.00     0.023 A 
ATOM     26  C   UNL A   1      34.637  20.033  24.799  1.00  0.00    -0.030 A 
ATOM     27  C   UNL A   1      35.903  20.687  25.282  1.00  0.00     0.046 C 
ENDBRANCH  17  20
ENDBRANCH  15  17
ENDBRANCH  10  15
ENDBRANCH   7   9
ENDBRANCH   6   7
ENDBRANCH   5   6
ENDBRANCH   1   5
BRANCH   3  28
ATOM     28  C   UNL A   1      34.360  29.814  26.835  1.00  0.00     0.117 C 
BRANCH  28  29
ATOM     29  C   UNL A   1      33.488  30.993  27.602  1.00  0.00     0.042 C 
BRANCH  29  30
ATOM     30  C   UNL A   1      32.381  32.814  27.137  1.00  0.00     0.118 C 
BRANCH  30  31
ATOM     31  N   UNL A   1      32.593  34.343  27.768  1.00  0.00    -0.352 N 
ATOM     32  C   UNL A   1      33.312  34.996  28.694  1.00  0.00     0.251 C 
ATOM     33  H   UNL A   1      31.993  34.975  27.310  1.00  0.00     0.163 HD
ATOM     34  O   UNL A   1      33.039  36.179  28.891  1.00  0.00    -0.269 OA
BRANCH  32  35
ATOM     35  C   UNL A   1      34.398  34.381  29.411  1.00  0.00     0.039 A 
ATOM     36  C   UNL A   1      35.680  34.603  28.900  1.00  0.00     0.014 A 
ATOM     37  C   UNL A   1      34.145  33.489  30.449  1.00  0.00     0.014 A 
ATOM     38  C   UNL A   1      36.738  33.922  29.452  1.00  0.00     0.010 A 
ATOM     39  C   UNL A   1      35.209  32.875  31.061  1.00  0.00     0.010 A 
ATOM     40  C   UNL A   1      36.491  33.077  30.539  1.00  0.00    -0.014 A 
BRANCH  40  41
ATOM     41  C   UNL A   1      37.597  32.357  31.152  1.00  0.00     0.031 A 
ATOM     42  C   UNL A   1      38.011  32.742  32.529  1.00  0.00     0.074 A 
ATOM     43  C   UNL A   1      38.203  31.440  30.388  1.00  0.00     0.049 A 
ATOM     44  N   UNL A   1      39.003  32.291  33.239  1.00  0.00    -0.248 NA
ATOM     45  C   UNL A   1      37.236  33.814  33.182  1.00  0.00     0.031 C 
ATOM     46  C   UNL A   1      37.827  31.114  29.006  1.00  0.00     0.029 A 
ATOM     47  N   UNL A   1      39.255  30.622  30.651  1.00  0.00    -0.354 N 
ATOM     48  C   UNL A   1      38.985  33.034  34.410  1.00  0.00     0.074 A 
ATOM     49  C   UNL A   1      37.932  34.014  34.291  1.00  0.00     0.031 C 
ATOM     50  C   UNL A   1      38.619  30.132  28.557  1.00  0.00     0.029 A 
ATOM     51  C   UNL A   1      39.570  29.795  29.604  1.00  0.00     0.049 A 
ATOM     52  H   UNL A   1      39.742  30.624  31.507  1.00  0.00     0.167 HD
ATOM     53  C   UNL A   1      39.779  32.869  35.490  1.00  0.00     0.037 A 
ATOM     54  C   UNL A   1      40.531  28.862  29.536  1.00  0.00     0.037 A 
ATOM     55  C   UNL A   1      40.795  31.850  35.536  1.00  0.00     0.049 A 
ATOM     56  C   UNL A   1      41.359  28.666  30.772  1.00  0.00     0.074 A 
ATOM     57  C   UNL A   1      41.658  31.523  36.561  1.00  0.00     0.029 A 
ATOM     58  N   UNL A   1      41.067  30.981  34.482  1.00  0.00    -0.354 N 
ATOM     59  N   UNL A   1      41.317  29.329  31.907  1.00  0.00    -0.248 NA
ATOM     60  C   UNL A   1      42.346  27.587  30.737  1.00  0.00     0.031 C 
ATOM     61  C   UNL A   1      42.477  30.481  36.112  1.00  0.00     0.029 A 
ATOM     62  C   UNL A   1      42.088  30.117  34.829  1.00  0.00     0.049 A 
ATOM     63  H   UNL A   1      40.600  30.981  33.615  1.00  0.00     0.167 HD
ATOM     64  C   UNL A   1      42.250  28.733  32.736  1.00  0.00     0.074 A 
ATOM     65  C   UNL A   1      42.828  27.640  31.971  1.00  0.00     0.031 C 
ATOM     66  C   UNL A   1      42.607  29.048  34.007  1.00  0.00     0.037 A 
BRANCH  53  67
ATOM     67  C   UNL A   1      39.571  33.793  36.656  1.00  0.00     0.064 A 
ATOM     68  C   UNL A   1      40.178  35.059  36.717  1.00  0.00     0.173 A 
ATOM     69  C   UNL A   1      38.773  33.404  37.742  1.00  0.00     0.173 A 
ATOM     70  F   UNL A   1      40.970  35.476  35.718  1.00  0.00    -0.203 F 
ATOM     71  C   UNL A   1      40.028  35.879  37.833  1.00  0.00     0.198 A 
ATOM     72  C   UNL A   1      38.596  34.243  38.842  1.00  0.00     0.198 A 
ATOM     73  F   UNL A   1      38.173  32.204  37.747  1.00  0.00    -0.203 F 
ATOM     74  F   UNL A   1      40.674  37.051  37.893  1.00  0.00    -0.200 F 
ATOM     75  C   UNL A   1      39.231  35.474  38.892  1.00  0.00     0.200 A 
ATOM     76  F   UNL A   1      37.819  33.851  39.863  1.00  0.00    -0.200 F 
ATOM     77  F   UNL A   1      39.086  36.263  39.965  1.00  0.00    -0.200 F 
ENDBRANCH  53  67
BRANCH  54  78
ATOM     78  C   UNL A   1      40.673  28.036  28.313  1.00  0.00     0.064 A 
ATOM     79  C   UNL A   1      41.474  28.465  27.247  1.00  0.00     0.173 A 
ATOM     80  C   UNL A   1      40.073  26.771  28.208  1.00  0.00     0.173 A 
ATOM     81  F   UNL A   1      42.080  29.660  27.303  1.00  0.00    -0.203 F 
ATOM     82  C   UNL A   1      41.647  27.676  26.111  1.00  0.00     0.198 A 
ATOM     83  C   UNL A   1      40.270  25.970  27.085  1.00  0.00     0.198 A 
ATOM     84  F   UNL A   1      39.324  26.297  29.214  1.00  0.00    -0.203 F 
ATOM     85  F   UNL A   1      42.392  28.126  25.092  1.00  0.00    -0.200 F 
ATOM     86  C   UNL A   1      41.049  26.426  26.033  1.00  0.00     0.200 A 
ATOM     87  F   UNL A   1      39.715  24.752  27.027  1.00  0.00    -0.200 F 
ATOM     88  F   UNL A   1      41.226  25.664  24.945  1.00  0.00    -0.200 F 
ENDBRANCH  54  78
BRANCH  66  89
ATOM     89  C   UNL A   1      43.641  28.165  34.634  1.00  0.00     0.064 A 
ATOM     90  C   UNL A   1      43.288  26.988  35.306  1.00  0.00     0.173 A 
ATOM     91  C   UNL A   1      45.000  28.492  34.528  1.00  0.00     0.173 A 
ATOM     92  F   UNL A   1      41.997  26.648  35.443  1.00  0.00    -0.203 F 
ATOM     93  C   UNL A   1      44.262  26.184  35.886  1.00  0.00     0.198 A 
ATOM     94  C   UNL A   1      45.973  27.666  35.075  1.00  0.00     0.198 A 
ATOM     95  F   UNL A   1      45.381  29.605  33.884  1.00  0.00    -0.203 F 
ATOM     96  F   UNL A   1      43.902  25.095  36.578  1.00  0.00    -0.200 F 
ATOM     97  C   UNL A   1      45.603  26.519  35.762  1.00  0.00     0.200 A 
ATOM     98  F   UNL A   1      47.268  27.980  34.939  1.00  0.00    -0.200 F 
ATOM     99  F   UNL A   1      46.541  25.738  36.314  1.00  0.00    -0.200 F 
ENDBRANCH  66  89
ENDBRANCH  40  41
ENDBRANCH  32  35
ENDBRANCH  30  31
ENDBRANCH  29  30
ENDBRANCH  28  29
ENDBRANCH   3  28
TORSDOF 16
ENDMDL
