MODEL 1
REMARK VINA RESULT:     -12.8      0.000      0.000
REMARK SMILES CC(=O)Nc1cccc(C(=O)N2CCCC[C@@H]2C(=O)NCCCNC(=O)c2ccc(-c3c4nc(c(-c5c(F)c(F)c(F)c(F)c5F)c5ccc([nH]5)c(-c5c(F)c(F)c(F)c(F)c5F)c5nc(c(-c6c(F)c(F)c(F)c(F)c6F)c6ccc3[nH]6)C=C5)C=C4)cc2)c1
REMARK SMILES IDX 21 1 20 2 18 3 19 4 17 6 12 7 13 8 14 9 16 10 15 11 10 12
REMARK SMILES IDX 11 13 9 14 5 15 6 16 90 17 7 18 8 19 4 20 1 21 2 22 3 23
REMARK SMILES IDX 22 25 23 26 24 27 25 28 26 30 27 31 28 32 89 33 29 34 88 35
REMARK SMILES IDX 30 36 31 37 32 38 82 39 33 40 87 41 81 42 83 43 34 44 86 45
REMARK SMILES IDX 80 46 79 47 35 49 67 50 47 51 66 52 48 53 51 54 65 55 84 56
REMARK SMILES IDX 49 57 50 58 64 60 85 61 52 62 36 63 37 64 45 65 38 66 39 67
REMARK SMILES IDX 43 68 46 69 40 70 41 71 44 72 42 73 68 74 69 75 77 76 70 77
REMARK SMILES IDX 71 78 75 79 78 80 72 81 73 82 76 83 74 84 53 85 54 86 62 87
REMARK SMILES IDX 55 88 56 89 60 90 63 91 57 92 58 93 61 94 59 95
REMARK H PARENT 20 5 4 24 24 29 83 48 51 59
REMARK Flexibility Score: inf
ROOT
ATOM      1  C   UNL A   1      31.656  30.660  25.940  1.00  0.00     0.117 C 
ENDROOT
BRANCH   1   2
ATOM      2  N   UNL A   1      32.885  29.999  26.339  1.00  0.00    -0.354 N 
ATOM      3  C   UNL A   1      33.468  28.875  25.842  1.00  0.00     0.242 C 
ATOM      4  O   UNL A   1      34.391  28.373  26.491  1.00  0.00    -0.273 OA
ATOM      5  H   UNL A   1      33.371  30.429  27.079  1.00  0.00     0.163 HD
BRANCH   3   6
ATOM      6  C   UNL A   1      32.914  28.163  24.589  1.00  0.00     0.174 C 
ATOM      7  N   UNL A   1      32.671  26.699  24.714  1.00  0.00    -0.327 N 
ATOM      8  C   UNL A   1      32.443  25.984  23.460  1.00  0.00     0.120 C 
ATOM      9  C   UNL A   1      33.531  26.239  22.436  1.00  0.00     0.022 C 
ATOM     10  C   UNL A   1      33.916  28.489  23.452  1.00  0.00     0.035 C 
ATOM     11  C   UNL A   1      33.653  27.728  22.160  1.00  0.00     0.004 C 
BRANCH   7  12
ATOM     12  C   UNL A   1      32.299  25.989  25.868  1.00  0.00     0.254 C 
ATOM     13  O   UNL A   1      31.439  26.420  26.637  1.00  0.00    -0.269 OA
BRANCH  12  14
ATOM     14  C   UNL A   1      32.927  24.698  26.242  1.00  0.00     0.042 A 
ATOM     15  C   UNL A   1      34.911  23.325  26.508  1.00  0.00     0.041 A 
ATOM     16  C   UNL A   1      34.118  22.325  27.084  1.00  0.00     0.026 A 
ATOM     17  C   UNL A   1      34.305  24.510  26.100  1.00  0.00     0.040 A 
ATOM     18  C   UNL A   1      32.749  22.524  27.282  1.00  0.00     0.003 A 
ATOM     19  C   UNL A   1      32.153  23.713  26.864  1.00  0.00     0.014 A 
BRANCH  15  20
ATOM     20  N   UNL A   1      36.276  23.047  26.326  1.00  0.00    -0.326 N 
ATOM     21  C   UNL A   1      36.391  22.568  23.875  1.00  0.00     0.114 C 
ATOM     22  C   UNL A   1      36.985  22.580  25.257  1.00  0.00     0.221 C 
ATOM     23  O   UNL A   1      38.152  22.219  25.433  1.00  0.00    -0.275 OA
ATOM     24  H   UNL A   1      36.828  23.224  27.122  1.00  0.00     0.169 HD
ENDBRANCH  15  20
ENDBRANCH  12  14
ENDBRANCH   7  12
ENDBRANCH   3   6
ENDBRANCH   1   2
BRANCH   1  25
ATOM     25  C   UNL A   1      31.405  31.901  26.782  1.00  0.00     0.042 C 
BRANCH  25  26
ATOM     26  C   UNL A   1      32.683  32.576  27.251  1.00  0.00     0.118 C 
BRANCH  26  27
ATOM     27  N   UNL A   1      32.489  33.990  27.547  1.00  0.00    -0.352 N 
ATOM     28  C   UNL A   1      33.073  34.764  28.516  1.00  0.00     0.251 C 
ATOM     29  H   UNL A   1      31.846  34.457  26.966  1.00  0.00     0.163 HD
ATOM     30  O   UNL A   1      32.642  35.891  28.751  1.00  0.00    -0.269 OA
BRANCH  28  31
ATOM     31  C   UNL A   1      34.210  34.231  29.291  1.00  0.00     0.039 A 
ATOM     32  C   UNL A   1      33.958  33.464  30.430  1.00  0.00     0.014 A 
ATOM     33  C   UNL A   1      35.524  34.479  28.883  1.00  0.00     0.014 A 
ATOM     34  C   UNL A   1      35.025  32.893  31.124  1.00  0.00     0.010 A 
ATOM     35  C   UNL A   1      36.575  33.829  29.514  1.00  0.00     0.010 A 
ATOM     36  C   UNL A   1      36.338  33.042  30.650  1.00  0.00    -0.014 A 
BRANCH  36  37
ATOM     37  C   UNL A   1      37.486  32.402  31.336  1.00  0.00     0.031 A 
ATOM     38  C   UNL A   1      38.234  31.284  30.662  1.00  0.00     0.074 A 
ATOM     39  C   UNL A   1      37.813  32.779  32.586  1.00  0.00     0.049 A 
ATOM     40  N   UNL A   1      39.222  30.555  31.115  1.00  0.00    -0.248 NA
ATOM     41  C   UNL A   1      37.786  30.915  29.311  1.00  0.00     0.031 C 
ATOM     42  C   UNL A   1      37.137  33.823  33.358  1.00  0.00     0.029 A 
ATOM     43  N   UNL A   1      38.796  32.325  33.427  1.00  0.00    -0.354 N 
ATOM     44  C   UNL A   1      39.501  29.638  30.111  1.00  0.00     0.074 A 
ATOM     45  C   UNL A   1      38.532  29.852  29.060  1.00  0.00     0.031 C 
ATOM     46  C   UNL A   1      37.753  33.959  34.543  1.00  0.00     0.029 A 
ATOM     47  C   UNL A   1      38.835  32.983  34.632  1.00  0.00     0.049 A 
ATOM     48  H   UNL A   1      39.415  31.598  33.191  1.00  0.00     0.167 HD
ATOM     49  C   UNL A   1      40.496  28.719  30.057  1.00  0.00     0.037 A 
ATOM     50  C   UNL A   1      39.652  32.815  35.688  1.00  0.00     0.037 A 
ATOM     51  C   UNL A   1      41.463  28.519  31.104  1.00  0.00     0.049 A 
ATOM     52  C   UNL A   1      40.723  31.760  35.623  1.00  0.00     0.074 A 
ATOM     53  C   UNL A   1      42.540  27.652  31.132  1.00  0.00     0.029 A 
ATOM     54  N   UNL A   1      41.460  29.194  32.317  1.00  0.00    -0.354 N 
ATOM     55  N   UNL A   1      41.025  30.944  34.643  1.00  0.00    -0.248 NA
ATOM     56  C   UNL A   1      41.569  31.607  36.814  1.00  0.00     0.031 C 
ATOM     57  C   UNL A   1      43.155  27.761  32.385  1.00  0.00     0.029 A 
ATOM     58  C   UNL A   1      42.500  28.741  33.114  1.00  0.00     0.049 A 
ATOM     59  H   UNL A   1      40.815  29.893  32.574  1.00  0.00     0.167 HD
ATOM     60  C   UNL A   1      42.115  30.205  35.083  1.00  0.00     0.074 A 
ATOM     61  C   UNL A   1      42.426  30.678  36.416  1.00  0.00     0.031 C 
ATOM     62  C   UNL A   1      42.799  29.226  34.438  1.00  0.00     0.037 A 
BRANCH  49  63
ATOM     63  C   UNL A   1      40.568  27.860  28.825  1.00  0.00     0.064 A 
ATOM     64  C   UNL A   1      41.348  28.224  27.714  1.00  0.00     0.173 A 
ATOM     65  C   UNL A   1      39.838  26.665  28.744  1.00  0.00     0.173 A 
ATOM     66  F   UNL A   1      42.059  29.363  27.731  1.00  0.00    -0.203 F 
ATOM     67  C   UNL A   1      41.349  27.456  26.553  1.00  0.00     0.198 A 
ATOM     68  C   UNL A   1      39.873  25.879  27.596  1.00  0.00     0.198 A 
ATOM     69  F   UNL A   1      39.081  26.263  29.776  1.00  0.00    -0.203 F 
ATOM     70  F   UNL A   1      42.037  27.868  25.480  1.00  0.00    -0.200 F 
ATOM     71  C   UNL A   1      40.615  26.282  26.496  1.00  0.00     0.200 A 
ATOM     72  F   UNL A   1      39.175  24.735  27.547  1.00  0.00    -0.200 F 
ATOM     73  F   UNL A   1      40.612  25.545  25.376  1.00  0.00    -0.200 F 
ENDBRANCH  49  63
BRANCH  50  74
ATOM     74  C   UNL A   1      39.522  33.702  36.872  1.00  0.00     0.064 A 
ATOM     75  C   UNL A   1      40.176  34.942  36.907  1.00  0.00     0.173 A 
ATOM     76  C   UNL A   1      38.738  33.346  37.978  1.00  0.00     0.173 A 
ATOM     77  F   UNL A   1      40.953  35.318  35.881  1.00  0.00    -0.203 F 
ATOM     78  C   UNL A   1      40.061  35.787  38.009  1.00  0.00     0.198 A 
ATOM     79  C   UNL A   1      38.602  34.204  39.068  1.00  0.00     0.198 A 
ATOM     80  F   UNL A   1      38.087  32.174  37.992  1.00  0.00    -0.203 F 
ATOM     81  F   UNL A   1      40.728  36.949  38.032  1.00  0.00    -0.200 F 
ATOM     82  C   UNL A   1      39.269  35.420  39.085  1.00  0.00     0.200 A 
ATOM     83  F   UNL A   1      37.821  33.854  40.100  1.00  0.00    -0.200 F 
ATOM     84  F   UNL A   1      39.151  36.236  40.142  1.00  0.00    -0.200 F 
ENDBRANCH  50  74
BRANCH  62  85
ATOM     85  C   UNL A   1      43.980  28.630  35.150  1.00  0.00     0.064 A 
ATOM     86  C   UNL A   1      45.264  29.181  35.045  1.00  0.00     0.173 A 
ATOM     87  C   UNL A   1      43.812  27.510  35.981  1.00  0.00     0.173 A 
ATOM     88  F   UNL A   1      45.482  30.241  34.252  1.00  0.00    -0.203 F 
ATOM     89  C   UNL A   1      46.343  28.618  35.722  1.00  0.00     0.198 A 
ATOM     90  C   UNL A   1      44.886  26.971  36.684  1.00  0.00     0.198 A 
ATOM     91  F   UNL A   1      42.604  26.947  36.122  1.00  0.00    -0.203 F 
ATOM     92  F   UNL A   1      47.572  29.130  35.565  1.00  0.00    -0.200 F 
ATOM     93  C   UNL A   1      46.152  27.520  36.548  1.00  0.00     0.200 A 
ATOM     94  F   UNL A   1      44.694  25.920  37.493  1.00  0.00    -0.200 F 
ATOM     95  F   UNL A   1      47.189  26.985  37.206  1.00  0.00    -0.200 F 
ENDBRANCH  62  85
ENDBRANCH  36  37
ENDBRANCH  28  31
ENDBRANCH  26  27
ENDBRANCH  25  26
ENDBRANCH   1  25
TORSDOF 13
ENDMDL
MODEL 2
REMARK VINA RESULT:     -12.8      5.269     11.110
REMARK SMILES CC(=O)Nc1cccc(C(=O)N2CCCC[C@@H]2C(=O)NCCCNC(=O)c2ccc(-c3c4nc(c(-c5c(F)c(F)c(F)c(F)c5F)c5ccc([nH]5)c(-c5c(F)c(F)c(F)c(F)c5F)c5nc(c(-c6c(F)c(F)c(F)c(F)c6F)c6ccc3[nH]6)C=C5)C=C4)cc2)c1
REMARK SMILES IDX 21 1 20 2 18 3 19 4 17 6 12 7 13 8 14 9 16 10 15 11 10 12
REMARK SMILES IDX 11 13 9 14 5 15 6 16 90 17 7 18 8 19 4 20 1 21 2 22 3 23
REMARK SMILES IDX 22 25 23 26 24 27 25 28 26 30 27 31 28 32 89 33 29 34 88 35
REMARK SMILES IDX 30 36 31 37 32 38 82 39 33 40 87 41 81 42 83 43 34 44 86 45
REMARK SMILES IDX 80 46 79 47 35 49 67 50 47 51 66 52 48 53 51 54 65 55 84 56
REMARK SMILES IDX 49 57 50 58 64 60 85 61 52 62 36 63 37 64 45 65 38 66 39 67
REMARK SMILES IDX 43 68 46 69 40 70 41 71 44 72 42 73 68 74 69 75 77 76 70 77
REMARK SMILES IDX 71 78 75 79 78 80 72 81 73 82 76 83 74 84 53 85 54 86 62 87
REMARK SMILES IDX 55 88 56 89 60 90 63 91 57 92 58 93 61 94 59 95
REMARK H PARENT 20 5 4 24 24 29 83 48 51 59
REMARK Flexibility Score: inf
ROOT
ATOM      1  C   UNL A   1      36.747  20.595  25.001  1.00  0.00     0.117 C 
ENDROOT
BRANCH   1   2
ATOM      2  N   UNL A   1      37.003  21.953  25.444  1.00  0.00    -0.354 N 
ATOM      3  C   UNL A   1      36.126  22.943  25.762  1.00  0.00     0.242 C 
ATOM      4  O   UNL A   1      36.575  24.086  25.891  1.00  0.00    -0.273 OA
ATOM      5  H   UNL A   1      37.954  22.195  25.527  1.00  0.00     0.163 HD
BRANCH   3   6
ATOM      6  C   UNL A   1      34.605  22.687  25.824  1.00  0.00     0.174 C 
ATOM      7  N   UNL A   1      33.742  23.649  25.085  1.00  0.00    -0.327 N 
ATOM      8  C   UNL A   1      32.314  23.587  25.391  1.00  0.00     0.120 C 
ATOM      9  C   UNL A   1      32.031  23.678  26.878  1.00  0.00     0.022 C 
ATOM     10  C   UNL A   1      34.255  22.636  27.333  1.00  0.00     0.035 C 
ATOM     11  C   UNL A   1      32.762  22.572  27.620  1.00  0.00     0.004 C 
BRANCH   7  12
ATOM     12  C   UNL A   1      34.058  24.355  23.912  1.00  0.00     0.254 C 
ATOM     13  O   UNL A   1      34.577  23.795  22.946  1.00  0.00    -0.269 OA
BRANCH  12  14
ATOM     14  C   UNL A   1      33.808  25.811  23.771  1.00  0.00     0.042 A 
ATOM     15  C   UNL A   1      33.869  28.053  24.699  1.00  0.00     0.041 A 
ATOM     16  C   UNL A   1      33.478  28.559  23.453  1.00  0.00     0.026 A 
ATOM     17  C   UNL A   1      34.040  26.679  24.841  1.00  0.00     0.040 A 
ATOM     18  C   UNL A   1      33.299  27.705  22.360  1.00  0.00     0.003 A 
ATOM     19  C   UNL A   1      33.467  26.331  22.518  1.00  0.00     0.014 A 
BRANCH  15  20
ATOM     20  N   UNL A   1      34.016  28.969  25.754  1.00  0.00    -0.326 N 
ATOM     21  C   UNL A   1      31.871  28.673  27.004  1.00  0.00     0.114 C 
ATOM     22  C   UNL A   1      33.154  29.404  26.720  1.00  0.00     0.221 C 
ATOM     23  O   UNL A   1      33.474  30.383  27.400  1.00  0.00    -0.275 OA
ATOM     24  H   UNL A   1      34.911  29.374  25.808  1.00  0.00     0.169 HD
ENDBRANCH  15  20
ENDBRANCH  12  14
ENDBRANCH   7  12
ENDBRANCH   3   6
ENDBRANCH   1   2
BRANCH   1  25
ATOM     25  C   UNL A   1      38.048  19.837  24.782  1.00  0.00     0.042 C 
BRANCH  25  26
ATOM     26  C   UNL A   1      39.147  20.241  25.750  1.00  0.00     0.118 C 
BRANCH  26  27
ATOM     27  N   UNL A   1      40.135  19.186  25.942  1.00  0.00    -0.352 N 
ATOM     28  C   UNL A   1      41.489  19.285  26.126  1.00  0.00     0.251 C 
ATOM     29  H   UNL A   1      39.776  18.270  25.941  1.00  0.00     0.163 HD
ATOM     30  O   UNL A   1      42.196  18.281  26.071  1.00  0.00    -0.269 OA
BRANCH  28  31
ATOM     31  C   UNL A   1      42.099  20.606  26.372  1.00  0.00     0.039 A 
ATOM     32  C   UNL A   1      42.499  21.384  25.283  1.00  0.00     0.014 A 
ATOM     33  C   UNL A   1      42.263  21.079  27.677  1.00  0.00     0.014 A 
ATOM     34  C   UNL A   1      43.006  22.665  25.504  1.00  0.00     0.010 A 
ATOM     35  C   UNL A   1      42.671  22.389  27.888  1.00  0.00     0.010 A 
ATOM     36  C   UNL A   1      43.062  23.190  26.805  1.00  0.00    -0.014 A 
BRANCH  36  37
ATOM     37  C   UNL A   1      43.545  24.567  27.064  1.00  0.00     0.031 A 
ATOM     38  C   UNL A   1      42.594  25.609  27.584  1.00  0.00     0.074 A 
ATOM     39  C   UNL A   1      44.817  24.896  26.771  1.00  0.00     0.049 A 
ATOM     40  N   UNL A   1      42.802  26.881  27.816  1.00  0.00    -0.248 NA
ATOM     41  C   UNL A   1      41.215  25.170  27.844  1.00  0.00     0.031 C 
ATOM     42  C   UNL A   1      45.822  23.982  26.225  1.00  0.00     0.029 A 
ATOM     43  N   UNL A   1      45.480  26.090  26.890  1.00  0.00    -0.354 N 
ATOM     44  C   UNL A   1      41.580  27.389  28.236  1.00  0.00     0.074 A 
ATOM     45  C   UNL A   1      40.621  26.311  28.153  1.00  0.00     0.031 C 
ATOM     46  C   UNL A   1      46.986  24.639  26.096  1.00  0.00     0.029 A 
ATOM     47  C   UNL A   1      46.797  26.027  26.506  1.00  0.00     0.049 A 
ATOM     48  H   UNL A   1      45.055  26.913  27.218  1.00  0.00     0.167 HD
ATOM     49  C   UNL A   1      41.289  28.637  28.679  1.00  0.00     0.037 A 
ATOM     50  C   UNL A   1      47.744  26.983  26.488  1.00  0.00     0.037 A 
ATOM     51  C   UNL A   1      42.252  29.703  28.767  1.00  0.00     0.049 A 
ATOM     52  C   UNL A   1      47.389  28.372  26.945  1.00  0.00     0.074 A 
ATOM     53  C   UNL A   1      42.078  30.988  29.247  1.00  0.00     0.029 A 
ATOM     54  N   UNL A   1      43.574  29.605  28.354  1.00  0.00    -0.354 N 
ATOM     55  N   UNL A   1      46.250  28.828  27.405  1.00  0.00    -0.248 NA
ATOM     56  C   UNL A   1      48.456  29.379  26.880  1.00  0.00     0.031 C 
ATOM     57  C   UNL A   1      43.279  31.685  29.071  1.00  0.00     0.029 A 
ATOM     58  C   UNL A   1      44.220  30.818  28.540  1.00  0.00     0.049 A 
ATOM     59  H   UNL A   1      43.993  28.794  27.984  1.00  0.00     0.167 HD
ATOM     60  C   UNL A   1      46.470  30.163  27.718  1.00  0.00     0.074 A 
ATOM     61  C   UNL A   1      47.856  30.439  27.402  1.00  0.00     0.031 C 
ATOM     62  C   UNL A   1      45.603  31.075  28.225  1.00  0.00     0.037 A 
BRANCH  49  63
ATOM     63  C   UNL A   1      39.867  28.904  29.087  1.00  0.00     0.064 A 
ATOM     64  C   UNL A   1      39.433  28.731  30.412  1.00  0.00     0.173 A 
ATOM     65  C   UNL A   1      38.921  29.325  28.141  1.00  0.00     0.173 A 
ATOM     66  F   UNL A   1      40.293  28.319  31.357  1.00  0.00    -0.203 F 
ATOM     67  C   UNL A   1      38.098  28.914  30.761  1.00  0.00     0.198 A 
ATOM     68  C   UNL A   1      37.594  29.545  28.502  1.00  0.00     0.198 A 
ATOM     69  F   UNL A   1      39.278  29.515  26.862  1.00  0.00    -0.203 F 
ATOM     70  F   UNL A   1      37.694  28.663  32.014  1.00  0.00    -0.200 F 
ATOM     71  C   UNL A   1      37.179  29.324  29.807  1.00  0.00     0.200 A 
ATOM     72  F   UNL A   1      36.710  29.958  27.582  1.00  0.00    -0.200 F 
ATOM     73  F   UNL A   1      35.894  29.495  30.142  1.00  0.00    -0.200 F 
ENDBRANCH  49  63
BRANCH  50  74
ATOM     74  C   UNL A   1      49.129  26.644  26.073  1.00  0.00     0.064 A 
ATOM     75  C   UNL A   1      50.026  26.070  26.986  1.00  0.00     0.173 A 
ATOM     76  C   UNL A   1      49.583  26.867  24.765  1.00  0.00     0.173 A 
ATOM     77  F   UNL A   1      49.644  25.856  28.253  1.00  0.00    -0.203 F 
ATOM     78  C   UNL A   1      51.327  25.744  26.610  1.00  0.00     0.198 A 
ATOM     79  C   UNL A   1      50.876  26.516  24.383  1.00  0.00     0.198 A 
ATOM     80  F   UNL A   1      48.764  27.409  23.852  1.00  0.00    -0.203 F 
ATOM     81  F   UNL A   1      52.174  25.232  27.513  1.00  0.00    -0.200 F 
ATOM     82  C   UNL A   1      51.749  25.961  25.308  1.00  0.00     0.200 A 
ATOM     83  F   UNL A   1      51.276  26.710  23.119  1.00  0.00    -0.200 F 
ATOM     84  F   UNL A   1      52.998  25.639  24.944  1.00  0.00    -0.200 F 
ENDBRANCH  50  74
BRANCH  62  85
ATOM     85  C   UNL A   1      46.140  32.449  28.510  1.00  0.00     0.064 A 
ATOM     86  C   UNL A   1      46.084  33.478  27.560  1.00  0.00     0.173 A 
ATOM     87  C   UNL A   1      46.686  32.747  29.769  1.00  0.00     0.173 A 
ATOM     88  F   UNL A   1      45.587  33.242  26.336  1.00  0.00    -0.203 F 
ATOM     89  C   UNL A   1      46.578  34.748  27.850  1.00  0.00     0.198 A 
ATOM     90  C   UNL A   1      47.147  34.026  30.067  1.00  0.00     0.198 A 
ATOM     91  F   UNL A   1      46.759  31.800  30.717  1.00  0.00    -0.203 F 
ATOM     92  F   UNL A   1      46.562  35.702  26.908  1.00  0.00    -0.200 F 
ATOM     93  C   UNL A   1      47.101  35.023  29.105  1.00  0.00     0.200 A 
ATOM     94  F   UNL A   1      47.637  34.292  31.286  1.00  0.00    -0.200 F 
ATOM     95  F   UNL A   1      47.568  36.247  29.385  1.00  0.00    -0.200 F 
ENDBRANCH  62  85
ENDBRANCH  36  37
ENDBRANCH  28  31
ENDBRANCH  26  27
ENDBRANCH  25  26
ENDBRANCH   1  25
TORSDOF 13
ENDMDL
MODEL 3
REMARK VINA RESULT:     -12.8      0.182      1.594
REMARK SMILES CC(=O)Nc1cccc(C(=O)N2CCCC[C@@H]2C(=O)NCCCNC(=O)c2ccc(-c3c4nc(c(-c5c(F)c(F)c(F)c(F)c5F)c5ccc([nH]5)c(-c5c(F)c(F)c(F)c(F)c5F)c5nc(c(-c6c(F)c(F)c(F)c(F)c6F)c6ccc3[nH]6)C=C5)C=C4)cc2)c1
REMARK SMILES IDX 21 1 20 2 18 3 19 4 17 6 12 7 13 8 14 9 16 10 15 11 10 12
REMARK SMILES IDX 11 13 9 14 5 15 6 16 90 17 7 18 8 19 4 20 1 21 2 22 3 23
REMARK SMILES IDX 22 25 23 26 24 27 25 28 26 30 27 31 28 32 89 33 29 34 88 35
REMARK SMILES IDX 30 36 31 37 32 38 82 39 33 40 87 41 81 42 83 43 34 44 86 45
REMARK SMILES IDX 80 46 79 47 35 49 67 50 47 51 66 52 48 53 51 54 65 55 84 56
REMARK SMILES IDX 49 57 50 58 64 60 85 61 52 62 36 63 37 64 45 65 38 66 39 67
REMARK SMILES IDX 43 68 46 69 40 70 41 71 44 72 42 73 68 74 69 75 77 76 70 77
REMARK SMILES IDX 71 78 75 79 78 80 72 81 73 82 76 83 74 84 53 85 54 86 62 87
REMARK SMILES IDX 55 88 56 89 60 90 63 91 57 92 58 93 61 94 59 95
REMARK H PARENT 20 5 4 24 24 29 83 48 51 59
REMARK Flexibility Score: inf
ROOT
ATOM      1  C   UNL A   1      31.612  30.724  25.998  1.00  0.00     0.117 C 
ENDROOT
BRANCH   1   2
ATOM      2  N   UNL A   1      32.832  30.051  26.403  1.00  0.00    -0.354 N 
ATOM      3  C   UNL A   1      33.421  28.937  25.890  1.00  0.00     0.242 C 
ATOM      4  O   UNL A   1      34.331  28.418  26.544  1.00  0.00    -0.273 OA
ATOM      5  H   UNL A   1      33.305  30.462  27.162  1.00  0.00     0.163 HD
BRANCH   3   6
ATOM      6  C   UNL A   1      32.888  28.256  24.611  1.00  0.00     0.174 C 
ATOM      7  N   UNL A   1      32.624  26.794  24.702  1.00  0.00    -0.327 N 
ATOM      8  C   UNL A   1      32.417  26.105  23.430  1.00  0.00     0.120 C 
ATOM      9  C   UNL A   1      33.532  26.367  22.436  1.00  0.00     0.022 C 
ATOM     10  C   UNL A   1      33.920  28.591  23.504  1.00  0.00     0.035 C 
ATOM     11  C   UNL A   1      33.678  27.859  22.192  1.00  0.00     0.004 C 
BRANCH   7  12
ATOM     12  C   UNL A   1      32.218  26.066  25.833  1.00  0.00     0.254 C 
ATOM     13  O   UNL A   1      31.324  26.479  26.575  1.00  0.00    -0.269 OA
BRANCH  12  14
ATOM     14  C   UNL A   1      32.845  24.777  26.215  1.00  0.00     0.042 A 
ATOM     15  C   UNL A   1      34.829  23.411  26.509  1.00  0.00     0.041 A 
ATOM     16  C   UNL A   1      34.032  22.408  27.073  1.00  0.00     0.026 A 
ATOM     17  C   UNL A   1      34.224  24.594  26.093  1.00  0.00     0.040 A 
ATOM     18  C   UNL A   1      32.659  22.603  27.253  1.00  0.00     0.003 A 
ATOM     19  C   UNL A   1      32.065  23.789  26.826  1.00  0.00     0.014 A 
BRANCH  15  20
ATOM     20  N   UNL A   1      36.198  23.138  26.346  1.00  0.00    -0.326 N 
ATOM     21  C   UNL A   1      36.333  22.575  23.914  1.00  0.00     0.114 C 
ATOM     22  C   UNL A   1      36.918  22.640  25.298  1.00  0.00     0.221 C 
ATOM     23  O   UNL A   1      38.086  22.294  25.495  1.00  0.00    -0.275 OA
ATOM     24  H   UNL A   1      36.742  23.347  27.139  1.00  0.00     0.169 HD
ENDBRANCH  15  20
ENDBRANCH  12  14
ENDBRANCH   7  12
ENDBRANCH   3   6
ENDBRANCH   1   2
BRANCH   1  25
ATOM     25  C   UNL A   1      31.377  31.976  26.829  1.00  0.00     0.042 C 
BRANCH  25  26
ATOM     26  C   UNL A   1      32.661  32.703  27.195  1.00  0.00     0.118 C 
BRANCH  26  27
ATOM     27  N   UNL A   1      32.429  34.098  27.546  1.00  0.00    -0.352 N 
ATOM     28  C   UNL A   1      32.996  34.850  28.542  1.00  0.00     0.251 C 
ATOM     29  H   UNL A   1      31.771  34.569  26.986  1.00  0.00     0.163 HD
ATOM     30  O   UNL A   1      32.535  35.955  28.822  1.00  0.00    -0.269 OA
BRANCH  28  31
ATOM     31  C   UNL A   1      34.152  34.320  29.290  1.00  0.00     0.039 A 
ATOM     32  C   UNL A   1      33.929  33.595  30.463  1.00  0.00     0.014 A 
ATOM     33  C   UNL A   1      35.454  34.528  28.826  1.00  0.00     0.014 A 
ATOM     34  C   UNL A   1      35.011  33.025  31.136  1.00  0.00     0.010 A 
ATOM     35  C   UNL A   1      36.515  33.877  29.438  1.00  0.00     0.010 A 
ATOM     36  C   UNL A   1      36.307  33.132  30.608  1.00  0.00    -0.014 A 
BRANCH  36  37
ATOM     37  C   UNL A   1      37.468  32.491  31.271  1.00  0.00     0.031 A 
ATOM     38  C   UNL A   1      38.201  31.373  30.583  1.00  0.00     0.074 A 
ATOM     39  C   UNL A   1      37.820  32.869  32.514  1.00  0.00     0.049 A 
ATOM     40  N   UNL A   1      39.197  30.643  31.017  1.00  0.00    -0.248 NA
ATOM     41  C   UNL A   1      37.726  31.003  29.241  1.00  0.00     0.031 C 
ATOM     42  C   UNL A   1      37.161  33.914  33.299  1.00  0.00     0.029 A 
ATOM     43  N   UNL A   1      38.819  32.415  33.336  1.00  0.00    -0.354 N 
ATOM     44  C   UNL A   1      39.456  29.725  30.008  1.00  0.00     0.074 A 
ATOM     45  C   UNL A   1      38.466  29.939  28.976  1.00  0.00     0.031 C 
ATOM     46  C   UNL A   1      37.800  34.050  34.471  1.00  0.00     0.029 A 
ATOM     47  C   UNL A   1      38.883  33.073  34.539  1.00  0.00     0.049 A 
ATOM     48  H   UNL A   1      39.433  31.687  33.088  1.00  0.00     0.167 HD
ATOM     49  C   UNL A   1      40.449  28.805  29.934  1.00  0.00     0.037 A 
ATOM     50  C   UNL A   1      39.721  32.904  35.579  1.00  0.00     0.037 A 
ATOM     51  C   UNL A   1      41.436  28.605  30.962  1.00  0.00     0.049 A 
ATOM     52  C   UNL A   1      40.789  31.849  35.493  1.00  0.00     0.074 A 
ATOM     53  C   UNL A   1      42.513  27.737  30.969  1.00  0.00     0.029 A 
ATOM     54  N   UNL A   1      41.458  29.281  32.174  1.00  0.00    -0.354 N 
ATOM     55  N   UNL A   1      41.071  31.032  34.507  1.00  0.00    -0.248 NA
ATOM     56  C   UNL A   1      41.659  31.696  36.667  1.00  0.00     0.031 C 
ATOM     57  C   UNL A   1      43.153  27.847  32.209  1.00  0.00     0.029 A 
ATOM     58  C   UNL A   1      42.513  28.827  32.951  1.00  0.00     0.049 A 
ATOM     59  H   UNL A   1      40.819  29.980  32.444  1.00  0.00     0.167 HD
ATOM     60  C   UNL A   1      42.169  30.292  34.926  1.00  0.00     0.074 A 
ATOM     61  C   UNL A   1      42.507  30.766  36.253  1.00  0.00     0.031 C 
ATOM     62  C   UNL A   1      42.839  29.313  34.269  1.00  0.00     0.037 A 
BRANCH  49  63
ATOM     63  C   UNL A   1      40.496  27.946  28.701  1.00  0.00     0.064 A 
ATOM     64  C   UNL A   1      39.810  26.721  28.627  1.00  0.00     0.173 A 
ATOM     65  C   UNL A   1      41.246  28.342  27.584  1.00  0.00     0.173 A 
ATOM     66  F   UNL A   1      39.086  26.288  29.670  1.00  0.00    -0.203 F 
ATOM     67  C   UNL A   1      39.920  25.903  27.506  1.00  0.00     0.198 A 
ATOM     68  C   UNL A   1      41.321  27.538  26.449  1.00  0.00     0.198 A 
ATOM     69  F   UNL A   1      41.915  29.504  27.594  1.00  0.00    -0.203 F 
ATOM     70  F   UNL A   1      39.323  24.704  27.494  1.00  0.00    -0.200 F 
ATOM     71  C   UNL A   1      40.673  26.313  26.416  1.00  0.00     0.200 A 
ATOM     72  F   UNL A   1      42.036  27.943  25.390  1.00  0.00    -0.200 F 
ATOM     73  F   UNL A   1      40.782  25.523  25.340  1.00  0.00    -0.200 F 
ENDBRANCH  49  63
BRANCH  50  74
ATOM     74  C   UNL A   1      39.615  33.793  36.765  1.00  0.00     0.064 A 
ATOM     75  C   UNL A   1      40.286  35.024  36.794  1.00  0.00     0.173 A 
ATOM     76  C   UNL A   1      38.838  33.446  37.879  1.00  0.00     0.173 A 
ATOM     77  F   UNL A   1      41.057  35.390  35.759  1.00  0.00    -0.203 F 
ATOM     78  C   UNL A   1      40.194  35.869  37.898  1.00  0.00     0.198 A 
ATOM     79  C   UNL A   1      38.725  34.305  38.971  1.00  0.00     0.198 A 
ATOM     80  F   UNL A   1      38.172  32.283  37.899  1.00  0.00    -0.203 F 
ATOM     81  F   UNL A   1      40.876  37.022  37.914  1.00  0.00    -0.200 F 
ATOM     82  C   UNL A   1      39.408  35.512  38.982  1.00  0.00     0.200 A 
ATOM     83  F   UNL A   1      37.951  33.965  40.011  1.00  0.00    -0.200 F 
ATOM     84  F   UNL A   1      39.312  36.329  40.041  1.00  0.00    -0.200 F 
ENDBRANCH  50  74
BRANCH  62  85
ATOM     85  C   UNL A   1      44.033  28.715  34.957  1.00  0.00     0.064 A 
ATOM     86  C   UNL A   1      43.928  27.576  35.768  1.00  0.00     0.173 A 
ATOM     87  C   UNL A   1      45.308  29.273  34.772  1.00  0.00     0.173 A 
ATOM     88  F   UNL A   1      42.730  27.014  35.991  1.00  0.00    -0.203 F 
ATOM     89  C   UNL A   1      45.049  27.032  36.389  1.00  0.00     0.198 A 
ATOM     90  C   UNL A   1      46.433  28.706  35.365  1.00  0.00     0.198 A 
ATOM     91  F   UNL A   1      45.467  30.359  34.002  1.00  0.00    -0.203 F 
ATOM     92  F   UNL A   1      44.917  25.975  37.201  1.00  0.00    -0.200 F 
ATOM     93  C   UNL A   1      46.301  27.592  36.180  1.00  0.00     0.200 A 
ATOM     94  F   UNL A   1      47.643  29.240  35.149  1.00  0.00    -0.200 F 
ATOM     95  F   UNL A   1      47.381  27.062  36.770  1.00  0.00    -0.200 F 
ENDBRANCH  62  85
ENDBRANCH  36  37
ENDBRANCH  28  31
ENDBRANCH  26  27
ENDBRANCH  25  26
ENDBRANCH   1  25
TORSDOF 13
ENDMDL
