MODEL 1
REMARK VINA RESULT:     -12.9      0.000      0.000
REMARK SMILES O=C1NC(=S)/C(=C/c2ccc(-c3ccc(C(=O)NCCCNC(=O)c4ccc(-c5c6nc(c(-c7c(F)c(F)c(F)c(F)c7F)c7ccc([nH]7)c(-c7c(F)c(F)c(F)c(F)c7F)c7nc(c(-c8c(F)c(F)c(F)c(F)c8F)c8ccc5[nH]8)C=C7)C=C6)cc4)cc3)o2)S1
REMARK SMILES IDX 20 1 19 2 18 3 16 4 17 5 15 7 12 8 13 9 89 10 14 11 88 12
REMARK SMILES IDX 11 13 8 14 9 15 90 16 10 17 7 18 1 19 2 20 3 21 91 22 4 23
REMARK SMILES IDX 6 25 5 26 21 27 22 28 23 29 24 31 25 32 26 33 87 34 27 35
REMARK SMILES IDX 86 36 28 37 29 38 30 39 80 40 31 41 85 42 79 43 81 44 32 45
REMARK SMILES IDX 84 46 78 47 77 48 33 50 65 51 45 52 64 53 46 54 49 55 63 56
REMARK SMILES IDX 82 57 47 58 48 59 62 61 83 62 50 63 34 64 35 65 43 66 36 67
REMARK SMILES IDX 37 68 41 69 44 70 38 71 39 72 42 73 40 74 66 75 67 76 75 77
REMARK SMILES IDX 68 78 69 79 73 80 76 81 70 82 71 83 74 84 72 85 51 86 52 87
REMARK SMILES IDX 60 88 53 89 54 90 58 91 61 92 55 93 56 94 59 95 57 96
REMARK H PARENT 18 6 3 24 22 30 81 49 49 60
REMARK Flexibility Score: inf
ROOT
ATOM      1  C   UNL A   1      42.660  18.494  26.717  1.00  0.00     0.042 C 
ENDROOT
BRANCH   1   2
ATOM      2  C   UNL A   1      41.728  19.267  27.650  1.00  0.00     0.118 C 
BRANCH   2   3
ATOM      3  N   UNL A   1      42.318  20.537  28.032  1.00  0.00    -0.352 N 
ATOM      4  C   UNL A   1      41.884  21.833  27.901  1.00  0.00     0.251 C 
ATOM      5  O   UNL A   1      42.596  22.723  28.365  1.00  0.00    -0.269 OA
ATOM      6  H   UNL A   1      43.197  20.454  28.468  1.00  0.00     0.163 HD
BRANCH   4   7
ATOM      7  C   UNL A   1      40.576  22.191  27.286  1.00  0.00     0.039 A 
ATOM      8  C   UNL A   1      38.208  22.799  25.896  1.00  0.00     0.017 A 
ATOM      9  C   UNL A   1      38.778  21.530  25.781  1.00  0.00     0.013 A 
ATOM     10  C   UNL A   1      38.778  23.729  26.767  1.00  0.00     0.013 A 
ATOM     11  C   UNL A   1      39.963  21.233  26.465  1.00  0.00     0.014 A 
ATOM     12  C   UNL A   1      39.931  23.412  27.484  1.00  0.00     0.014 A 
BRANCH   8  13
ATOM     13  C   UNL A   1      37.069  23.199  25.100  1.00  0.00     0.134 A 
ATOM     14  C   UNL A   1      35.235  24.379  24.742  1.00  0.00     0.128 A 
ATOM     15  C   UNL A   1      35.525  23.680  23.576  1.00  0.00     0.051 A 
ATOM     16  O   UNL A   1      36.210  24.082  25.667  1.00  0.00    -0.457 OA
ATOM     17  C   UNL A   1      36.688  22.917  23.810  1.00  0.00     0.051 A 
BRANCH  14  18
ATOM     18  C   UNL A   1      34.169  25.273  25.016  1.00  0.00     0.065 C 
ATOM     19  O   UNL A   1      30.376  23.054  27.484  1.00  0.00    -0.261 OA
ATOM     20  C   UNL A   1      31.134  23.788  26.881  1.00  0.00     0.289 C 
ATOM     21  N   UNL A   1      30.927  25.104  26.606  1.00  0.00    -0.307 N 
ATOM     22  S   UNL A   1      32.671  23.297  26.219  1.00  0.00    -0.025 SA
ATOM     23  C   UNL A   1      31.890  25.797  25.919  1.00  0.00     0.120 C 
ATOM     24  H   UNL A   1      30.099  25.551  26.896  1.00  0.00     0.171 HD
ATOM     25  C   UNL A   1      33.035  24.887  25.619  1.00  0.00     0.056 C 
ATOM     26  S   UNL A   1      31.663  27.403  25.537  1.00  0.00    -0.059 S 
ENDBRANCH  14  18
ENDBRANCH   8  13
ENDBRANCH   4   7
ENDBRANCH   2   3
ENDBRANCH   1   2
BRANCH   1  27
ATOM     27  C   UNL A   1      42.809  19.152  25.350  1.00  0.00     0.118 C 
BRANCH  27  28
ATOM     28  N   UNL A   1      44.079  18.812  24.724  1.00  0.00    -0.352 N 
ATOM     29  C   UNL A   1      45.109  19.623  24.321  1.00  0.00     0.251 C 
ATOM     30  H   UNL A   1      44.219  17.851  24.563  1.00  0.00     0.163 HD
ATOM     31  O   UNL A   1      45.984  19.172  23.588  1.00  0.00    -0.269 OA
BRANCH  29  32
ATOM     32  C   UNL A   1      45.169  21.032  24.760  1.00  0.00     0.039 A 
ATOM     33  C   UNL A   1      45.496  21.309  26.090  1.00  0.00     0.014 A 
ATOM     34  C   UNL A   1      44.866  22.075  23.881  1.00  0.00     0.014 A 
ATOM     35  C   UNL A   1      45.569  22.633  26.523  1.00  0.00     0.010 A 
ATOM     36  C   UNL A   1      45.020  23.396  24.292  1.00  0.00     0.010 A 
ATOM     37  C   UNL A   1      45.365  23.688  25.619  1.00  0.00    -0.014 A 
BRANCH  37  38
ATOM     38  C   UNL A   1      45.511  25.104  26.044  1.00  0.00     0.031 A 
ATOM     39  C   UNL A   1      46.853  25.777  25.989  1.00  0.00     0.074 A 
ATOM     40  C   UNL A   1      44.442  25.759  26.536  1.00  0.00     0.049 A 
ATOM     41  N   UNL A   1      47.193  26.980  26.379  1.00  0.00    -0.248 NA
ATOM     42  C   UNL A   1      47.971  24.986  25.448  1.00  0.00     0.031 C 
ATOM     43  C   UNL A   1      43.099  25.196  26.679  1.00  0.00     0.029 A 
ATOM     44  N   UNL A   1      44.318  27.038  27.018  1.00  0.00    -0.354 N 
ATOM     45  C   UNL A   1      48.557  27.084  26.142  1.00  0.00     0.074 A 
ATOM     46  C   UNL A   1      48.996  25.805  25.628  1.00  0.00     0.031 C 
ATOM     47  C   UNL A   1      42.281  26.132  27.189  1.00  0.00     0.029 A 
ATOM     48  C   UNL A   1      43.051  27.342  27.454  1.00  0.00     0.049 A 
ATOM     49  H   UNL A   1      45.066  27.678  27.048  1.00  0.00     0.167 HD
ATOM     50  C   UNL A   1      49.365  28.158  26.316  1.00  0.00     0.037 A 
ATOM     51  C   UNL A   1      42.569  28.466  28.018  1.00  0.00     0.037 A 
ATOM     52  C   UNL A   1      48.916  29.432  26.813  1.00  0.00     0.049 A 
ATOM     53  C   UNL A   1      43.495  29.634  28.222  1.00  0.00     0.074 A 
ATOM     54  C   UNL A   1      49.643  30.598  26.976  1.00  0.00     0.029 A 
ATOM     55  N   UNL A   1      47.623  29.705  27.236  1.00  0.00    -0.354 N 
ATOM     56  N   UNL A   1      44.768  29.745  27.928  1.00  0.00    -0.248 NA
ATOM     57  C   UNL A   1      42.914  30.840  28.830  1.00  0.00     0.031 C 
ATOM     58  C   UNL A   1      48.806  31.558  27.554  1.00  0.00     0.029 A 
ATOM     59  C   UNL A   1      47.539  31.013  27.686  1.00  0.00     0.049 A 
ATOM     60  H   UNL A   1      46.876  29.065  27.218  1.00  0.00     0.167 HD
ATOM     61  C   UNL A   1      45.131  31.038  28.281  1.00  0.00     0.074 A 
ATOM     62  C   UNL A   1      43.940  31.679  28.797  1.00  0.00     0.031 C 
ATOM     63  C   UNL A   1      46.342  31.641  28.184  1.00  0.00     0.037 A 
BRANCH  50  64
ATOM     64  C   UNL A   1      50.819  28.002  25.970  1.00  0.00     0.064 A 
ATOM     65  C   UNL A   1      51.285  28.149  24.653  1.00  0.00     0.173 A 
ATOM     66  C   UNL A   1      51.768  27.754  26.974  1.00  0.00     0.173 A 
ATOM     67  F   UNL A   1      50.421  28.378  23.652  1.00  0.00    -0.203 F 
ATOM     68  C   UNL A   1      52.638  28.022  24.353  1.00  0.00     0.198 A 
ATOM     69  C   UNL A   1      53.124  27.662  26.675  1.00  0.00     0.198 A 
ATOM     70  F   UNL A   1      51.380  27.612  28.251  1.00  0.00    -0.203 F 
ATOM     71  F   UNL A   1      53.052  28.116  23.081  1.00  0.00    -0.200 F 
ATOM     72  C   UNL A   1      53.558  27.789  25.363  1.00  0.00     0.200 A 
ATOM     73  F   UNL A   1      54.013  27.453  27.655  1.00  0.00    -0.200 F 
ATOM     74  F   UNL A   1      54.862  27.680  25.074  1.00  0.00    -0.200 F 
ENDBRANCH  50  64
BRANCH  51  75
ATOM     75  C   UNL A   1      41.139  28.546  28.419  1.00  0.00     0.064 A 
ATOM     76  C   UNL A   1      40.162  28.993  27.519  1.00  0.00     0.173 A 
ATOM     77  C   UNL A   1      40.720  28.193  29.710  1.00  0.00     0.173 A 
ATOM     78  F   UNL A   1      40.512  29.359  26.276  1.00  0.00    -0.203 F 
ATOM     79  C   UNL A   1      38.828  29.116  27.904  1.00  0.00     0.198 A 
ATOM     80  C   UNL A   1      39.381  28.281  30.084  1.00  0.00     0.198 A 
ATOM     81  F   UNL A   1      41.613  27.750  30.608  1.00  0.00    -0.203 F 
ATOM     82  F   UNL A   1      37.926  29.602  27.041  1.00  0.00    -0.200 F 
ATOM     83  C   UNL A   1      38.438  28.754  29.185  1.00  0.00     0.200 A 
ATOM     84  F   UNL A   1      39.006  27.913  31.316  1.00  0.00    -0.200 F 
ATOM     85  F   UNL A   1      37.156  28.870  29.555  1.00  0.00    -0.200 F 
ENDBRANCH  51  75
BRANCH  63  86
ATOM     86  C   UNL A   1      46.430  33.083  28.597  1.00  0.00     0.064 A 
ATOM     87  C   UNL A   1      46.772  33.462  29.904  1.00  0.00     0.173 A 
ATOM     88  C   UNL A   1      46.210  34.101  27.656  1.00  0.00     0.173 A 
ATOM     89  F   UNL A   1      46.979  32.529  30.845  1.00  0.00    -0.203 F 
ATOM     90  C   UNL A   1      46.861  34.806  30.259  1.00  0.00     0.198 A 
ATOM     91  C   UNL A   1      46.337  35.443  28.006  1.00  0.00     0.198 A 
ATOM     92  F   UNL A   1      45.889  33.795  26.390  1.00  0.00    -0.203 F 
ATOM     93  F   UNL A   1      47.134  35.144  31.526  1.00  0.00    -0.200 F 
ATOM     94  C   UNL A   1      46.652  35.794  29.308  1.00  0.00     0.200 A 
ATOM     95  F   UNL A   1      46.153  36.395  27.080  1.00  0.00    -0.200 F 
ATOM     96  F   UNL A   1      46.749  37.085  29.650  1.00  0.00    -0.200 F 
ENDBRANCH  63  86
ENDBRANCH  37  38
ENDBRANCH  29  32
ENDBRANCH  27  28
ENDBRANCH   1  27
TORSDOF 12
ENDMDL
MODEL 2
REMARK VINA RESULT:     -12.5      2.595      8.132
REMARK SMILES O=C1NC(=S)/C(=C/c2ccc(-c3ccc(C(=O)NCCCNC(=O)c4ccc(-c5c6nc(c(-c7c(F)c(F)c(F)c(F)c7F)c7ccc([nH]7)c(-c7c(F)c(F)c(F)c(F)c7F)c7nc(c(-c8c(F)c(F)c(F)c(F)c8F)c8ccc5[nH]8)C=C7)C=C6)cc4)cc3)o2)S1
REMARK SMILES IDX 20 1 19 2 18 3 16 4 17 5 15 7 12 8 13 9 89 10 14 11 88 12
REMARK SMILES IDX 11 13 8 14 9 15 90 16 10 17 7 18 1 19 2 20 3 21 91 22 4 23
REMARK SMILES IDX 6 25 5 26 21 27 22 28 23 29 24 31 25 32 26 33 87 34 27 35
REMARK SMILES IDX 86 36 28 37 29 38 30 39 80 40 31 41 85 42 79 43 81 44 32 45
REMARK SMILES IDX 84 46 78 47 77 48 33 50 65 51 45 52 64 53 46 54 49 55 63 56
REMARK SMILES IDX 82 57 47 58 48 59 62 61 83 62 50 63 34 64 35 65 43 66 36 67
REMARK SMILES IDX 37 68 41 69 44 70 38 71 39 72 42 73 40 74 66 75 67 76 75 77
REMARK SMILES IDX 68 78 69 79 73 80 76 81 70 82 71 83 74 84 72 85 51 86 52 87
REMARK SMILES IDX 60 88 53 89 54 90 58 91 61 92 55 93 56 94 59 95 57 96
REMARK H PARENT 18 6 3 24 22 30 81 49 49 60
REMARK Flexibility Score: inf
ROOT
ATOM      1  C   UNL A   1      37.985  19.476  24.925  1.00  0.00     0.042 C 
ENDROOT
BRANCH   1   2
ATOM      2  C   UNL A   1      36.738  20.358  24.974  1.00  0.00     0.118 C 
BRANCH   2   3
ATOM      3  N   UNL A   1      35.543  19.552  25.155  1.00  0.00    -0.352 N 
ATOM      4  C   UNL A   1      34.216  19.804  24.912  1.00  0.00     0.251 C 
ATOM      5  O   UNL A   1      33.414  18.896  25.131  1.00  0.00    -0.269 OA
ATOM      6  H   UNL A   1      35.719  18.656  25.521  1.00  0.00     0.163 HD
BRANCH   4   7
ATOM      7  C   UNL A   1      33.725  21.089  24.343  1.00  0.00     0.039 A 
ATOM      8  C   UNL A   1      32.805  23.403  23.035  1.00  0.00     0.017 A 
ATOM      9  C   UNL A   1      32.137  22.190  22.859  1.00  0.00     0.013 A 
ATOM     10  C   UNL A   1      33.879  23.470  23.926  1.00  0.00     0.013 A 
ATOM     11  C   UNL A   1      32.602  21.037  23.502  1.00  0.00     0.014 A 
ATOM     12  C   UNL A   1      34.309  22.329  24.602  1.00  0.00     0.014 A 
BRANCH   8  13
ATOM     13  C   UNL A   1      32.451  24.585  22.282  1.00  0.00     0.134 A 
ATOM     14  C   UNL A   1      31.490  26.562  22.062  1.00  0.00     0.128 A 
ATOM     15  C   UNL A   1      32.206  26.306  20.898  1.00  0.00     0.051 A 
ATOM     16  O   UNL A   1      31.668  25.496  22.912  1.00  0.00    -0.457 OA
ATOM     17  C   UNL A   1      32.808  25.038  21.034  1.00  0.00     0.051 A 
BRANCH  14  18
ATOM     18  C   UNL A   1      30.711  27.696  22.410  1.00  0.00     0.065 C 
ATOM     19  O   UNL A   1      32.774  30.382  26.142  1.00  0.00    -0.261 OA
ATOM     20  C   UNL A   1      32.083  29.895  25.268  1.00  0.00     0.289 C 
ATOM     21  N   UNL A   1      30.901  30.391  24.811  1.00  0.00    -0.307 N 
ATOM     22  S   UNL A   1      32.462  28.426  24.408  1.00  0.00    -0.025 SA
ATOM     23  C   UNL A   1      30.247  29.723  23.809  1.00  0.00     0.120 C 
ATOM     24  H   UNL A   1      30.524  31.216  25.193  1.00  0.00     0.171 HD
ATOM     25  C   UNL A   1      31.042  28.524  23.411  1.00  0.00     0.056 C 
ATOM     26  S   UNL A   1      28.783  30.280  23.240  1.00  0.00    -0.059 S 
ENDBRANCH  14  18
ENDBRANCH   8  13
ENDBRANCH   4   7
ENDBRANCH   2   3
ENDBRANCH   1   2
BRANCH   1  27
ATOM     27  C   UNL A   1      39.151  20.054  25.719  1.00  0.00     0.118 C 
BRANCH  27  28
ATOM     28  N   UNL A   1      40.215  19.077  25.903  1.00  0.00    -0.352 N 
ATOM     29  C   UNL A   1      41.562  19.262  26.083  1.00  0.00     0.251 C 
ATOM     30  H   UNL A   1      39.922  18.138  25.897  1.00  0.00     0.163 HD
ATOM     31  O   UNL A   1      42.325  18.308  25.969  1.00  0.00    -0.269 OA
BRANCH  29  32
ATOM     32  C   UNL A   1      42.098  20.600  26.406  1.00  0.00     0.039 A 
ATOM     33  C   UNL A   1      42.415  21.469  25.359  1.00  0.00     0.014 A 
ATOM     34  C   UNL A   1      42.327  20.985  27.730  1.00  0.00     0.014 A 
ATOM     35  C   UNL A   1      42.912  22.742  25.641  1.00  0.00     0.010 A 
ATOM     36  C   UNL A   1      42.745  22.282  28.012  1.00  0.00     0.010 A 
ATOM     37  C   UNL A   1      43.048  23.171  26.971  1.00  0.00    -0.014 A 
BRANCH  37  38
ATOM     38  C   UNL A   1      43.507  24.547  27.291  1.00  0.00     0.031 A 
ATOM     39  C   UNL A   1      42.537  25.564  27.824  1.00  0.00     0.074 A 
ATOM     40  C   UNL A   1      44.785  24.893  27.042  1.00  0.00     0.049 A 
ATOM     41  N   UNL A   1      42.731  26.830  28.097  1.00  0.00    -0.248 NA
ATOM     42  C   UNL A   1      41.158  25.107  28.057  1.00  0.00     0.031 C 
ATOM     43  C   UNL A   1      45.806  24.004  26.485  1.00  0.00     0.029 A 
ATOM     44  N   UNL A   1      45.441  26.085  27.214  1.00  0.00    -0.354 N 
ATOM     45  C   UNL A   1      41.503  27.319  28.521  1.00  0.00     0.074 A 
ATOM     46  C   UNL A   1      40.555  26.231  28.415  1.00  0.00     0.031 C 
ATOM     47  C   UNL A   1      46.965  24.675  26.384  1.00  0.00     0.029 A 
ATOM     48  C   UNL A   1      46.757  26.051  26.823  1.00  0.00     0.049 A 
ATOM     49  H   UNL A   1      45.010  26.889  27.584  1.00  0.00     0.167 HD
ATOM     50  C   UNL A   1      41.199  28.557  28.978  1.00  0.00     0.037 A 
ATOM     51  C   UNL A   1      47.688  27.024  26.806  1.00  0.00     0.037 A 
ATOM     52  C   UNL A   1      42.152  29.629  29.096  1.00  0.00     0.049 A 
ATOM     53  C   UNL A   1      47.316  28.397  27.297  1.00  0.00     0.074 A 
ATOM     54  C   UNL A   1      41.959  30.904  29.597  1.00  0.00     0.029 A 
ATOM     55  N   UNL A   1      43.480  29.555  28.698  1.00  0.00    -0.354 N 
ATOM     56  N   UNL A   1      46.169  28.829  27.763  1.00  0.00    -0.248 NA
ATOM     57  C   UNL A   1      48.372  29.418  27.269  1.00  0.00     0.031 C 
ATOM     58  C   UNL A   1      43.150  31.619  29.446  1.00  0.00     0.029 A 
ATOM     59  C   UNL A   1      44.108  30.770  28.917  1.00  0.00     0.049 A 
ATOM     60  H   UNL A   1      43.911  28.756  28.317  1.00  0.00     0.167 HD
ATOM     61  C   UNL A   1      46.374  30.156  28.114  1.00  0.00     0.074 A 
ATOM     62  C   UNL A   1      47.760  30.455  27.822  1.00  0.00     0.031 C 
ATOM     63  C   UNL A   1      45.493  31.047  28.634  1.00  0.00     0.037 A 
BRANCH  50  64
ATOM     64  C   UNL A   1      39.777  28.823  29.385  1.00  0.00     0.064 A 
ATOM     65  C   UNL A   1      38.825  29.306  28.473  1.00  0.00     0.173 A 
ATOM     66  C   UNL A   1      39.346  28.544  30.691  1.00  0.00     0.173 A 
ATOM     67  F   UNL A   1      39.183  29.598  27.213  1.00  0.00    -0.203 F 
ATOM     68  C   UNL A   1      37.507  29.527  28.862  1.00  0.00     0.198 A 
ATOM     69  C   UNL A   1      38.019  28.734  31.068  1.00  0.00     0.198 A 
ATOM     70  F   UNL A   1      40.212  28.074  31.603  1.00  0.00    -0.203 F 
ATOM     71  F   UNL A   1      36.629  30.037  27.986  1.00  0.00    -0.200 F 
ATOM     72  C   UNL A   1      37.102  29.233  30.155  1.00  0.00     0.200 A 
ATOM     73  F   UNL A   1      37.627  28.432  32.313  1.00  0.00    -0.200 F 
ATOM     74  F   UNL A   1      35.829  29.434  30.524  1.00  0.00    -0.200 F 
ENDBRANCH  50  64
BRANCH  51  75
ATOM     75  C   UNL A   1      49.063  26.734  26.319  1.00  0.00     0.064 A 
ATOM     76  C   UNL A   1      49.415  26.953  24.979  1.00  0.00     0.173 A 
ATOM     77  C   UNL A   1      50.048  26.219  27.173  1.00  0.00     0.173 A 
ATOM     78  F   UNL A   1      48.504  27.429  24.116  1.00  0.00    -0.203 F 
ATOM     79  C   UNL A   1      50.687  26.638  24.507  1.00  0.00     0.198 A 
ATOM     80  C   UNL A   1      51.331  25.938  26.709  1.00  0.00     0.198 A 
ATOM     81  F   UNL A   1      49.768  25.999  28.466  1.00  0.00    -0.203 F 
ATOM     82  F   UNL A   1      50.977  26.803  23.209  1.00  0.00    -0.200 F 
ATOM     83  C   UNL A   1      51.646  26.136  25.374  1.00  0.00     0.200 A 
ATOM     84  F   UNL A   1      52.260  25.471  27.554  1.00  0.00    -0.200 F 
ATOM     85  F   UNL A   1      52.870  25.834  24.920  1.00  0.00    -0.200 F 
ENDBRANCH  51  75
BRANCH  63  86
ATOM     86  C   UNL A   1      46.013  32.417  28.970  1.00  0.00     0.064 A 
ATOM     87  C   UNL A   1      45.952  33.479  28.056  1.00  0.00     0.173 A 
ATOM     88  C   UNL A   1      46.543  32.677  30.244  1.00  0.00     0.173 A 
ATOM     89  F   UNL A   1      45.469  33.280  26.821  1.00  0.00    -0.203 F 
ATOM     90  C   UNL A   1      46.429  34.743  28.396  1.00  0.00     0.198 A 
ATOM     91  C   UNL A   1      46.983  33.951  30.592  1.00  0.00     0.198 A 
ATOM     92  F   UNL A   1      46.616  31.699  31.159  1.00  0.00    -0.203 F 
ATOM     93  F   UNL A   1      46.411  35.729  27.488  1.00  0.00    -0.200 F 
ATOM     94  C   UNL A   1      46.935  34.980  29.666  1.00  0.00     0.200 A 
ATOM     95  F   UNL A   1      47.454  34.181  31.826  1.00  0.00    -0.200 F 
ATOM     96  F   UNL A   1      47.382  36.199  29.993  1.00  0.00    -0.200 F 
ENDBRANCH  63  86
ENDBRANCH  37  38
ENDBRANCH  29  32
ENDBRANCH  27  28
ENDBRANCH   1  27
TORSDOF 12
ENDMDL
MODEL 3
REMARK VINA RESULT:     -12.4      5.716     11.002
REMARK SMILES O=C1NC(=S)/C(=C/c2ccc(-c3ccc(C(=O)NCCCNC(=O)c4ccc(-c5c6nc(c(-c7c(F)c(F)c(F)c(F)c7F)c7ccc([nH]7)c(-c7c(F)c(F)c(F)c(F)c7F)c7nc(c(-c8c(F)c(F)c(F)c(F)c8F)c8ccc5[nH]8)C=C7)C=C6)cc4)cc3)o2)S1
REMARK SMILES IDX 20 1 19 2 18 3 16 4 17 5 15 7 12 8 13 9 89 10 14 11 88 12
REMARK SMILES IDX 11 13 8 14 9 15 90 16 10 17 7 18 1 19 2 20 3 21 91 22 4 23
REMARK SMILES IDX 6 25 5 26 21 27 22 28 23 29 24 31 25 32 26 33 87 34 27 35
REMARK SMILES IDX 86 36 28 37 29 38 30 39 80 40 31 41 85 42 79 43 81 44 32 45
REMARK SMILES IDX 84 46 78 47 77 48 33 50 65 51 45 52 64 53 46 54 49 55 63 56
REMARK SMILES IDX 82 57 47 58 48 59 62 61 83 62 50 63 34 64 35 65 43 66 36 67
REMARK SMILES IDX 37 68 41 69 44 70 38 71 39 72 42 73 40 74 66 75 67 76 75 77
REMARK SMILES IDX 68 78 69 79 73 80 76 81 70 82 71 83 74 84 72 85 51 86 52 87
REMARK SMILES IDX 60 88 53 89 54 90 58 91 61 92 55 93 56 94 59 95 57 96
REMARK H PARENT 18 6 3 24 22 30 81 49 49 60
REMARK Flexibility Score: inf
ROOT
ATOM      1  C   UNL A   1      33.452  33.743  28.292  1.00  0.00     0.042 C 
ENDROOT
BRANCH   1   2
ATOM      2  C   UNL A   1      33.852  34.449  29.587  1.00  0.00     0.118 C 
BRANCH   2   3
ATOM      3  N   UNL A   1      34.099  33.484  30.644  1.00  0.00    -0.352 N 
ATOM      4  C   UNL A   1      35.256  33.039  31.233  1.00  0.00     0.251 C 
ATOM      5  O   UNL A   1      35.152  32.227  32.153  1.00  0.00    -0.269 OA
ATOM      6  H   UNL A   1      33.282  33.072  31.007  1.00  0.00     0.163 HD
BRANCH   4   7
ATOM      7  C   UNL A   1      36.605  33.539  30.852  1.00  0.00     0.039 A 
ATOM      8  C   UNL A   1      39.216  34.238  30.073  1.00  0.00     0.017 A 
ATOM      9  C   UNL A   1      38.390  33.537  29.193  1.00  0.00     0.013 A 
ATOM     10  C   UNL A   1      38.707  34.655  31.304  1.00  0.00     0.013 A 
ATOM     11  C   UNL A   1      37.094  33.181  29.586  1.00  0.00     0.014 A 
ATOM     12  C   UNL A   1      37.400  34.340  31.672  1.00  0.00     0.014 A 
BRANCH   8  13
ATOM     13  C   UNL A   1      40.604  34.502  29.769  1.00  0.00     0.134 A 
ATOM     14  C   UNL A   1      42.770  34.104  29.959  1.00  0.00     0.128 A 
ATOM     15  C   UNL A   1      42.601  35.081  28.984  1.00  0.00     0.051 A 
ATOM     16  O   UNL A   1      41.524  33.746  30.419  1.00  0.00    -0.457 OA
ATOM     17  C   UNL A   1      41.220  35.344  28.874  1.00  0.00     0.051 A 
BRANCH  14  18
ATOM     18  C   UNL A   1      43.963  33.506  30.439  1.00  0.00     0.065 C 
ATOM     19  O   UNL A   1      44.649  28.850  28.634  1.00  0.00    -0.261 OA
ATOM     20  C   UNL A   1      44.689  29.921  29.210  1.00  0.00     0.289 C 
ATOM     21  N   UNL A   1      45.667  30.341  30.056  1.00  0.00    -0.307 N 
ATOM     22  S   UNL A   1      43.470  31.162  29.076  1.00  0.00    -0.025 SA
ATOM     23  C   UNL A   1      45.565  31.587  30.619  1.00  0.00     0.120 C 
ATOM     24  H   UNL A   1      46.435  29.760  30.260  1.00  0.00     0.171 HD
ATOM     25  C   UNL A   1      44.321  32.251  30.130  1.00  0.00     0.056 C 
ATOM     26  S   UNL A   1      46.727  32.128  31.684  1.00  0.00    -0.059 S 
ENDBRANCH  14  18
ENDBRANCH   8  13
ENDBRANCH   4   7
ENDBRANCH   2   3
ENDBRANCH   1   2
BRANCH   1  27
ATOM     27  C   UNL A   1      34.469  32.699  27.848  1.00  0.00     0.118 C 
BRANCH  27  28
ATOM     28  N   UNL A   1      33.848  31.400  27.626  1.00  0.00    -0.352 N 
ATOM     29  C   UNL A   1      34.397  30.144  27.647  1.00  0.00     0.251 C 
ATOM     30  H   UNL A   1      32.884  31.430  27.428  1.00  0.00     0.163 HD
ATOM     31  O   UNL A   1      33.763  29.198  27.188  1.00  0.00    -0.269 OA
BRANCH  29  32
ATOM     32  C   UNL A   1      35.744  29.924  28.211  1.00  0.00     0.039 A 
ATOM     33  C   UNL A   1      35.860  29.582  29.561  1.00  0.00     0.014 A 
ATOM     34  C   UNL A   1      36.890  30.093  27.430  1.00  0.00     0.014 A 
ATOM     35  C   UNL A   1      37.122  29.359  30.112  1.00  0.00     0.010 A 
ATOM     36  C   UNL A   1      38.141  29.790  27.959  1.00  0.00     0.010 A 
ATOM     37  C   UNL A   1      38.270  29.427  29.307  1.00  0.00    -0.014 A 
BRANCH  37  38
ATOM     38  C   UNL A   1      39.615  29.121  29.859  1.00  0.00     0.031 A 
ATOM     39  C   UNL A   1      40.412  27.968  29.316  1.00  0.00     0.074 A 
ATOM     40  C   UNL A   1      40.088  29.849  30.890  1.00  0.00     0.049 A 
ATOM     41  N   UNL A   1      41.571  27.504  29.712  1.00  0.00    -0.248 NA
ATOM     42  C   UNL A   1      39.818  27.219  28.198  1.00  0.00     0.031 C 
ATOM     43  C   UNL A   1      39.386  30.964  31.528  1.00  0.00     0.029 A 
ATOM     44  N   UNL A   1      41.264  29.753  31.590  1.00  0.00    -0.354 N 
ATOM     45  C   UNL A   1      41.836  26.408  28.902  1.00  0.00     0.074 A 
ATOM     46  C   UNL A   1      40.694  26.239  28.031  1.00  0.00     0.031 C 
ATOM     47  C   UNL A   1      40.155  31.464  32.508  1.00  0.00     0.029 A 
ATOM     48  C   UNL A   1      41.380  30.676  32.600  1.00  0.00     0.049 A 
ATOM     49  H   UNL A   1      41.959  29.086  31.387  1.00  0.00     0.167 HD
ATOM     50  C   UNL A   1      42.943  25.627  28.874  1.00  0.00     0.037 A 
ATOM     51  C   UNL A   1      42.357  30.857  33.509  1.00  0.00     0.037 A 
ATOM     52  C   UNL A   1      44.082  25.813  29.734  1.00  0.00     0.049 A 
ATOM     53  C   UNL A   1      43.565  29.960  33.468  1.00  0.00     0.074 A 
ATOM     54  C   UNL A   1      45.275  25.111  29.749  1.00  0.00     0.029 A 
ATOM     55  N   UNL A   1      44.167  26.765  30.740  1.00  0.00    -0.354 N 
ATOM     56  N   UNL A   1      43.837  28.971  32.651  1.00  0.00    -0.248 NA
ATOM     57  C   UNL A   1      44.607  30.209  34.474  1.00  0.00     0.031 C 
ATOM     58  C   UNL A   1      46.055  25.597  30.802  1.00  0.00     0.029 A 
ATOM     59  C   UNL A   1      45.381  26.649  31.399  1.00  0.00     0.049 A 
ATOM     60  H   UNL A   1      43.469  27.425  30.953  1.00  0.00     0.167 HD
ATOM     61  C   UNL A   1      45.091  28.505  33.020  1.00  0.00     0.074 A 
ATOM     62  C   UNL A   1      45.535  29.329  34.125  1.00  0.00     0.031 C 
ATOM     63  C   UNL A   1      45.813  27.487  32.489  1.00  0.00     0.037 A 
BRANCH  50  64
ATOM     64  C   UNL A   1      42.978  24.499  27.882  1.00  0.00     0.064 A 
ATOM     65  C   UNL A   1      43.411  24.690  26.560  1.00  0.00     0.173 A 
ATOM     66  C   UNL A   1      42.622  23.198  28.270  1.00  0.00     0.173 A 
ATOM     67  F   UNL A   1      43.754  25.914  26.131  1.00  0.00    -0.203 F 
ATOM     68  C   UNL A   1      43.457  23.629  25.660  1.00  0.00     0.198 A 
ATOM     69  C   UNL A   1      42.702  22.133  27.377  1.00  0.00     0.198 A 
ATOM     70  F   UNL A   1      42.208  22.956  29.524  1.00  0.00    -0.203 F 
ATOM     71  F   UNL A   1      43.825  23.847  24.389  1.00  0.00    -0.200 F 
ATOM     72  C   UNL A   1      43.112  22.350  26.070  1.00  0.00     0.200 A 
ATOM     73  F   UNL A   1      42.384  20.896  27.781  1.00  0.00    -0.200 F 
ATOM     74  F   UNL A   1      43.168  21.328  25.205  1.00  0.00    -0.200 F 
ENDBRANCH  50  64
BRANCH  51  75
ATOM     75  C   UNL A   1      42.243  31.938  34.524  1.00  0.00     0.064 A 
ATOM     76  C   UNL A   1      41.506  31.746  35.702  1.00  0.00     0.173 A 
ATOM     77  C   UNL A   1      42.851  33.188  34.334  1.00  0.00     0.173 A 
ATOM     78  F   UNL A   1      40.891  30.575  35.924  1.00  0.00    -0.203 F 
ATOM     79  C   UNL A   1      41.356  32.771  36.633  1.00  0.00     0.198 A 
ATOM     80  C   UNL A   1      42.730  34.201  35.283  1.00  0.00     0.198 A 
ATOM     81  F   UNL A   1      43.574  33.422  33.229  1.00  0.00    -0.203 F 
ATOM     82  F   UNL A   1      40.598  32.579  37.721  1.00  0.00    -0.200 F 
ATOM     83  C   UNL A   1      41.972  33.996  36.425  1.00  0.00     0.200 A 
ATOM     84  F   UNL A   1      43.343  35.375  35.087  1.00  0.00    -0.200 F 
ATOM     85  F   UNL A   1      41.829  34.981  37.322  1.00  0.00    -0.200 F 
ENDBRANCH  51  75
BRANCH  63  86
ATOM     86  C   UNL A   1      47.181  27.237  33.061  1.00  0.00     0.064 A 
ATOM     87  C   UNL A   1      47.396  26.313  34.094  1.00  0.00     0.173 A 
ATOM     88  C   UNL A   1      48.297  27.905  32.535  1.00  0.00     0.173 A 
ATOM     89  F   UNL A   1      46.361  25.659  34.641  1.00  0.00    -0.203 F 
ATOM     90  C   UNL A   1      48.675  26.090  34.598  1.00  0.00     0.198 A 
ATOM     91  C   UNL A   1      49.579  27.651  33.016  1.00  0.00     0.198 A 
ATOM     92  F   UNL A   1      48.149  28.793  31.540  1.00  0.00    -0.203 F 
ATOM     93  F   UNL A   1      48.850  25.244  35.622  1.00  0.00    -0.200 F 
ATOM     94  C   UNL A   1      49.765  26.752  34.053  1.00  0.00     0.200 A 
ATOM     95  F   UNL A   1      50.632  28.278  32.474  1.00  0.00    -0.200 F 
ATOM     96  F   UNL A   1      50.996  26.527  34.533  1.00  0.00    -0.200 F 
ENDBRANCH  63  86
ENDBRANCH  37  38
ENDBRANCH  29  32
ENDBRANCH  27  28
ENDBRANCH   1  27
TORSDOF 12
ENDMDL
