MODEL 1
REMARK VINA RESULT:     -11.6      0.000      0.000
REMARK SMILES CC[C@@](C)(Nc1c([N+](=O)[O-])c(C(C)C)nn1C)C(=O)NCCCNC(=O)c1ccc(-c2c3nc(c(-c4c(F)c(F)c(F)c(F)c4F)c4ccc([nH]4)c(-c4c(F)c(F)c(F)c(F)c4F)c4nc(c(-c5c(F)c(F)c(F)c(F)c5F)c5ccc2[nH]5)C=C4)C=C3)cc1
REMARK SMILES IDX 21 1 20 2 18 3 19 4 3 6 4 7 2 8 1 9 5 10 6 12 7 13 16 14
REMARK SMILES IDX 11 15 15 16 17 17 8 18 9 19 10 20 12 21 13 22 14 23 22 24
REMARK SMILES IDX 23 25 24 26 25 27 26 29 27 30 28 31 89 32 29 33 88 34 30 35
REMARK SMILES IDX 31 36 32 37 82 38 33 39 87 40 81 41 83 42 34 43 86 44 80 45
REMARK SMILES IDX 79 46 35 48 67 49 47 50 66 51 48 52 51 53 65 54 84 55 49 56
REMARK SMILES IDX 50 57 64 59 85 60 52 61 36 62 37 63 45 64 38 65 39 66 43 67
REMARK SMILES IDX 46 68 40 69 41 70 44 71 42 72 68 73 69 74 77 75 70 76 71 77
REMARK SMILES IDX 75 78 78 79 72 80 73 81 76 82 74 83 53 84 54 85 62 86 55 87
REMARK SMILES IDX 56 88 60 89 63 90 57 91 58 92 61 93 59 94
REMARK H PARENT 20 5 5 11 24 28 83 47 51 58
REMARK Flexibility Score: inf
ROOT
ATOM      1  C   UNL A   1      31.315  30.776  26.133  1.00  0.00     0.117 C 
ENDROOT
BRANCH   1   2
ATOM      2  N   UNL A   1      32.530  30.181  25.609  1.00  0.00    -0.354 N 
ATOM      3  C   UNL A   1      32.916  28.890  25.393  1.00  0.00     0.245 C 
ATOM      4  O   UNL A   1      33.895  28.766  24.644  1.00  0.00    -0.272 OA
ATOM      5  H   UNL A   1      33.215  30.842  25.360  1.00  0.00     0.163 HD
BRANCH   3   6
ATOM      6  C   UNL A   1      32.223  27.649  26.021  1.00  0.00     0.115 C 
ATOM      7  C   UNL A   1      31.774  28.041  27.451  1.00  0.00     0.045 C 
BRANCH   6   8
ATOM      8  C   UNL A   1      30.947  27.188  25.242  1.00  0.00     0.035 C 
ATOM      9  C   UNL A   1      30.631  27.886  23.921  1.00  0.00     0.007 C 
ENDBRANCH   6   8
BRANCH   6  10
ATOM     10  N   UNL A   1      33.075  26.440  26.130  1.00  0.00    -0.351 N 
ATOM     11  H   UNL A   1      33.737  26.492  26.856  1.00  0.00     0.163 HD
BRANCH  10  12
ATOM     12  C   UNL A   1      33.128  25.261  25.424  1.00  0.00     0.205 A 
ATOM     13  C   UNL A   1      32.759  23.980  25.867  1.00  0.00     0.334 A 
ATOM     14  N   UNL A   1      33.640  24.999  24.163  1.00  0.00    -0.246 N 
ATOM     15  C   UNL A   1      33.391  23.062  24.985  1.00  0.00     0.145 A 
ATOM     16  N   UNL A   1      34.083  23.728  24.052  1.00  0.00    -0.169 NA
ATOM     17  C   UNL A   1      33.489  25.671  22.898  1.00  0.00     0.176 C 
BRANCH  13  18
ATOM     18  N   UNL A   1      31.935  23.693  27.010  1.00  0.00     0.068 N 
ATOM     19  O   UNL A   1      30.908  24.365  27.157  1.00  0.00    -0.258 OA
ATOM     20  O   UNL A   1      32.324  22.809  27.789  1.00  0.00    -0.258 OA
ENDBRANCH  13  18
BRANCH  15  21
ATOM     21  C   UNL A   1      33.416  21.556  24.942  1.00  0.00     0.041 C 
ATOM     22  C   UNL A   1      32.660  21.024  23.714  1.00  0.00     0.014 C 
ATOM     23  C   UNL A   1      34.849  21.017  24.946  1.00  0.00     0.014 C 
ENDBRANCH  15  21
ENDBRANCH  10  12
ENDBRANCH   6  10
ENDBRANCH   3   6
ENDBRANCH   1   2
BRANCH   1  24
ATOM     24  C   UNL A   1      31.337  32.282  26.368  1.00  0.00     0.042 C 
BRANCH  24  25
ATOM     25  C   UNL A   1      32.541  32.836  27.123  1.00  0.00     0.118 C 
BRANCH  25  26
ATOM     26  N   UNL A   1      32.348  34.196  27.603  1.00  0.00    -0.352 N 
ATOM     27  C   UNL A   1      33.028  34.889  28.570  1.00  0.00     0.251 C 
ATOM     28  H   UNL A   1      31.619  34.692  27.167  1.00  0.00     0.163 HD
ATOM     29  O   UNL A   1      32.644  36.012  28.897  1.00  0.00    -0.269 OA
BRANCH  27  30
ATOM     30  C   UNL A   1      34.201  34.297  29.251  1.00  0.00     0.039 A 
ATOM     31  C   UNL A   1      33.981  33.508  30.384  1.00  0.00     0.014 A 
ATOM     32  C   UNL A   1      35.507  34.543  28.814  1.00  0.00     0.014 A 
ATOM     33  C   UNL A   1      35.062  32.929  31.052  1.00  0.00     0.010 A 
ATOM     34  C   UNL A   1      36.583  33.920  29.452  1.00  0.00     0.010 A 
ATOM     35  C   UNL A   1      36.372  33.110  30.580  1.00  0.00    -0.014 A 
BRANCH  35  36
ATOM     36  C   UNL A   1      37.516  32.449  31.264  1.00  0.00     0.031 A 
ATOM     37  C   UNL A   1      38.261  31.324  30.599  1.00  0.00     0.074 A 
ATOM     38  C   UNL A   1      37.876  32.852  32.498  1.00  0.00     0.049 A 
ATOM     39  N   UNL A   1      39.288  30.637  31.037  1.00  0.00    -0.248 NA
ATOM     40  C   UNL A   1      37.781  30.905  29.274  1.00  0.00     0.031 C 
ATOM     41  C   UNL A   1      37.213  33.905  33.266  1.00  0.00     0.029 A 
ATOM     42  N   UNL A   1      38.889  32.425  33.323  1.00  0.00    -0.354 N 
ATOM     43  C   UNL A   1      39.574  29.707  30.045  1.00  0.00     0.074 A 
ATOM     44  C   UNL A   1      38.580  29.881  29.008  1.00  0.00     0.031 C 
ATOM     45  C   UNL A   1      37.851  34.062  34.437  1.00  0.00     0.029 A 
ATOM     46  C   UNL A   1      38.942  33.097  34.520  1.00  0.00     0.049 A 
ATOM     47  H   UNL A   1      39.515  31.707  33.080  1.00  0.00     0.167 HD
ATOM     48  C   UNL A   1      40.586  28.805  29.995  1.00  0.00     0.037 A 
ATOM     49  C   UNL A   1      39.774  32.948  35.570  1.00  0.00     0.037 A 
ATOM     50  C   UNL A   1      41.577  28.638  31.027  1.00  0.00     0.049 A 
ATOM     51  C   UNL A   1      40.871  31.919  35.499  1.00  0.00     0.074 A 
ATOM     52  C   UNL A   1      42.667  27.783  31.046  1.00  0.00     0.029 A 
ATOM     53  N   UNL A   1      41.595  29.331  32.229  1.00  0.00    -0.354 N 
ATOM     54  N   UNL A   1      41.176  31.096  34.525  1.00  0.00    -0.248 NA
ATOM     55  C   UNL A   1      41.749  31.806  36.674  1.00  0.00     0.031 C 
ATOM     56  C   UNL A   1      43.307  27.916  32.283  1.00  0.00     0.029 A 
ATOM     57  C   UNL A   1      42.658  28.901  33.008  1.00  0.00     0.049 A 
ATOM     58  H   UNL A   1      40.947  30.025  32.490  1.00  0.00     0.167 HD
ATOM     59  C   UNL A   1      42.294  30.392  34.955  1.00  0.00     0.074 A 
ATOM     60  C   UNL A   1      42.626  30.899  36.270  1.00  0.00     0.031 C 
ATOM     61  C   UNL A   1      42.984  29.416  34.315  1.00  0.00     0.037 A 
BRANCH  48  62
ATOM     62  C   UNL A   1      40.670  27.920  28.783  1.00  0.00     0.064 A 
ATOM     63  C   UNL A   1      39.961  26.712  28.700  1.00  0.00     0.173 A 
ATOM     64  C   UNL A   1      41.435  28.304  27.671  1.00  0.00     0.173 A 
ATOM     65  F   UNL A   1      39.219  26.292  29.737  1.00  0.00    -0.203 F 
ATOM     66  C   UNL A   1      40.040  25.907  27.566  1.00  0.00     0.198 A 
ATOM     67  C   UNL A   1      41.485  27.515  26.525  1.00  0.00     0.198 A 
ATOM     68  F   UNL A   1      42.126  29.455  27.690  1.00  0.00    -0.203 F 
ATOM     69  F   UNL A   1      39.396  24.734  27.533  1.00  0.00    -0.200 F 
ATOM     70  C   UNL A   1      40.796  26.313  26.476  1.00  0.00     0.200 A 
ATOM     71  F   UNL A   1      42.202  27.918  25.466  1.00  0.00    -0.200 F 
ATOM     72  F   UNL A   1      40.865  25.543  25.383  1.00  0.00    -0.200 F 
ENDBRANCH  48  62
BRANCH  49  73
ATOM     73  C   UNL A   1      39.614  33.806  36.774  1.00  0.00     0.064 A 
ATOM     74  C   UNL A   1      38.817  33.399  37.854  1.00  0.00     0.173 A 
ATOM     75  C   UNL A   1      40.240  35.058  36.865  1.00  0.00     0.173 A 
ATOM     76  F   UNL A   1      38.179  32.219  37.806  1.00  0.00    -0.203 F 
ATOM     77  C   UNL A   1      38.632  34.220  38.964  1.00  0.00     0.198 A 
ATOM     78  C   UNL A   1      40.083  35.863  37.991  1.00  0.00     0.198 A 
ATOM     79  F   UNL A   1      41.017  35.495  35.863  1.00  0.00    -0.203 F 
ATOM     80  F   UNL A   1      37.821  33.828  39.957  1.00  0.00    -0.200 F 
ATOM     81  C   UNL A   1      39.270  35.449  39.035  1.00  0.00     0.200 A 
ATOM     82  F   UNL A   1      40.714  37.043  38.062  1.00  0.00    -0.200 F 
ATOM     83  F   UNL A   1      39.095  36.236  40.105  1.00  0.00    -0.200 F 
ENDBRANCH  49  73
BRANCH  61  84
ATOM     84  C   UNL A   1      44.194  28.856  35.011  1.00  0.00     0.064 A 
ATOM     85  C   UNL A   1      44.116  27.730  35.845  1.00  0.00     0.173 A 
ATOM     86  C   UNL A   1      45.456  29.439  34.815  1.00  0.00     0.173 A 
ATOM     87  F   UNL A   1      42.932  27.142  36.077  1.00  0.00    -0.203 F 
ATOM     88  C   UNL A   1      45.249  27.231  36.483  1.00  0.00     0.198 A 
ATOM     89  C   UNL A   1      46.592  28.914  35.426  1.00  0.00     0.198 A 
ATOM     90  F   UNL A   1      45.591  30.512  34.022  1.00  0.00    -0.203 F 
ATOM     91  F   UNL A   1      45.139  26.191  37.322  1.00  0.00    -0.200 F 
ATOM     92  C   UNL A   1      46.486  27.817  36.268  1.00  0.00     0.200 A 
ATOM     93  F   UNL A   1      47.790  29.472  35.202  1.00  0.00    -0.200 F 
ATOM     94  F   UNL A   1      47.576  27.332  36.877  1.00  0.00    -0.200 F 
ENDBRANCH  61  84
ENDBRANCH  35  36
ENDBRANCH  27  30
ENDBRANCH  25  26
ENDBRANCH  24  25
ENDBRANCH   1  24
TORSDOF 15
ENDMDL
MODEL 2
REMARK VINA RESULT:     -11.6      1.258      1.997
REMARK SMILES CC[C@@](C)(Nc1c([N+](=O)[O-])c(C(C)C)nn1C)C(=O)NCCCNC(=O)c1ccc(-c2c3nc(c(-c4c(F)c(F)c(F)c(F)c4F)c4ccc([nH]4)c(-c4c(F)c(F)c(F)c(F)c4F)c4nc(c(-c5c(F)c(F)c(F)c(F)c5F)c5ccc2[nH]5)C=C4)C=C3)cc1
REMARK SMILES IDX 21 1 20 2 18 3 19 4 3 6 4 7 2 8 1 9 5 10 6 12 7 13 16 14
REMARK SMILES IDX 11 15 15 16 17 17 8 18 9 19 10 20 12 21 13 22 14 23 22 24
REMARK SMILES IDX 23 25 24 26 25 27 26 29 27 30 28 31 89 32 29 33 88 34 30 35
REMARK SMILES IDX 31 36 32 37 82 38 33 39 87 40 81 41 83 42 34 43 86 44 80 45
REMARK SMILES IDX 79 46 35 48 67 49 47 50 66 51 48 52 51 53 65 54 84 55 49 56
REMARK SMILES IDX 50 57 64 59 85 60 52 61 36 62 37 63 45 64 38 65 39 66 43 67
REMARK SMILES IDX 46 68 40 69 41 70 44 71 42 72 68 73 69 74 77 75 70 76 71 77
REMARK SMILES IDX 75 78 78 79 72 80 73 81 76 82 74 83 53 84 54 85 62 86 55 87
REMARK SMILES IDX 56 88 60 89 63 90 57 91 58 92 61 93 59 94
REMARK H PARENT 20 5 5 11 24 28 83 47 51 58
REMARK Flexibility Score: inf
ROOT
ATOM      1  C   UNL A   1      31.651  30.710  26.115  1.00  0.00     0.117 C 
ENDROOT
BRANCH   1   2
ATOM      2  N   UNL A   1      30.952  30.370  24.889  1.00  0.00    -0.354 N 
ATOM      3  C   UNL A   1      30.898  29.235  24.133  1.00  0.00     0.245 C 
ATOM      4  O   UNL A   1      29.957  29.199  23.328  1.00  0.00    -0.272 OA
ATOM      5  H   UNL A   1      30.406  31.107  24.531  1.00  0.00     0.163 HD
BRANCH   3   6
ATOM      6  C   UNL A   1      31.917  28.067  24.229  1.00  0.00     0.115 C 
ATOM      7  C   UNL A   1      33.233  28.540  23.562  1.00  0.00     0.045 C 
BRANCH   6   8
ATOM      8  C   UNL A   1      32.261  27.660  25.700  1.00  0.00     0.035 C 
ATOM      9  C   UNL A   1      33.735  27.593  26.093  1.00  0.00     0.007 C 
ENDBRANCH   6   8
BRANCH   6  10
ATOM     10  N   UNL A   1      31.499  26.810  23.562  1.00  0.00    -0.351 N 
ATOM     11  H   UNL A   1      31.020  26.957  22.715  1.00  0.00     0.163 HD
BRANCH  10  12
ATOM     12  C   UNL A   1      31.643  25.481  23.885  1.00  0.00     0.205 A 
ATOM     13  C   UNL A   1      32.585  24.573  23.375  1.00  0.00     0.334 A 
ATOM     14  N   UNL A   1      30.864  24.671  24.695  1.00  0.00    -0.246 N 
ATOM     15  C   UNL A   1      32.074  23.277  23.655  1.00  0.00     0.145 A 
ATOM     16  N   UNL A   1      30.910  23.378  24.309  1.00  0.00    -0.169 NA
ATOM     17  C   UNL A   1      30.312  24.862  26.012  1.00  0.00     0.176 C 
BRANCH  13  18
ATOM     18  N   UNL A   1      33.797  24.922  22.681  1.00  0.00     0.068 N 
ATOM     19  O   UNL A   1      33.698  25.660  21.695  1.00  0.00    -0.258 OA
ATOM     20  O   UNL A   1      34.857  24.436  23.103  1.00  0.00    -0.258 OA
ENDBRANCH  13  18
BRANCH  15  21
ATOM     21  C   UNL A   1      32.590  21.897  23.341  1.00  0.00     0.041 C 
ATOM     22  C   UNL A   1      32.374  20.942  24.525  1.00  0.00     0.014 C 
ATOM     23  C   UNL A   1      31.935  21.323  22.082  1.00  0.00     0.014 C 
ENDBRANCH  15  21
ENDBRANCH  10  12
ENDBRANCH   6  10
ENDBRANCH   3   6
ENDBRANCH   1   2
BRANCH   1  24
ATOM     24  C   UNL A   1      31.423  32.114  26.664  1.00  0.00     0.042 C 
BRANCH  24  25
ATOM     25  C   UNL A   1      32.671  32.935  26.972  1.00  0.00     0.118 C 
BRANCH  25  26
ATOM     26  N   UNL A   1      32.379  34.230  27.571  1.00  0.00    -0.352 N 
ATOM     27  C   UNL A   1      32.980  34.862  28.628  1.00  0.00     0.251 C 
ATOM     28  H   UNL A   1      31.638  34.724  27.153  1.00  0.00     0.163 HD
ATOM     29  O   UNL A   1      32.517  35.925  29.043  1.00  0.00    -0.269 OA
BRANCH  27  30
ATOM     30  C   UNL A   1      34.160  34.274  29.299  1.00  0.00     0.039 A 
ATOM     31  C   UNL A   1      33.947  33.442  30.402  1.00  0.00     0.014 A 
ATOM     32  C   UNL A   1      35.463  34.563  28.884  1.00  0.00     0.014 A 
ATOM     33  C   UNL A   1      35.035  32.864  31.061  1.00  0.00     0.010 A 
ATOM     34  C   UNL A   1      36.547  33.943  29.511  1.00  0.00     0.010 A 
ATOM     35  C   UNL A   1      36.345  33.091  30.608  1.00  0.00    -0.014 A 
BRANCH  35  36
ATOM     36  C   UNL A   1      37.497  32.432  31.280  1.00  0.00     0.031 A 
ATOM     37  C   UNL A   1      38.239  31.310  30.607  1.00  0.00     0.074 A 
ATOM     38  C   UNL A   1      37.869  32.835  32.511  1.00  0.00     0.049 A 
ATOM     39  N   UNL A   1      39.272  30.625  31.034  1.00  0.00    -0.248 NA
ATOM     40  C   UNL A   1      37.747  30.890  29.286  1.00  0.00     0.031 C 
ATOM     41  C   UNL A   1      37.210  33.886  33.286  1.00  0.00     0.029 A 
ATOM     42  N   UNL A   1      38.890  32.411  33.325  1.00  0.00    -0.354 N 
ATOM     43  C   UNL A   1      39.550  29.697  30.039  1.00  0.00     0.074 A 
ATOM     44  C   UNL A   1      38.545  29.869  29.011  1.00  0.00     0.031 C 
ATOM     45  C   UNL A   1      37.859  34.044  34.451  1.00  0.00     0.029 A 
ATOM     46  C   UNL A   1      38.953  33.081  34.523  1.00  0.00     0.049 A 
ATOM     47  H   UNL A   1      39.516  31.694  33.076  1.00  0.00     0.167 HD
ATOM     48  C   UNL A   1      40.564  28.798  29.978  1.00  0.00     0.037 A 
ATOM     49  C   UNL A   1      39.796  32.934  35.564  1.00  0.00     0.037 A 
ATOM     50  C   UNL A   1      41.566  28.632  31.000  1.00  0.00     0.049 A 
ATOM     51  C   UNL A   1      40.895  31.908  35.482  1.00  0.00     0.074 A 
ATOM     52  C   UNL A   1      42.659  27.781  31.008  1.00  0.00     0.029 A 
ATOM     53  N   UNL A   1      41.594  29.324  32.202  1.00  0.00    -0.354 N 
ATOM     54  N   UNL A   1      41.193  31.087  34.504  1.00  0.00    -0.248 NA
ATOM     55  C   UNL A   1      41.785  31.796  36.647  1.00  0.00     0.031 C 
ATOM     56  C   UNL A   1      43.310  27.914  32.238  1.00  0.00     0.029 A 
ATOM     57  C   UNL A   1      42.666  28.897  32.970  1.00  0.00     0.049 A 
ATOM     58  H   UNL A   1      40.946  30.016  32.470  1.00  0.00     0.167 HD
ATOM     59  C   UNL A   1      42.317  30.385  34.922  1.00  0.00     0.074 A 
ATOM     60  C   UNL A   1      42.661  30.892  36.234  1.00  0.00     0.031 C 
ATOM     61  C   UNL A   1      43.003  29.411  34.275  1.00  0.00     0.037 A 
BRANCH  48  62
ATOM     62  C   UNL A   1      40.638  27.914  28.764  1.00  0.00     0.064 A 
ATOM     63  C   UNL A   1      39.918  26.713  28.680  1.00  0.00     0.173 A 
ATOM     64  C   UNL A   1      41.407  28.292  27.652  1.00  0.00     0.173 A 
ATOM     65  F   UNL A   1      39.172  26.298  29.717  1.00  0.00    -0.203 F 
ATOM     66  C   UNL A   1      39.988  25.909  27.545  1.00  0.00     0.198 A 
ATOM     67  C   UNL A   1      41.448  27.504  26.505  1.00  0.00     0.198 A 
ATOM     68  F   UNL A   1      42.109  29.436  27.672  1.00  0.00    -0.203 F 
ATOM     69  F   UNL A   1      39.332  24.742  27.510  1.00  0.00    -0.200 F 
ATOM     70  C   UNL A   1      40.747  26.309  26.455  1.00  0.00     0.200 A 
ATOM     71  F   UNL A   1      42.168  27.902  25.446  1.00  0.00    -0.200 F 
ATOM     72  F   UNL A   1      40.807  25.540  25.360  1.00  0.00    -0.200 F 
ENDBRANCH  48  62
BRANCH  49  73
ATOM     73  C   UNL A   1      39.646  33.791  36.771  1.00  0.00     0.064 A 
ATOM     74  C   UNL A   1      38.868  33.376  37.861  1.00  0.00     0.173 A 
ATOM     75  C   UNL A   1      40.262  35.048  36.852  1.00  0.00     0.173 A 
ATOM     76  F   UNL A   1      38.240  32.191  37.823  1.00  0.00    -0.203 F 
ATOM     77  C   UNL A   1      38.691  34.195  38.974  1.00  0.00     0.198 A 
ATOM     78  C   UNL A   1      40.113  35.852  37.980  1.00  0.00     0.198 A 
ATOM     79  F   UNL A   1      41.020  35.492  35.839  1.00  0.00    -0.203 F 
ATOM     80  F   UNL A   1      37.898  33.797  39.978  1.00  0.00    -0.200 F 
ATOM     81  C   UNL A   1      39.319  35.430  39.036  1.00  0.00     0.200 A 
ATOM     82  F   UNL A   1      40.735  37.037  38.043  1.00  0.00    -0.200 F 
ATOM     83  F   UNL A   1      39.152  36.216  40.108  1.00  0.00    -0.200 F 
ENDBRANCH  49  73
BRANCH  61  84
ATOM     84  C   UNL A   1      44.221  28.854  34.958  1.00  0.00     0.064 A 
ATOM     85  C   UNL A   1      45.490  29.430  34.799  1.00  0.00     0.173 A 
ATOM     86  C   UNL A   1      44.110  27.741  35.807  1.00  0.00     0.173 A 
ATOM     87  F   UNL A   1      45.655  30.487  33.989  1.00  0.00    -0.203 F 
ATOM     88  C   UNL A   1      46.606  28.895  35.438  1.00  0.00     0.198 A 
ATOM     89  C   UNL A   1      45.222  27.231  36.472  1.00  0.00     0.198 A 
ATOM     90  F   UNL A   1      42.920  27.153  36.001  1.00  0.00    -0.203 F 
ATOM     91  F   UNL A   1      47.817  29.428  35.225  1.00  0.00    -0.200 F 
ATOM     92  C   UNL A   1      46.470  27.801  36.279  1.00  0.00     0.200 A 
ATOM     93  F   UNL A   1      45.084  26.184  37.298  1.00  0.00    -0.200 F 
ATOM     94  F   UNL A   1      47.544  27.291  36.898  1.00  0.00    -0.200 F 
ENDBRANCH  61  84
ENDBRANCH  35  36
ENDBRANCH  27  30
ENDBRANCH  25  26
ENDBRANCH  24  25
ENDBRANCH   1  24
TORSDOF 15
ENDMDL
MODEL 3
REMARK VINA RESULT:     -11.5      0.708      7.253
REMARK SMILES CC[C@@](C)(Nc1c([N+](=O)[O-])c(C(C)C)nn1C)C(=O)NCCCNC(=O)c1ccc(-c2c3nc(c(-c4c(F)c(F)c(F)c(F)c4F)c4ccc([nH]4)c(-c4c(F)c(F)c(F)c(F)c4F)c4nc(c(-c5c(F)c(F)c(F)c(F)c5F)c5ccc2[nH]5)C=C4)C=C3)cc1
REMARK SMILES IDX 21 1 20 2 18 3 19 4 3 6 4 7 2 8 1 9 5 10 6 12 7 13 16 14
REMARK SMILES IDX 11 15 15 16 17 17 8 18 9 19 10 20 12 21 13 22 14 23 22 24
REMARK SMILES IDX 23 25 24 26 25 27 26 29 27 30 28 31 89 32 29 33 88 34 30 35
REMARK SMILES IDX 31 36 32 37 82 38 33 39 87 40 81 41 83 42 34 43 86 44 80 45
REMARK SMILES IDX 79 46 35 48 67 49 47 50 66 51 48 52 51 53 65 54 84 55 49 56
REMARK SMILES IDX 50 57 64 59 85 60 52 61 36 62 37 63 45 64 38 65 39 66 43 67
REMARK SMILES IDX 46 68 40 69 41 70 44 71 42 72 68 73 69 74 77 75 70 76 71 77
REMARK SMILES IDX 75 78 78 79 72 80 73 81 76 82 74 83 53 84 54 85 62 86 55 87
REMARK SMILES IDX 56 88 60 89 63 90 57 91 58 92 61 93 59 94
REMARK H PARENT 20 5 5 11 24 28 83 47 51 58
REMARK Flexibility Score: inf
ROOT
ATOM      1  C   UNL A   1      31.374  30.510  25.671  1.00  0.00     0.117 C 
ENDROOT
BRANCH   1   2
ATOM      2  N   UNL A   1      32.703  29.938  25.564  1.00  0.00    -0.354 N 
ATOM      3  C   UNL A   1      33.161  28.656  25.482  1.00  0.00     0.245 C 
ATOM      4  O   UNL A   1      34.330  28.552  25.086  1.00  0.00    -0.272 OA
ATOM      5  H   UNL A   1      33.420  30.613  25.546  1.00  0.00     0.163 HD
BRANCH   3   6
ATOM      6  C   UNL A   1      32.326  27.400  25.857  1.00  0.00     0.115 C 
ATOM      7  C   UNL A   1      31.515  27.742  27.132  1.00  0.00     0.045 C 
BRANCH   6   8
ATOM      8  C   UNL A   1      31.301  26.982  24.751  1.00  0.00     0.035 C 
ATOM      9  C   UNL A   1      29.974  26.378  25.205  1.00  0.00     0.007 C 
ENDBRANCH   6   8
BRANCH   6  10
ATOM     10  N   UNL A   1      33.118  26.178  26.139  1.00  0.00    -0.351 N 
ATOM     11  H   UNL A   1      33.661  26.244  26.958  1.00  0.00     0.163 HD
BRANCH  10  12
ATOM     12  C   UNL A   1      33.249  24.972  25.491  1.00  0.00     0.205 A 
ATOM     13  C   UNL A   1      32.948  23.695  25.991  1.00  0.00     0.334 A 
ATOM     14  N   UNL A   1      33.792  24.681  24.250  1.00  0.00    -0.246 N 
ATOM     15  C   UNL A   1      33.644  22.774  25.161  1.00  0.00     0.145 A 
ATOM     16  N   UNL A   1      34.309  23.434  24.206  1.00  0.00    -0.169 NA
ATOM     17  C   UNL A   1      33.620  25.282  22.953  1.00  0.00     0.176 C 
BRANCH  13  18
ATOM     18  N   UNL A   1      32.126  23.415  27.138  1.00  0.00     0.068 N 
ATOM     19  O   UNL A   1      31.068  24.044  27.249  1.00  0.00    -0.258 OA
ATOM     20  O   UNL A   1      32.546  22.580  27.953  1.00  0.00    -0.258 OA
ENDBRANCH  13  18
BRANCH  15  21
ATOM     21  C   UNL A   1      33.757  21.272  25.191  1.00  0.00     0.041 C 
ATOM     22  C   UNL A   1      32.894  20.630  24.093  1.00  0.00     0.014 C 
ATOM     23  C   UNL A   1      35.210  20.813  25.049  1.00  0.00     0.014 C 
ENDBRANCH  15  21
ENDBRANCH  10  12
ENDBRANCH   6  10
ENDBRANCH   3   6
ENDBRANCH   1   2
BRANCH   1  24
ATOM     24  C   UNL A   1      31.244  31.792  26.487  1.00  0.00     0.042 C 
BRANCH  24  25
ATOM     25  C   UNL A   1      32.544  32.486  26.877  1.00  0.00     0.118 C 
BRANCH  25  26
ATOM     26  N   UNL A   1      32.348  33.828  27.403  1.00  0.00    -0.352 N 
ATOM     27  C   UNL A   1      33.040  34.497  28.380  1.00  0.00     0.251 C 
ATOM     28  H   UNL A   1      31.608  34.332  26.995  1.00  0.00     0.163 HD
ATOM     29  O   UNL A   1      32.652  35.606  28.749  1.00  0.00    -0.269 OA
BRANCH  27  30
ATOM     30  C   UNL A   1      34.229  33.894  29.022  1.00  0.00     0.039 A 
ATOM     31  C   UNL A   1      34.030  32.878  29.962  1.00  0.00     0.014 A 
ATOM     32  C   UNL A   1      35.523  34.343  28.742  1.00  0.00     0.014 A 
ATOM     33  C   UNL A   1      35.128  32.282  30.587  1.00  0.00     0.010 A 
ATOM     34  C   UNL A   1      36.622  33.709  29.328  1.00  0.00     0.010 A 
ATOM     35  C   UNL A   1      36.436  32.675  30.260  1.00  0.00    -0.014 A 
BRANCH  35  36
ATOM     36  C   UNL A   1      37.604  32.001  30.889  1.00  0.00     0.031 A 
ATOM     37  C   UNL A   1      38.048  32.373  32.277  1.00  0.00     0.074 A 
ATOM     38  C   UNL A   1      38.278  31.059  30.201  1.00  0.00     0.049 A 
ATOM     39  N   UNL A   1      39.034  31.886  32.990  1.00  0.00    -0.248 NA
ATOM     40  C   UNL A   1      37.295  33.443  32.948  1.00  0.00     0.031 C 
ATOM     41  C   UNL A   1      37.972  30.634  28.836  1.00  0.00     0.029 A 
ATOM     42  N   UNL A   1      39.360  30.290  30.555  1.00  0.00    -0.354 N 
ATOM     43  C   UNL A   1      39.021  32.590  34.188  1.00  0.00     0.074 A 
ATOM     44  C   UNL A   1      37.964  33.573  34.085  1.00  0.00     0.031 C 
ATOM     45  C   UNL A   1      38.826  29.662  28.477  1.00  0.00     0.029 A 
ATOM     46  C   UNL A   1      39.764  29.423  29.569  1.00  0.00     0.049 A 
ATOM     47  H   UNL A   1      39.803  30.354  31.431  1.00  0.00     0.167 HD
ATOM     48  C   UNL A   1      39.804  32.417  35.281  1.00  0.00     0.037 A 
ATOM     49  C   UNL A   1      40.779  28.537  29.546  1.00  0.00     0.037 A 
ATOM     50  C   UNL A   1      40.852  31.434  35.383  1.00  0.00     0.049 A 
ATOM     51  C   UNL A   1      41.652  28.385  30.764  1.00  0.00     0.074 A 
ATOM     52  C   UNL A   1      41.669  31.152  36.465  1.00  0.00     0.029 A 
ATOM     53  N   UNL A   1      41.238  30.578  34.361  1.00  0.00    -0.354 N 
ATOM     54  N   UNL A   1      41.582  29.005  31.917  1.00  0.00    -0.248 NA
ATOM     55  C   UNL A   1      42.740  27.401  30.680  1.00  0.00     0.031 C 
ATOM     56  C   UNL A   1      42.587  30.170  36.079  1.00  0.00     0.029 A 
ATOM     57  C   UNL A   1      42.299  29.790  34.778  1.00  0.00     0.049 A 
ATOM     58  H   UNL A   1      40.819  30.537  33.471  1.00  0.00     0.167 HD
ATOM     59  C   UNL A   1      42.593  28.466  32.703  1.00  0.00     0.074 A 
ATOM     60  C   UNL A   1      43.249  27.454  31.902  1.00  0.00     0.031 C 
ATOM     61  C   UNL A   1      42.944  28.781  33.974  1.00  0.00     0.037 A 
BRANCH  48  62
ATOM     62  C   UNL A   1      39.563  33.318  36.460  1.00  0.00     0.064 A 
ATOM     63  C   UNL A   1      38.682  32.962  37.494  1.00  0.00     0.173 A 
ATOM     64  C   UNL A   1      40.251  34.535  36.581  1.00  0.00     0.173 A 
ATOM     65  F   UNL A   1      37.991  31.813  37.427  1.00  0.00    -0.203 F 
ATOM     66  C   UNL A   1      38.476  33.803  38.585  1.00  0.00     0.198 A 
ATOM     67  C   UNL A   1      40.069  35.358  37.690  1.00  0.00     0.198 A 
ATOM     68  F   UNL A   1      41.113  34.922  35.628  1.00  0.00    -0.203 F 
ATOM     69  F   UNL A   1      37.592  33.464  39.532  1.00  0.00    -0.200 F 
ATOM     70  C   UNL A   1      39.176  34.996  38.686  1.00  0.00     0.200 A 
ATOM     71  F   UNL A   1      40.760  36.502  37.795  1.00  0.00    -0.200 F 
ATOM     72  F   UNL A   1      38.984  35.800  39.740  1.00  0.00    -0.200 F 
ENDBRANCH  48  62
BRANCH  49  73
ATOM     73  C   UNL A   1      41.017  27.709  28.333  1.00  0.00     0.064 A 
ATOM     74  C   UNL A   1      40.420  26.449  28.188  1.00  0.00     0.173 A 
ATOM     75  C   UNL A   1      41.860  28.152  27.303  1.00  0.00     0.173 A 
ATOM     76  F   UNL A   1      39.623  25.970  29.156  1.00  0.00    -0.203 F 
ATOM     77  C   UNL A   1      40.676  25.654  27.073  1.00  0.00     0.198 A 
ATOM     78  C   UNL A   1      42.087  27.371  26.172  1.00  0.00     0.198 A 
ATOM     79  F   UNL A   1      42.454  29.351  27.389  1.00  0.00    -0.203 F 
ATOM     80  F   UNL A   1      40.135  24.431  26.986  1.00  0.00    -0.200 F 
ATOM     81  C   UNL A   1      41.505  26.118  26.062  1.00  0.00     0.200 A 
ATOM     82  F   UNL A   1      42.876  27.830  25.191  1.00  0.00    -0.200 F 
ATOM     83  F   UNL A   1      41.747  25.354  24.989  1.00  0.00    -0.200 F 
ENDBRANCH  49  73
BRANCH  61  84
ATOM     84  C   UNL A   1      44.064  27.995  34.597  1.00  0.00     0.064 A 
ATOM     85  C   UNL A   1      43.840  26.780  35.262  1.00  0.00     0.173 A 
ATOM     86  C   UNL A   1      45.389  28.452  34.499  1.00  0.00     0.173 A 
ATOM     87  F   UNL A   1      42.592  26.304  35.395  1.00  0.00    -0.203 F 
ATOM     88  C   UNL A   1      44.893  26.071  35.835  1.00  0.00     0.198 A 
ATOM     89  C   UNL A   1      46.443  27.721  35.042  1.00  0.00     0.198 A 
ATOM     90  F   UNL A   1      45.663  29.603  33.868  1.00  0.00    -0.203 F 
ATOM     91  F   UNL A   1      44.645  24.943  36.516  1.00  0.00    -0.200 F 
ATOM     92  C   UNL A   1      46.192  26.537  35.719  1.00  0.00     0.200 A 
ATOM     93  F   UNL A   1      47.701  28.165  34.913  1.00  0.00    -0.200 F 
ATOM     94  F   UNL A   1      47.205  25.850  36.265  1.00  0.00    -0.200 F 
ENDBRANCH  61  84
ENDBRANCH  35  36
ENDBRANCH  27  30
ENDBRANCH  25  26
ENDBRANCH  24  25
ENDBRANCH   1  24
TORSDOF 15
ENDMDL
