MODEL 1
REMARK VINA RESULT:     -11.7      0.000      0.000
REMARK SMILES CC[C@@H](NC(=O)N[C@@](C)(CC)C(=O)NCCCNC(=O)c1ccc(-c2c3nc(c(-c4c(F)c(F)c(F)c(F)c4F)c4ccc([nH]4)c(-c4c(F)c(F)c(F)c(F)c4F)c4nc(c(-c5c(F)c(F)c(F)c(F)c5F)c5ccc2[nH]5)C=C4)C=C3)cc1)c1cccs1
REMARK SMILES IDX 15 1 14 2 12 3 13 4 8 6 9 7 7 8 4 9 5 10 6 12 3 14 2 15 1 16
REMARK SMILES IDX 84 17 85 18 88 19 86 20 87 21 10 22 11 23 16 24 17 25 18 26
REMARK SMILES IDX 19 27 20 29 21 30 22 31 83 32 23 33 82 34 24 35 25 36 26 37
REMARK SMILES IDX 76 38 27 39 81 40 75 41 77 42 28 43 80 44 74 45 73 46 29 48
REMARK SMILES IDX 61 49 41 50 60 51 42 52 45 53 59 54 78 55 43 56 44 57 58 59
REMARK SMILES IDX 79 60 46 61 30 62 31 63 39 64 32 65 33 66 37 67 40 68 34 69
REMARK SMILES IDX 35 70 38 71 36 72 62 73 63 74 71 75 64 76 65 77 69 78 72 79
REMARK SMILES IDX 66 80 67 81 70 82 68 83 47 84 48 85 56 86 49 87 50 88 54 89
REMARK SMILES IDX 57 90 51 91 52 92 55 93 53 94
REMARK H PARENT 14 5 4 11 7 13 18 28 77 47 45 58
REMARK Flexibility Score: inf
ROOT
ATOM      1  C   UNL A   1      40.363  21.360  26.710  1.00  0.00     0.117 C 
ENDROOT
BRANCH   1   2
ATOM      2  N   UNL A   1      39.591  22.203  25.801  1.00  0.00    -0.354 N 
ATOM      3  C   UNL A   1      38.336  22.665  26.104  1.00  0.00     0.245 C 
ATOM      4  O   UNL A   1      38.313  23.791  26.623  1.00  0.00    -0.272 OA
ATOM      5  H   UNL A   1      39.989  22.449  24.934  1.00  0.00     0.163 HD
BRANCH   3   6
ATOM      6  C   UNL A   1      37.059  22.053  25.434  1.00  0.00     0.117 C 
ATOM      7  C   UNL A   1      37.024  20.794  24.556  1.00  0.00     0.045 C 
BRANCH   6   8
ATOM      8  N   UNL A   1      36.117  21.822  26.544  1.00  0.00    -0.324 N 
ATOM      9  N   UNL A   1      33.938  21.171  25.740  1.00  0.00    -0.331 N 
ATOM     10  C   UNL A   1      34.818  21.558  26.659  1.00  0.00     0.316 C 
ATOM     11  H   UNL A   1      33.068  21.572  25.972  1.00  0.00     0.166 HD
ATOM     12  O   UNL A   1      34.340  21.747  27.787  1.00  0.00    -0.249 OA
ATOM     13  H   UNL A   1      36.560  21.879  27.420  1.00  0.00     0.166 HD
BRANCH   9  14
ATOM     14  C   UNL A   1      33.748  20.376  24.507  1.00  0.00     0.124 C 
BRANCH  14  15
ATOM     15  C   UNL A   1      32.652  20.842  23.540  1.00  0.00     0.027 C 
ATOM     16  C   UNL A   1      32.851  22.272  23.050  1.00  0.00     0.006 C 
ENDBRANCH  14  15
BRANCH  14  17
ATOM     17  C   UNL A   1      33.826  18.873  24.693  1.00  0.00     0.027 A 
ATOM     18  C   UNL A   1      34.811  17.987  24.327  1.00  0.00     0.017 A 
ATOM     19  S   UNL A   1      32.608  18.015  25.560  1.00  0.00    -0.147 S 
ATOM     20  C   UNL A   1      34.562  16.631  24.638  1.00  0.00     0.012 A 
ATOM     21  C   UNL A   1      33.391  16.504  25.340  1.00  0.00     0.065 A 
ENDBRANCH  14  17
ENDBRANCH   9  14
ENDBRANCH   6   8
BRANCH   6  22
ATOM     22  C   UNL A   1      36.553  23.152  24.428  1.00  0.00     0.035 C 
ATOM     23  C   UNL A   1      36.618  22.860  22.938  1.00  0.00     0.007 C 
ENDBRANCH   6  22
ENDBRANCH   3   6
ENDBRANCH   1   2
BRANCH   1  24
ATOM     24  C   UNL A   1      40.849  20.073  26.064  1.00  0.00     0.042 C 
BRANCH  24  25
ATOM     25  C   UNL A   1      42.226  19.651  26.554  1.00  0.00     0.118 C 
BRANCH  25  26
ATOM     26  N   UNL A   1      43.058  18.987  25.555  1.00  0.00    -0.352 N 
ATOM     27  C   UNL A   1      44.091  19.525  24.810  1.00  0.00     0.251 C 
ATOM     28  H   UNL A   1      42.860  18.036  25.391  1.00  0.00     0.163 HD
ATOM     29  O   UNL A   1      44.668  18.863  23.953  1.00  0.00    -0.269 OA
BRANCH  27  30
ATOM     30  C   UNL A   1      44.457  20.941  25.027  1.00  0.00     0.039 A 
ATOM     31  C   UNL A   1      43.833  21.939  24.276  1.00  0.00     0.014 A 
ATOM     32  C   UNL A   1      45.320  21.277  26.070  1.00  0.00     0.014 A 
ATOM     33  C   UNL A   1      43.999  23.278  24.643  1.00  0.00     0.010 A 
ATOM     34  C   UNL A   1      45.367  22.590  26.517  1.00  0.00     0.010 A 
ATOM     35  C   UNL A   1      44.724  23.611  25.798  1.00  0.00    -0.014 A 
BRANCH  35  36
ATOM     36  C   UNL A   1      44.887  25.018  26.251  1.00  0.00     0.031 A 
ATOM     37  C   UNL A   1      46.239  25.674  26.129  1.00  0.00     0.074 A 
ATOM     38  C   UNL A   1      43.867  25.675  26.837  1.00  0.00     0.049 A 
ATOM     39  N   UNL A   1      46.641  26.842  26.564  1.00  0.00    -0.248 NA
ATOM     40  C   UNL A   1      47.300  24.884  25.482  1.00  0.00     0.031 C 
ATOM     41  C   UNL A   1      42.531  25.131  27.086  1.00  0.00     0.029 A 
ATOM     42  N   UNL A   1      43.798  26.954  27.335  1.00  0.00    -0.354 N 
ATOM     43  C   UNL A   1      48.000  26.899  26.279  1.00  0.00     0.074 A 
ATOM     44  C   UNL A   1      48.372  25.620  25.720  1.00  0.00     0.031 C 
ATOM     45  C   UNL A   1      41.763  26.081  27.647  1.00  0.00     0.029 A 
ATOM     46  C   UNL A   1      42.559  27.291  27.826  1.00  0.00     0.049 A 
ATOM     47  H   UNL A   1      44.565  27.571  27.341  1.00  0.00     0.167 HD
ATOM     48  C   UNL A   1      48.855  27.938  26.420  1.00  0.00     0.037 A 
ATOM     49  C   UNL A   1      42.118  28.454  28.345  1.00  0.00     0.037 A 
ATOM     50  C   UNL A   1      48.464  29.232  26.907  1.00  0.00     0.049 A 
ATOM     51  C   UNL A   1      43.070  29.620  28.429  1.00  0.00     0.074 A 
ATOM     52  C   UNL A   1      49.229  30.376  27.040  1.00  0.00     0.029 A 
ATOM     53  N   UNL A   1      47.181  29.556  27.320  1.00  0.00    -0.354 N 
ATOM     54  N   UNL A   1      44.338  29.681  28.100  1.00  0.00    -0.248 NA
ATOM     55  C   UNL A   1      42.521  30.885  28.938  1.00  0.00     0.031 C 
ATOM     56  C   UNL A   1      48.411  31.389  27.553  1.00  0.00     0.029 A 
ATOM     57  C   UNL A   1      47.128  30.885  27.700  1.00  0.00     0.049 A 
ATOM     58  H   UNL A   1      46.418  28.933  27.340  1.00  0.00     0.167 HD
ATOM     59  C   UNL A   1      44.726  30.996  28.321  1.00  0.00     0.074 A 
ATOM     60  C   UNL A   1      43.556  31.700  28.802  1.00  0.00     0.031 C 
ATOM     61  C   UNL A   1      45.942  31.570  28.144  1.00  0.00     0.037 A 
BRANCH  48  62
ATOM     62  C   UNL A   1      50.282  27.717  26.009  1.00  0.00     0.064 A 
ATOM     63  C   UNL A   1      51.289  27.462  26.956  1.00  0.00     0.173 A 
ATOM     64  C   UNL A   1      50.656  27.769  24.658  1.00  0.00     0.173 A 
ATOM     65  F   UNL A   1      50.990  27.419  28.264  1.00  0.00    -0.203 F 
ATOM     66  C   UNL A   1      52.617  27.314  26.571  1.00  0.00     0.198 A 
ATOM     67  C   UNL A   1      51.981  27.584  24.273  1.00  0.00     0.198 A 
ATOM     68  F   UNL A   1      49.736  28.006  23.711  1.00  0.00    -0.203 F 
ATOM     69  F   UNL A   1      53.568  27.146  27.501  1.00  0.00    -0.200 F 
ATOM     70  C   UNL A   1      52.963  27.370  25.230  1.00  0.00     0.200 A 
ATOM     71  F   UNL A   1      52.313  27.626  22.975  1.00  0.00    -0.200 F 
ATOM     72  F   UNL A   1      54.243  27.229  24.859  1.00  0.00    -0.200 F 
ENDBRANCH  48  62
BRANCH  49  73
ATOM     73  C   UNL A   1      40.697  28.604  28.757  1.00  0.00     0.064 A 
ATOM     74  C   UNL A   1      39.729  29.040  27.839  1.00  0.00     0.173 A 
ATOM     75  C   UNL A   1      40.276  28.337  30.067  1.00  0.00     0.173 A 
ATOM     76  F   UNL A   1      40.084  29.327  26.578  1.00  0.00    -0.203 F 
ATOM     77  C   UNL A   1      38.403  29.232  28.224  1.00  0.00     0.198 A 
ATOM     78  C   UNL A   1      38.944  28.502  30.443  1.00  0.00     0.198 A 
ATOM     79  F   UNL A   1      41.158  27.908  30.982  1.00  0.00    -0.203 F 
ATOM     80  F   UNL A   1      37.512  29.701  27.339  1.00  0.00    -0.200 F 
ATOM     81  C   UNL A   1      38.010  28.960  29.525  1.00  0.00     0.200 A 
ATOM     82  F   UNL A   1      38.564  28.225  31.698  1.00  0.00    -0.200 F 
ATOM     83  F   UNL A   1      36.736  29.146  29.895  1.00  0.00    -0.200 F 
ENDBRANCH  49  73
BRANCH  61  84
ATOM     84  C   UNL A   1      46.049  33.043  28.404  1.00  0.00     0.064 A 
ATOM     85  C   UNL A   1      46.394  33.548  29.665  1.00  0.00     0.173 A 
ATOM     86  C   UNL A   1      45.833  33.959  27.362  1.00  0.00     0.173 A 
ATOM     87  F   UNL A   1      46.597  32.712  30.694  1.00  0.00    -0.203 F 
ATOM     88  C   UNL A   1      46.488  34.920  29.882  1.00  0.00     0.198 A 
ATOM     89  C   UNL A   1      45.959  35.328  27.576  1.00  0.00     0.198 A 
ATOM     90  F   UNL A   1      45.510  33.524  26.135  1.00  0.00    -0.203 F 
ATOM     91  F   UNL A   1      46.767  35.384  31.108  1.00  0.00    -0.200 F 
ATOM     92  C   UNL A   1      46.277  35.807  28.838  1.00  0.00     0.200 A 
ATOM     93  F   UNL A   1      45.768  36.183  26.563  1.00  0.00    -0.200 F 
ATOM     94  F   UNL A   1      46.371  37.127  29.049  1.00  0.00    -0.200 F 
ENDBRANCH  61  84
ENDBRANCH  35  36
ENDBRANCH  27  30
ENDBRANCH  25  26
ENDBRANCH  24  25
ENDBRANCH   1  24
TORSDOF 15
ENDMDL
MODEL 2
REMARK VINA RESULT:     -11.6      5.346     10.736
REMARK SMILES CC[C@@H](NC(=O)N[C@@](C)(CC)C(=O)NCCCNC(=O)c1ccc(-c2c3nc(c(-c4c(F)c(F)c(F)c(F)c4F)c4ccc([nH]4)c(-c4c(F)c(F)c(F)c(F)c4F)c4nc(c(-c5c(F)c(F)c(F)c(F)c5F)c5ccc2[nH]5)C=C4)C=C3)cc1)c1cccs1
REMARK SMILES IDX 15 1 14 2 12 3 13 4 8 6 9 7 7 8 4 9 5 10 6 12 3 14 2 15 1 16
REMARK SMILES IDX 84 17 85 18 88 19 86 20 87 21 10 22 11 23 16 24 17 25 18 26
REMARK SMILES IDX 19 27 20 29 21 30 22 31 83 32 23 33 82 34 24 35 25 36 26 37
REMARK SMILES IDX 76 38 27 39 81 40 75 41 77 42 28 43 80 44 74 45 73 46 29 48
REMARK SMILES IDX 61 49 41 50 60 51 42 52 45 53 59 54 78 55 43 56 44 57 58 59
REMARK SMILES IDX 79 60 46 61 30 62 31 63 39 64 32 65 33 66 37 67 40 68 34 69
REMARK SMILES IDX 35 70 38 71 36 72 62 73 63 74 71 75 64 76 65 77 69 78 72 79
REMARK SMILES IDX 66 80 67 81 70 82 68 83 47 84 48 85 56 86 49 87 50 88 54 89
REMARK SMILES IDX 57 90 51 91 52 92 55 93 53 94
REMARK H PARENT 14 5 4 11 7 13 18 28 77 47 45 58
REMARK Flexibility Score: inf
ROOT
ATOM      1  C   UNL A   1      31.359  27.979  26.183  1.00  0.00     0.117 C 
ENDROOT
BRANCH   1   2
ATOM      2  N   UNL A   1      30.850  26.828  25.440  1.00  0.00    -0.354 N 
ATOM      3  C   UNL A   1      30.820  25.562  25.965  1.00  0.00     0.245 C 
ATOM      4  O   UNL A   1      29.748  25.255  26.509  1.00  0.00    -0.272 OA
ATOM      5  H   UNL A   1      30.516  26.968  24.525  1.00  0.00     0.163 HD
BRANCH   3   6
ATOM      6  C   UNL A   1      31.843  24.466  25.510  1.00  0.00     0.117 C 
ATOM      7  C   UNL A   1      33.069  24.702  24.618  1.00  0.00     0.045 C 
BRANCH   6   8
ATOM      8  N   UNL A   1      32.337  23.860  26.759  1.00  0.00    -0.324 N 
ATOM      9  N   UNL A   1      33.047  21.580  26.420  1.00  0.00    -0.331 N 
ATOM     10  C   UNL A   1      32.735  22.650  27.145  1.00  0.00     0.316 C 
ATOM     11  H   UNL A   1      32.772  20.783  26.931  1.00  0.00     0.166 HD
ATOM     12  O   UNL A   1      32.777  22.476  28.372  1.00  0.00    -0.249 OA
ATOM     13  H   UNL A   1      32.383  24.514  27.493  1.00  0.00     0.166 HD
BRANCH   9  14
ATOM     14  C   UNL A   1      33.645  21.112  25.151  1.00  0.00     0.124 C 
BRANCH  14  15
ATOM     15  C   UNL A   1      32.974  19.914  24.466  1.00  0.00     0.027 C 
ATOM     16  C   UNL A   1      32.292  20.278  23.152  1.00  0.00     0.006 C 
ENDBRANCH  14  15
BRANCH  14  17
ATOM     17  C   UNL A   1      35.161  21.083  25.126  1.00  0.00     0.027 A 
ATOM     18  C   UNL A   1      36.022  20.032  24.925  1.00  0.00     0.017 A 
ATOM     19  S   UNL A   1      36.085  22.533  25.265  1.00  0.00    -0.147 S 
ATOM     20  C   UNL A   1      37.399  20.348  24.980  1.00  0.00     0.012 A 
ATOM     21  C   UNL A   1      37.578  21.698  25.140  1.00  0.00     0.065 A 
ENDBRANCH  14  17
ENDBRANCH   9  14
ENDBRANCH   6   8
BRANCH   6  22
ATOM     22  C   UNL A   1      31.007  23.459  24.637  1.00  0.00     0.035 C 
ATOM     23  C   UNL A   1      30.644  23.856  23.216  1.00  0.00     0.007 C 
ENDBRANCH   6  22
ENDBRANCH   3   6
ENDBRANCH   1   2
BRANCH   1  24
ATOM     24  C   UNL A   1      31.741  29.146  25.287  1.00  0.00     0.042 C 
BRANCH  24  25
ATOM     25  C   UNL A   1      32.924  29.938  25.824  1.00  0.00     0.118 C 
BRANCH  25  26
ATOM     26  N   UNL A   1      32.583  31.236  26.400  1.00  0.00    -0.352 N 
ATOM     27  C   UNL A   1      33.324  31.999  27.282  1.00  0.00     0.251 C 
ATOM     28  H   UNL A   1      31.717  31.617  26.124  1.00  0.00     0.163 HD
ATOM     29  O   UNL A   1      32.885  33.051  27.738  1.00  0.00    -0.269 OA
BRANCH  27  30
ATOM     30  C   UNL A   1      34.646  31.498  27.715  1.00  0.00     0.039 A 
ATOM     31  C   UNL A   1      35.683  32.401  27.955  1.00  0.00     0.014 A 
ATOM     32  C   UNL A   1      34.807  30.144  28.009  1.00  0.00     0.014 A 
ATOM     33  C   UNL A   1      36.847  31.957  28.588  1.00  0.00     0.010 A 
ATOM     34  C   UNL A   1      35.898  29.737  28.763  1.00  0.00     0.010 A 
ATOM     35  C   UNL A   1      36.943  30.633  29.046  1.00  0.00    -0.014 A 
BRANCH  35  36
ATOM     36  C   UNL A   1      38.143  30.129  29.764  1.00  0.00     0.031 A 
ATOM     37  C   UNL A   1      38.382  30.566  31.187  1.00  0.00     0.074 A 
ATOM     38  C   UNL A   1      39.051  29.358  29.133  1.00  0.00     0.049 A 
ATOM     39  N   UNL A   1      39.414  30.350  31.964  1.00  0.00    -0.248 NA
ATOM     40  C   UNL A   1      37.344  31.412  31.800  1.00  0.00     0.031 C 
ATOM     41  C   UNL A   1      38.980  28.927  27.735  1.00  0.00     0.029 A 
ATOM     42  N   UNL A   1      40.220  28.800  29.589  1.00  0.00    -0.354 N 
ATOM     43  C   UNL A   1      39.162  31.066  33.127  1.00  0.00     0.074 A 
ATOM     44  C   UNL A   1      37.930  31.793  32.923  1.00  0.00     0.031 C 
ATOM     45  C   UNL A   1      40.033  28.137  27.462  1.00  0.00     0.029 A 
ATOM     46  C   UNL A   1      40.869  28.030  28.654  1.00  0.00     0.049 A 
ATOM     47  H   UNL A   1      40.562  28.941  30.501  1.00  0.00     0.167 HD
ATOM     48  C   UNL A   1      39.863  31.081  34.286  1.00  0.00     0.037 A 
ATOM     49  C   UNL A   1      42.002  27.308  28.759  1.00  0.00     0.037 A 
ATOM     50  C   UNL A   1      41.046  30.299  34.511  1.00  0.00     0.049 A 
ATOM     51  C   UNL A   1      42.729  27.283  30.079  1.00  0.00     0.074 A 
ATOM     52  C   UNL A   1      41.808  30.189  35.660  1.00  0.00     0.029 A 
ATOM     53  N   UNL A   1      41.627  29.470  33.562  1.00  0.00    -0.354 N 
ATOM     54  N   UNL A   1      42.448  27.916  31.192  1.00  0.00    -0.248 NA
ATOM     55  C   UNL A   1      43.920  26.426  30.161  1.00  0.00     0.031 C 
ATOM     56  C   UNL A   1      42.862  29.307  35.400  1.00  0.00     0.029 A 
ATOM     57  C   UNL A   1      42.732  28.836  34.103  1.00  0.00     0.049 A 
ATOM     58  H   UNL A   1      41.301  29.349  32.641  1.00  0.00     0.167 HD
ATOM     59  C   UNL A   1      43.399  27.503  32.116  1.00  0.00     0.074 A 
ATOM     60  C   UNL A   1      44.257  26.557  31.435  1.00  0.00     0.031 C 
ATOM     61  C   UNL A   1      43.549  27.873  33.412  1.00  0.00     0.037 A 
BRANCH  48  62
ATOM     62  C   UNL A   1      39.339  31.945  35.397  1.00  0.00     0.064 A 
ATOM     63  C   UNL A   1      39.679  33.305  35.493  1.00  0.00     0.173 A 
ATOM     64  C   UNL A   1      38.498  31.411  36.384  1.00  0.00     0.173 A 
ATOM     65  F   UNL A   1      40.496  33.862  34.585  1.00  0.00    -0.203 F 
ATOM     66  C   UNL A   1      39.236  34.083  36.557  1.00  0.00     0.198 A 
ATOM     67  C   UNL A   1      38.026  32.203  37.428  1.00  0.00     0.198 A 
ATOM     68  F   UNL A   1      38.138  30.119  36.341  1.00  0.00    -0.203 F 
ATOM     69  F   UNL A   1      39.635  35.358  36.664  1.00  0.00    -0.200 F 
ATOM     70  C   UNL A   1      38.405  33.534  37.521  1.00  0.00     0.200 A 
ATOM     71  F   UNL A   1      37.213  31.674  38.354  1.00  0.00    -0.200 F 
ATOM     72  F   UNL A   1      37.979  34.284  38.547  1.00  0.00    -0.200 F 
ENDBRANCH  48  62
BRANCH  49  73
ATOM     73  C   UNL A   1      42.483  26.490  27.612  1.00  0.00     0.064 A 
ATOM     74  C   UNL A   1      41.980  25.198  27.396  1.00  0.00     0.173 A 
ATOM     75  C   UNL A   1      43.459  26.965  26.726  1.00  0.00     0.173 A 
ATOM     76  F   UNL A   1      41.058  24.691  28.227  1.00  0.00    -0.203 F 
ATOM     77  C   UNL A   1      42.456  24.403  26.356  1.00  0.00     0.198 A 
ATOM     78  C   UNL A   1      43.914  26.178  25.669  1.00  0.00     0.198 A 
ATOM     79  F   UNL A   1      43.967  28.196  26.882  1.00  0.00    -0.203 F 
ATOM     80  F   UNL A   1      41.996  23.153  26.205  1.00  0.00    -0.200 F 
ATOM     81  C   UNL A   1      43.421  24.894  25.490  1.00  0.00     0.200 A 
ATOM     82  F   UNL A   1      44.838  26.661  24.825  1.00  0.00    -0.200 F 
ATOM     83  F   UNL A   1      43.881  24.129  24.491  1.00  0.00    -0.200 F 
ENDBRANCH  49  73
BRANCH  61  84
ATOM     84  C   UNL A   1      44.639  27.202  34.194  1.00  0.00     0.064 A 
ATOM     85  C   UNL A   1      45.936  27.728  34.257  1.00  0.00     0.173 A 
ATOM     86  C   UNL A   1      44.365  26.031  34.918  1.00  0.00     0.173 A 
ATOM     87  F   UNL A   1      46.248  28.838  33.572  1.00  0.00    -0.203 F 
ATOM     88  C   UNL A   1      46.931  27.087  34.991  1.00  0.00     0.198 A 
ATOM     89  C   UNL A   1      45.355  25.411  35.675  1.00  0.00     0.198 A 
ATOM     90  F   UNL A   1      43.136  25.494  34.898  1.00  0.00    -0.203 F 
ATOM     91  F   UNL A   1      48.178  27.578  34.994  1.00  0.00    -0.200 F 
ATOM     92  C   UNL A   1      46.638  25.934  35.703  1.00  0.00     0.200 A 
ATOM     93  F   UNL A   1      45.067  24.305  36.374  1.00  0.00    -0.200 F 
ATOM     94  F   UNL A   1      47.597  25.322  36.411  1.00  0.00    -0.200 F 
ENDBRANCH  61  84
ENDBRANCH  35  36
ENDBRANCH  27  30
ENDBRANCH  25  26
ENDBRANCH  24  25
ENDBRANCH   1  24
TORSDOF 15
ENDMDL
MODEL 3
REMARK VINA RESULT:     -11.5      6.453     10.788
REMARK SMILES CC[C@@H](NC(=O)N[C@@](C)(CC)C(=O)NCCCNC(=O)c1ccc(-c2c3nc(c(-c4c(F)c(F)c(F)c(F)c4F)c4ccc([nH]4)c(-c4c(F)c(F)c(F)c(F)c4F)c4nc(c(-c5c(F)c(F)c(F)c(F)c5F)c5ccc2[nH]5)C=C4)C=C3)cc1)c1cccs1
REMARK SMILES IDX 15 1 14 2 12 3 13 4 8 6 9 7 7 8 4 9 5 10 6 12 3 14 2 15 1 16
REMARK SMILES IDX 84 17 85 18 88 19 86 20 87 21 10 22 11 23 16 24 17 25 18 26
REMARK SMILES IDX 19 27 20 29 21 30 22 31 83 32 23 33 82 34 24 35 25 36 26 37
REMARK SMILES IDX 76 38 27 39 81 40 75 41 77 42 28 43 80 44 74 45 73 46 29 48
REMARK SMILES IDX 61 49 41 50 60 51 42 52 45 53 59 54 78 55 43 56 44 57 58 59
REMARK SMILES IDX 79 60 46 61 30 62 31 63 39 64 32 65 33 66 37 67 40 68 34 69
REMARK SMILES IDX 35 70 38 71 36 72 62 73 63 74 71 75 64 76 65 77 69 78 72 79
REMARK SMILES IDX 66 80 67 81 70 82 68 83 47 84 48 85 56 86 49 87 50 88 54 89
REMARK SMILES IDX 57 90 51 91 52 92 55 93 53 94
REMARK H PARENT 14 5 4 11 7 13 18 28 77 47 45 58
REMARK Flexibility Score: inf
ROOT
ATOM      1  C   UNL A   1      32.704  30.208  26.733  1.00  0.00     0.117 C 
ENDROOT
BRANCH   1   2
ATOM      2  N   UNL A   1      31.691  29.200  26.434  1.00  0.00    -0.354 N 
ATOM      3  C   UNL A   1      31.713  27.942  26.979  1.00  0.00     0.245 C 
ATOM      4  O   UNL A   1      31.044  27.817  28.016  1.00  0.00    -0.272 OA
ATOM      5  H   UNL A   1      30.961  29.434  25.815  1.00  0.00     0.163 HD
BRANCH   3   6
ATOM      6  C   UNL A   1      32.139  26.695  26.132  1.00  0.00     0.117 C 
ATOM      7  C   UNL A   1      33.582  26.282  25.810  1.00  0.00     0.045 C 
BRANCH   6   8
ATOM      8  N   UNL A   1      31.507  25.543  26.800  1.00  0.00    -0.324 N 
ATOM      9  N   UNL A   1      31.401  23.621  25.347  1.00  0.00    -0.331 N 
ATOM     10  C   UNL A   1      31.120  24.322  26.442  1.00  0.00     0.316 C 
ATOM     11  H   UNL A   1      30.609  23.075  25.131  1.00  0.00     0.166 HD
ATOM     12  O   UNL A   1      30.337  23.766  27.226  1.00  0.00    -0.249 OA
ATOM     13  H   UNL A   1      31.324  25.723  27.750  1.00  0.00     0.166 HD
BRANCH   9  14
ATOM     14  C   UNL A   1      32.432  23.336  24.326  1.00  0.00     0.124 C 
BRANCH  14  15
ATOM     15  C   UNL A   1      32.063  23.623  22.865  1.00  0.00     0.027 C 
ATOM     16  C   UNL A   1      33.271  23.662  21.936  1.00  0.00     0.006 C 
ENDBRANCH  14  15
BRANCH  14  17
ATOM     17  C   UNL A   1      33.210  22.051  24.538  1.00  0.00     0.027 A 
ATOM     18  C   UNL A   1      34.549  21.858  24.775  1.00  0.00     0.017 A 
ATOM     19  S   UNL A   1      32.411  20.524  24.611  1.00  0.00    -0.147 S 
ATOM     20  C   UNL A   1      34.960  20.512  24.914  1.00  0.00     0.012 A 
ATOM     21  C   UNL A   1      33.878  19.671  24.866  1.00  0.00     0.065 A 
ENDBRANCH  14  17
ENDBRANCH   9  14
ENDBRANCH   6   8
BRANCH   6  22
ATOM     22  C   UNL A   1      31.558  26.955  24.694  1.00  0.00     0.035 C 
ATOM     23  C   UNL A   1      32.528  27.213  23.552  1.00  0.00     0.007 C 
ENDBRANCH   6  22
ENDBRANCH   3   6
ENDBRANCH   1   2
BRANCH   1  24
ATOM     24  C   UNL A   1      32.124  31.599  26.930  1.00  0.00     0.042 C 
BRANCH  24  25
ATOM     25  C   UNL A   1      33.159  32.609  27.401  1.00  0.00     0.118 C 
BRANCH  25  26
ATOM     26  N   UNL A   1      32.636  33.946  27.669  1.00  0.00    -0.352 N 
ATOM     27  C   UNL A   1      33.053  34.849  28.629  1.00  0.00     0.251 C 
ATOM     28  H   UNL A   1      31.894  34.242  27.093  1.00  0.00     0.163 HD
ATOM     29  O   UNL A   1      32.477  35.922  28.785  1.00  0.00    -0.269 OA
BRANCH  27  30
ATOM     30  C   UNL A   1      34.182  34.477  29.509  1.00  0.00     0.039 A 
ATOM     31  C   UNL A   1      33.926  33.878  30.744  1.00  0.00     0.014 A 
ATOM     32  C   UNL A   1      35.490  34.602  29.042  1.00  0.00     0.014 A 
ATOM     33  C   UNL A   1      34.983  33.312  31.463  1.00  0.00     0.010 A 
ATOM     34  C   UNL A   1      36.510  33.917  29.685  1.00  0.00     0.010 A 
ATOM     35  C   UNL A   1      36.276  33.279  30.915  1.00  0.00    -0.014 A 
BRANCH  35  36
ATOM     36  C   UNL A   1      37.420  32.648  31.624  1.00  0.00     0.031 A 
ATOM     37  C   UNL A   1      38.164  31.520  30.955  1.00  0.00     0.074 A 
ATOM     38  C   UNL A   1      37.740  33.018  32.879  1.00  0.00     0.049 A 
ATOM     39  N   UNL A   1      39.110  30.748  31.429  1.00  0.00    -0.248 NA
ATOM     40  C   UNL A   1      37.746  31.175  29.585  1.00  0.00     0.031 C 
ATOM     41  C   UNL A   1      37.053  34.041  33.670  1.00  0.00     0.029 A 
ATOM     42  N   UNL A   1      38.733  32.569  33.716  1.00  0.00    -0.354 N 
ATOM     43  C   UNL A   1      39.360  29.811  30.434  1.00  0.00     0.074 A 
ATOM     44  C   UNL A   1      38.411  30.052  29.372  1.00  0.00     0.031 C 
ATOM     45  C   UNL A   1      37.671  34.173  34.857  1.00  0.00     0.029 A 
ATOM     46  C   UNL A   1      38.778  33.224  34.924  1.00  0.00     0.049 A 
ATOM     47  H   UNL A   1      39.353  31.844  33.474  1.00  0.00     0.167 HD
ATOM     48  C   UNL A   1      40.327  28.865  30.380  1.00  0.00     0.037 A 
ATOM     49  C   UNL A   1      39.631  33.081  35.958  1.00  0.00     0.037 A 
ATOM     50  C   UNL A   1      41.316  28.679  31.405  1.00  0.00     0.049 A 
ATOM     51  C   UNL A   1      40.743  32.069  35.848  1.00  0.00     0.074 A 
ATOM     52  C   UNL A   1      42.377  27.792  31.436  1.00  0.00     0.029 A 
ATOM     53  N   UNL A   1      41.375  29.416  32.578  1.00  0.00    -0.354 N 
ATOM     54  N   UNL A   1      41.008  31.230  34.877  1.00  0.00    -0.248 NA
ATOM     55  C   UNL A   1      41.686  32.001  36.974  1.00  0.00     0.031 C 
ATOM     56  C   UNL A   1      43.067  27.981  32.637  1.00  0.00     0.029 A 
ATOM     57  C   UNL A   1      42.460  29.013  33.336  1.00  0.00     0.049 A 
ATOM     58  H   UNL A   1      40.739  30.123  32.835  1.00  0.00     0.167 HD
ATOM     59  C   UNL A   1      42.168  30.565  35.252  1.00  0.00     0.074 A 
ATOM     60  C   UNL A   1      42.561  31.108  36.536  1.00  0.00     0.031 C 
ATOM     61  C   UNL A   1      42.847  29.593  34.595  1.00  0.00     0.037 A 
BRANCH  48  62
ATOM     62  C   UNL A   1      40.371  27.994  29.159  1.00  0.00     0.064 A 
ATOM     63  C   UNL A   1      41.140  28.342  28.035  1.00  0.00     0.173 A 
ATOM     64  C   UNL A   1      39.632  26.803  29.100  1.00  0.00     0.173 A 
ATOM     65  F   UNL A   1      41.852  29.480  28.031  1.00  0.00    -0.203 F 
ATOM     66  C   UNL A   1      41.130  27.557  26.886  1.00  0.00     0.198 A 
ATOM     67  C   UNL A   1      39.654  26.001  27.962  1.00  0.00     0.198 A 
ATOM     68  F   UNL A   1      38.883  26.420  30.145  1.00  0.00    -0.203 F 
ATOM     69  F   UNL A   1      41.814  27.950  25.803  1.00  0.00    -0.200 F 
ATOM     70  C   UNL A   1      40.392  26.384  26.852  1.00  0.00     0.200 A 
ATOM     71  F   UNL A   1      38.949  24.861  27.933  1.00  0.00    -0.200 F 
ATOM     72  F   UNL A   1      40.382  25.629  25.744  1.00  0.00    -0.200 F 
ENDBRANCH  48  62
BRANCH  49  73
ATOM     73  C   UNL A   1      39.520  33.960  37.153  1.00  0.00     0.064 A 
ATOM     74  C   UNL A   1      38.810  33.538  38.287  1.00  0.00     0.173 A 
ATOM     75  C   UNL A   1      40.096  35.237  37.185  1.00  0.00     0.173 A 
ATOM     76  F   UNL A   1      38.224  32.332  38.299  1.00  0.00    -0.203 F 
ATOM     77  C   UNL A   1      38.657  34.371  39.394  1.00  0.00     0.198 A 
ATOM     78  C   UNL A   1      39.966  36.058  38.304  1.00  0.00     0.198 A 
ATOM     79  F   UNL A   1      40.793  35.686  36.130  1.00  0.00    -0.203 F 
ATOM     80  F   UNL A   1      37.928  33.961  40.442  1.00  0.00    -0.200 F 
ATOM     81  C   UNL A   1      39.237  35.629  39.404  1.00  0.00     0.200 A 
ATOM     82  F   UNL A   1      40.540  37.269  38.316  1.00  0.00    -0.200 F 
ATOM     83  F   UNL A   1      39.088  36.430  40.468  1.00  0.00    -0.200 F 
ENDBRANCH  49  73
BRANCH  61  84
ATOM     84  C   UNL A   1      44.121  29.105  35.220  1.00  0.00     0.064 A 
ATOM     85  C   UNL A   1      44.137  28.039  36.129  1.00  0.00     0.173 A 
ATOM     86  C   UNL A   1      45.346  29.697  34.873  1.00  0.00     0.173 A 
ATOM     87  F   UNL A   1      42.990  27.450  36.500  1.00  0.00    -0.203 F 
ATOM     88  C   UNL A   1      45.332  27.603  36.695  1.00  0.00     0.198 A 
ATOM     89  C   UNL A   1      46.541  29.237  35.418  1.00  0.00     0.198 A 
ATOM     90  F   UNL A   1      45.383  30.714  34.000  1.00  0.00    -0.203 F 
ATOM     91  F   UNL A   1      45.320  26.617  37.603  1.00  0.00    -0.200 F 
ATOM     92  C   UNL A   1      46.531  28.198  36.335  1.00  0.00     0.200 A 
ATOM     93  F   UNL A   1      47.700  29.804  35.058  1.00  0.00    -0.200 F 
ATOM     94  F   UNL A   1      47.680  27.774  36.879  1.00  0.00    -0.200 F 
ENDBRANCH  61  84
ENDBRANCH  35  36
ENDBRANCH  27  30
ENDBRANCH  25  26
ENDBRANCH  24  25
ENDBRANCH   1  24
TORSDOF 15
ENDMDL
