MODEL 1
REMARK VINA RESULT:     -12.5      0.000      0.000
REMARK SMILES Cc1c[nH]c(C[N@H+]2C[C@@H]3CN(S(C)(=O)=O)C[C@]3(C(=O)NCCCNC(=O)c3ccc(-c4c5nc(c(-c6c(F)c(F)c(F)c(F)c6F)c6ccc([nH]6)c(-c6c(F)c(F)c(F)c(F)c6F)c6nc(c(-c7c(F)c(F)c(F)c(F)c7F)c7ccc4[nH]7)C=C6)C=C5)cc3)C2)n1
REMARK SMILES IDX 22 1 21 2 20 3 18 4 19 5 17 7 7 8 8 9 90 10 9 12 10 13 16 14
REMARK SMILES IDX 11 15 6 16 5 17 1 18 2 19 3 20 91 21 4 22 12 24 13 25 14 26
REMARK SMILES IDX 15 27 23 28 24 29 25 30 26 32 27 33 28 34 89 35 29 36 88 37
REMARK SMILES IDX 30 38 31 39 32 40 82 41 33 42 87 43 81 44 83 45 34 46 86 47
REMARK SMILES IDX 80 48 79 49 35 51 67 52 47 53 66 54 48 55 51 56 65 57 84 58
REMARK SMILES IDX 49 59 50 60 64 62 85 63 52 64 36 65 37 66 45 67 38 68 39 69
REMARK SMILES IDX 43 70 46 71 40 72 41 73 44 74 42 75 68 76 69 77 77 78 70 79
REMARK SMILES IDX 71 80 75 81 78 82 72 83 73 84 76 85 74 86 53 87 54 88 62 89
REMARK SMILES IDX 55 90 56 91 60 92 63 93 57 94 58 95 61 96 59 97
REMARK H PARENT 20 6 7 11 4 23 24 31 83 50 51 61
REMARK Flexibility Score: inf
ROOT
ATOM      1  C   UNL A   1      33.776  29.063  23.352  1.00  0.00     0.042 C 
ENDROOT
BRANCH   1   2
ATOM      2  C   UNL A   1      34.225  27.729  22.761  1.00  0.00     0.117 C 
BRANCH   2   3
ATOM      3  N   UNL A   1      33.343  27.326  21.678  1.00  0.00    -0.355 N 
ATOM      4  C   UNL A   1      32.305  26.419  21.735  1.00  0.00     0.233 C 
ATOM      5  O   UNL A   1      31.995  25.846  20.692  1.00  0.00    -0.274 OA
ATOM      6  H   UNL A   1      33.503  27.749  20.803  1.00  0.00     0.163 HD
BRANCH   4   7
ATOM      7  C   UNL A   1      31.599  26.220  23.133  1.00  0.00     0.121 C 
ATOM      8  N   UNL A   1      29.632  27.716  23.660  1.00  0.00    -0.327 N 
ATOM      9  C   UNL A   1      29.577  26.586  24.553  1.00  0.00     0.268 C 
ATOM     10  C   UNL A   1      30.561  27.313  22.580  1.00  0.00     0.281 C 
ATOM     11  H   UNL A   1      29.961  28.548  24.151  1.00  0.00     0.348 HD
ATOM     12  C   UNL A   1      30.317  25.509  23.786  1.00  0.00     0.082 C 
ATOM     13  C   UNL A   1      30.715  24.406  24.766  1.00  0.00     0.113 C 
ATOM     14  C   UNL A   1      32.248  24.785  23.080  1.00  0.00     0.125 C 
ATOM     15  N   UNL A   1      32.108  24.202  24.436  1.00  0.00    -0.200 NA
BRANCH   8  16
ATOM     16  C   UNL A   1      28.309  28.141  23.147  1.00  0.00     0.338 C 
BRANCH  16  17
ATOM     17  C   UNL A   1      28.227  29.571  22.686  1.00  0.00     0.161 A 
ATOM     18  C   UNL A   1      28.877  33.059  22.931  1.00  0.00     0.068 C 
ATOM     19  C   UNL A   1      28.482  31.703  22.494  1.00  0.00     0.056 A 
ATOM     20  C   UNL A   1      28.037  31.266  21.268  1.00  0.00     0.107 A 
ATOM     21  N   UNL A   1      28.568  30.647  23.367  1.00  0.00    -0.233 NA
ATOM     22  N   UNL A   1      27.847  29.919  21.411  1.00  0.00    -0.344 N 
ATOM     23  H   UNL A   1      27.500  29.306  20.723  1.00  0.00     0.167 HD
ENDBRANCH  16  17
ENDBRANCH   8  16
BRANCH  15  24
ATOM     24  S   UNL A   1      33.267  24.462  25.629  1.00  0.00     0.211 S 
ATOM     25  C   UNL A   1      34.819  24.593  24.744  1.00  0.00     0.176 C 
ATOM     26  O   UNL A   1      33.010  25.761  26.208  1.00  0.00    -0.213 OA
ATOM     27  O   UNL A   1      33.327  23.276  26.458  1.00  0.00    -0.213 OA
ENDBRANCH  15  24
ENDBRANCH   4   7
ENDBRANCH   2   3
ENDBRANCH   1   2
BRANCH   1  28
ATOM     28  C   UNL A   1      33.645  29.008  24.861  1.00  0.00     0.118 C 
BRANCH  28  29
ATOM     29  N   UNL A   1      32.956  30.187  25.361  1.00  0.00    -0.352 N 
ATOM     30  C   UNL A   1      33.071  30.810  26.580  1.00  0.00     0.251 C 
ATOM     31  H   UNL A   1      32.315  30.598  24.737  1.00  0.00     0.163 HD
ATOM     32  O   UNL A   1      32.164  31.536  26.974  1.00  0.00    -0.269 OA
BRANCH  30  33
ATOM     33  C   UNL A   1      34.284  30.621  27.409  1.00  0.00     0.039 A 
ATOM     34  C   UNL A   1      35.156  31.696  27.602  1.00  0.00     0.014 A 
ATOM     35  C   UNL A   1      34.600  29.370  27.943  1.00  0.00     0.014 A 
ATOM     36  C   UNL A   1      36.324  31.516  28.349  1.00  0.00     0.010 A 
ATOM     37  C   UNL A   1      35.688  29.227  28.793  1.00  0.00     0.010 A 
ATOM     38  C   UNL A   1      36.588  30.284  28.969  1.00  0.00    -0.014 A 
BRANCH  38  39
ATOM     39  C   UNL A   1      37.828  30.050  29.752  1.00  0.00     0.031 A 
ATOM     40  C   UNL A   1      38.916  29.171  29.183  1.00  0.00     0.074 A 
ATOM     41  C   UNL A   1      37.951  30.573  30.988  1.00  0.00     0.049 A 
ATOM     42  N   UNL A   1      40.036  28.776  29.734  1.00  0.00    -0.248 NA
ATOM     43  C   UNL A   1      38.700  28.631  27.830  1.00  0.00     0.031 C 
ATOM     44  C   UNL A   1      36.943  31.393  31.665  1.00  0.00     0.029 A 
ATOM     45  N   UNL A   1      38.972  30.484  31.900  1.00  0.00    -0.354 N 
ATOM     46  C   UNL A   1      40.632  27.923  28.812  1.00  0.00     0.074 A 
ATOM     47  C   UNL A   1      39.729  27.809  27.691  1.00  0.00     0.031 C 
ATOM     48  C   UNL A   1      37.411  31.761  32.869  1.00  0.00     0.029 A 
ATOM     49  C   UNL A   1      38.727  31.163  33.069  1.00  0.00     0.049 A 
ATOM     50  H   UNL A   1      39.802  29.982  31.732  1.00  0.00     0.167 HD
ATOM     51  C   UNL A   1      41.836  27.311  28.885  1.00  0.00     0.037 A 
ATOM     52  C   UNL A   1      39.479  31.280  34.180  1.00  0.00     0.037 A 
ATOM     53  C   UNL A   1      42.753  27.474  29.981  1.00  0.00     0.049 A 
ATOM     54  C   UNL A   1      40.821  30.594  34.222  1.00  0.00     0.074 A 
ATOM     55  C   UNL A   1      44.035  26.973  30.113  1.00  0.00     0.029 A 
ATOM     56  N   UNL A   1      42.481  28.194  31.135  1.00  0.00    -0.354 N 
ATOM     57  N   UNL A   1      41.412  29.866  33.306  1.00  0.00    -0.248 NA
ATOM     58  C   UNL A   1      41.605  30.758  35.454  1.00  0.00     0.031 C 
ATOM     59  C   UNL A   1      44.516  27.335  31.374  1.00  0.00     0.029 A 
ATOM     60  C   UNL A   1      43.562  28.124  31.997  1.00  0.00     0.049 A 
ATOM     61  H   UNL A   1      41.645  28.683  31.313  1.00  0.00     0.167 HD
ATOM     62  C   UNL A   1      42.651  29.522  33.831  1.00  0.00     0.074 A 
ATOM     63  C   UNL A   1      42.732  30.137  35.139  1.00  0.00     0.031 C 
ATOM     64  C   UNL A   1      43.633  28.766  33.284  1.00  0.00     0.037 A 
BRANCH  51  65
ATOM     65  C   UNL A   1      42.246  26.411  27.753  1.00  0.00     0.064 A 
ATOM     66  C   UNL A   1      43.133  26.835  26.751  1.00  0.00     0.173 A 
ATOM     67  C   UNL A   1      41.801  25.081  27.713  1.00  0.00     0.173 A 
ATOM     68  F   UNL A   1      43.580  28.099  26.735  1.00  0.00    -0.203 F 
ATOM     69  C   UNL A   1      43.544  25.965  25.743  1.00  0.00     0.198 A 
ATOM     70  C   UNL A   1      42.239  24.205  26.723  1.00  0.00     0.198 A 
ATOM     71  F   UNL A   1      40.954  24.622  28.647  1.00  0.00    -0.203 F 
ATOM     72  F   UNL A   1      44.360  26.404  24.775  1.00  0.00    -0.200 F 
ATOM     73  C   UNL A   1      43.107  24.650  25.737  1.00  0.00     0.200 A 
ATOM     74  F   UNL A   1      41.829  22.930  26.729  1.00  0.00    -0.200 F 
ATOM     75  F   UNL A   1      43.521  23.809  24.780  1.00  0.00    -0.200 F 
ENDBRANCH  51  65
BRANCH  52  76
ATOM     76  C   UNL A   1      39.002  32.083  35.339  1.00  0.00     0.064 A 
ATOM     77  C   UNL A   1      39.284  33.453  35.430  1.00  0.00     0.173 A 
ATOM     78  C   UNL A   1      38.304  31.492  36.402  1.00  0.00     0.173 A 
ATOM     79  F   UNL A   1      39.965  34.063  34.448  1.00  0.00    -0.203 F 
ATOM     80  C   UNL A   1      38.928  34.190  36.558  1.00  0.00     0.198 A 
ATOM     81  C   UNL A   1      37.915  32.238  37.512  1.00  0.00     0.198 A 
ATOM     82  F   UNL A   1      38.001  30.186  36.365  1.00  0.00    -0.203 F 
ATOM     83  F   UNL A   1      39.281  35.480  36.651  1.00  0.00    -0.200 F 
ATOM     84  C   UNL A   1      38.242  33.583  37.597  1.00  0.00     0.200 A 
ATOM     85  F   UNL A   1      37.237  31.651  38.509  1.00  0.00    -0.200 F 
ATOM     86  F   UNL A   1      37.912  34.288  38.687  1.00  0.00    -0.200 F 
ENDBRANCH  52  76
BRANCH  64  87
ATOM     87  C   UNL A   1      44.906  28.617  34.067  1.00  0.00     0.064 A 
ATOM     88  C   UNL A   1      45.968  29.522  33.936  1.00  0.00     0.173 A 
ATOM     89  C   UNL A   1      45.047  27.567  34.988  1.00  0.00     0.173 A 
ATOM     90  F   UNL A   1      45.889  30.537  33.062  1.00  0.00    -0.203 F 
ATOM     91  C   UNL A   1      47.141  29.359  34.669  1.00  0.00     0.198 A 
ATOM     92  C   UNL A   1      46.203  27.429  35.748  1.00  0.00     0.198 A 
ATOM     93  F   UNL A   1      44.055  26.680  35.161  1.00  0.00    -0.203 F 
ATOM     94  F   UNL A   1      48.168  30.199  34.481  1.00  0.00    -0.200 F 
ATOM     95  C   UNL A   1      47.254  28.319  35.580  1.00  0.00     0.200 A 
ATOM     96  F   UNL A   1      46.303  26.437  36.642  1.00  0.00    -0.200 F 
ATOM     97  F   UNL A   1      48.380  28.168  36.289  1.00  0.00    -0.200 F 
ENDBRANCH  64  87
ENDBRANCH  38  39
ENDBRANCH  30  33
ENDBRANCH  28  29
ENDBRANCH   1  28
TORSDOF 13
ENDMDL
MODEL 2
REMARK VINA RESULT:     -12.5      2.836      7.750
REMARK SMILES Cc1c[nH]c(C[N@H+]2C[C@@H]3CN(S(C)(=O)=O)C[C@]3(C(=O)NCCCNC(=O)c3ccc(-c4c5nc(c(-c6c(F)c(F)c(F)c(F)c6F)c6ccc([nH]6)c(-c6c(F)c(F)c(F)c(F)c6F)c6nc(c(-c7c(F)c(F)c(F)c(F)c7F)c7ccc4[nH]7)C=C6)C=C5)cc3)C2)n1
REMARK SMILES IDX 22 1 21 2 20 3 18 4 19 5 17 7 7 8 8 9 90 10 9 12 10 13 16 14
REMARK SMILES IDX 11 15 6 16 5 17 1 18 2 19 3 20 91 21 4 22 12 24 13 25 14 26
REMARK SMILES IDX 15 27 23 28 24 29 25 30 26 32 27 33 28 34 89 35 29 36 88 37
REMARK SMILES IDX 30 38 31 39 32 40 82 41 33 42 87 43 81 44 83 45 34 46 86 47
REMARK SMILES IDX 80 48 79 49 35 51 67 52 47 53 66 54 48 55 51 56 65 57 84 58
REMARK SMILES IDX 49 59 50 60 64 62 85 63 52 64 36 65 37 66 45 67 38 68 39 69
REMARK SMILES IDX 43 70 46 71 40 72 41 73 44 74 42 75 68 76 69 77 77 78 70 79
REMARK SMILES IDX 71 80 75 81 78 82 72 83 73 84 76 85 74 86 53 87 54 88 62 89
REMARK SMILES IDX 55 90 56 91 60 92 63 93 57 94 58 95 61 96 59 97
REMARK H PARENT 20 6 7 11 4 23 24 31 83 50 51 61
REMARK Flexibility Score: inf
ROOT
ATOM      1  C   UNL A   1      34.037  28.446  25.781  1.00  0.00     0.042 C 
ENDROOT
BRANCH   1   2
ATOM      2  C   UNL A   1      33.169  29.394  24.957  1.00  0.00     0.117 C 
BRANCH   2   3
ATOM      3  N   UNL A   1      33.223  29.042  23.548  1.00  0.00    -0.355 N 
ATOM      4  C   UNL A   1      32.760  27.886  22.955  1.00  0.00     0.233 C 
ATOM      5  O   UNL A   1      33.293  27.536  21.903  1.00  0.00    -0.274 OA
ATOM      6  H   UNL A   1      33.637  29.704  22.947  1.00  0.00     0.163 HD
BRANCH   4   7
ATOM      7  C   UNL A   1      31.572  27.134  23.673  1.00  0.00     0.121 C 
ATOM      8  N   UNL A   1      29.268  28.152  23.472  1.00  0.00    -0.327 N 
ATOM      9  C   UNL A   1      29.108  26.776  23.873  1.00  0.00     0.268 C 
ATOM     10  C   UNL A   1      30.657  28.251  22.971  1.00  0.00     0.281 C 
ATOM     11  H   UNL A   1      29.104  28.779  24.260  1.00  0.00     0.348 HD
ATOM     12  C   UNL A   1      30.370  26.120  23.351  1.00  0.00     0.082 C 
ATOM     13  C   UNL A   1      30.548  24.781  24.066  1.00  0.00     0.113 C 
ATOM     14  C   UNL A   1      32.524  25.881  23.590  1.00  0.00     0.125 C 
ATOM     15  N   UNL A   1      31.936  24.839  24.468  1.00  0.00    -0.200 NA
BRANCH   8  16
ATOM     16  C   UNL A   1      28.267  28.607  22.479  1.00  0.00     0.338 C 
BRANCH  16  17
ATOM     17  C   UNL A   1      28.225  30.093  22.244  1.00  0.00     0.161 A 
ATOM     18  C   UNL A   1      28.912  33.486  23.057  1.00  0.00     0.068 C 
ATOM     19  C   UNL A   1      28.517  32.223  22.398  1.00  0.00     0.056 A 
ATOM     20  C   UNL A   1      28.119  31.991  21.102  1.00  0.00     0.107 A 
ATOM     21  N   UNL A   1      28.552  31.043  23.098  1.00  0.00    -0.233 NA
ATOM     22  N   UNL A   1      27.905  30.643  21.025  1.00  0.00    -0.344 N 
ATOM     23  H   UNL A   1      27.579  30.152  20.236  1.00  0.00     0.167 HD
ENDBRANCH  16  17
ENDBRANCH   8  16
BRANCH  15  24
ATOM     24  S   UNL A   1      32.306  24.761  26.109  1.00  0.00     0.211 S 
ATOM     25  C   UNL A   1      31.994  23.059  26.571  1.00  0.00     0.176 C 
ATOM     26  O   UNL A   1      33.729  24.972  26.244  1.00  0.00    -0.213 OA
ATOM     27  O   UNL A   1      31.358  25.596  26.818  1.00  0.00    -0.213 OA
ENDBRANCH  15  24
ENDBRANCH   4   7
ENDBRANCH   2   3
ENDBRANCH   1   2
BRANCH   1  28
ATOM     28  C   UNL A   1      33.849  28.645  27.273  1.00  0.00     0.118 C 
BRANCH  28  29
ATOM     29  N   UNL A   1      33.821  30.060  27.605  1.00  0.00    -0.352 N 
ATOM     30  C   UNL A   1      34.678  30.784  28.399  1.00  0.00     0.251 C 
ATOM     31  H   UNL A   1      33.084  30.574  27.203  1.00  0.00     0.163 HD
ATOM     32  O   UNL A   1      34.302  31.851  28.875  1.00  0.00    -0.269 OA
BRANCH  30  33
ATOM     33  C   UNL A   1      36.048  30.292  28.670  1.00  0.00     0.039 A 
ATOM     34  C   UNL A   1      36.322  29.664  29.888  1.00  0.00     0.014 A 
ATOM     35  C   UNL A   1      37.081  30.506  27.755  1.00  0.00     0.014 A 
ATOM     36  C   UNL A   1      37.621  29.233  30.169  1.00  0.00     0.010 A 
ATOM     37  C   UNL A   1      38.338  29.960  27.978  1.00  0.00     0.010 A 
ATOM     38  C   UNL A   1      38.636  29.358  29.206  1.00  0.00    -0.014 A 
BRANCH  38  39
ATOM     39  C   UNL A   1      40.032  28.931  29.478  1.00  0.00     0.031 A 
ATOM     40  C   UNL A   1      40.942  29.824  30.286  1.00  0.00     0.074 A 
ATOM     41  C   UNL A   1      40.497  27.781  28.952  1.00  0.00     0.049 A 
ATOM     42  N   UNL A   1      42.212  29.676  30.569  1.00  0.00    -0.248 NA
ATOM     43  C   UNL A   1      40.359  31.068  30.817  1.00  0.00     0.031 C 
ATOM     44  C   UNL A   1      39.727  26.862  28.109  1.00  0.00     0.029 A 
ATOM     45  N   UNL A   1      41.733  27.191  29.040  1.00  0.00    -0.354 N 
ATOM     46  C   UNL A   1      42.579  30.817  31.273  1.00  0.00     0.074 A 
ATOM     47  C   UNL A   1      41.419  31.675  31.330  1.00  0.00     0.031 C 
ATOM     48  C   UNL A   1      40.497  25.810  27.788  1.00  0.00     0.029 A 
ATOM     49  C   UNL A   1      41.826  26.002  28.358  1.00  0.00     0.049 A 
ATOM     50  H   UNL A   1      42.482  27.583  29.545  1.00  0.00     0.167 HD
ATOM     51  C   UNL A   1      43.770  31.109  31.844  1.00  0.00     0.037 A 
ATOM     52  C   UNL A   1      42.872  25.168  28.205  1.00  0.00     0.037 A 
ATOM     53  C   UNL A   1      44.904  30.224  31.829  1.00  0.00     0.049 A 
ATOM     54  C   UNL A   1      44.181  25.519  28.865  1.00  0.00     0.074 A 
ATOM     55  C   UNL A   1      46.128  30.383  32.454  1.00  0.00     0.029 A 
ATOM     56  N   UNL A   1      44.950  29.014  31.153  1.00  0.00    -0.354 N 
ATOM     57  N   UNL A   1      44.488  26.556  29.606  1.00  0.00    -0.248 NA
ATOM     58  C   UNL A   1      45.289  24.573  28.673  1.00  0.00     0.031 C 
ATOM     59  C   UNL A   1      46.938  29.300  32.103  1.00  0.00     0.029 A 
ATOM     60  C   UNL A   1      46.195  28.431  31.321  1.00  0.00     0.049 A 
ATOM     61  H   UNL A   1      44.209  28.628  30.633  1.00  0.00     0.167 HD
ATOM     62  C   UNL A   1      45.804  26.367  30.003  1.00  0.00     0.074 A 
ATOM     63  C   UNL A   1      46.233  25.106  29.434  1.00  0.00     0.031 C 
ATOM     64  C   UNL A   1      46.592  27.162  30.768  1.00  0.00     0.037 A 
BRANCH  51  65
ATOM     65  C   UNL A   1      43.920  32.433  32.539  1.00  0.00     0.064 A 
ATOM     66  C   UNL A   1      44.349  33.584  31.860  1.00  0.00     0.173 A 
ATOM     67  C   UNL A   1      43.559  32.566  33.889  1.00  0.00     0.173 A 
ATOM     68  F   UNL A   1      44.718  33.511  30.573  1.00  0.00    -0.203 F 
ATOM     69  C   UNL A   1      44.425  34.813  32.512  1.00  0.00     0.198 A 
ATOM     70  C   UNL A   1      43.605  33.802  34.528  1.00  0.00     0.198 A 
ATOM     71  F   UNL A   1      43.140  31.499  34.586  1.00  0.00    -0.203 F 
ATOM     72  F   UNL A   1      44.875  35.891  31.853  1.00  0.00    -0.200 F 
ATOM     73  C   UNL A   1      44.043  34.924  33.839  1.00  0.00     0.200 A 
ATOM     74  F   UNL A   1      43.219  33.910  35.806  1.00  0.00    -0.200 F 
ATOM     75  F   UNL A   1      44.097  36.111  34.458  1.00  0.00    -0.200 F 
ENDBRANCH  51  65
BRANCH  52  76
ATOM     76  C   UNL A   1      42.735  23.915  27.414  1.00  0.00     0.064 A 
ATOM     77  C   UNL A   1      42.315  22.722  28.019  1.00  0.00     0.173 A 
ATOM     78  C   UNL A   1      43.069  23.869  26.052  1.00  0.00     0.173 A 
ATOM     79  F   UNL A   1      42.001  22.709  29.324  1.00  0.00    -0.203 F 
ATOM     80  C   UNL A   1      42.280  21.525  27.308  1.00  0.00     0.198 A 
ATOM     81  C   UNL A   1      42.997  22.678  25.332  1.00  0.00     0.198 A 
ATOM     82  F   UNL A   1      43.470  24.981  25.419  1.00  0.00    -0.203 F 
ATOM     83  F   UNL A   1      41.951  20.386  27.934  1.00  0.00    -0.200 F 
ATOM     84  C   UNL A   1      42.619  21.504  25.965  1.00  0.00     0.200 A 
ATOM     85  F   UNL A   1      43.310  22.665  24.029  1.00  0.00    -0.200 F 
ATOM     86  F   UNL A   1      42.598  20.350  25.284  1.00  0.00    -0.200 F 
ENDBRANCH  52  76
BRANCH  64  87
ATOM     87  C   UNL A   1      47.970  26.662  31.091  1.00  0.00     0.064 A 
ATOM     88  C   UNL A   1      48.216  25.811  32.178  1.00  0.00     0.173 A 
ATOM     89  C   UNL A   1      49.057  27.017  30.276  1.00  0.00     0.173 A 
ATOM     90  F   UNL A   1      47.214  25.450  32.994  1.00  0.00    -0.203 F 
ATOM     91  C   UNL A   1      49.504  25.366  32.460  1.00  0.00     0.198 A 
ATOM     92  C   UNL A   1      50.336  26.539  30.537  1.00  0.00     0.198 A 
ATOM     93  F   UNL A   1      48.875  27.820  29.216  1.00  0.00    -0.203 F 
ATOM     94  F   UNL A   1      49.726  24.605  33.541  1.00  0.00    -0.200 F 
ATOM     95  C   UNL A   1      50.561  25.723  31.635  1.00  0.00     0.200 A 
ATOM     96  F   UNL A   1      51.352  26.868  29.728  1.00  0.00    -0.200 F 
ATOM     97  F   UNL A   1      51.799  25.288  31.905  1.00  0.00    -0.200 F 
ENDBRANCH  64  87
ENDBRANCH  38  39
ENDBRANCH  30  33
ENDBRANCH  28  29
ENDBRANCH   1  28
TORSDOF 13
ENDMDL
MODEL 3
REMARK VINA RESULT:     -12.4      2.495      8.502
REMARK SMILES Cc1c[nH]c(C[N@H+]2C[C@@H]3CN(S(C)(=O)=O)C[C@]3(C(=O)NCCCNC(=O)c3ccc(-c4c5nc(c(-c6c(F)c(F)c(F)c(F)c6F)c6ccc([nH]6)c(-c6c(F)c(F)c(F)c(F)c6F)c6nc(c(-c7c(F)c(F)c(F)c(F)c7F)c7ccc4[nH]7)C=C6)C=C5)cc3)C2)n1
REMARK SMILES IDX 22 1 21 2 20 3 18 4 19 5 17 7 7 8 8 9 90 10 9 12 10 13 16 14
REMARK SMILES IDX 11 15 6 16 5 17 1 18 2 19 3 20 91 21 4 22 12 24 13 25 14 26
REMARK SMILES IDX 15 27 23 28 24 29 25 30 26 32 27 33 28 34 89 35 29 36 88 37
REMARK SMILES IDX 30 38 31 39 32 40 82 41 33 42 87 43 81 44 83 45 34 46 86 47
REMARK SMILES IDX 80 48 79 49 35 51 67 52 47 53 66 54 48 55 51 56 65 57 84 58
REMARK SMILES IDX 49 59 50 60 64 62 85 63 52 64 36 65 37 66 45 67 38 68 39 69
REMARK SMILES IDX 43 70 46 71 40 72 41 73 44 74 42 75 68 76 69 77 77 78 70 79
REMARK SMILES IDX 71 80 75 81 78 82 72 83 73 84 76 85 74 86 53 87 54 88 62 89
REMARK SMILES IDX 55 90 56 91 60 92 63 93 57 94 58 95 61 96 59 97
REMARK H PARENT 20 6 7 11 4 23 24 31 83 50 51 61
REMARK Flexibility Score: inf
ROOT
ATOM      1  C   UNL A   1      33.269  28.188  27.245  1.00  0.00     0.042 C 
ENDROOT
BRANCH   1   2
ATOM      2  C   UNL A   1      31.754  28.296  27.089  1.00  0.00     0.117 C 
BRANCH   2   3
ATOM      3  N   UNL A   1      31.130  26.993  27.237  1.00  0.00    -0.355 N 
ATOM      4  C   UNL A   1      30.707  26.147  26.232  1.00  0.00     0.233 C 
ATOM      5  O   UNL A   1      29.802  25.357  26.499  1.00  0.00    -0.274 OA
ATOM      6  H   UNL A   1      30.993  26.675  28.159  1.00  0.00     0.163 HD
BRANCH   4   7
ATOM      7  C   UNL A   1      31.443  26.258  24.840  1.00  0.00     0.121 C 
ATOM      8  N   UNL A   1      33.446  24.764  24.466  1.00  0.00    -0.327 N 
ATOM      9  C   UNL A   1      32.992  25.223  23.176  1.00  0.00     0.268 C 
ATOM     10  C   UNL A   1      32.322  25.034  25.391  1.00  0.00     0.281 C 
ATOM     11  H   UNL A   1      34.294  25.256  24.746  1.00  0.00     0.348 HD
ATOM     12  C   UNL A   1      31.526  25.521  23.417  1.00  0.00     0.082 C 
ATOM     13  C   UNL A   1      31.023  26.413  22.282  1.00  0.00     0.113 C 
ATOM     14  C   UNL A   1      30.073  26.858  24.342  1.00  0.00     0.125 C 
ATOM     15  N   UNL A   1      30.327  27.453  23.007  1.00  0.00    -0.200 NA
BRANCH   8  16
ATOM     16  C   UNL A   1      33.872  23.345  24.481  1.00  0.00     0.338 C 
BRANCH  16  17
ATOM     17  C   UNL A   1      35.338  23.117  24.733  1.00  0.00     0.161 A 
ATOM     18  C   UNL A   1      38.434  23.701  26.383  1.00  0.00     0.068 C 
ATOM     19  C   UNL A   1      37.332  23.174  25.549  1.00  0.00     0.056 A 
ATOM     20  C   UNL A   1      37.267  22.024  24.796  1.00  0.00     0.107 A 
ATOM     21  N   UNL A   1      36.140  23.851  25.477  1.00  0.00    -0.233 NA
ATOM     22  N   UNL A   1      36.010  22.015  24.257  1.00  0.00    -0.344 N 
ATOM     23  H   UNL A   1      35.650  21.340  23.638  1.00  0.00     0.167 HD
ENDBRANCH  16  17
ENDBRANCH   8  16
BRANCH  15  24
ATOM     24  S   UNL A   1      30.854  29.044  22.841  1.00  0.00     0.211 S 
ATOM     25  C   UNL A   1      32.617  28.918  22.553  1.00  0.00     0.176 C 
ATOM     26  O   UNL A   1      30.274  29.569  21.626  1.00  0.00    -0.213 OA
ATOM     27  O   UNL A   1      30.658  29.713  24.111  1.00  0.00    -0.213 OA
ENDBRANCH  15  24
ENDBRANCH   4   7
ENDBRANCH   2   3
ENDBRANCH   1   2
BRANCH   1  28
ATOM     28  C   UNL A   1      34.013  29.051  26.244  1.00  0.00     0.118 C 
BRANCH  28  29
ATOM     29  N   UNL A   1      33.983  30.448  26.645  1.00  0.00    -0.352 N 
ATOM     30  C   UNL A   1      34.665  31.076  27.659  1.00  0.00     0.251 C 
ATOM     31  H   UNL A   1      33.389  31.027  26.116  1.00  0.00     0.163 HD
ATOM     32  O   UNL A   1      34.244  32.142  28.099  1.00  0.00    -0.269 OA
BRANCH  30  33
ATOM     33  C   UNL A   1      35.905  30.483  28.210  1.00  0.00     0.039 A 
ATOM     34  C   UNL A   1      35.842  29.740  29.392  1.00  0.00     0.014 A 
ATOM     35  C   UNL A   1      37.142  30.713  27.604  1.00  0.00     0.014 A 
ATOM     36  C   UNL A   1      37.013  29.211  29.942  1.00  0.00     0.010 A 
ATOM     37  C   UNL A   1      38.281  30.077  28.076  1.00  0.00     0.010 A 
ATOM     38  C   UNL A   1      38.241  29.357  29.275  1.00  0.00    -0.014 A 
BRANCH  38  39
ATOM     39  C   UNL A   1      39.507  28.827  29.841  1.00  0.00     0.031 A 
ATOM     40  C   UNL A   1      40.131  29.503  31.038  1.00  0.00     0.074 A 
ATOM     41  C   UNL A   1      40.125  27.788  29.246  1.00  0.00     0.049 A 
ATOM     42  N   UNL A   1      41.269  29.250  31.634  1.00  0.00    -0.248 NA
ATOM     43  C   UNL A   1      39.397  30.639  31.623  1.00  0.00     0.031 C 
ATOM     44  C   UNL A   1      39.646  27.089  28.051  1.00  0.00     0.029 A 
ATOM     45  N   UNL A   1      41.294  27.142  29.561  1.00  0.00    -0.354 N 
ATOM     46  C   UNL A   1      41.397  30.211  32.630  1.00  0.00     0.074 A 
ATOM     47  C   UNL A   1      40.254  31.087  32.528  1.00  0.00     0.031 C 
ATOM     48  C   UNL A   1      40.495  26.091  27.755  1.00  0.00     0.029 A 
ATOM     49  C   UNL A   1      41.601  26.111  28.707  1.00  0.00     0.049 A 
ATOM     50  H   UNL A   1      41.860  27.394  30.326  1.00  0.00     0.167 HD
ATOM     51  C   UNL A   1      42.369  30.333  33.563  1.00  0.00     0.037 A 
ATOM     52  C   UNL A   1      42.662  25.282  28.691  1.00  0.00     0.037 A 
ATOM     53  C   UNL A   1      43.476  29.424  33.692  1.00  0.00     0.049 A 
ATOM     54  C   UNL A   1      43.721  25.440  29.753  1.00  0.00     0.074 A 
ATOM     55  C   UNL A   1      44.466  29.404  34.658  1.00  0.00     0.029 A 
ATOM     56  N   UNL A   1      43.736  28.373  32.826  1.00  0.00    -0.354 N 
ATOM     57  N   UNL A   1      43.783  26.295  30.745  1.00  0.00    -0.248 NA
ATOM     58  C   UNL A   1      44.854  24.507  29.696  1.00  0.00     0.031 C 
ATOM     59  C   UNL A   1      45.363  28.381  34.339  1.00  0.00     0.029 A 
ATOM     60  C   UNL A   1      44.891  27.717  33.219  1.00  0.00     0.049 A 
ATOM     61  H   UNL A   1      43.183  28.129  32.049  1.00  0.00     0.167 HD
ATOM     62  C   UNL A   1      44.933  25.976  31.454  1.00  0.00     0.074 A 
ATOM     63  C   UNL A   1      45.530  24.838  30.786  1.00  0.00     0.031 C 
ATOM     64  C   UNL A   1      45.453  26.569  32.555  1.00  0.00     0.037 A 
BRANCH  51  65
ATOM     65  C   UNL A   1      42.289  31.484  34.526  1.00  0.00     0.064 A 
ATOM     66  C   UNL A   1      41.621  31.379  35.756  1.00  0.00     0.173 A 
ATOM     67  C   UNL A   1      42.953  32.688  34.244  1.00  0.00     0.173 A 
ATOM     68  F   UNL A   1      40.960  30.256  36.072  1.00  0.00    -0.203 F 
ATOM     69  C   UNL A   1      41.609  32.440  36.659  1.00  0.00     0.198 A 
ATOM     70  C   UNL A   1      42.966  33.735  35.162  1.00  0.00     0.198 A 
ATOM     71  F   UNL A   1      43.609  32.843  33.084  1.00  0.00    -0.203 F 
ATOM     72  F   UNL A   1      40.932  32.329  37.810  1.00  0.00    -0.200 F 
ATOM     73  C   UNL A   1      42.290  33.611  36.367  1.00  0.00     0.200 A 
ATOM     74  F   UNL A   1      43.640  34.860  34.885  1.00  0.00    -0.200 F 
ATOM     75  F   UNL A   1      42.295  34.623  37.245  1.00  0.00    -0.200 F 
ENDBRANCH  51  65
BRANCH  52  76
ATOM     76  C   UNL A   1      42.781  24.220  27.656  1.00  0.00     0.064 A 
ATOM     77  C   UNL A   1      42.388  22.901  27.928  1.00  0.00     0.173 A 
ATOM     78  C   UNL A   1      43.336  24.484  26.395  1.00  0.00     0.173 A 
ATOM     79  F   UNL A   1      41.868  22.591  29.125  1.00  0.00    -0.203 F 
ATOM     80  C   UNL A   1      42.588  21.882  26.999  1.00  0.00     0.198 A 
ATOM     81  C   UNL A   1      43.501  23.471  25.453  1.00  0.00     0.198 A 
ATOM     82  F   UNL A   1      43.723  25.728  26.078  1.00  0.00    -0.203 F 
ATOM     83  F   UNL A   1      42.276  20.618  27.318  1.00  0.00    -0.200 F 
ATOM     84  C   UNL A   1      43.143  22.168  25.762  1.00  0.00     0.200 A 
ATOM     85  F   UNL A   1      44.023  23.754  24.251  1.00  0.00    -0.200 F 
ATOM     86  F   UNL A   1      43.348  21.185  24.875  1.00  0.00    -0.200 F 
ENDBRANCH  52  76
BRANCH  64  87
ATOM     87  C   UNL A   1      46.690  25.959  33.149  1.00  0.00     0.064 A 
ATOM     88  C   UNL A   1      47.975  26.410  32.815  1.00  0.00     0.173 A 
ATOM     89  C   UNL A   1      46.582  24.926  34.095  1.00  0.00     0.173 A 
ATOM     90  F   UNL A   1      48.134  27.386  31.909  1.00  0.00    -0.203 F 
ATOM     91  C   UNL A   1      49.106  25.823  33.374  1.00  0.00     0.198 A 
ATOM     92  C   UNL A   1      47.713  24.370  34.682  1.00  0.00     0.198 A 
ATOM     93  F   UNL A   1      45.375  24.466  34.459  1.00  0.00    -0.203 F 
ATOM     94  F   UNL A   1      50.326  26.227  32.992  1.00  0.00    -0.200 F 
ATOM     95  C   UNL A   1      48.974  24.811  34.313  1.00  0.00     0.200 A 
ATOM     96  F   UNL A   1      47.583  23.406  35.604  1.00  0.00    -0.200 F 
ATOM     97  F   UNL A   1      50.064  24.253  34.856  1.00  0.00    -0.200 F 
ENDBRANCH  64  87
ENDBRANCH  38  39
ENDBRANCH  30  33
ENDBRANCH  28  29
ENDBRANCH   1  28
TORSDOF 13
ENDMDL
