MODEL 1
REMARK VINA RESULT:     -11.4      0.000      0.000
REMARK SMILES O=C(Cn1cc(C(=O)C(F)(F)F)c2ccccc21)NCCCNC(=O)c1ccc(-c2c3nc(c(-c4c(F)c(F)c(F)c(F)c4F)c4ccc([nH]4)c(-c4c(F)c(F)c(F)c(F)c4F)c4nc(c(-c5c(F)c(F)c(F)c(F)c5F)c5ccc2[nH]5)C=C4)C=C3)cc1
REMARK SMILES IDX 20 1 19 2 1 3 2 4 3 6 4 7 5 8 18 9 6 10 13 11 17 12 14 13
REMARK SMILES IDX 16 14 15 15 7 16 8 17 9 18 10 19 11 20 12 21 21 22 22 23
REMARK SMILES IDX 23 24 24 25 25 27 26 28 27 29 88 30 28 31 87 32 29 33 30 34
REMARK SMILES IDX 31 35 81 36 32 37 86 38 80 39 82 40 33 41 85 42 79 43 78 44
REMARK SMILES IDX 34 46 66 47 46 48 65 49 47 50 50 51 64 52 83 53 48 54 49 55
REMARK SMILES IDX 63 57 84 58 51 59 35 60 36 61 44 62 37 63 38 64 42 65 45 66
REMARK SMILES IDX 39 67 40 68 43 69 41 70 67 71 68 72 76 73 69 74 70 75 74 76
REMARK SMILES IDX 77 77 71 78 72 79 75 80 73 81 52 82 53 83 61 84 54 85 55 86
REMARK SMILES IDX 59 87 62 88 56 89 57 90 60 91 58 92
REMARK H PARENT 19 5 23 26 82 45 50 56
REMARK Flexibility Score: inf
ROOT
ATOM      1  C   UNL A   1      42.503  19.606  25.868  1.00  0.00     0.117 C 
ENDROOT
BRANCH   1   2
ATOM      2  N   UNL A   1      43.768  20.318  25.871  1.00  0.00    -0.354 N 
ATOM      3  O   UNL A   1      43.028  22.200  24.783  1.00  0.00    -0.273 OA
ATOM      4  C   UNL A   1      43.913  21.603  25.387  1.00  0.00     0.239 C 
ATOM      5  H   UNL A   1      44.561  19.862  26.234  1.00  0.00     0.163 HD
BRANCH   4   6
ATOM      6  C   UNL A   1      45.278  22.218  25.634  1.00  0.00     0.222 C 
BRANCH   6   7
ATOM      7  N   UNL A   1      45.255  23.630  26.022  1.00  0.00    -0.337 N 
ATOM      8  C   UNL A   1      45.427  24.708  25.190  1.00  0.00     0.099 A 
ATOM      9  C   UNL A   1      45.063  24.073  27.317  1.00  0.00     0.049 A 
ATOM     10  C   UNL A   1      45.271  25.872  25.918  1.00  0.00     0.053 A 
ATOM     11  C   UNL A   1      45.067  25.473  27.279  1.00  0.00     0.011 A 
ATOM     12  C   UNL A   1      44.891  23.361  28.517  1.00  0.00     0.027 A 
ATOM     13  C   UNL A   1      44.889  26.178  28.490  1.00  0.00     0.011 A 
ATOM     14  C   UNL A   1      44.728  24.088  29.699  1.00  0.00     0.002 A 
ATOM     15  C   UNL A   1      44.726  25.478  29.689  1.00  0.00     0.001 A 
BRANCH  10  16
ATOM     16  C   UNL A   1      45.325  27.245  25.383  1.00  0.00     0.268 C 
ATOM     17  O   UNL A   1      44.419  27.680  24.680  1.00  0.00    -0.284 OA
BRANCH  16  18
ATOM     18  C   UNL A   1      46.562  28.082  25.725  1.00  0.00     0.454 C 
ATOM     19  F   UNL A   1      46.575  28.492  27.026  1.00  0.00    -0.163 F 
ATOM     20  F   UNL A   1      47.726  27.390  25.540  1.00  0.00    -0.163 F 
ATOM     21  F   UNL A   1      46.674  29.212  24.972  1.00  0.00    -0.163 F 
ENDBRANCH  16  18
ENDBRANCH  10  16
ENDBRANCH   6   7
ENDBRANCH   4   6
ENDBRANCH   1   2
BRANCH   1  22
ATOM     22  C   UNL A   1      41.825  19.598  27.236  1.00  0.00     0.042 C 
BRANCH  22  23
ATOM     23  C   UNL A   1      41.292  20.961  27.680  1.00  0.00     0.118 C 
BRANCH  23  24
ATOM     24  N   UNL A   1      40.105  21.401  26.974  1.00  0.00    -0.352 N 
ATOM     25  C   UNL A   1      39.620  22.611  26.571  1.00  0.00     0.251 C 
ATOM     26  H   UNL A   1      39.513  20.655  26.729  1.00  0.00     0.163 HD
ATOM     27  O   UNL A   1      38.677  22.575  25.776  1.00  0.00    -0.269 OA
BRANCH  25  28
ATOM     28  C   UNL A   1      40.071  23.931  27.083  1.00  0.00     0.039 A 
ATOM     29  C   UNL A   1      41.233  24.171  27.819  1.00  0.00     0.014 A 
ATOM     30  C   UNL A   1      39.170  24.992  26.876  1.00  0.00     0.014 A 
ATOM     31  C   UNL A   1      41.422  25.396  28.448  1.00  0.00     0.010 A 
ATOM     32  C   UNL A   1      39.358  26.220  27.489  1.00  0.00     0.010 A 
ATOM     33  C   UNL A   1      40.451  26.391  28.330  1.00  0.00    -0.014 A 
BRANCH  33  34
ATOM     34  C   UNL A   1      40.644  27.642  29.053  1.00  0.00     0.031 A 
ATOM     35  C   UNL A   1      41.748  28.500  28.534  1.00  0.00     0.074 A 
ATOM     36  C   UNL A   1      39.790  28.037  30.020  1.00  0.00     0.049 A 
ATOM     37  N   UNL A   1      42.770  28.977  29.170  1.00  0.00    -0.248 NA
ATOM     38  C   UNL A   1      41.764  28.782  27.086  1.00  0.00     0.031 C 
ATOM     39  C   UNL A   1      38.528  27.404  30.421  1.00  0.00     0.029 A 
ATOM     40  N   UNL A   1      39.817  29.159  30.791  1.00  0.00    -0.354 N 
ATOM     41  C   UNL A   1      43.472  29.749  28.246  1.00  0.00     0.074 A 
ATOM     42  C   UNL A   1      42.887  29.489  26.956  1.00  0.00     0.031 C 
ATOM     43  C   UNL A   1      37.812  28.269  31.173  1.00  0.00     0.029 A 
ATOM     44  C   UNL A   1      38.611  29.456  31.417  1.00  0.00     0.049 A 
ATOM     45  H   UNL A   1      40.624  29.713  30.898  1.00  0.00     0.167 HD
ATOM     46  C   UNL A   1      44.358  30.708  28.629  1.00  0.00     0.037 A 
ATOM     47  C   UNL A   1      38.282  30.629  32.014  1.00  0.00     0.037 A 
ATOM     48  C   UNL A   1      44.804  30.515  29.979  1.00  0.00     0.049 A 
ATOM     49  C   UNL A   1      39.548  31.356  32.285  1.00  0.00     0.074 A 
ATOM     50  C   UNL A   1      45.530  29.534  30.625  1.00  0.00     0.029 A 
ATOM     51  N   UNL A   1      44.205  31.249  30.971  1.00  0.00    -0.354 N 
ATOM     52  N   UNL A   1      40.439  30.967  33.154  1.00  0.00    -0.248 NA
ATOM     53  C   UNL A   1      40.027  32.270  31.258  1.00  0.00     0.031 C 
ATOM     54  C   UNL A   1      44.937  29.428  31.916  1.00  0.00     0.029 A 
ATOM     55  C   UNL A   1      43.929  30.388  32.001  1.00  0.00     0.049 A 
ATOM     56  H   UNL A   1      44.010  32.214  30.947  1.00  0.00     0.167 HD
ATOM     57  C   UNL A   1      41.657  31.237  32.548  1.00  0.00     0.074 A 
ATOM     58  C   UNL A   1      41.341  32.104  31.416  1.00  0.00     0.031 C 
ATOM     59  C   UNL A   1      42.767  30.504  32.850  1.00  0.00     0.037 A 
BRANCH  46  60
ATOM     60  C   UNL A   1      44.566  31.998  27.883  1.00  0.00     0.064 A 
ATOM     61  C   UNL A   1      45.757  32.217  27.167  1.00  0.00     0.173 A 
ATOM     62  C   UNL A   1      43.755  33.136  28.083  1.00  0.00     0.173 A 
ATOM     63  F   UNL A   1      46.623  31.213  26.959  1.00  0.00    -0.203 F 
ATOM     64  C   UNL A   1      46.124  33.490  26.720  1.00  0.00     0.198 A 
ATOM     65  C   UNL A   1      44.096  34.392  27.590  1.00  0.00     0.198 A 
ATOM     66  F   UNL A   1      42.661  33.095  28.857  1.00  0.00    -0.203 F 
ATOM     67  F   UNL A   1      47.316  33.674  26.136  1.00  0.00    -0.200 F 
ATOM     68  C   UNL A   1      45.293  34.576  26.930  1.00  0.00     0.200 A 
ATOM     69  F   UNL A   1      43.289  35.436  27.829  1.00  0.00    -0.200 F 
ATOM     70  F   UNL A   1      45.664  35.804  26.545  1.00  0.00    -0.200 F 
ENDBRANCH  46  60
BRANCH  47  71
ATOM     71  C   UNL A   1      36.967  31.323  32.021  1.00  0.00     0.064 A 
ATOM     72  C   UNL A   1      36.482  31.936  33.190  1.00  0.00     0.173 A 
ATOM     73  C   UNL A   1      36.306  31.658  30.823  1.00  0.00     0.173 A 
ATOM     74  F   UNL A   1      37.080  31.708  34.369  1.00  0.00    -0.203 F 
ATOM     75  C   UNL A   1      35.426  32.854  33.155  1.00  0.00     0.198 A 
ATOM     76  C   UNL A   1      35.248  32.567  30.791  1.00  0.00     0.198 A 
ATOM     77  F   UNL A   1      36.737  31.189  29.644  1.00  0.00    -0.203 F 
ATOM     78  F   UNL A   1      35.039  33.472  34.281  1.00  0.00    -0.200 F 
ATOM     79  C   UNL A   1      34.818  33.178  31.954  1.00  0.00     0.200 A 
ATOM     80  F   UNL A   1      34.693  32.899  29.616  1.00  0.00    -0.200 F 
ATOM     81  F   UNL A   1      33.854  34.107  31.909  1.00  0.00    -0.200 F 
ENDBRANCH  47  71
BRANCH  59  82
ATOM     82  C   UNL A   1      42.689  29.559  34.017  1.00  0.00     0.064 A 
ATOM     83  C   UNL A   1      42.153  28.261  33.941  1.00  0.00     0.173 A 
ATOM     84  C   UNL A   1      43.331  29.921  35.209  1.00  0.00     0.173 A 
ATOM     85  F   UNL A   1      41.611  27.805  32.806  1.00  0.00    -0.203 F 
ATOM     86  C   UNL A   1      42.228  27.383  35.021  1.00  0.00     0.198 A 
ATOM     87  C   UNL A   1      43.437  29.029  36.272  1.00  0.00     0.198 A 
ATOM     88  F   UNL A   1      43.909  31.127  35.320  1.00  0.00    -0.203 F 
ATOM     89  F   UNL A   1      41.708  26.150  34.923  1.00  0.00    -0.200 F 
ATOM     90  C   UNL A   1      42.880  27.763  36.181  1.00  0.00     0.200 A 
ATOM     91  F   UNL A   1      44.115  29.384  37.373  1.00  0.00    -0.200 F 
ATOM     92  F   UNL A   1      43.001  26.901  37.200  1.00  0.00    -0.200 F 
ENDBRANCH  59  82
ENDBRANCH  33  34
ENDBRANCH  25  28
ENDBRANCH  23  24
ENDBRANCH  22  23
ENDBRANCH   1  22
TORSDOF 13
ENDMDL
MODEL 2
REMARK VINA RESULT:     -11.2      1.390      1.995
REMARK SMILES O=C(Cn1cc(C(=O)C(F)(F)F)c2ccccc21)NCCCNC(=O)c1ccc(-c2c3nc(c(-c4c(F)c(F)c(F)c(F)c4F)c4ccc([nH]4)c(-c4c(F)c(F)c(F)c(F)c4F)c4nc(c(-c5c(F)c(F)c(F)c(F)c5F)c5ccc2[nH]5)C=C4)C=C3)cc1
REMARK SMILES IDX 20 1 19 2 1 3 2 4 3 6 4 7 5 8 18 9 6 10 13 11 17 12 14 13
REMARK SMILES IDX 16 14 15 15 7 16 8 17 9 18 10 19 11 20 12 21 21 22 22 23
REMARK SMILES IDX 23 24 24 25 25 27 26 28 27 29 88 30 28 31 87 32 29 33 30 34
REMARK SMILES IDX 31 35 81 36 32 37 86 38 80 39 82 40 33 41 85 42 79 43 78 44
REMARK SMILES IDX 34 46 66 47 46 48 65 49 47 50 50 51 64 52 83 53 48 54 49 55
REMARK SMILES IDX 63 57 84 58 51 59 35 60 36 61 44 62 37 63 38 64 42 65 45 66
REMARK SMILES IDX 39 67 40 68 43 69 41 70 67 71 68 72 76 73 69 74 70 75 74 76
REMARK SMILES IDX 77 77 71 78 72 79 75 80 73 81 52 82 53 83 61 84 54 85 55 86
REMARK SMILES IDX 59 87 62 88 56 89 57 90 60 91 58 92
REMARK H PARENT 19 5 23 26 82 45 50 56
REMARK Flexibility Score: inf
ROOT
ATOM      1  C   UNL A   1      43.685  20.353  25.408  1.00  0.00     0.117 C 
ENDROOT
BRANCH   1   2
ATOM      2  N   UNL A   1      43.643  21.762  25.753  1.00  0.00    -0.354 N 
ATOM      3  O   UNL A   1      44.035  22.576  23.642  1.00  0.00    -0.273 OA
ATOM      4  C   UNL A   1      43.751  22.773  24.818  1.00  0.00     0.239 C 
ATOM      5  H   UNL A   1      43.535  22.010  26.699  1.00  0.00     0.163 HD
BRANCH   4   6
ATOM      6  C   UNL A   1      43.518  24.167  25.370  1.00  0.00     0.222 C 
BRANCH   6   7
ATOM      7  N   UNL A   1      44.737  24.933  25.639  1.00  0.00    -0.337 N 
ATOM      8  C   UNL A   1      45.489  25.620  24.719  1.00  0.00     0.099 A 
ATOM      9  C   UNL A   1      45.311  25.058  26.890  1.00  0.00     0.049 A 
ATOM     10  C   UNL A   1      46.521  26.269  25.370  1.00  0.00     0.053 A 
ATOM     11  C   UNL A   1      46.429  25.890  26.750  1.00  0.00     0.011 A 
ATOM     12  C   UNL A   1      44.945  24.506  28.130  1.00  0.00     0.027 A 
ATOM     13  C   UNL A   1      47.200  26.177  27.897  1.00  0.00     0.011 A 
ATOM     14  C   UNL A   1      45.735  24.801  29.244  1.00  0.00     0.002 A 
ATOM     15  C   UNL A   1      46.848  25.625  29.132  1.00  0.00     0.001 A 
BRANCH  10  16
ATOM     16  C   UNL A   1      47.520  27.155  24.747  1.00  0.00     0.268 C 
ATOM     17  O   UNL A   1      47.495  28.366  24.945  1.00  0.00    -0.284 OA
BRANCH  16  18
ATOM     18  C   UNL A   1      48.565  26.503  23.836  1.00  0.00     0.454 C 
ATOM     19  F   UNL A   1      48.693  27.146  22.640  1.00  0.00    -0.163 F 
ATOM     20  F   UNL A   1      49.812  26.500  24.393  1.00  0.00    -0.163 F 
ATOM     21  F   UNL A   1      48.284  25.203  23.536  1.00  0.00    -0.163 F 
ENDBRANCH  16  18
ENDBRANCH  10  16
ENDBRANCH   6   7
ENDBRANCH   4   6
ENDBRANCH   1   2
BRANCH   1  22
ATOM     22  C   UNL A   1      42.440  19.594  25.863  1.00  0.00     0.042 C 
BRANCH  22  23
ATOM     23  C   UNL A   1      41.709  20.239  27.042  1.00  0.00     0.118 C 
BRANCH  23  24
ATOM     24  N   UNL A   1      40.369  20.700  26.739  1.00  0.00    -0.352 N 
ATOM     25  C   UNL A   1      39.786  21.925  26.587  1.00  0.00     0.251 C 
ATOM     26  H   UNL A   1      39.735  19.960  26.613  1.00  0.00     0.163 HD
ATOM     27  O   UNL A   1      38.656  21.925  26.092  1.00  0.00    -0.269 OA
BRANCH  25  28
ATOM     28  C   UNL A   1      40.360  23.213  27.055  1.00  0.00     0.039 A 
ATOM     29  C   UNL A   1      41.337  23.365  28.040  1.00  0.00     0.014 A 
ATOM     30  C   UNL A   1      39.768  24.366  26.504  1.00  0.00     0.014 A 
ATOM     31  C   UNL A   1      41.615  24.624  28.560  1.00  0.00     0.010 A 
ATOM     32  C   UNL A   1      40.050  25.624  27.008  1.00  0.00     0.010 A 
ATOM     33  C   UNL A   1      40.923  25.738  28.084  1.00  0.00    -0.014 A 
BRANCH  33  34
ATOM     34  C   UNL A   1      41.188  27.036  28.693  1.00  0.00     0.031 A 
ATOM     35  C   UNL A   1      42.454  27.687  28.250  1.00  0.00     0.074 A 
ATOM     36  C   UNL A   1      40.277  27.643  29.482  1.00  0.00     0.049 A 
ATOM     37  N   UNL A   1      43.441  28.113  28.972  1.00  0.00    -0.248 NA
ATOM     38  C   UNL A   1      42.693  27.786  26.798  1.00  0.00     0.031 C 
ATOM     39  C   UNL A   1      38.901  27.219  29.762  1.00  0.00     0.029 A 
ATOM     40  N   UNL A   1      40.356  28.839  30.128  1.00  0.00    -0.354 N 
ATOM     41  C   UNL A   1      44.353  28.678  28.082  1.00  0.00     0.074 A 
ATOM     42  C   UNL A   1      43.908  28.335  26.757  1.00  0.00     0.031 C 
ATOM     43  C   UNL A   1      38.217  28.247  30.311  1.00  0.00     0.029 A 
ATOM     44  C   UNL A   1      39.130  29.351  30.540  1.00  0.00     0.049 A 
ATOM     45  H   UNL A   1      41.209  29.302  30.290  1.00  0.00     0.167 HD
ATOM     46  C   UNL A   1      45.303  29.564  28.486  1.00  0.00     0.037 A 
ATOM     47  C   UNL A   1      38.888  30.619  30.959  1.00  0.00     0.037 A 
ATOM     48  C   UNL A   1      45.542  29.486  29.898  1.00  0.00     0.049 A 
ATOM     49  C   UNL A   1      40.194  31.218  31.331  1.00  0.00     0.074 A 
ATOM     50  C   UNL A   1      46.041  28.511  30.740  1.00  0.00     0.029 A 
ATOM     51  N   UNL A   1      44.925  30.400  30.712  1.00  0.00    -0.354 N 
ATOM     52  N   UNL A   1      40.907  30.835  32.353  1.00  0.00    -0.248 NA
ATOM     53  C   UNL A   1      40.919  31.937  30.293  1.00  0.00     0.031 C 
ATOM     54  C   UNL A   1      45.278  28.634  31.937  1.00  0.00     0.029 A 
ATOM     55  C   UNL A   1      44.406  29.710  31.777  1.00  0.00     0.049 A 
ATOM     56  H   UNL A   1      44.866  31.371  30.560  1.00  0.00     0.167 HD
ATOM     57  C   UNL A   1      42.218  30.883  31.903  1.00  0.00     0.074 A 
ATOM     58  C   UNL A   1      42.168  31.637  30.653  1.00  0.00     0.031 C 
ATOM     59  C   UNL A   1      43.171  30.065  32.434  1.00  0.00     0.037 A 
BRANCH  46  60
ATOM     60  C   UNL A   1      45.776  30.720  27.647  1.00  0.00     0.064 A 
ATOM     61  C   UNL A   1      47.148  30.886  27.380  1.00  0.00     0.173 A 
ATOM     62  C   UNL A   1      44.954  31.826  27.335  1.00  0.00     0.173 A 
ATOM     63  F   UNL A   1      48.023  29.914  27.679  1.00  0.00    -0.203 F 
ATOM     64  C   UNL A   1      47.660  32.085  26.874  1.00  0.00     0.198 A 
ATOM     65  C   UNL A   1      45.460  32.999  26.782  1.00  0.00     0.198 A 
ATOM     66  F   UNL A   1      43.654  31.851  27.658  1.00  0.00    -0.203 F 
ATOM     67  F   UNL A   1      48.984  32.238  26.735  1.00  0.00    -0.200 F 
ATOM     68  C   UNL A   1      46.815  33.139  26.574  1.00  0.00     0.200 A 
ATOM     69  F   UNL A   1      44.627  34.018  26.524  1.00  0.00    -0.200 F 
ATOM     70  F   UNL A   1      47.309  34.305  26.135  1.00  0.00    -0.200 F 
ENDBRANCH  46  60
BRANCH  47  71
ATOM     71  C   UNL A   1      37.688  31.460  30.706  1.00  0.00     0.064 A 
ATOM     72  C   UNL A   1      37.312  31.805  29.396  1.00  0.00     0.173 A 
ATOM     73  C   UNL A   1      36.725  31.687  31.710  1.00  0.00     0.173 A 
ATOM     74  F   UNL A   1      38.150  31.581  28.373  1.00  0.00    -0.203 F 
ATOM     75  C   UNL A   1      36.040  32.311  29.105  1.00  0.00     0.198 A 
ATOM     76  C   UNL A   1      35.460  32.199  31.419  1.00  0.00     0.198 A 
ATOM     77  F   UNL A   1      36.954  31.323  32.979  1.00  0.00    -0.203 F 
ATOM     78  F   UNL A   1      35.694  32.560  27.833  1.00  0.00    -0.200 F 
ATOM     79  C   UNL A   1      35.110  32.495  30.115  1.00  0.00     0.200 A 
ATOM     80  F   UNL A   1      34.558  32.338  32.401  1.00  0.00    -0.200 F 
ATOM     81  F   UNL A   1      33.870  32.914  29.829  1.00  0.00    -0.200 F 
ENDBRANCH  47  71
BRANCH  59  82
ATOM     82  C   UNL A   1      42.818  29.285  33.671  1.00  0.00     0.064 A 
ATOM     83  C   UNL A   1      42.156  28.044  33.653  1.00  0.00     0.173 A 
ATOM     84  C   UNL A   1      43.316  29.732  34.902  1.00  0.00     0.173 A 
ATOM     85  F   UNL A   1      41.739  27.503  32.503  1.00  0.00    -0.203 F 
ATOM     86  C   UNL A   1      41.975  27.304  34.820  1.00  0.00     0.198 A 
ATOM     87  C   UNL A   1      43.165  28.973  36.059  1.00  0.00     0.198 A 
ATOM     88  F   UNL A   1      44.003  30.882  34.971  1.00  0.00    -0.203 F 
ATOM     89  F   UNL A   1      41.339  26.123  34.776  1.00  0.00    -0.200 F 
ATOM     90  C   UNL A   1      42.488  27.764  36.021  1.00  0.00     0.200 A 
ATOM     91  F   UNL A   1      43.711  29.397  37.209  1.00  0.00    -0.200 F 
ATOM     92  F   UNL A   1      42.362  27.028  37.133  1.00  0.00    -0.200 F 
ENDBRANCH  59  82
ENDBRANCH  33  34
ENDBRANCH  25  28
ENDBRANCH  23  24
ENDBRANCH  22  23
ENDBRANCH   1  22
TORSDOF 13
ENDMDL
MODEL 3
REMARK VINA RESULT:     -11.1      3.798     11.154
REMARK SMILES O=C(Cn1cc(C(=O)C(F)(F)F)c2ccccc21)NCCCNC(=O)c1ccc(-c2c3nc(c(-c4c(F)c(F)c(F)c(F)c4F)c4ccc([nH]4)c(-c4c(F)c(F)c(F)c(F)c4F)c4nc(c(-c5c(F)c(F)c(F)c(F)c5F)c5ccc2[nH]5)C=C4)C=C3)cc1
REMARK SMILES IDX 20 1 19 2 1 3 2 4 3 6 4 7 5 8 18 9 6 10 13 11 17 12 14 13
REMARK SMILES IDX 16 14 15 15 7 16 8 17 9 18 10 19 11 20 12 21 21 22 22 23
REMARK SMILES IDX 23 24 24 25 25 27 26 28 27 29 88 30 28 31 87 32 29 33 30 34
REMARK SMILES IDX 31 35 81 36 32 37 86 38 80 39 82 40 33 41 85 42 79 43 78 44
REMARK SMILES IDX 34 46 66 47 46 48 65 49 47 50 50 51 64 52 83 53 48 54 49 55
REMARK SMILES IDX 63 57 84 58 51 59 35 60 36 61 44 62 37 63 38 64 42 65 45 66
REMARK SMILES IDX 39 67 40 68 43 69 41 70 67 71 68 72 76 73 69 74 70 75 74 76
REMARK SMILES IDX 77 77 71 78 72 79 75 80 73 81 52 82 53 83 61 84 54 85 55 86
REMARK SMILES IDX 59 87 62 88 56 89 57 90 60 91 58 92
REMARK H PARENT 19 5 23 26 82 45 50 56
REMARK Flexibility Score: inf
ROOT
ATOM      1  C   UNL A   1      33.319  35.733  29.571  1.00  0.00     0.117 C 
ENDROOT
BRANCH   1   2
ATOM      2  N   UNL A   1      33.382  34.922  30.773  1.00  0.00    -0.354 N 
ATOM      3  O   UNL A   1      34.096  36.582  32.189  1.00  0.00    -0.273 OA
ATOM      4  C   UNL A   1      33.700  35.435  32.015  1.00  0.00     0.239 C 
ATOM      5  H   UNL A   1      33.192  33.959  30.699  1.00  0.00     0.163 HD
BRANCH   4   6
ATOM      6  C   UNL A   1      33.550  34.450  33.159  1.00  0.00     0.222 C 
BRANCH   6   7
ATOM      7  N   UNL A   1      34.812  33.936  33.697  1.00  0.00    -0.337 N 
ATOM      8  C   UNL A   1      35.517  34.449  34.756  1.00  0.00     0.099 A 
ATOM      9  C   UNL A   1      35.481  32.840  33.184  1.00  0.00     0.049 A 
ATOM     10  C   UNL A   1      36.617  33.648  35.000  1.00  0.00     0.053 A 
ATOM     11  C   UNL A   1      36.614  32.638  33.983  1.00  0.00     0.011 A 
ATOM     12  C   UNL A   1      35.189  32.015  32.084  1.00  0.00     0.027 A 
ATOM     13  C   UNL A   1      37.477  31.567  33.664  1.00  0.00     0.011 A 
ATOM     14  C   UNL A   1      36.069  30.971  31.789  1.00  0.00     0.002 A 
ATOM     15  C   UNL A   1      37.199  30.747  32.567  1.00  0.00     0.001 A 
BRANCH  10  16
ATOM     16  C   UNL A   1      37.597  33.826  36.086  1.00  0.00     0.268 C 
ATOM     17  O   UNL A   1      37.346  33.447  37.227  1.00  0.00    -0.284 OA
BRANCH  16  18
ATOM     18  C   UNL A   1      38.918  34.516  35.732  1.00  0.00     0.454 C 
ATOM     19  F   UNL A   1      39.210  35.552  36.570  1.00  0.00    -0.163 F 
ATOM     20  F   UNL A   1      39.985  33.666  35.804  1.00  0.00    -0.163 F 
ATOM     21  F   UNL A   1      38.935  35.035  34.472  1.00  0.00    -0.163 F 
ENDBRANCH  16  18
ENDBRANCH  10  16
ENDBRANCH   6   7
ENDBRANCH   4   6
ENDBRANCH   1   2
BRANCH   1  22
ATOM     22  C   UNL A   1      33.969  35.058  28.365  1.00  0.00     0.042 C 
BRANCH  22  23
ATOM     23  C   UNL A   1      34.752  33.788  28.704  1.00  0.00     0.118 C 
BRANCH  23  24
ATOM     24  N   UNL A   1      34.437  32.647  27.869  1.00  0.00    -0.352 N 
ATOM     25  C   UNL A   1      34.913  31.372  27.765  1.00  0.00     0.251 C 
ATOM     26  H   UNL A   1      33.714  32.835  27.229  1.00  0.00     0.163 HD
ATOM     27  O   UNL A   1      34.232  30.598  27.087  1.00  0.00    -0.269 OA
BRANCH  25  28
ATOM     28  C   UNL A   1      36.207  30.892  28.312  1.00  0.00     0.039 A 
ATOM     29  C   UNL A   1      37.304  31.690  28.644  1.00  0.00     0.014 A 
ATOM     30  C   UNL A   1      36.339  29.492  28.395  1.00  0.00     0.014 A 
ATOM     31  C   UNL A   1      38.537  31.107  28.915  1.00  0.00     0.010 A 
ATOM     32  C   UNL A   1      37.561  28.905  28.676  1.00  0.00     0.010 A 
ATOM     33  C   UNL A   1      38.671  29.719  28.867  1.00  0.00    -0.014 A 
BRANCH  33  34
ATOM     34  C   UNL A   1      39.990  29.139  29.091  1.00  0.00     0.031 A 
ATOM     35  C   UNL A   1      40.337  28.910  30.523  1.00  0.00     0.074 A 
ATOM     36  C   UNL A   1      40.758  28.718  28.064  1.00  0.00     0.049 A 
ATOM     37  N   UNL A   1      41.364  29.338  31.185  1.00  0.00    -0.248 NA
ATOM     38  C   UNL A   1      39.354  28.188  31.352  1.00  0.00     0.031 C 
ATOM     39  C   UNL A   1      40.404  28.647  26.643  1.00  0.00     0.029 A 
ATOM     40  N   UNL A   1      42.001  28.161  28.088  1.00  0.00    -0.354 N 
ATOM     41  C   UNL A   1      41.242  28.810  32.469  1.00  0.00     0.074 A 
ATOM     42  C   UNL A   1      39.930  28.223  32.554  1.00  0.00     0.031 C 
ATOM     43  C   UNL A   1      41.300  27.871  25.994  1.00  0.00     0.029 A 
ATOM     44  C   UNL A   1      42.356  27.499  26.918  1.00  0.00     0.049 A 
ATOM     45  H   UNL A   1      42.598  28.224  28.868  1.00  0.00     0.167 HD
ATOM     46  C   UNL A   1      42.304  28.708  33.313  1.00  0.00     0.037 A 
ATOM     47  C   UNL A   1      43.400  26.646  26.761  1.00  0.00     0.037 A 
ATOM     48  C   UNL A   1      43.376  29.581  32.932  1.00  0.00     0.049 A 
ATOM     49  C   UNL A   1      44.340  26.889  27.885  1.00  0.00     0.074 A 
ATOM     50  C   UNL A   1      43.522  30.952  32.853  1.00  0.00     0.029 A 
ATOM     51  N   UNL A   1      44.418  29.054  32.214  1.00  0.00    -0.354 N 
ATOM     52  N   UNL A   1      45.034  27.982  28.030  1.00  0.00    -0.248 NA
ATOM     53  C   UNL A   1      44.159  26.093  29.090  1.00  0.00     0.031 C 
ATOM     54  C   UNL A   1      44.334  31.170  31.701  1.00  0.00     0.029 A 
ATOM     55  C   UNL A   1      44.682  29.922  31.185  1.00  0.00     0.049 A 
ATOM     56  H   UNL A   1      44.888  28.209  32.401  1.00  0.00     0.167 HD
ATOM     57  C   UNL A   1      45.015  28.230  29.395  1.00  0.00     0.074 A 
ATOM     58  C   UNL A   1      44.523  26.996  30.003  1.00  0.00     0.031 C 
ATOM     59  C   UNL A   1      45.124  29.500  29.878  1.00  0.00     0.037 A 
BRANCH  46  60
ATOM     60  C   UNL A   1      42.487  27.580  34.293  1.00  0.00     0.064 A 
ATOM     61  C   UNL A   1      43.062  26.366  33.875  1.00  0.00     0.173 A 
ATOM     62  C   UNL A   1      41.858  27.556  35.557  1.00  0.00     0.173 A 
ATOM     63  F   UNL A   1      43.647  26.267  32.671  1.00  0.00    -0.203 F 
ATOM     64  C   UNL A   1      42.978  25.206  34.651  1.00  0.00     0.198 A 
ATOM     65  C   UNL A   1      41.822  26.413  36.351  1.00  0.00     0.198 A 
ATOM     66  F   UNL A   1      41.160  28.603  36.017  1.00  0.00    -0.203 F 
ATOM     67  F   UNL A   1      43.445  24.046  34.169  1.00  0.00    -0.200 F 
ATOM     68  C   UNL A   1      42.359  25.231  35.888  1.00  0.00     0.200 A 
ATOM     69  F   UNL A   1      41.194  26.453  37.535  1.00  0.00    -0.200 F 
ATOM     70  F   UNL A   1      42.235  24.110  36.611  1.00  0.00    -0.200 F 
ENDBRANCH  46  60
BRANCH  47  71
ATOM     71  C   UNL A   1      43.460  25.403  25.948  1.00  0.00     0.064 A 
ATOM     72  C   UNL A   1      44.603  25.094  25.190  1.00  0.00     0.173 A 
ATOM     73  C   UNL A   1      42.534  24.358  26.133  1.00  0.00     0.173 A 
ATOM     74  F   UNL A   1      45.558  26.016  25.001  1.00  0.00    -0.203 F 
ATOM     75  C   UNL A   1      44.821  23.808  24.680  1.00  0.00     0.198 A 
ATOM     76  C   UNL A   1      42.749  23.079  25.617  1.00  0.00     0.198 A 
ATOM     77  F   UNL A   1      41.450  24.526  26.902  1.00  0.00    -0.203 F 
ATOM     78  F   UNL A   1      45.958  23.533  24.023  1.00  0.00    -0.200 F 
ATOM     79  C   UNL A   1      43.900  22.799  24.905  1.00  0.00     0.200 A 
ATOM     80  F   UNL A   1      41.867  22.103  25.873  1.00  0.00    -0.200 F 
ATOM     81  F   UNL A   1      44.140  21.552  24.477  1.00  0.00    -0.200 F 
ENDBRANCH  47  71
BRANCH  59  82
ATOM     82  C   UNL A   1      45.500  30.590  28.911  1.00  0.00     0.064 A 
ATOM     83  C   UNL A   1      46.826  30.918  28.576  1.00  0.00     0.173 A 
ATOM     84  C   UNL A   1      44.479  31.207  28.177  1.00  0.00     0.173 A 
ATOM     85  F   UNL A   1      47.858  30.300  29.163  1.00  0.00    -0.203 F 
ATOM     86  C   UNL A   1      47.111  31.845  27.575  1.00  0.00     0.198 A 
ATOM     87  C   UNL A   1      44.768  32.104  27.152  1.00  0.00     0.198 A 
ATOM     88  F   UNL A   1      43.197  30.892  28.415  1.00  0.00    -0.203 F 
ATOM     89  F   UNL A   1      48.385  32.140  27.275  1.00  0.00    -0.200 F 
ATOM     90  C   UNL A   1      46.083  32.429  26.856  1.00  0.00     0.200 A 
ATOM     91  F   UNL A   1      43.770  32.626  26.424  1.00  0.00    -0.200 F 
ATOM     92  F   UNL A   1      46.356  33.279  25.857  1.00  0.00    -0.200 F 
ENDBRANCH  59  82
ENDBRANCH  33  34
ENDBRANCH  25  28
ENDBRANCH  23  24
ENDBRANCH  22  23
ENDBRANCH   1  22
TORSDOF 13
ENDMDL
