MODEL 1
REMARK VINA RESULT:     -11.8      0.000      0.000
REMARK SMILES O=C(NCCCNC(=O)c1ccc(-c2c3nc(c(-c4c(F)c(F)c(F)c(F)c4F)c4ccc([nH]4)c(-c4c(F)c(F)c(F)c(F)c4F)c4nc(c(-c5c(F)c(F)c(F)c(F)c5F)c5ccc2[nH]5)C=C4)C=C3)cc1)/C(=C/c1ccsc1)c1ccccc1
REMARK SMILES IDX 5 1 4 2 3 3 1 4 2 5 73 7 74 8 80 9 81 10 85 11 82 12 84 13
REMARK SMILES IDX 83 14 75 15 76 16 79 17 77 18 78 19 6 20 7 21 8 22 9 24
REMARK SMILES IDX 10 25 11 26 72 27 12 28 71 29 13 30 14 31 15 32 65 33 16 34
REMARK SMILES IDX 70 35 64 36 66 37 17 38 69 39 63 40 62 41 18 43 50 44 30 45
REMARK SMILES IDX 49 46 31 47 34 48 48 49 67 50 32 51 33 52 47 54 68 55 35 56
REMARK SMILES IDX 19 57 20 58 28 59 21 60 22 61 26 62 29 63 23 64 24 65 27 66
REMARK SMILES IDX 25 67 51 68 52 69 60 70 53 71 54 72 58 73 61 74 55 75 56 76
REMARK SMILES IDX 59 77 57 78 36 79 37 80 45 81 38 82 39 83 43 84 46 85 40 86
REMARK SMILES IDX 41 87 44 88 42 89
REMARK H PARENT 3 6 7 23 66 42 34 53
REMARK Flexibility Score: inf
ROOT
ATOM      1  C   UNL A   1      35.530  23.546  26.001  1.00  0.00     0.042 C 
ENDROOT
BRANCH   1   2
ATOM      2  C   UNL A   1      34.192  23.499  25.291  1.00  0.00     0.118 C 
BRANCH   2   3
ATOM      3  N   UNL A   1      33.058  23.373  26.191  1.00  0.00    -0.352 N 
ATOM      4  O   UNL A   1      31.156  23.716  27.251  1.00  0.00    -0.269 OA
ATOM      5  C   UNL A   1      31.966  24.155  26.429  1.00  0.00     0.251 C 
ATOM      6  H   UNL A   1      33.081  22.556  26.741  1.00  0.00     0.163 HD
BRANCH   5   7
ATOM      7  C   UNL A   1      31.740  25.488  25.761  1.00  0.00     0.047 C 
ATOM      8  C   UNL A   1      30.988  25.457  24.633  1.00  0.00     0.023 C 
BRANCH   7   9
ATOM      9  C   UNL A   1      32.247  26.767  26.285  1.00  0.00    -0.013 A 
ATOM     10  C   UNL A   1      33.573  27.155  26.028  1.00  0.00     0.009 A 
ATOM     11  C   UNL A   1      31.403  27.631  26.997  1.00  0.00     0.009 A 
ATOM     12  C   UNL A   1      34.036  28.400  26.446  1.00  0.00     0.001 A 
ATOM     13  C   UNL A   1      31.867  28.885  27.400  1.00  0.00     0.001 A 
ATOM     14  C   UNL A   1      33.179  29.268  27.121  1.00  0.00     0.000 A 
ENDBRANCH   7   9
BRANCH   8  15
ATOM     15  C   UNL A   1      30.592  26.578  23.829  1.00  0.00    -0.014 A 
ATOM     16  C   UNL A   1      31.417  27.302  22.915  1.00  0.00     0.020 A 
ATOM     17  C   UNL A   1      29.314  27.096  23.877  1.00  0.00     0.073 A 
ATOM     18  C   UNL A   1      30.768  28.391  22.376  1.00  0.00     0.065 A 
ATOM     19  S   UNL A   1      29.147  28.498  22.906  1.00  0.00    -0.152 S 
ENDBRANCH   8  15
ENDBRANCH   5   7
ENDBRANCH   2   3
ENDBRANCH   1   2
BRANCH   1  20
ATOM     20  C   UNL A   1      36.731  23.567  25.077  1.00  0.00     0.118 C 
BRANCH  20  21
ATOM     21  N   UNL A   1      37.781  22.642  25.482  1.00  0.00    -0.352 N 
ATOM     22  C   UNL A   1      38.978  22.844  26.126  1.00  0.00     0.251 C 
ATOM     23  H   UNL A   1      37.601  21.702  25.253  1.00  0.00     0.163 HD
ATOM     24  O   UNL A   1      39.779  21.915  26.203  1.00  0.00    -0.269 OA
BRANCH  22  25
ATOM     25  C   UNL A   1      39.335  24.161  26.703  1.00  0.00     0.039 A 
ATOM     26  C   UNL A   1      38.960  24.443  28.020  1.00  0.00     0.014 A 
ATOM     27  C   UNL A   1      40.001  25.136  25.960  1.00  0.00     0.014 A 
ATOM     28  C   UNL A   1      39.315  25.664  28.602  1.00  0.00     0.010 A 
ATOM     29  C   UNL A   1      40.469  26.291  26.578  1.00  0.00     0.010 A 
ATOM     30  C   UNL A   1      40.111  26.582  27.899  1.00  0.00    -0.014 A 
BRANCH  30  31
ATOM     31  C   UNL A   1      40.552  27.857  28.525  1.00  0.00     0.031 A 
ATOM     32  C   UNL A   1      41.994  28.060  28.913  1.00  0.00     0.074 A 
ATOM     33  C   UNL A   1      39.641  28.814  28.795  1.00  0.00     0.049 A 
ATOM     34  N   UNL A   1      42.561  29.094  29.483  1.00  0.00    -0.248 NA
ATOM     35  C   UNL A   1      42.917  26.941  28.661  1.00  0.00     0.031 C 
ATOM     36  C   UNL A   1      38.202  28.706  28.549  1.00  0.00     0.029 A 
ATOM     37  N   UNL A   1      39.791  30.067  29.336  1.00  0.00    -0.354 N 
ATOM     38  C   UNL A   1      43.890  28.740  29.676  1.00  0.00     0.074 A 
ATOM     39  C   UNL A   1      44.034  27.374  29.225  1.00  0.00     0.031 C 
ATOM     40  C   UNL A   1      37.608  29.858  28.897  1.00  0.00     0.029 A 
ATOM     41  C   UNL A   1      38.616  30.773  29.420  1.00  0.00     0.049 A 
ATOM     42  H   UNL A   1      40.657  30.424  29.635  1.00  0.00     0.167 HD
ATOM     43  C   UNL A   1      44.908  29.495  30.152  1.00  0.00     0.037 A 
ATOM     44  C   UNL A   1      38.381  32.023  29.863  1.00  0.00     0.037 A 
ATOM     45  C   UNL A   1      44.772  30.869  30.558  1.00  0.00     0.049 A 
ATOM     46  C   UNL A   1      39.538  32.859  30.337  1.00  0.00     0.074 A 
ATOM     47  C   UNL A   1      45.755  31.747  30.978  1.00  0.00     0.029 A 
ATOM     48  N   UNL A   1      43.574  31.565  30.588  1.00  0.00    -0.354 N 
ATOM     49  N   UNL A   1      40.807  32.541  30.429  1.00  0.00    -0.248 NA
ATOM     50  C   UNL A   1      39.231  34.233  30.757  1.00  0.00     0.031 C 
ATOM     51  C   UNL A   1      45.144  32.962  31.306  1.00  0.00     0.029 A 
ATOM     52  C   UNL A   1      43.788  32.858  31.038  1.00  0.00     0.049 A 
ATOM     53  H   UNL A   1      42.698  31.196  30.328  1.00  0.00     0.167 HD
ATOM     54  C   UNL A   1      41.453  33.680  30.891  1.00  0.00     0.074 A 
ATOM     55  C   UNL A   1      40.438  34.703  31.035  1.00  0.00     0.031 C 
ATOM     56  C   UNL A   1      42.766  33.862  31.177  1.00  0.00     0.037 A 
BRANCH  43  57
ATOM     57  C   UNL A   1      46.265  28.856  30.248  1.00  0.00     0.064 A 
ATOM     58  C   UNL A   1      46.695  28.211  31.419  1.00  0.00     0.173 A 
ATOM     59  C   UNL A   1      47.132  28.854  29.146  1.00  0.00     0.173 A 
ATOM     60  F   UNL A   1      45.911  28.193  32.508  1.00  0.00    -0.203 F 
ATOM     61  C   UNL A   1      47.952  27.615  31.491  1.00  0.00     0.198 A 
ATOM     62  C   UNL A   1      48.375  28.229  29.210  1.00  0.00     0.198 A 
ATOM     63  F   UNL A   1      46.771  29.452  28.000  1.00  0.00    -0.203 F 
ATOM     64  F   UNL A   1      48.361  27.052  32.636  1.00  0.00    -0.200 F 
ATOM     65  C   UNL A   1      48.788  27.618  30.384  1.00  0.00     0.200 A 
ATOM     66  F   UNL A   1      49.177  28.221  28.136  1.00  0.00    -0.200 F 
ATOM     67  F   UNL A   1      49.994  27.037  30.452  1.00  0.00    -0.200 F 
ENDBRANCH  43  57
BRANCH  44  68
ATOM     68  C   UNL A   1      37.000  32.576  29.835  1.00  0.00     0.064 A 
ATOM     69  C   UNL A   1      36.524  33.267  28.712  1.00  0.00     0.173 A 
ATOM     70  C   UNL A   1      36.134  32.432  30.928  1.00  0.00     0.173 A 
ATOM     71  F   UNL A   1      37.320  33.447  27.648  1.00  0.00    -0.203 F 
ATOM     72  C   UNL A   1      35.243  33.818  28.695  1.00  0.00     0.198 A 
ATOM     73  C   UNL A   1      34.844  32.956  30.897  1.00  0.00     0.198 A 
ATOM     74  F   UNL A   1      36.538  31.771  32.022  1.00  0.00    -0.203 F 
ATOM     75  F   UNL A   1      34.833  34.518  27.629  1.00  0.00    -0.200 F 
ATOM     76  C   UNL A   1      34.403  33.658  29.785  1.00  0.00     0.200 A 
ATOM     77  F   UNL A   1      34.028  32.784  31.946  1.00  0.00    -0.200 F 
ATOM     78  F   UNL A   1      33.171  34.184  29.768  1.00  0.00    -0.200 F 
ENDBRANCH  44  68
BRANCH  56  79
ATOM     79  C   UNL A   1      43.177  35.227  31.647  1.00  0.00     0.064 A 
ATOM     80  C   UNL A   1      43.078  35.602  32.996  1.00  0.00     0.173 A 
ATOM     81  C   UNL A   1      43.685  36.168  30.740  1.00  0.00     0.173 A 
ATOM     82  F   UNL A   1      42.587  34.742  33.901  1.00  0.00    -0.203 F 
ATOM     83  C   UNL A   1      43.432  36.883  33.411  1.00  0.00     0.198 A 
ATOM     84  C   UNL A   1      44.071  37.437  31.163  1.00  0.00     0.198 A 
ATOM     85  F   UNL A   1      43.809  35.858  29.441  1.00  0.00    -0.203 F 
ATOM     86  F   UNL A   1      43.268  37.239  34.691  1.00  0.00    -0.200 F 
ATOM     87  C   UNL A   1      43.933  37.796  32.495  1.00  0.00     0.200 A 
ATOM     88  F   UNL A   1      44.568  38.314  30.280  1.00  0.00    -0.200 F 
ATOM     89  F   UNL A   1      44.272  39.030  32.895  1.00  0.00    -0.200 F 
ENDBRANCH  56  79
ENDBRANCH  30  31
ENDBRANCH  22  25
ENDBRANCH  20  21
ENDBRANCH   1  20
TORSDOF 12
ENDMDL
MODEL 2
REMARK VINA RESULT:     -11.8      4.144      8.868
REMARK SMILES O=C(NCCCNC(=O)c1ccc(-c2c3nc(c(-c4c(F)c(F)c(F)c(F)c4F)c4ccc([nH]4)c(-c4c(F)c(F)c(F)c(F)c4F)c4nc(c(-c5c(F)c(F)c(F)c(F)c5F)c5ccc2[nH]5)C=C4)C=C3)cc1)/C(=C/c1ccsc1)c1ccccc1
REMARK SMILES IDX 5 1 4 2 3 3 1 4 2 5 73 7 74 8 80 9 81 10 85 11 82 12 84 13
REMARK SMILES IDX 83 14 75 15 76 16 79 17 77 18 78 19 6 20 7 21 8 22 9 24
REMARK SMILES IDX 10 25 11 26 72 27 12 28 71 29 13 30 14 31 15 32 65 33 16 34
REMARK SMILES IDX 70 35 64 36 66 37 17 38 69 39 63 40 62 41 18 43 50 44 30 45
REMARK SMILES IDX 49 46 31 47 34 48 48 49 67 50 32 51 33 52 47 54 68 55 35 56
REMARK SMILES IDX 19 57 20 58 28 59 21 60 22 61 26 62 29 63 23 64 24 65 27 66
REMARK SMILES IDX 25 67 51 68 52 69 60 70 53 71 54 72 58 73 61 74 55 75 56 76
REMARK SMILES IDX 59 77 57 78 36 79 37 80 45 81 38 82 39 83 43 84 46 85 40 86
REMARK SMILES IDX 41 87 44 88 42 89
REMARK H PARENT 3 6 7 23 66 42 34 53
REMARK Flexibility Score: inf
ROOT
ATOM      1  C   UNL A   1      32.089  28.297  25.160  1.00  0.00     0.042 C 
ENDROOT
BRANCH   1   2
ATOM      2  C   UNL A   1      32.577  26.895  24.852  1.00  0.00     0.118 C 
BRANCH   2   3
ATOM      3  N   UNL A   1      32.994  26.713  23.471  1.00  0.00    -0.352 N 
ATOM      4  O   UNL A   1      33.663  25.824  21.569  1.00  0.00    -0.269 OA
ATOM      5  C   UNL A   1      33.427  25.630  22.764  1.00  0.00     0.251 C 
ATOM      6  H   UNL A   1      32.956  27.539  22.937  1.00  0.00     0.163 HD
BRANCH   5   7
ATOM      7  C   UNL A   1      33.634  24.268  23.379  1.00  0.00     0.047 C 
ATOM      8  C   UNL A   1      32.559  23.443  23.348  1.00  0.00     0.023 C 
BRANCH   7   9
ATOM      9  C   UNL A   1      34.912  23.808  23.946  1.00  0.00    -0.013 A 
ATOM     10  C   UNL A   1      35.271  24.173  25.255  1.00  0.00     0.009 A 
ATOM     11  C   UNL A   1      35.755  22.961  23.212  1.00  0.00     0.009 A 
ATOM     12  C   UNL A   1      36.436  23.673  25.831  1.00  0.00     0.001 A 
ATOM     13  C   UNL A   1      36.914  22.450  23.799  1.00  0.00     0.001 A 
ATOM     14  C   UNL A   1      37.250  22.802  25.107  1.00  0.00     0.000 A 
ENDBRANCH   7   9
BRANCH   8  15
ATOM     15  C   UNL A   1      32.494  22.090  23.825  1.00  0.00    -0.014 A 
ATOM     16  C   UNL A   1      32.479  21.671  25.190  1.00  0.00     0.020 A 
ATOM     17  C   UNL A   1      32.454  21.014  22.963  1.00  0.00     0.073 A 
ATOM     18  C   UNL A   1      32.520  20.299  25.315  1.00  0.00     0.065 A 
ATOM     19  S   UNL A   1      32.498  19.517  23.796  1.00  0.00    -0.152 S 
ENDBRANCH   8  15
ENDBRANCH   5   7
ENDBRANCH   2   3
ENDBRANCH   1   2
BRANCH   1  20
ATOM     20  C   UNL A   1      33.181  29.346  25.207  1.00  0.00     0.118 C 
BRANCH  20  21
ATOM     21  N   UNL A   1      32.757  30.585  25.845  1.00  0.00    -0.352 N 
ATOM     22  C   UNL A   1      33.247  31.268  26.931  1.00  0.00     0.251 C 
ATOM     23  H   UNL A   1      31.977  31.010  25.421  1.00  0.00     0.163 HD
ATOM     24  O   UNL A   1      32.603  32.211  27.385  1.00  0.00    -0.269 OA
BRANCH  22  25
ATOM     25  C   UNL A   1      34.518  30.875  27.585  1.00  0.00     0.039 A 
ATOM     26  C   UNL A   1      35.513  31.842  27.757  1.00  0.00     0.014 A 
ATOM     27  C   UNL A   1      34.761  29.565  27.998  1.00  0.00     0.014 A 
ATOM     28  C   UNL A   1      36.707  31.509  28.403  1.00  0.00     0.010 A 
ATOM     29  C   UNL A   1      35.888  29.267  28.755  1.00  0.00     0.010 A 
ATOM     30  C   UNL A   1      36.888  30.227  28.947  1.00  0.00    -0.014 A 
BRANCH  30  31
ATOM     31  C   UNL A   1      38.126  29.874  29.692  1.00  0.00     0.031 A 
ATOM     32  C   UNL A   1      38.356  30.401  31.085  1.00  0.00     0.074 A 
ATOM     33  C   UNL A   1      39.070  29.121  29.092  1.00  0.00     0.049 A 
ATOM     34  N   UNL A   1      39.379  30.216  31.882  1.00  0.00    -0.248 NA
ATOM     35  C   UNL A   1      37.318  31.282  31.645  1.00  0.00     0.031 C 
ATOM     36  C   UNL A   1      39.008  28.621  27.717  1.00  0.00     0.029 A 
ATOM     37  N   UNL A   1      40.268  28.645  29.563  1.00  0.00    -0.354 N 
ATOM     38  C   UNL A   1      39.116  30.972  33.018  1.00  0.00     0.074 A 
ATOM     39  C   UNL A   1      37.873  31.671  32.783  1.00  0.00     0.031 C 
ATOM     40  C   UNL A   1      40.095  27.875  27.470  1.00  0.00     0.029 A 
ATOM     41  C   UNL A   1      40.946  27.868  28.654  1.00  0.00     0.049 A 
ATOM     42  H   UNL A   1      40.609  28.840  30.465  1.00  0.00     0.167 HD
ATOM     43  C   UNL A   1      39.827  31.050  34.167  1.00  0.00     0.037 A 
ATOM     44  C   UNL A   1      42.120  27.219  28.768  1.00  0.00     0.037 A 
ATOM     45  C   UNL A   1      41.040  30.318  34.416  1.00  0.00     0.049 A 
ATOM     46  C   UNL A   1      42.864  27.280  30.074  1.00  0.00     0.074 A 
ATOM     47  C   UNL A   1      41.795  30.262  35.575  1.00  0.00     0.029 A 
ATOM     48  N   UNL A   1      41.675  29.507  33.487  1.00  0.00    -0.354 N 
ATOM     49  N   UNL A   1      42.557  27.926  31.173  1.00  0.00    -0.248 NA
ATOM     50  C   UNL A   1      44.110  26.507  30.159  1.00  0.00     0.031 C 
ATOM     51  C   UNL A   1      42.910  29.454  35.332  1.00  0.00     0.029 A 
ATOM     52  C   UNL A   1      42.822  28.961  34.040  1.00  0.00     0.049 A 
ATOM     53  H   UNL A   1      41.357  29.342  32.569  1.00  0.00     0.167 HD
ATOM     54  C   UNL A   1      43.557  27.620  32.087  1.00  0.00     0.074 A 
ATOM     55  C   UNL A   1      44.463  26.708  31.421  1.00  0.00     0.031 C 
ATOM     56  C   UNL A   1      43.714  28.057  33.361  1.00  0.00     0.037 A 
BRANCH  43  57
ATOM     57  C   UNL A   1      39.304  31.949  35.251  1.00  0.00     0.064 A 
ATOM     58  C   UNL A   1      38.476  31.464  36.277  1.00  0.00     0.173 A 
ATOM     59  C   UNL A   1      39.663  33.305  35.289  1.00  0.00     0.173 A 
ATOM     60  F   UNL A   1      38.091  30.178  36.283  1.00  0.00    -0.203 F 
ATOM     61  C   UNL A   1      38.006  32.307  37.280  1.00  0.00     0.198 A 
ATOM     62  C   UNL A   1      39.217  34.138  36.312  1.00  0.00     0.198 A 
ATOM     63  F   UNL A   1      40.455  33.821  34.337  1.00  0.00    -0.203 F 
ATOM     64  F   UNL A   1      37.174  31.831  38.218  1.00  0.00    -0.200 F 
ATOM     65  C   UNL A   1      38.383  33.641  37.302  1.00  0.00     0.200 A 
ATOM     66  F   UNL A   1      39.593  35.425  36.339  1.00  0.00    -0.200 F 
ATOM     67  F   UNL A   1      37.936  34.449  38.273  1.00  0.00    -0.200 F 
ENDBRANCH  43  57
BRANCH  44  68
ATOM     68  C   UNL A   1      42.642  26.418  27.629  1.00  0.00     0.064 A 
ATOM     69  C   UNL A   1      43.588  26.955  26.745  1.00  0.00     0.173 A 
ATOM     70  C   UNL A   1      42.203  25.106  27.397  1.00  0.00     0.173 A 
ATOM     71  F   UNL A   1      44.027  28.210  26.913  1.00  0.00    -0.203 F 
ATOM     72  C   UNL A   1      44.054  26.220  25.655  1.00  0.00     0.198 A 
ATOM     73  C   UNL A   1      42.693  24.363  26.326  1.00  0.00     0.198 A 
ATOM     74  F   UNL A   1      41.306  24.543  28.220  1.00  0.00    -0.203 F 
ATOM     75  F   UNL A   1      44.919  26.776  24.797  1.00  0.00    -0.200 F 
ATOM     76  C   UNL A   1      43.610  24.923  25.450  1.00  0.00     0.200 A 
ATOM     77  F   UNL A   1      42.274  23.103  26.140  1.00  0.00    -0.200 F 
ATOM     78  F   UNL A   1      44.060  24.216  24.405  1.00  0.00    -0.200 F 
ENDBRANCH  44  68
BRANCH  56  79
ATOM     79  C   UNL A   1      44.897  27.530  34.120  1.00  0.00     0.064 A 
ATOM     80  C   UNL A   1      46.129  28.204  34.123  1.00  0.00     0.173 A 
ATOM     81  C   UNL A   1      44.796  26.344  34.861  1.00  0.00     0.173 A 
ATOM     82  F   UNL A   1      46.280  29.337  33.421  1.00  0.00    -0.203 F 
ATOM     83  C   UNL A   1      47.226  27.686  34.805  1.00  0.00     0.198 A 
ATOM     84  C   UNL A   1      45.885  25.846  35.569  1.00  0.00     0.198 A 
ATOM     85  F   UNL A   1      43.639  25.666  34.898  1.00  0.00    -0.203 F 
ATOM     86  F   UNL A   1      48.409  28.311  34.741  1.00  0.00    -0.200 F 
ATOM     87  C   UNL A   1      47.101  26.510  35.531  1.00  0.00     0.200 A 
ATOM     88  F   UNL A   1      45.760  24.718  36.283  1.00  0.00    -0.200 F 
ATOM     89  F   UNL A   1      48.159  26.011  36.186  1.00  0.00    -0.200 F 
ENDBRANCH  56  79
ENDBRANCH  30  31
ENDBRANCH  22  25
ENDBRANCH  20  21
ENDBRANCH   1  20
TORSDOF 12
ENDMDL
MODEL 3
REMARK VINA RESULT:     -11.7      4.180      9.011
REMARK SMILES O=C(NCCCNC(=O)c1ccc(-c2c3nc(c(-c4c(F)c(F)c(F)c(F)c4F)c4ccc([nH]4)c(-c4c(F)c(F)c(F)c(F)c4F)c4nc(c(-c5c(F)c(F)c(F)c(F)c5F)c5ccc2[nH]5)C=C4)C=C3)cc1)/C(=C/c1ccsc1)c1ccccc1
REMARK SMILES IDX 5 1 4 2 3 3 1 4 2 5 73 7 74 8 80 9 81 10 85 11 82 12 84 13
REMARK SMILES IDX 83 14 75 15 76 16 79 17 77 18 78 19 6 20 7 21 8 22 9 24
REMARK SMILES IDX 10 25 11 26 72 27 12 28 71 29 13 30 14 31 15 32 65 33 16 34
REMARK SMILES IDX 70 35 64 36 66 37 17 38 69 39 63 40 62 41 18 43 50 44 30 45
REMARK SMILES IDX 49 46 31 47 34 48 48 49 67 50 32 51 33 52 47 54 68 55 35 56
REMARK SMILES IDX 19 57 20 58 28 59 21 60 22 61 26 62 29 63 23 64 24 65 27 66
REMARK SMILES IDX 25 67 51 68 52 69 60 70 53 71 54 72 58 73 61 74 55 75 56 76
REMARK SMILES IDX 59 77 57 78 36 79 37 80 45 81 38 82 39 83 43 84 46 85 40 86
REMARK SMILES IDX 41 87 44 88 42 89
REMARK H PARENT 3 6 7 23 66 42 34 53
REMARK Flexibility Score: inf
ROOT
ATOM      1  C   UNL A   1      32.388  28.223  25.358  1.00  0.00     0.042 C 
ENDROOT
BRANCH   1   2
ATOM      2  C   UNL A   1      33.047  26.896  25.036  1.00  0.00     0.118 C 
BRANCH   2   3
ATOM      3  N   UNL A   1      33.280  26.689  23.616  1.00  0.00    -0.352 N 
ATOM      4  O   UNL A   1      33.653  25.763  21.652  1.00  0.00    -0.269 OA
ATOM      5  C   UNL A   1      33.553  25.582  22.869  1.00  0.00     0.251 C 
ATOM      6  H   UNL A   1      33.230  27.517  23.085  1.00  0.00     0.163 HD
BRANCH   5   7
ATOM      7  C   UNL A   1      33.745  24.208  23.462  1.00  0.00     0.047 C 
ATOM      8  C   UNL A   1      32.657  23.401  23.434  1.00  0.00     0.023 C 
BRANCH   7   9
ATOM      9  C   UNL A   1      35.023  23.720  24.007  1.00  0.00    -0.013 A 
ATOM     10  C   UNL A   1      35.379  24.017  25.334  1.00  0.00     0.009 A 
ATOM     11  C   UNL A   1      35.868  22.913  23.232  1.00  0.00     0.009 A 
ATOM     12  C   UNL A   1      36.544  23.489  25.885  1.00  0.00     0.001 A 
ATOM     13  C   UNL A   1      37.026  22.372  23.793  1.00  0.00     0.001 A 
ATOM     14  C   UNL A   1      37.359  22.657  25.118  1.00  0.00     0.000 A 
ENDBRANCH   7   9
BRANCH   8  15
ATOM     15  C   UNL A   1      32.576  22.043  23.894  1.00  0.00    -0.014 A 
ATOM     16  C   UNL A   1      32.578  21.605  25.253  1.00  0.00     0.020 A 
ATOM     17  C   UNL A   1      32.499  20.980  23.019  1.00  0.00     0.073 A 
ATOM     18  C   UNL A   1      32.596  20.232  25.359  1.00  0.00     0.065 A 
ATOM     19  S   UNL A   1      32.532  19.471  23.830  1.00  0.00    -0.152 S 
ENDBRANCH   8  15
ENDBRANCH   5   7
ENDBRANCH   2   3
ENDBRANCH   1   2
BRANCH   1  20
ATOM     20  C   UNL A   1      33.249  29.437  25.072  1.00  0.00     0.118 C 
BRANCH  20  21
ATOM     21  N   UNL A   1      32.793  30.637  25.762  1.00  0.00    -0.352 N 
ATOM     22  C   UNL A   1      33.252  31.271  26.891  1.00  0.00     0.251 C 
ATOM     23  H   UNL A   1      32.015  31.071  25.345  1.00  0.00     0.163 HD
ATOM     24  O   UNL A   1      32.584  32.181  27.378  1.00  0.00    -0.269 OA
BRANCH  22  25
ATOM     25  C   UNL A   1      34.516  30.864  27.549  1.00  0.00     0.039 A 
ATOM     26  C   UNL A   1      35.514  31.825  27.740  1.00  0.00     0.014 A 
ATOM     27  C   UNL A   1      34.749  29.549  27.949  1.00  0.00     0.014 A 
ATOM     28  C   UNL A   1      36.702  31.478  28.390  1.00  0.00     0.010 A 
ATOM     29  C   UNL A   1      35.870  29.236  28.711  1.00  0.00     0.010 A 
ATOM     30  C   UNL A   1      36.873  30.189  28.921  1.00  0.00    -0.014 A 
BRANCH  30  31
ATOM     31  C   UNL A   1      38.103  29.821  29.671  1.00  0.00     0.031 A 
ATOM     32  C   UNL A   1      38.334  30.346  31.064  1.00  0.00     0.074 A 
ATOM     33  C   UNL A   1      39.040  29.057  29.076  1.00  0.00     0.049 A 
ATOM     34  N   UNL A   1      39.352  30.149  31.866  1.00  0.00    -0.248 NA
ATOM     35  C   UNL A   1      37.305  31.241  31.621  1.00  0.00     0.031 C 
ATOM     36  C   UNL A   1      38.977  28.556  27.701  1.00  0.00     0.029 A 
ATOM     37  N   UNL A   1      40.231  28.565  29.551  1.00  0.00    -0.354 N 
ATOM     38  C   UNL A   1      39.094  30.909  33.000  1.00  0.00     0.074 A 
ATOM     39  C   UNL A   1      37.860  31.624  32.760  1.00  0.00     0.031 C 
ATOM     40  C   UNL A   1      40.056  27.797  27.458  1.00  0.00     0.029 A 
ATOM     41  C   UNL A   1      40.902  27.780  28.646  1.00  0.00     0.049 A 
ATOM     42  H   UNL A   1      40.570  28.757  30.454  1.00  0.00     0.167 HD
ATOM     43  C   UNL A   1      39.801  30.979  34.152  1.00  0.00     0.037 A 
ATOM     44  C   UNL A   1      42.067  27.117  28.764  1.00  0.00     0.037 A 
ATOM     45  C   UNL A   1      41.005  30.232  34.406  1.00  0.00     0.049 A 
ATOM     46  C   UNL A   1      42.807  27.169  30.074  1.00  0.00     0.074 A 
ATOM     47  C   UNL A   1      41.754  30.169  35.568  1.00  0.00     0.029 A 
ATOM     48  N   UNL A   1      41.633  29.413  33.480  1.00  0.00    -0.354 N 
ATOM     49  N   UNL A   1      42.505  27.819  31.171  1.00  0.00    -0.248 NA
ATOM     50  C   UNL A   1      44.044  26.381  30.164  1.00  0.00     0.031 C 
ATOM     51  C   UNL A   1      42.860  29.346  35.330  1.00  0.00     0.029 A 
ATOM     52  C   UNL A   1      42.771  28.854  34.037  1.00  0.00     0.049 A 
ATOM     53  H   UNL A   1      41.316  29.252  32.561  1.00  0.00     0.167 HD
ATOM     54  C   UNL A   1      43.497  27.502  32.089  1.00  0.00     0.074 A 
ATOM     55  C   UNL A   1      44.394  26.579  31.427  1.00  0.00     0.031 C 
ATOM     56  C   UNL A   1      43.654  27.938  33.363  1.00  0.00     0.037 A 
BRANCH  43  57
ATOM     57  C   UNL A   1      39.285  31.885  35.234  1.00  0.00     0.064 A 
ATOM     58  C   UNL A   1      39.572  33.260  35.244  1.00  0.00     0.173 A 
ATOM     59  C   UNL A   1      38.463  31.383  36.253  1.00  0.00     0.173 A 
ATOM     60  F   UNL A   1      40.363  33.792  34.300  1.00  0.00    -0.203 F 
ATOM     61  C   UNL A   1      39.079  34.089  36.249  1.00  0.00     0.198 A 
ATOM     62  C   UNL A   1      37.945  32.221  37.238  1.00  0.00     0.198 A 
ATOM     63  F   UNL A   1      38.153  30.077  36.291  1.00  0.00    -0.203 F 
ATOM     64  F   UNL A   1      39.410  35.388  36.266  1.00  0.00    -0.200 F 
ATOM     65  C   UNL A   1      38.260  33.571  37.240  1.00  0.00     0.200 A 
ATOM     66  F   UNL A   1      37.142  31.720  38.188  1.00  0.00    -0.200 F 
ATOM     67  F   UNL A   1      37.779  34.372  38.201  1.00  0.00    -0.200 F 
ENDBRANCH  43  57
BRANCH  44  68
ATOM     68  C   UNL A   1      42.584  26.308  27.627  1.00  0.00     0.064 A 
ATOM     69  C   UNL A   1      42.210  24.966  27.470  1.00  0.00     0.173 A 
ATOM     70  C   UNL A   1      43.463  26.856  26.683  1.00  0.00     0.173 A 
ATOM     71  F   UNL A   1      41.384  24.392  28.356  1.00  0.00    -0.203 F 
ATOM     72  C   UNL A   1      42.719  24.195  26.426  1.00  0.00     0.198 A 
ATOM     73  C   UNL A   1      43.947  26.092  25.623  1.00  0.00     0.198 A 
ATOM     74  F   UNL A   1      43.845  28.138  26.783  1.00  0.00    -0.203 F 
ATOM     75  F   UNL A   1      42.385  22.901  26.329  1.00  0.00    -0.200 F 
ATOM     76  C   UNL A   1      43.583  24.759  25.501  1.00  0.00     0.200 A 
ATOM     77  F   UNL A   1      44.769  26.646  24.721  1.00  0.00    -0.200 F 
ATOM     78  F   UNL A   1      44.070  24.019  24.496  1.00  0.00    -0.200 F 
ENDBRANCH  44  68
BRANCH  56  79
ATOM     79  C   UNL A   1      44.828  27.398  34.127  1.00  0.00     0.064 A 
ATOM     80  C   UNL A   1      46.065  28.060  34.141  1.00  0.00     0.173 A 
ATOM     81  C   UNL A   1      44.712  26.208  34.861  1.00  0.00     0.173 A 
ATOM     82  F   UNL A   1      46.231  29.195  33.445  1.00  0.00    -0.203 F 
ATOM     83  C   UNL A   1      47.153  27.529  34.828  1.00  0.00     0.198 A 
ATOM     84  C   UNL A   1      45.792  25.697  35.574  1.00  0.00     0.198 A 
ATOM     85  F   UNL A   1      43.549  25.541  34.888  1.00  0.00    -0.203 F 
ATOM     86  F   UNL A   1      48.342  28.145  34.774  1.00  0.00    -0.200 F 
ATOM     87  C   UNL A   1      47.014  26.352  35.547  1.00  0.00     0.200 A 
ATOM     88  F   UNL A   1      45.652  24.567  36.281  1.00  0.00    -0.200 F 
ATOM     89  F   UNL A   1      48.063  25.840  36.206  1.00  0.00    -0.200 F 
ENDBRANCH  56  79
ENDBRANCH  30  31
ENDBRANCH  22  25
ENDBRANCH  20  21
ENDBRANCH   1  20
TORSDOF 12
ENDMDL
