MODEL 1
REMARK VINA RESULT:     -12.4      0.000      0.000
REMARK SMILES C[C@@H](C(=O)NCCCNC(=O)c1ccc(-c2c3nc(c(-c4c(F)c(F)c(F)c(F)c4F)c4ccc([nH]4)c(-c4c(F)c(F)c(F)c(F)c4F)c4nc(c(-c5c(F)c(F)c(F)c(F)c5F)c5ccc2[nH]5)C=C4)C=C3)cc1)c1ccc(=O)n(C(F)F)c1
REMARK SMILES IDX 7 1 6 2 5 3 3 4 4 5 2 7 1 8 75 9 76 10 84 11 77 12 80 13
REMARK SMILES IDX 78 14 79 15 81 16 82 17 83 18 8 19 9 20 10 21 11 23 12 24
REMARK SMILES IDX 13 25 74 26 14 27 73 28 15 29 16 30 17 31 67 32 18 33 72 34
REMARK SMILES IDX 66 35 68 36 19 37 71 38 65 39 64 40 20 42 52 43 32 44 51 45
REMARK SMILES IDX 33 46 36 47 50 48 69 49 34 50 35 51 49 53 70 54 37 55 21 56
REMARK SMILES IDX 22 57 30 58 23 59 24 60 28 61 31 62 25 63 26 64 29 65 27 66
REMARK SMILES IDX 53 67 54 68 62 69 55 70 56 71 60 72 63 73 57 74 58 75 61 76
REMARK SMILES IDX 59 77 38 78 39 79 47 80 40 81 41 82 45 83 48 84 42 85 43 86
REMARK SMILES IDX 46 87 44 88
REMARK H PARENT 5 6 9 22 68 41 36 52
REMARK Flexibility Score: inf
ROOT
ATOM      1  C   UNL A   1      31.444  32.000  26.614  1.00  0.00     0.042 C 
ENDROOT
BRANCH   1   2
ATOM      2  C   UNL A   1      31.762  30.629  26.013  1.00  0.00     0.117 C 
BRANCH   2   3
ATOM      3  N   UNL A   1      31.408  29.555  26.923  1.00  0.00    -0.356 N 
ATOM      4  C   UNL A   1      32.059  28.404  27.255  1.00  0.00     0.227 C 
ATOM      5  O   UNL A   1      31.412  27.591  27.918  1.00  0.00    -0.274 OA
ATOM      6  H   UNL A   1      30.545  29.680  27.381  1.00  0.00     0.163 HD
BRANCH   4   7
ATOM      7  C   UNL A   1      33.537  28.175  26.840  1.00  0.00     0.107 C 
ATOM      8  C   UNL A   1      34.322  29.470  27.084  1.00  0.00     0.023 C 
BRANCH   7   9
ATOM      9  C   UNL A   1      33.653  27.640  25.397  1.00  0.00    -0.019 A 
ATOM     10  C   UNL A   1      33.880  28.556  24.288  1.00  0.00     0.012 A 
ATOM     11  C   UNL A   1      33.534  26.331  25.094  1.00  0.00     0.099 A 
ATOM     12  C   UNL A   1      33.878  28.136  23.017  1.00  0.00     0.072 A 
ATOM     13  N   UNL A   1      33.536  25.867  23.787  1.00  0.00    -0.258 N 
ATOM     14  C   UNL A   1      33.665  26.704  22.695  1.00  0.00     0.254 A 
ATOM     15  O   UNL A   1      33.629  26.368  21.515  1.00  0.00    -0.269 OA
BRANCH  13  16
ATOM     16  C   UNL A   1      33.296  24.475  23.509  1.00  0.00     0.451 C 
ATOM     17  F   UNL A   1      34.398  23.729  23.772  1.00  0.00    -0.185 F 
ATOM     18  F   UNL A   1      32.277  23.993  24.263  1.00  0.00    -0.185 F 
ENDBRANCH  13  16
ENDBRANCH   7   9
ENDBRANCH   4   7
ENDBRANCH   2   3
ENDBRANCH   1   2
BRANCH   1  19
ATOM     19  C   UNL A   1      32.627  32.689  27.294  1.00  0.00     0.118 C 
BRANCH  19  20
ATOM     20  N   UNL A   1      32.355  34.080  27.625  1.00  0.00    -0.352 N 
ATOM     21  C   UNL A   1      32.949  34.904  28.550  1.00  0.00     0.251 C 
ATOM     22  H   UNL A   1      31.632  34.496  27.102  1.00  0.00     0.163 HD
ATOM     23  O   UNL A   1      32.446  35.997  28.798  1.00  0.00    -0.269 OA
BRANCH  21  24
ATOM     24  C   UNL A   1      34.167  34.477  29.275  1.00  0.00     0.039 A 
ATOM     25  C   UNL A   1      34.031  33.977  30.574  1.00  0.00     0.014 A 
ATOM     26  C   UNL A   1      35.435  34.580  28.698  1.00  0.00     0.014 A 
ATOM     27  C   UNL A   1      35.150  33.490  31.254  1.00  0.00     0.010 A 
ATOM     28  C   UNL A   1      36.541  34.036  29.352  1.00  0.00     0.010 A 
ATOM     29  C   UNL A   1      36.406  33.465  30.626  1.00  0.00    -0.014 A 
BRANCH  29  30
ATOM     30  C   UNL A   1      37.565  32.772  31.250  1.00  0.00     0.031 A 
ATOM     31  C   UNL A   1      38.205  31.587  30.582  1.00  0.00     0.074 A 
ATOM     32  C   UNL A   1      37.979  33.162  32.473  1.00  0.00     0.049 A 
ATOM     33  N   UNL A   1      39.148  30.798  31.031  1.00  0.00    -0.248 NA
ATOM     34  C   UNL A   1      37.712  31.230  29.243  1.00  0.00     0.031 C 
ATOM     35  C   UNL A   1      37.410  34.271  33.242  1.00  0.00     0.029 A 
ATOM     36  N   UNL A   1      38.955  32.657  33.297  1.00  0.00    -0.354 N 
ATOM     37  C   UNL A   1      39.349  29.843  30.043  1.00  0.00     0.074 A 
ATOM     38  C   UNL A   1      38.411  30.135  28.979  1.00  0.00     0.031 C 
ATOM     39  C   UNL A   1      38.046  34.364  34.420  1.00  0.00     0.029 A 
ATOM     40  C   UNL A   1      39.031  33.292  34.514  1.00  0.00     0.049 A 
ATOM     41  H   UNL A   1      39.544  31.911  33.041  1.00  0.00     0.167 HD
ATOM     42  C   UNL A   1      40.243  28.827  30.024  1.00  0.00     0.037 A 
ATOM     43  C   UNL A   1      39.787  33.024  35.598  1.00  0.00     0.037 A 
ATOM     44  C   UNL A   1      41.196  28.562  31.071  1.00  0.00     0.049 A 
ATOM     45  C   UNL A   1      40.747  31.866  35.554  1.00  0.00     0.074 A 
ATOM     46  C   UNL A   1      42.209  27.618  31.092  1.00  0.00     0.029 A 
ATOM     47  N   UNL A   1      41.246  29.229  32.285  1.00  0.00    -0.354 N 
ATOM     48  N   UNL A   1      40.997  31.034  34.571  1.00  0.00    -0.248 NA
ATOM     49  C   UNL A   1      41.529  31.603  36.771  1.00  0.00     0.031 C 
ATOM     50  C   UNL A   1      42.829  27.669  32.344  1.00  0.00     0.029 A 
ATOM     51  C   UNL A   1      42.241  28.683  33.082  1.00  0.00     0.049 A 
ATOM     52  H   UNL A   1      40.664  29.979  32.541  1.00  0.00     0.167 HD
ATOM     53  C   UNL A   1      41.973  30.168  35.044  1.00  0.00     0.074 A 
ATOM     54  C   UNL A   1      42.292  30.590  36.390  1.00  0.00     0.031 C 
ATOM     55  C   UNL A   1      42.549  29.112  34.420  1.00  0.00     0.037 A 
BRANCH  42  56
ATOM     56  C   UNL A   1      40.251  27.906  28.839  1.00  0.00     0.064 A 
ATOM     57  C   UNL A   1      40.982  28.201  27.681  1.00  0.00     0.173 A 
ATOM     58  C   UNL A   1      39.609  26.660  28.912  1.00  0.00     0.173 A 
ATOM     59  F   UNL A   1      41.610  29.381  27.561  1.00  0.00    -0.203 F 
ATOM     60  C   UNL A   1      41.065  27.286  26.634  1.00  0.00     0.198 A 
ATOM     61  C   UNL A   1      39.714  25.737  27.874  1.00  0.00     0.198 A 
ATOM     62  F   UNL A   1      38.903  26.324  30.002  1.00  0.00    -0.203 F 
ATOM     63  F   UNL A   1      41.754  27.597  25.527  1.00  0.00    -0.200 F 
ATOM     64  C   UNL A   1      40.442  26.051  26.737  1.00  0.00     0.200 A 
ATOM     65  F   UNL A   1      39.126  24.538  27.983  1.00  0.00    -0.200 F 
ATOM     66  F   UNL A   1      40.546  25.161  25.740  1.00  0.00    -0.200 F 
ENDBRANCH  42  56
BRANCH  43  67
ATOM     67  C   UNL A   1      39.649  33.841  36.834  1.00  0.00     0.064 A 
ATOM     68  C   UNL A   1      38.815  33.429  37.883  1.00  0.00     0.173 A 
ATOM     69  C   UNL A   1      40.308  35.072  36.971  1.00  0.00     0.173 A 
ATOM     70  F   UNL A   1      38.146  32.271  37.791  1.00  0.00    -0.203 F 
ATOM     71  C   UNL A   1      38.618  34.233  39.005  1.00  0.00     0.198 A 
ATOM     72  C   UNL A   1      40.138  35.858  38.108  1.00  0.00     0.198 A 
ATOM     73  F   UNL A   1      41.120  35.512  35.999  1.00  0.00    -0.203 F 
ATOM     74  F   UNL A   1      37.764  33.847  39.962  1.00  0.00    -0.200 F 
ATOM     75  C   UNL A   1      39.282  35.445  39.118  1.00  0.00     0.200 A 
ATOM     76  F   UNL A   1      40.796  37.020  38.220  1.00  0.00    -0.200 F 
ATOM     77  F   UNL A   1      39.088  36.221  40.193  1.00  0.00    -0.200 F 
ENDBRANCH  43  67
BRANCH  55  78
ATOM     78  C   UNL A   1      43.591  28.345  35.180  1.00  0.00     0.064 A 
ATOM     79  C   UNL A   1      44.943  28.720  35.150  1.00  0.00     0.173 A 
ATOM     80  C   UNL A   1      43.229  27.256  35.987  1.00  0.00     0.173 A 
ATOM     81  F   UNL A   1      45.342  29.742  34.379  1.00  0.00    -0.203 F 
ATOM     82  C   UNL A   1      45.895  28.021  35.885  1.00  0.00     0.198 A 
ATOM     83  C   UNL A   1      44.180  26.580  36.746  1.00  0.00     0.198 A 
ATOM     84  F   UNL A   1      41.949  26.860  36.055  1.00  0.00    -0.203 F 
ATOM     85  F   UNL A   1      47.187  28.370  35.806  1.00  0.00    -0.200 F 
ATOM     86  C   UNL A   1      45.512  26.958  36.690  1.00  0.00     0.200 A 
ATOM     87  F   UNL A   1      43.805  25.562  37.534  1.00  0.00    -0.200 F 
ATOM     88  F   UNL A   1      46.430  26.295  37.407  1.00  0.00    -0.200 F 
ENDBRANCH  55  78
ENDBRANCH  29  30
ENDBRANCH  21  24
ENDBRANCH  19  20
ENDBRANCH   1  19
TORSDOF 12
ENDMDL
MODEL 2
REMARK VINA RESULT:     -12.4      2.502      3.502
REMARK SMILES C[C@@H](C(=O)NCCCNC(=O)c1ccc(-c2c3nc(c(-c4c(F)c(F)c(F)c(F)c4F)c4ccc([nH]4)c(-c4c(F)c(F)c(F)c(F)c4F)c4nc(c(-c5c(F)c(F)c(F)c(F)c5F)c5ccc2[nH]5)C=C4)C=C3)cc1)c1ccc(=O)n(C(F)F)c1
REMARK SMILES IDX 7 1 6 2 5 3 3 4 4 5 2 7 1 8 75 9 76 10 84 11 77 12 80 13
REMARK SMILES IDX 78 14 79 15 81 16 82 17 83 18 8 19 9 20 10 21 11 23 12 24
REMARK SMILES IDX 13 25 74 26 14 27 73 28 15 29 16 30 17 31 67 32 18 33 72 34
REMARK SMILES IDX 66 35 68 36 19 37 71 38 65 39 64 40 20 42 52 43 32 44 51 45
REMARK SMILES IDX 33 46 36 47 50 48 69 49 34 50 35 51 49 53 70 54 37 55 21 56
REMARK SMILES IDX 22 57 30 58 23 59 24 60 28 61 31 62 25 63 26 64 29 65 27 66
REMARK SMILES IDX 53 67 54 68 62 69 55 70 56 71 60 72 63 73 57 74 58 75 61 76
REMARK SMILES IDX 59 77 38 78 39 79 47 80 40 81 41 82 45 83 48 84 42 85 43 86
REMARK SMILES IDX 46 87 44 88
REMARK H PARENT 5 6 9 22 68 41 36 52
REMARK Flexibility Score: inf
ROOT
ATOM      1  C   UNL A   1      31.644  31.739  26.484  1.00  0.00     0.042 C 
ENDROOT
BRANCH   1   2
ATOM      2  C   UNL A   1      31.789  30.219  26.373  1.00  0.00     0.117 C 
BRANCH   2   3
ATOM      3  N   UNL A   1      32.308  29.828  25.075  1.00  0.00    -0.356 N 
ATOM      4  C   UNL A   1      31.732  29.150  24.041  1.00  0.00     0.227 C 
ATOM      5  O   UNL A   1      32.493  28.799  23.137  1.00  0.00    -0.274 OA
ATOM      6  H   UNL A   1      33.241  30.099  24.913  1.00  0.00     0.163 HD
BRANCH   4   7
ATOM      7  C   UNL A   1      30.204  28.883  24.015  1.00  0.00     0.107 C 
ATOM      8  C   UNL A   1      29.963  27.461  23.491  1.00  0.00     0.023 C 
BRANCH   7   9
ATOM      9  C   UNL A   1      29.442  29.971  23.231  1.00  0.00    -0.019 A 
ATOM     10  C   UNL A   1      28.601  29.611  22.098  1.00  0.00     0.012 A 
ATOM     11  C   UNL A   1      29.529  31.283  23.534  1.00  0.00     0.099 A 
ATOM     12  C   UNL A   1      28.014  30.540  21.333  1.00  0.00     0.072 A 
ATOM     13  N   UNL A   1      28.926  32.266  22.764  1.00  0.00    -0.258 N 
ATOM     14  C   UNL A   1      28.186  31.983  21.632  1.00  0.00     0.254 A 
ATOM     15  O   UNL A   1      27.665  32.803  20.882  1.00  0.00    -0.269 OA
BRANCH  13  16
ATOM     16  C   UNL A   1      29.139  33.658  23.066  1.00  0.00     0.451 C 
ATOM     17  F   UNL A   1      28.006  34.232  23.540  1.00  0.00    -0.185 F 
ATOM     18  F   UNL A   1      30.108  33.814  24.002  1.00  0.00    -0.185 F 
ENDBRANCH  13  16
ENDBRANCH   7   9
ENDBRANCH   4   7
ENDBRANCH   2   3
ENDBRANCH   1   2
BRANCH   1  19
ATOM     19  C   UNL A   1      32.716  32.420  27.335  1.00  0.00     0.118 C 
BRANCH  19  20
ATOM     20  N   UNL A   1      32.437  33.829  27.569  1.00  0.00    -0.352 N 
ATOM     21  C   UNL A   1      33.014  34.713  28.448  1.00  0.00     0.251 C 
ATOM     22  H   UNL A   1      31.723  34.209  27.008  1.00  0.00     0.163 HD
ATOM     23  O   UNL A   1      32.505  35.819  28.615  1.00  0.00    -0.269 OA
BRANCH  21  24
ATOM     24  C   UNL A   1      34.219  34.337  29.221  1.00  0.00     0.039 A 
ATOM     25  C   UNL A   1      34.051  33.779  30.492  1.00  0.00     0.014 A 
ATOM     26  C   UNL A   1      35.505  34.544  28.716  1.00  0.00     0.014 A 
ATOM     27  C   UNL A   1      35.165  33.338  31.212  1.00  0.00     0.010 A 
ATOM     28  C   UNL A   1      36.611  34.047  29.407  1.00  0.00     0.010 A 
ATOM     29  C   UNL A   1      36.450  33.418  30.651  1.00  0.00    -0.014 A 
BRANCH  29  30
ATOM     30  C   UNL A   1      37.619  32.777  31.309  1.00  0.00     0.031 A 
ATOM     31  C   UNL A   1      38.294  31.585  30.691  1.00  0.00     0.074 A 
ATOM     32  C   UNL A   1      38.012  33.221  32.521  1.00  0.00     0.049 A 
ATOM     33  N   UNL A   1      39.252  30.836  31.176  1.00  0.00    -0.248 NA
ATOM     34  C   UNL A   1      37.823  31.168  29.361  1.00  0.00     0.031 C 
ATOM     35  C   UNL A   1      37.409  34.343  33.244  1.00  0.00     0.029 A 
ATOM     36  N   UNL A   1      38.992  32.771  33.372  1.00  0.00    -0.354 N 
ATOM     37  C   UNL A   1      39.485  29.852  30.225  1.00  0.00     0.074 A 
ATOM     38  C   UNL A   1      38.551  30.081  29.144  1.00  0.00     0.031 C 
ATOM     39  C   UNL A   1      38.031  34.495  34.424  1.00  0.00     0.029 A 
ATOM     40  C   UNL A   1      39.041  33.451  34.565  1.00  0.00     0.049 A 
ATOM     41  H   UNL A   1      39.601  32.031  33.148  1.00  0.00     0.167 HD
ATOM     42  C   UNL A   1      40.404  28.857  30.251  1.00  0.00     0.037 A 
ATOM     43  C   UNL A   1      39.793  33.242  35.664  1.00  0.00     0.037 A 
ATOM     44  C   UNL A   1      41.353  28.654  31.316  1.00  0.00     0.049 A 
ATOM     45  C   UNL A   1      40.782  32.106  35.671  1.00  0.00     0.074 A 
ATOM     46  C   UNL A   1      42.388  27.737  31.380  1.00  0.00     0.029 A 
ATOM     47  N   UNL A   1      41.376  29.366  32.505  1.00  0.00    -0.354 N 
ATOM     48  N   UNL A   1      41.061  31.246  34.722  1.00  0.00    -0.248 NA
ATOM     49  C   UNL A   1      41.557  31.907  36.904  1.00  0.00     0.031 C 
ATOM     50  C   UNL A   1      42.995  27.848  32.634  1.00  0.00     0.029 A 
ATOM     51  C   UNL A   1      42.375  28.874  33.329  1.00  0.00     0.049 A 
ATOM     52  H   UNL A   1      40.773  30.110  32.729  1.00  0.00     0.167 HD
ATOM     53  C   UNL A   1      42.053  30.422  35.234  1.00  0.00     0.074 A 
ATOM     54  C   UNL A   1      42.349  30.900  36.567  1.00  0.00     0.031 C 
ATOM     55  C   UNL A   1      42.661  29.359  34.654  1.00  0.00     0.037 A 
BRANCH  42  56
ATOM     56  C   UNL A   1      40.446  27.895  29.101  1.00  0.00     0.064 A 
ATOM     57  C   UNL A   1      39.656  26.737  29.079  1.00  0.00     0.173 A 
ATOM     58  C   UNL A   1      41.202  28.196  27.958  1.00  0.00     0.173 A 
ATOM     59  F   UNL A   1      38.919  26.402  30.149  1.00  0.00    -0.203 F 
ATOM     60  C   UNL A   1      39.628  25.911  27.958  1.00  0.00     0.198 A 
ATOM     61  C   UNL A   1      41.152  27.383  26.829  1.00  0.00     0.198 A 
ATOM     62  F   UNL A   1      41.968  29.297  27.924  1.00  0.00    -0.203 F 
ATOM     63  F   UNL A   1      38.881  24.799  27.966  1.00  0.00    -0.200 F 
ATOM     64  C   UNL A   1      40.365  26.241  26.830  1.00  0.00     0.200 A 
ATOM     65  F   UNL A   1      41.851  27.713  25.735  1.00  0.00    -0.200 F 
ATOM     66  F   UNL A   1      40.315  25.460  25.742  1.00  0.00    -0.200 F 
ENDBRANCH  42  56
BRANCH  43  67
ATOM     67  C   UNL A   1      39.623  34.099  36.868  1.00  0.00     0.064 A 
ATOM     68  C   UNL A   1      40.285  35.331  36.977  1.00  0.00     0.173 A 
ATOM     69  C   UNL A   1      38.836  33.685  37.953  1.00  0.00     0.173 A 
ATOM     70  F   UNL A   1      41.067  35.761  35.977  1.00  0.00    -0.203 F 
ATOM     71  C   UNL A   1      40.195  36.096  38.139  1.00  0.00     0.198 A 
ATOM     72  C   UNL A   1      38.718  34.468  39.099  1.00  0.00     0.198 A 
ATOM     73  F   UNL A   1      38.177  32.518  37.900  1.00  0.00    -0.203 F 
ATOM     74  F   UNL A   1      40.892  37.235  38.244  1.00  0.00    -0.200 F 
ATOM     75  C   UNL A   1      39.410  35.666  39.198  1.00  0.00     0.200 A 
ATOM     76  F   UNL A   1      37.944  34.055  40.113  1.00  0.00    -0.200 F 
ATOM     77  F   UNL A   1      39.328  36.398  40.316  1.00  0.00    -0.200 F 
ENDBRANCH  43  67
BRANCH  55  78
ATOM     78  C   UNL A   1      43.713  28.645  35.450  1.00  0.00     0.064 A 
ATOM     79  C   UNL A   1      45.070  28.983  35.338  1.00  0.00     0.173 A 
ATOM     80  C   UNL A   1      43.359  27.650  36.373  1.00  0.00     0.173 A 
ATOM     81  F   UNL A   1      45.462  29.915  34.456  1.00  0.00    -0.203 F 
ATOM     82  C   UNL A   1      46.035  28.338  36.106  1.00  0.00     0.198 A 
ATOM     83  C   UNL A   1      44.322  27.029  37.163  1.00  0.00     0.198 A 
ATOM     84  F   UNL A   1      42.075  27.294  36.524  1.00  0.00    -0.203 F 
ATOM     85  F   UNL A   1      47.330  28.646  35.949  1.00  0.00    -0.200 F 
ATOM     86  C   UNL A   1      45.659  27.369  37.024  1.00  0.00     0.200 A 
ATOM     87  F   UNL A   1      43.956  26.104  38.060  1.00  0.00    -0.200 F 
ATOM     88  F   UNL A   1      46.589  26.758  37.772  1.00  0.00    -0.200 F 
ENDBRANCH  55  78
ENDBRANCH  29  30
ENDBRANCH  21  24
ENDBRANCH  19  20
ENDBRANCH   1  19
TORSDOF 12
ENDMDL
MODEL 3
REMARK VINA RESULT:     -12.3      0.322      1.209
REMARK SMILES C[C@@H](C(=O)NCCCNC(=O)c1ccc(-c2c3nc(c(-c4c(F)c(F)c(F)c(F)c4F)c4ccc([nH]4)c(-c4c(F)c(F)c(F)c(F)c4F)c4nc(c(-c5c(F)c(F)c(F)c(F)c5F)c5ccc2[nH]5)C=C4)C=C3)cc1)c1ccc(=O)n(C(F)F)c1
REMARK SMILES IDX 7 1 6 2 5 3 3 4 4 5 2 7 1 8 75 9 76 10 84 11 77 12 80 13
REMARK SMILES IDX 78 14 79 15 81 16 82 17 83 18 8 19 9 20 10 21 11 23 12 24
REMARK SMILES IDX 13 25 74 26 14 27 73 28 15 29 16 30 17 31 67 32 18 33 72 34
REMARK SMILES IDX 66 35 68 36 19 37 71 38 65 39 64 40 20 42 52 43 32 44 51 45
REMARK SMILES IDX 33 46 36 47 50 48 69 49 34 50 35 51 49 53 70 54 37 55 21 56
REMARK SMILES IDX 22 57 30 58 23 59 24 60 28 61 31 62 25 63 26 64 29 65 27 66
REMARK SMILES IDX 53 67 54 68 62 69 55 70 56 71 60 72 63 73 57 74 58 75 61 76
REMARK SMILES IDX 59 77 38 78 39 79 47 80 40 81 41 82 45 83 48 84 42 85 43 86
REMARK SMILES IDX 46 87 44 88
REMARK H PARENT 5 6 9 22 68 41 36 52
REMARK Flexibility Score: inf
ROOT
ATOM      1  C   UNL A   1      31.467  31.917  26.596  1.00  0.00     0.042 C 
ENDROOT
BRANCH   1   2
ATOM      2  C   UNL A   1      31.807  30.563  25.970  1.00  0.00     0.117 C 
BRANCH   2   3
ATOM      3  N   UNL A   1      31.463  29.466  26.856  1.00  0.00    -0.356 N 
ATOM      4  C   UNL A   1      32.104  28.294  27.130  1.00  0.00     0.227 C 
ATOM      5  O   UNL A   1      31.464  27.471  27.787  1.00  0.00    -0.274 OA
ATOM      6  H   UNL A   1      30.617  29.590  27.346  1.00  0.00     0.163 HD
BRANCH   4   7
ATOM      7  C   UNL A   1      33.563  28.053  26.659  1.00  0.00     0.107 C 
ATOM      8  C   UNL A   1      34.376  29.330  26.907  1.00  0.00     0.023 C 
BRANCH   7   9
ATOM      9  C   UNL A   1      33.621  27.553  25.200  1.00  0.00    -0.019 A 
ATOM     10  C   UNL A   1      33.962  28.468  24.120  1.00  0.00     0.012 A 
ATOM     11  C   UNL A   1      33.349  26.277  24.857  1.00  0.00     0.099 A 
ATOM     12  C   UNL A   1      33.916  28.090  22.837  1.00  0.00     0.072 A 
ATOM     13  N   UNL A   1      33.302  25.856  23.536  1.00  0.00    -0.258 N 
ATOM     14  C   UNL A   1      33.535  26.705  22.471  1.00  0.00     0.254 A 
ATOM     15  O   UNL A   1      33.465  26.411  21.281  1.00  0.00    -0.269 OA
BRANCH  13  16
ATOM     16  C   UNL A   1      32.898  24.511  23.216  1.00  0.00     0.451 C 
ATOM     17  F   UNL A   1      33.109  23.677  24.264  1.00  0.00    -0.185 F 
ATOM     18  F   UNL A   1      31.581  24.457  22.898  1.00  0.00    -0.185 F 
ENDBRANCH  13  16
ENDBRANCH   7   9
ENDBRANCH   4   7
ENDBRANCH   2   3
ENDBRANCH   1   2
BRANCH   1  19
ATOM     19  C   UNL A   1      32.642  32.617  27.278  1.00  0.00     0.118 C 
BRANCH  19  20
ATOM     20  N   UNL A   1      32.362  34.009  27.596  1.00  0.00    -0.352 N 
ATOM     21  C   UNL A   1      32.953  34.846  28.510  1.00  0.00     0.251 C 
ATOM     22  H   UNL A   1      31.634  34.415  27.072  1.00  0.00     0.163 HD
ATOM     23  O   UNL A   1      32.443  35.938  28.749  1.00  0.00    -0.269 OA
BRANCH  21  24
ATOM     24  C   UNL A   1      34.176  34.436  29.236  1.00  0.00     0.039 A 
ATOM     25  C   UNL A   1      34.039  33.823  30.485  1.00  0.00     0.014 A 
ATOM     26  C   UNL A   1      35.450  34.663  28.708  1.00  0.00     0.014 A 
ATOM     27  C   UNL A   1      35.170  33.349  31.157  1.00  0.00     0.010 A 
ATOM     28  C   UNL A   1      36.571  34.136  29.349  1.00  0.00     0.010 A 
ATOM     29  C   UNL A   1      36.440  33.453  30.568  1.00  0.00    -0.014 A 
BRANCH  29  30
ATOM     30  C   UNL A   1      37.624  32.782  31.168  1.00  0.00     0.031 A 
ATOM     31  C   UNL A   1      38.264  31.600  30.495  1.00  0.00     0.074 A 
ATOM     32  C   UNL A   1      38.063  33.190  32.376  1.00  0.00     0.049 A 
ATOM     33  N   UNL A   1      39.229  30.828  30.927  1.00  0.00    -0.248 NA
ATOM     34  C   UNL A   1      37.741  31.223  29.173  1.00  0.00     0.031 C 
ATOM     35  C   UNL A   1      37.498  34.299  33.150  1.00  0.00     0.029 A 
ATOM     36  N   UNL A   1      39.067  32.707  33.180  1.00  0.00    -0.354 N 
ATOM     37  C   UNL A   1      39.418  29.867  29.943  1.00  0.00     0.074 A 
ATOM     38  C   UNL A   1      38.449  30.135  28.901  1.00  0.00     0.031 C 
ATOM     39  C   UNL A   1      38.163  34.412  34.310  1.00  0.00     0.029 A 
ATOM     40  C   UNL A   1      39.165  33.355  34.389  1.00  0.00     0.049 A 
ATOM     41  H   UNL A   1      39.660  31.966  32.916  1.00  0.00     0.167 HD
ATOM     42  C   UNL A   1      40.325  28.863  29.911  1.00  0.00     0.037 A 
ATOM     43  C   UNL A   1      39.952  33.108  35.455  1.00  0.00     0.037 A 
ATOM     44  C   UNL A   1      41.309  28.622  30.937  1.00  0.00     0.049 A 
ATOM     45  C   UNL A   1      40.927  31.963  35.397  1.00  0.00     0.074 A 
ATOM     46  C   UNL A   1      42.335  27.692  30.940  1.00  0.00     0.029 A 
ATOM     47  N   UNL A   1      41.380  29.301  32.142  1.00  0.00    -0.354 N 
ATOM     48  N   UNL A   1      41.164  31.125  34.417  1.00  0.00    -0.248 NA
ATOM     49  C   UNL A   1      41.743  31.723  36.597  1.00  0.00     0.031 C 
ATOM     50  C   UNL A   1      42.986  27.764  32.176  1.00  0.00     0.029 A 
ATOM     51  C   UNL A   1      42.402  28.777  32.918  1.00  0.00     0.049 A 
ATOM     52  H   UNL A   1      40.794  30.046  32.406  1.00  0.00     0.167 HD
ATOM     53  C   UNL A   1      42.164  30.277  34.873  1.00  0.00     0.074 A 
ATOM     54  C   UNL A   1      42.511  30.717  36.206  1.00  0.00     0.031 C 
ATOM     55  C   UNL A   1      42.739  29.223  34.244  1.00  0.00     0.037 A 
BRANCH  42  56
ATOM     56  C   UNL A   1      40.316  27.931  28.736  1.00  0.00     0.064 A 
ATOM     57  C   UNL A   1      41.055  28.200  27.576  1.00  0.00     0.173 A 
ATOM     58  C   UNL A   1      39.649  26.698  28.819  1.00  0.00     0.173 A 
ATOM     59  F   UNL A   1      41.707  29.365  27.446  1.00  0.00    -0.203 F 
ATOM     60  C   UNL A   1      41.121  27.273  26.538  1.00  0.00     0.198 A 
ATOM     61  C   UNL A   1      39.737  25.764  27.791  1.00  0.00     0.198 A 
ATOM     62  F   UNL A   1      38.935  26.388  29.912  1.00  0.00    -0.203 F 
ATOM     63  F   UNL A   1      41.817  27.559  25.429  1.00  0.00    -0.200 F 
ATOM     64  C   UNL A   1      40.473  26.052  26.651  1.00  0.00     0.200 A 
ATOM     65  F   UNL A   1      39.125  24.578  27.910  1.00  0.00    -0.200 F 
ATOM     66  F   UNL A   1      40.560  25.150  25.664  1.00  0.00    -0.200 F 
ENDBRANCH  42  56
BRANCH  43  67
ATOM     67  C   UNL A   1      39.834  33.935  36.686  1.00  0.00     0.064 A 
ATOM     68  C   UNL A   1      38.982  33.555  37.734  1.00  0.00     0.173 A 
ATOM     69  C   UNL A   1      40.531  35.145  36.821  1.00  0.00     0.173 A 
ATOM     70  F   UNL A   1      38.277  32.419  37.643  1.00  0.00    -0.203 F 
ATOM     71  C   UNL A   1      38.805  34.371  38.850  1.00  0.00     0.198 A 
ATOM     72  C   UNL A   1      40.381  35.942  37.954  1.00  0.00     0.198 A 
ATOM     73  F   UNL A   1      41.362  35.555  35.851  1.00  0.00    -0.203 F 
ATOM     74  F   UNL A   1      37.934  34.017  39.804  1.00  0.00    -0.200 F 
ATOM     75  C   UNL A   1      39.507  35.562  38.961  1.00  0.00     0.200 A 
ATOM     76  F   UNL A   1      41.074  37.083  38.063  1.00  0.00    -0.200 F 
ATOM     77  F   UNL A   1      39.332  36.348  40.031  1.00  0.00    -0.200 F 
ENDBRANCH  43  67
BRANCH  55  78
ATOM     78  C   UNL A   1      43.810  28.478  34.985  1.00  0.00     0.064 A 
ATOM     79  C   UNL A   1      43.512  27.346  35.759  1.00  0.00     0.173 A 
ATOM     80  C   UNL A   1      45.154  28.867  34.880  1.00  0.00     0.173 A 
ATOM     81  F   UNL A   1      42.240  26.945  35.906  1.00  0.00    -0.203 F 
ATOM     82  C   UNL A   1      44.518  26.643  36.415  1.00  0.00     0.198 A 
ATOM     83  C   UNL A   1      46.160  28.142  35.511  1.00  0.00     0.198 A 
ATOM     84  F   UNL A   1      45.492  29.939  34.148  1.00  0.00    -0.203 F 
ATOM     85  F   UNL A   1      44.204  25.592  37.185  1.00  0.00    -0.200 F 
ATOM     86  C   UNL A   1      45.841  27.036  36.283  1.00  0.00     0.200 A 
ATOM     87  F   UNL A   1      47.440  28.515  35.371  1.00  0.00    -0.200 F 
ATOM     88  F   UNL A   1      46.809  26.349  36.905  1.00  0.00    -0.200 F 
ENDBRANCH  55  78
ENDBRANCH  29  30
ENDBRANCH  21  24
ENDBRANCH  19  20
ENDBRANCH   1  19
TORSDOF 12
ENDMDL
