MODEL 1
REMARK VINA RESULT:     -10.9      0.000      0.000
REMARK SMILES O=C(CNc1nc(-c2ccccc2)c(-c2ccccc2)s1)NCCCNC(=O)c1ccc(-c2c3nc(c(-c4c(F)c(F)c(F)c(F)c4F)c4ccc([nH]4)c(-c4c(F)c(F)c(F)c(F)c4F)c4nc(c(-c5c(F)c(F)c(F)c(F)c5F)c5ccc2[nH]5)C=C4)C=C3)cc1
REMARK SMILES IDX 23 1 22 2 1 3 2 4 3 6 4 7 5 9 6 10 21 11 7 12 14 13 8 14
REMARK SMILES IDX 9 15 13 16 10 17 12 18 11 19 15 20 16 21 20 22 17 23 19 24
REMARK SMILES IDX 18 25 24 26 25 27 26 28 27 29 28 31 29 32 30 33 91 34 31 35
REMARK SMILES IDX 90 36 32 37 33 38 34 39 84 40 35 41 89 42 83 43 85 44 36 45
REMARK SMILES IDX 88 46 82 47 81 48 37 50 69 51 49 52 68 53 50 54 53 55 67 56
REMARK SMILES IDX 86 57 51 58 52 59 66 61 87 62 54 63 38 64 39 65 47 66 40 67
REMARK SMILES IDX 41 68 45 69 48 70 42 71 43 72 46 73 44 74 70 75 71 76 79 77
REMARK SMILES IDX 72 78 73 79 77 80 80 81 74 82 75 83 78 84 76 85 55 86 56 87
REMARK SMILES IDX 64 88 57 89 58 90 62 91 65 92 59 93 60 94 63 95 61 96
REMARK H PARENT 22 5 4 8 26 30 85 49 53 60
REMARK Flexibility Score: inf
ROOT
ATOM      1  C   UNL A   1      33.438  34.873  29.514  1.00  0.00     0.117 C 
ENDROOT
BRANCH   1   2
ATOM      2  N   UNL A   1      33.707  35.776  30.612  1.00  0.00    -0.355 N 
ATOM      3  O   UNL A   1      31.815  35.318  31.844  1.00  0.00    -0.273 OA
ATOM      4  C   UNL A   1      32.889  35.900  31.723  1.00  0.00     0.239 C 
ATOM      5  H   UNL A   1      34.516  36.335  30.567  1.00  0.00     0.163 HD
BRANCH   4   6
ATOM      6  C   UNL A   1      33.452  36.865  32.783  1.00  0.00     0.215 C 
BRANCH   6   7
ATOM      7  N   UNL A   1      34.107  36.089  33.827  1.00  0.00    -0.352 N 
ATOM      8  H   UNL A   1      33.759  36.139  34.747  1.00  0.00     0.163 HD
BRANCH   7   9
ATOM      9  C   UNL A   1      35.172  35.307  33.579  1.00  0.00     0.184 A 
ATOM     10  N   UNL A   1      35.936  35.361  32.516  1.00  0.00    -0.220 NA
ATOM     11  S   UNL A   1      35.580  34.084  34.718  1.00  0.00    -0.096 S 
ATOM     12  C   UNL A   1      36.915  34.378  32.587  1.00  0.00     0.091 A 
ATOM     13  C   UNL A   1      36.837  33.538  33.689  1.00  0.00     0.064 A 
BRANCH  12  14
ATOM     14  C   UNL A   1      37.973  34.285  31.592  1.00  0.00     0.002 A 
ATOM     15  C   UNL A   1      39.282  34.689  31.886  1.00  0.00     0.010 A 
ATOM     16  C   UNL A   1      37.654  33.887  30.288  1.00  0.00     0.010 A 
ATOM     17  C   UNL A   1      40.247  34.740  30.876  1.00  0.00     0.001 A 
ATOM     18  C   UNL A   1      38.619  33.942  29.279  1.00  0.00     0.001 A 
ATOM     19  C   UNL A   1      39.910  34.378  29.572  1.00  0.00     0.000 A 
ENDBRANCH  12  14
BRANCH  13  20
ATOM     20  C   UNL A   1      37.646  32.385  34.080  1.00  0.00    -0.006 A 
ATOM     21  C   UNL A   1      37.411  31.128  33.503  1.00  0.00     0.009 A 
ATOM     22  C   UNL A   1      38.706  32.531  34.984  1.00  0.00     0.009 A 
ATOM     23  C   UNL A   1      38.226  30.040  33.821  1.00  0.00     0.001 A 
ATOM     24  C   UNL A   1      39.520  31.442  35.300  1.00  0.00     0.001 A 
ATOM     25  C   UNL A   1      39.281  30.199  34.717  1.00  0.00     0.000 A 
ENDBRANCH  13  20
ENDBRANCH   7   9
ENDBRANCH   6   7
ENDBRANCH   4   6
ENDBRANCH   1   2
BRANCH   1  26
ATOM     26  C   UNL A   1      34.172  33.545  29.649  1.00  0.00     0.042 C 
BRANCH  26  27
ATOM     27  C   UNL A   1      34.723  32.987  28.339  1.00  0.00     0.118 C 
BRANCH  27  28
ATOM     28  N   UNL A   1      34.072  31.755  27.912  1.00  0.00    -0.352 N 
ATOM     29  C   UNL A   1      34.567  30.476  27.828  1.00  0.00     0.251 C 
ATOM     30  H   UNL A   1      33.130  31.855  27.641  1.00  0.00     0.163 HD
ATOM     31  O   UNL A   1      33.881  29.588  27.325  1.00  0.00    -0.269 OA
BRANCH  29  32
ATOM     32  C   UNL A   1      35.928  30.158  28.312  1.00  0.00     0.039 A 
ATOM     33  C   UNL A   1      36.089  29.695  29.622  1.00  0.00     0.014 A 
ATOM     34  C   UNL A   1      37.047  30.323  27.492  1.00  0.00     0.014 A 
ATOM     35  C   UNL A   1      37.357  29.327  30.083  1.00  0.00     0.010 A 
ATOM     36  C   UNL A   1      38.296  29.884  27.925  1.00  0.00     0.010 A 
ATOM     37  C   UNL A   1      38.465  29.378  29.223  1.00  0.00    -0.014 A 
BRANCH  37  38
ATOM     38  C   UNL A   1      39.812  28.915  29.654  1.00  0.00     0.031 A 
ATOM     39  C   UNL A   1      40.650  29.776  30.560  1.00  0.00     0.074 A 
ATOM     40  C   UNL A   1      40.317  27.766  29.164  1.00  0.00     0.049 A 
ATOM     41  N   UNL A   1      41.893  29.617  30.941  1.00  0.00    -0.248 NA
ATOM     42  C   UNL A   1      40.012  30.992  31.085  1.00  0.00     0.031 C 
ATOM     43  C   UNL A   1      39.620  26.856  28.255  1.00  0.00     0.029 A 
ATOM     44  N   UNL A   1      41.544  27.178  29.345  1.00  0.00    -0.354 N 
ATOM     45  C   UNL A   1      42.189  30.720  31.730  1.00  0.00     0.074 A 
ATOM     46  C   UNL A   1      41.015  31.566  31.732  1.00  0.00     0.031 C 
ATOM     47  C   UNL A   1      40.425  25.820  27.968  1.00  0.00     0.029 A 
ATOM     48  C   UNL A   1      41.710  26.015  28.632  1.00  0.00     0.049 A 
ATOM     49  H   UNL A   1      42.241  27.553  29.933  1.00  0.00     0.167 HD
ATOM     50  C   UNL A   1      43.331  30.994  32.408  1.00  0.00     0.037 A 
ATOM     51  C   UNL A   1      42.783  25.210  28.508  1.00  0.00     0.037 A 
ATOM     52  C   UNL A   1      44.491  30.140  32.418  1.00  0.00     0.049 A 
ATOM     53  C   UNL A   1      44.050  25.551  29.249  1.00  0.00     0.074 A 
ATOM     54  C   UNL A   1      45.676  30.306  33.114  1.00  0.00     0.029 A 
ATOM     55  N   UNL A   1      44.613  28.963  31.696  1.00  0.00    -0.354 N 
ATOM     56  N   UNL A   1      44.301  26.568  30.037  1.00  0.00    -0.248 NA
ATOM     57  C   UNL A   1      45.182  24.629  29.084  1.00  0.00     0.031 C 
ATOM     58  C   UNL A   1      46.536  29.259  32.769  1.00  0.00     0.029 A 
ATOM     59  C   UNL A   1      45.863  28.404  31.909  1.00  0.00     0.049 A 
ATOM     60  H   UNL A   1      43.915  28.581  31.115  1.00  0.00     0.167 HD
ATOM     61  C   UNL A   1      45.601  26.388  30.492  1.00  0.00     0.074 A 
ATOM     62  C   UNL A   1      46.083  25.159  29.899  1.00  0.00     0.031 C 
ATOM     63  C   UNL A   1      46.328  27.171  31.327  1.00  0.00     0.037 A 
BRANCH  50  64
ATOM     64  C   UNL A   1      43.384  32.276  33.191  1.00  0.00     0.064 A 
ATOM     65  C   UNL A   1      43.122  32.310  34.569  1.00  0.00     0.173 A 
ATOM     66  C   UNL A   1      43.739  33.479  32.562  1.00  0.00     0.173 A 
ATOM     67  F   UNL A   1      42.769  31.190  35.218  1.00  0.00    -0.203 F 
ATOM     68  C   UNL A   1      43.179  33.505  35.281  1.00  0.00     0.198 A 
ATOM     69  C   UNL A   1      43.829  34.667  33.283  1.00  0.00     0.198 A 
ATOM     70  F   UNL A   1      44.007  33.504  31.248  1.00  0.00    -0.203 F 
ATOM     71  F   UNL A   1      42.869  33.523  36.585  1.00  0.00    -0.200 F 
ATOM     72  C   UNL A   1      43.540  34.681  34.640  1.00  0.00     0.200 A 
ATOM     73  F   UNL A   1      44.194  35.798  32.665  1.00  0.00    -0.200 F 
ATOM     74  F   UNL A   1      43.601  35.829  35.327  1.00  0.00    -0.200 F 
ENDBRANCH  50  64
BRANCH  51  75
ATOM     75  C   UNL A   1      42.707  23.991  27.658  1.00  0.00     0.064 A 
ATOM     76  C   UNL A   1      42.345  22.752  28.208  1.00  0.00     0.173 A 
ATOM     77  C   UNL A   1      43.010  24.033  26.290  1.00  0.00     0.173 A 
ATOM     78  F   UNL A   1      42.068  22.656  29.516  1.00  0.00    -0.203 F 
ATOM     79  C   UNL A   1      42.312  21.599  27.426  1.00  0.00     0.198 A 
ATOM     80  C   UNL A   1      42.946  22.886  25.502  1.00  0.00     0.198 A 
ATOM     81  F   UNL A   1      43.359  25.193  25.714  1.00  0.00    -0.203 F 
ATOM     82  F   UNL A   1      42.015  20.420  27.988  1.00  0.00    -0.200 F 
ATOM     83  C   UNL A   1      42.607  21.668  26.073  1.00  0.00     0.200 A 
ATOM     84  F   UNL A   1      43.217  22.959  24.192  1.00  0.00    -0.200 F 
ATOM     85  F   UNL A   1      42.574  20.559  25.321  1.00  0.00    -0.200 F 
ENDBRANCH  51  75
BRANCH  63  86
ATOM     86  C   UNL A   1      47.704  26.697  31.700  1.00  0.00     0.064 A 
ATOM     87  C   UNL A   1      48.851  27.144  31.027  1.00  0.00     0.173 A 
ATOM     88  C   UNL A   1      47.878  25.816  32.779  1.00  0.00     0.173 A 
ATOM     89  F   UNL A   1      48.738  27.975  29.979  1.00  0.00    -0.203 F 
ATOM     90  C   UNL A   1      50.118  26.707  31.405  1.00  0.00     0.198 A 
ATOM     91  C   UNL A   1      49.149  25.408  33.175  1.00  0.00     0.198 A 
ATOM     92  F   UNL A   1      46.816  25.363  33.461  1.00  0.00    -0.203 F 
ATOM     93  F   UNL A   1      51.196  27.108  30.716  1.00  0.00    -0.200 F 
ATOM     94  C   UNL A   1      50.267  25.848  32.483  1.00  0.00     0.200 A 
ATOM     95  F   UNL A   1      49.290  24.592  34.228  1.00  0.00    -0.200 F 
ATOM     96  F   UNL A   1      51.488  25.437  32.852  1.00  0.00    -0.200 F 
ENDBRANCH  63  86
ENDBRANCH  37  38
ENDBRANCH  29  32
ENDBRANCH  27  28
ENDBRANCH  26  27
ENDBRANCH   1  26
TORSDOF 14
ENDMDL
MODEL 2
REMARK VINA RESULT:     -10.6      4.836     10.815
REMARK SMILES O=C(CNc1nc(-c2ccccc2)c(-c2ccccc2)s1)NCCCNC(=O)c1ccc(-c2c3nc(c(-c4c(F)c(F)c(F)c(F)c4F)c4ccc([nH]4)c(-c4c(F)c(F)c(F)c(F)c4F)c4nc(c(-c5c(F)c(F)c(F)c(F)c5F)c5ccc2[nH]5)C=C4)C=C3)cc1
REMARK SMILES IDX 23 1 22 2 1 3 2 4 3 6 4 7 5 9 6 10 21 11 7 12 14 13 8 14
REMARK SMILES IDX 9 15 13 16 10 17 12 18 11 19 15 20 16 21 20 22 17 23 19 24
REMARK SMILES IDX 18 25 24 26 25 27 26 28 27 29 28 31 29 32 30 33 91 34 31 35
REMARK SMILES IDX 90 36 32 37 33 38 34 39 84 40 35 41 89 42 83 43 85 44 36 45
REMARK SMILES IDX 88 46 82 47 81 48 37 50 69 51 49 52 68 53 50 54 53 55 67 56
REMARK SMILES IDX 86 57 51 58 52 59 66 61 87 62 54 63 38 64 39 65 47 66 40 67
REMARK SMILES IDX 41 68 45 69 48 70 42 71 43 72 46 73 44 74 70 75 71 76 79 77
REMARK SMILES IDX 72 78 73 79 77 80 80 81 74 82 75 83 78 84 76 85 55 86 56 87
REMARK SMILES IDX 64 88 57 89 58 90 62 91 65 92 59 93 60 94 63 95 61 96
REMARK H PARENT 22 5 4 8 26 30 85 49 53 60
REMARK Flexibility Score: inf
ROOT
ATOM      1  C   UNL A   1      31.478  30.638  26.529  1.00  0.00     0.117 C 
ENDROOT
BRANCH   1   2
ATOM      2  N   UNL A   1      31.685  30.058  25.219  1.00  0.00    -0.355 N 
ATOM      3  O   UNL A   1      31.186  27.879  25.775  1.00  0.00    -0.273 OA
ATOM      4  C   UNL A   1      31.480  28.719  24.930  1.00  0.00     0.239 C 
ATOM      5  H   UNL A   1      31.989  30.648  24.493  1.00  0.00     0.163 HD
BRANCH   4   6
ATOM      6  C   UNL A   1      31.687  28.384  23.442  1.00  0.00     0.215 C 
BRANCH   6   7
ATOM      7  N   UNL A   1      31.098  27.080  23.165  1.00  0.00    -0.352 N 
ATOM      8  H   UNL A   1      30.182  27.039  22.803  1.00  0.00     0.163 HD
BRANCH   7   9
ATOM      9  C   UNL A   1      31.760  25.933  23.387  1.00  0.00     0.184 A 
ATOM     10  N   UNL A   1      33.051  25.811  23.575  1.00  0.00    -0.220 NA
ATOM     11  S   UNL A   1      30.873  24.458  23.395  1.00  0.00    -0.096 S 
ATOM     12  C   UNL A   1      33.382  24.471  23.738  1.00  0.00     0.091 A 
ATOM     13  C   UNL A   1      32.328  23.578  23.603  1.00  0.00     0.064 A 
BRANCH  12  14
ATOM     14  C   UNL A   1      34.735  24.058  24.078  1.00  0.00     0.002 A 
ATOM     15  C   UNL A   1      35.499  23.283  23.196  1.00  0.00     0.010 A 
ATOM     16  C   UNL A   1      35.240  24.349  25.351  1.00  0.00     0.010 A 
ATOM     17  C   UNL A   1      36.732  22.765  23.602  1.00  0.00     0.001 A 
ATOM     18  C   UNL A   1      36.472  23.828  25.755  1.00  0.00     0.001 A 
ATOM     19  C   UNL A   1      37.211  23.028  24.884  1.00  0.00     0.000 A 
ENDBRANCH  12  14
BRANCH  13  20
ATOM     20  C   UNL A   1      32.292  22.117  23.662  1.00  0.00    -0.006 A 
ATOM     21  C   UNL A   1      32.149  21.365  22.487  1.00  0.00     0.009 A 
ATOM     22  C   UNL A   1      32.464  21.449  24.881  1.00  0.00     0.009 A 
ATOM     23  C   UNL A   1      32.184  19.970  22.531  1.00  0.00     0.001 A 
ATOM     24  C   UNL A   1      32.500  20.054  24.923  1.00  0.00     0.001 A 
ATOM     25  C   UNL A   1      32.362  19.316  23.748  1.00  0.00     0.000 A 
ENDBRANCH  13  20
ENDBRANCH   7   9
ENDBRANCH   6   7
ENDBRANCH   4   6
ENDBRANCH   1   2
BRANCH   1  26
ATOM     26  C   UNL A   1      31.474  32.161  26.506  1.00  0.00     0.042 C 
BRANCH  26  27
ATOM     27  C   UNL A   1      32.642  32.811  27.243  1.00  0.00     0.118 C 
BRANCH  27  28
ATOM     28  N   UNL A   1      32.381  34.186  27.648  1.00  0.00    -0.352 N 
ATOM     29  C   UNL A   1      33.002  34.963  28.597  1.00  0.00     0.251 C 
ATOM     30  H   UNL A   1      31.645  34.629  27.166  1.00  0.00     0.163 HD
ATOM     31  O   UNL A   1      32.548  36.072  28.870  1.00  0.00    -0.269 OA
BRANCH  29  32
ATOM     32  C   UNL A   1      34.197  34.468  29.315  1.00  0.00     0.039 A 
ATOM     33  C   UNL A   1      34.031  33.855  30.562  1.00  0.00     0.014 A 
ATOM     34  C   UNL A   1      35.478  34.614  28.779  1.00  0.00     0.014 A 
ATOM     35  C   UNL A   1      35.136  33.322  31.231  1.00  0.00     0.010 A 
ATOM     36  C   UNL A   1      36.567  34.015  29.409  1.00  0.00     0.010 A 
ATOM     37  C   UNL A   1      36.409  33.360  30.640  1.00  0.00    -0.014 A 
BRANCH  37  38
ATOM     38  C   UNL A   1      37.591  32.729  31.286  1.00  0.00     0.031 A 
ATOM     39  C   UNL A   1      38.286  31.573  30.620  1.00  0.00     0.074 A 
ATOM     40  C   UNL A   1      37.987  33.135  32.508  1.00  0.00     0.049 A 
ATOM     41  N   UNL A   1      39.243  30.803  31.075  1.00  0.00    -0.248 NA
ATOM     42  C   UNL A   1      37.822  31.218  29.270  1.00  0.00     0.031 C 
ATOM     43  C   UNL A   1      37.381  34.223  33.276  1.00  0.00     0.029 A 
ATOM     44  N   UNL A   1      38.981  32.664  33.330  1.00  0.00    -0.354 N 
ATOM     45  C   UNL A   1      39.479  29.865  30.079  1.00  0.00     0.074 A 
ATOM     46  C   UNL A   1      38.531  30.128  29.017  1.00  0.00     0.031 C 
ATOM     47  C   UNL A   1      38.022  34.344  34.449  1.00  0.00     0.029 A 
ATOM     48  C   UNL A   1      39.052  33.314  34.539  1.00  0.00     0.049 A 
ATOM     49  H   UNL A   1      39.589  31.931  33.077  1.00  0.00     0.167 HD
ATOM     50  C   UNL A   1      40.414  28.885  30.044  1.00  0.00     0.037 A 
ATOM     51  C   UNL A   1      39.841  33.090  35.608  1.00  0.00     0.037 A 
ATOM     52  C   UNL A   1      41.367  28.638  31.095  1.00  0.00     0.049 A 
ATOM     53  C   UNL A   1      40.853  31.975  35.556  1.00  0.00     0.074 A 
ATOM     54  C   UNL A   1      42.387  27.702  31.132  1.00  0.00     0.029 A 
ATOM     55  N   UNL A   1      41.417  29.328  32.297  1.00  0.00    -0.354 N 
ATOM     56  N   UNL A   1      41.106  31.129  34.587  1.00  0.00    -0.248 NA
ATOM     57  C   UNL A   1      41.693  31.787  36.747  1.00  0.00     0.031 C 
ATOM     58  C   UNL A   1      43.016  27.787  32.377  1.00  0.00     0.029 A 
ATOM     59  C   UNL A   1      42.433  28.823  33.092  1.00  0.00     0.049 A 
ATOM     60  H   UNL A   1      40.818  30.069  32.548  1.00  0.00     0.167 HD
ATOM     61  C   UNL A   1      42.155  30.337  35.034  1.00  0.00     0.074 A 
ATOM     62  C   UNL A   1      42.499  30.809  36.358  1.00  0.00     0.031 C 
ATOM     63  C   UNL A   1      42.778  29.312  34.403  1.00  0.00     0.037 A 
BRANCH  50  64
ATOM     64  C   UNL A   1      40.448  27.998  28.832  1.00  0.00     0.064 A 
ATOM     65  C   UNL A   1      41.210  28.324  27.700  1.00  0.00     0.173 A 
ATOM     66  C   UNL A   1      39.737  26.788  28.815  1.00  0.00     0.173 A 
ATOM     67  F   UNL A   1      41.901  29.474  27.659  1.00  0.00    -0.203 F 
ATOM     68  C   UNL A   1      41.233  27.490  26.585  1.00  0.00     0.198 A 
ATOM     69  C   UNL A   1      39.789  25.939  27.713  1.00  0.00     0.198 A 
ATOM     70  F   UNL A   1      38.997  26.422  29.873  1.00  0.00    -0.203 F 
ATOM     71  F   UNL A   1      41.923  27.850  25.494  1.00  0.00    -0.200 F 
ATOM     72  C   UNL A   1      40.530  26.295  26.595  1.00  0.00     0.200 A 
ATOM     73  F   UNL A   1      39.122  24.777  27.731  1.00  0.00    -0.200 F 
ATOM     74  F   UNL A   1      40.558  25.490  25.524  1.00  0.00    -0.200 F 
ENDBRANCH  50  64
BRANCH  51  75
ATOM     75  C   UNL A   1      39.718  33.946  36.818  1.00  0.00     0.064 A 
ATOM     76  C   UNL A   1      38.913  33.555  37.898  1.00  0.00     0.173 A 
ATOM     77  C   UNL A   1      40.385  35.176  36.916  1.00  0.00     0.173 A 
ATOM     78  F   UNL A   1      38.237  32.399  37.843  1.00  0.00    -0.203 F 
ATOM     79  C   UNL A   1      38.761  34.371  39.016  1.00  0.00     0.198 A 
ATOM     80  C   UNL A   1      40.259  35.976  38.048  1.00  0.00     0.198 A 
ATOM     81  F   UNL A   1      41.170  35.596  35.913  1.00  0.00    -0.203 F 
ATOM     82  F   UNL A   1      37.943  33.996  40.009  1.00  0.00    -0.200 F 
ATOM     83  C   UNL A   1      39.438  35.578  39.094  1.00  0.00     0.200 A 
ATOM     84  F   UNL A   1      40.926  37.135  38.126  1.00  0.00    -0.200 F 
ATOM     85  F   UNL A   1      39.293  36.363  40.171  1.00  0.00    -0.200 F 
ENDBRANCH  51  75
BRANCH  63  86
ATOM     86  C   UNL A   1      43.936  28.663  35.108  1.00  0.00     0.064 A 
ATOM     87  C   UNL A   1      43.767  27.553  35.947  1.00  0.00     0.173 A 
ATOM     88  C   UNL A   1      45.242  29.137  34.901  1.00  0.00     0.173 A 
ATOM     89  F   UNL A   1      42.538  27.070  36.189  1.00  0.00    -0.203 F 
ATOM     90  C   UNL A   1      44.859  26.956  36.573  1.00  0.00     0.198 A 
ATOM     91  C   UNL A   1      46.334  28.516  35.501  1.00  0.00     0.198 A 
ATOM     92  F   UNL A   1      45.461  30.191  34.102  1.00  0.00    -0.203 F 
ATOM     93  F   UNL A   1      44.668  25.926  37.410  1.00  0.00    -0.200 F 
ATOM     94  C   UNL A   1      46.141  27.431  36.342  1.00  0.00     0.200 A 
ATOM     95  F   UNL A   1      47.573  28.967  35.263  1.00  0.00    -0.200 F 
ATOM     96  F   UNL A   1      47.190  26.848  36.937  1.00  0.00    -0.200 F 
ENDBRANCH  63  86
ENDBRANCH  37  38
ENDBRANCH  29  32
ENDBRANCH  27  28
ENDBRANCH  26  27
ENDBRANCH   1  26
TORSDOF 14
ENDMDL
MODEL 3
REMARK VINA RESULT:     -10.4      5.383     10.167
REMARK SMILES O=C(CNc1nc(-c2ccccc2)c(-c2ccccc2)s1)NCCCNC(=O)c1ccc(-c2c3nc(c(-c4c(F)c(F)c(F)c(F)c4F)c4ccc([nH]4)c(-c4c(F)c(F)c(F)c(F)c4F)c4nc(c(-c5c(F)c(F)c(F)c(F)c5F)c5ccc2[nH]5)C=C4)C=C3)cc1
REMARK SMILES IDX 23 1 22 2 1 3 2 4 3 6 4 7 5 9 6 10 21 11 7 12 14 13 8 14
REMARK SMILES IDX 9 15 13 16 10 17 12 18 11 19 15 20 16 21 20 22 17 23 19 24
REMARK SMILES IDX 18 25 24 26 25 27 26 28 27 29 28 31 29 32 30 33 91 34 31 35
REMARK SMILES IDX 90 36 32 37 33 38 34 39 84 40 35 41 89 42 83 43 85 44 36 45
REMARK SMILES IDX 88 46 82 47 81 48 37 50 69 51 49 52 68 53 50 54 53 55 67 56
REMARK SMILES IDX 86 57 51 58 52 59 66 61 87 62 54 63 38 64 39 65 47 66 40 67
REMARK SMILES IDX 41 68 45 69 48 70 42 71 43 72 46 73 44 74 70 75 71 76 79 77
REMARK SMILES IDX 72 78 73 79 77 80 80 81 74 82 75 83 78 84 76 85 55 86 56 87
REMARK SMILES IDX 64 88 57 89 58 90 62 91 65 92 59 93 60 94 63 95 61 96
REMARK H PARENT 22 5 4 8 26 30 85 49 53 60
REMARK Flexibility Score: inf
ROOT
ATOM      1  C   UNL A   1      36.501  20.605  25.250  1.00  0.00     0.117 C 
ENDROOT
BRANCH   1   2
ATOM      2  N   UNL A   1      36.251  21.710  24.351  1.00  0.00    -0.355 N 
ATOM      3  O   UNL A   1      33.969  21.823  24.643  1.00  0.00    -0.273 OA
ATOM      4  C   UNL A   1      34.999  22.267  24.147  1.00  0.00     0.239 C 
ATOM      5  H   UNL A   1      37.013  22.088  23.856  1.00  0.00     0.163 HD
BRANCH   4   6
ATOM      6  C   UNL A   1      35.027  23.488  23.208  1.00  0.00     0.215 C 
BRANCH   6   7
ATOM      7  N   UNL A   1      33.665  23.795  22.793  1.00  0.00    -0.352 N 
ATOM      8  H   UNL A   1      33.186  23.152  22.219  1.00  0.00     0.163 HD
BRANCH   7   9
ATOM      9  C   UNL A   1      33.039  24.923  23.165  1.00  0.00     0.184 A 
ATOM     10  N   UNL A   1      33.266  25.606  24.260  1.00  0.00    -0.220 NA
ATOM     11  S   UNL A   1      31.789  25.543  22.157  1.00  0.00    -0.096 S 
ATOM     12  C   UNL A   1      32.405  26.695  24.326  1.00  0.00     0.091 A 
ATOM     13  C   UNL A   1      31.480  26.786  23.296  1.00  0.00     0.064 A 
BRANCH  12  14
ATOM     14  C   UNL A   1      32.518  27.690  25.383  1.00  0.00     0.002 A 
ATOM     15  C   UNL A   1      31.828  27.542  26.593  1.00  0.00     0.010 A 
ATOM     16  C   UNL A   1      33.240  28.865  25.142  1.00  0.00     0.010 A 
ATOM     17  C   UNL A   1      31.823  28.579  27.531  1.00  0.00     0.001 A 
ATOM     18  C   UNL A   1      33.231  29.900  26.080  1.00  0.00     0.001 A 
ATOM     19  C   UNL A   1      32.514  29.760  27.267  1.00  0.00     0.000 A 
ENDBRANCH  12  14
BRANCH  13  20
ATOM     20  C   UNL A   1      30.405  27.745  23.050  1.00  0.00    -0.006 A 
ATOM     21  C   UNL A   1      30.668  28.945  22.373  1.00  0.00     0.009 A 
ATOM     22  C   UNL A   1      29.088  27.453  23.428  1.00  0.00     0.009 A 
ATOM     23  C   UNL A   1      29.632  29.832  22.075  1.00  0.00     0.001 A 
ATOM     24  C   UNL A   1      28.053  28.340  23.128  1.00  0.00     0.001 A 
ATOM     25  C   UNL A   1      28.325  29.527  22.450  1.00  0.00     0.000 A 
ENDBRANCH  13  20
ENDBRANCH   7   9
ENDBRANCH   6   7
ENDBRANCH   4   6
ENDBRANCH   1   2
BRANCH   1  26
ATOM     26  C   UNL A   1      37.780  19.849  24.915  1.00  0.00     0.042 C 
BRANCH  26  27
ATOM     27  C   UNL A   1      38.992  20.246  25.754  1.00  0.00     0.118 C 
BRANCH  27  28
ATOM     28  N   UNL A   1      40.010  19.207  25.834  1.00  0.00    -0.352 N 
ATOM     29  C   UNL A   1      41.361  19.307  26.062  1.00  0.00     0.251 C 
ATOM     30  H   UNL A   1      39.678  18.289  25.703  1.00  0.00     0.163 HD
ATOM     31  O   UNL A   1      42.071  18.308  25.973  1.00  0.00    -0.269 OA
BRANCH  29  32
ATOM     32  C   UNL A   1      41.978  20.612  26.390  1.00  0.00     0.039 A 
ATOM     33  C   UNL A   1      42.422  21.431  25.346  1.00  0.00     0.014 A 
ATOM     34  C   UNL A   1      42.135  21.029  27.713  1.00  0.00     0.014 A 
ATOM     35  C   UNL A   1      42.950  22.695  25.625  1.00  0.00     0.010 A 
ATOM     36  C   UNL A   1      42.589  22.318  27.986  1.00  0.00     0.010 A 
ATOM     37  C   UNL A   1      42.998  23.166  26.946  1.00  0.00    -0.014 A 
BRANCH  37  38
ATOM     38  C   UNL A   1      43.475  24.538  27.271  1.00  0.00     0.031 A 
ATOM     39  C   UNL A   1      42.515  25.559  27.816  1.00  0.00     0.074 A 
ATOM     40  C   UNL A   1      44.746  24.891  26.995  1.00  0.00     0.049 A 
ATOM     41  N   UNL A   1      42.698  26.837  28.037  1.00  0.00    -0.248 NA
ATOM     42  C   UNL A   1      41.159  25.084  28.130  1.00  0.00     0.031 C 
ATOM     43  C   UNL A   1      45.768  24.005  26.437  1.00  0.00     0.029 A 
ATOM     44  N   UNL A   1      45.389  26.097  27.127  1.00  0.00    -0.354 N 
ATOM     45  C   UNL A   1      41.479  27.320  28.493  1.00  0.00     0.074 A 
ATOM     46  C   UNL A   1      40.549  26.211  28.469  1.00  0.00     0.031 C 
ATOM     47  C   UNL A   1      46.911  24.693  26.286  1.00  0.00     0.029 A 
ATOM     48  C   UNL A   1      46.691  26.079  26.690  1.00  0.00     0.049 A 
ATOM     49  H   UNL A   1      44.958  26.900  27.502  1.00  0.00     0.167 HD
ATOM     50  C   UNL A   1      41.166  28.570  28.913  1.00  0.00     0.037 A 
ATOM     51  C   UNL A   1      47.599  27.070  26.602  1.00  0.00     0.037 A 
ATOM     52  C   UNL A   1      42.099  29.667  28.952  1.00  0.00     0.049 A 
ATOM     53  C   UNL A   1      47.219  28.459  27.047  1.00  0.00     0.074 A 
ATOM     54  C   UNL A   1      41.892  30.958  29.408  1.00  0.00     0.029 A 
ATOM     55  N   UNL A   1      43.414  29.604  28.516  1.00  0.00    -0.354 N 
ATOM     56  N   UNL A   1      46.079  28.892  27.529  1.00  0.00    -0.248 NA
ATOM     57  C   UNL A   1      48.254  29.496  26.939  1.00  0.00     0.031 C 
ATOM     58  C   UNL A   1      43.064  31.690  29.195  1.00  0.00     0.029 A 
ATOM     59  C   UNL A   1      44.023  30.839  28.669  1.00  0.00     0.049 A 
ATOM     60  H   UNL A   1      43.850  28.800  28.151  1.00  0.00     0.167 HD
ATOM     61  C   UNL A   1      46.271  30.237  27.818  1.00  0.00     0.074 A 
ATOM     62  C   UNL A   1      47.641  30.547  27.465  1.00  0.00     0.031 C 
ATOM     63  C   UNL A   1      45.393  31.133  28.330  1.00  0.00     0.037 A 
BRANCH  50  64
ATOM     64  C   UNL A   1      39.753  28.823  29.357  1.00  0.00     0.064 A 
ATOM     65  C   UNL A   1      39.353  28.632  30.688  1.00  0.00     0.173 A 
ATOM     66  C   UNL A   1      38.795  29.296  28.447  1.00  0.00     0.173 A 
ATOM     67  F   UNL A   1      40.226  28.172  31.597  1.00  0.00    -0.203 F 
ATOM     68  C   UNL A   1      38.040  28.873  31.085  1.00  0.00     0.198 A 
ATOM     69  C   UNL A   1      37.492  29.570  28.854  1.00  0.00     0.198 A 
ATOM     70  F   UNL A   1      39.125  29.503  27.163  1.00  0.00    -0.203 F 
ATOM     71  F   UNL A   1      37.667  28.630  32.349  1.00  0.00    -0.200 F 
ATOM     72  C   UNL A   1      37.113  29.350  30.170  1.00  0.00     0.200 A 
ATOM     73  F   UNL A   1      36.602  30.045  27.972  1.00  0.00    -0.200 F 
ATOM     74  F   UNL A   1      35.852  29.587  30.554  1.00  0.00    -0.200 F 
ENDBRANCH  50  64
BRANCH  51  75
ATOM     75  C   UNL A   1      48.964  26.789  26.082  1.00  0.00     0.064 A 
ATOM     76  C   UNL A   1      49.273  26.986  24.728  1.00  0.00     0.173 A 
ATOM     77  C   UNL A   1      49.980  26.303  26.918  1.00  0.00     0.173 A 
ATOM     78  F   UNL A   1      48.330  27.427  23.884  1.00  0.00    -0.203 F 
ATOM     79  C   UNL A   1      50.538  26.685  24.227  1.00  0.00     0.198 A 
ATOM     80  C   UNL A   1      51.253  26.033  26.423  1.00  0.00     0.198 A 
ATOM     81  F   UNL A   1      49.738  26.100  28.221  1.00  0.00    -0.203 F 
ATOM     82  F   UNL A   1      50.789  26.832  22.919  1.00  0.00    -0.200 F 
ATOM     83  C   UNL A   1      51.529  26.214  25.075  1.00  0.00     0.200 A 
ATOM     84  F   UNL A   1      52.212  25.592  27.248  1.00  0.00    -0.200 F 
ATOM     85  F   UNL A   1      52.746  25.926  24.593  1.00  0.00    -0.200 F 
ENDBRANCH  51  75
BRANCH  63  86
ATOM     86  C   UNL A   1      45.895  32.524  28.597  1.00  0.00     0.064 A 
ATOM     87  C   UNL A   1      45.803  33.544  27.639  1.00  0.00     0.173 A 
ATOM     88  C   UNL A   1      46.438  32.849  29.850  1.00  0.00     0.173 A 
ATOM     89  F   UNL A   1      45.306  33.282  26.419  1.00  0.00    -0.203 F 
ATOM     90  C   UNL A   1      46.257  34.830  27.917  1.00  0.00     0.198 A 
ATOM     91  C   UNL A   1      46.858  34.144  30.137  1.00  0.00     0.198 A 
ATOM     92  F   UNL A   1      46.543  31.913  30.806  1.00  0.00    -0.203 F 
ATOM     93  F   UNL A   1      46.204  35.777  26.969  1.00  0.00    -0.200 F 
ATOM     94  C   UNL A   1      46.775  35.132  29.168  1.00  0.00     0.200 A 
ATOM     95  F   UNL A   1      47.342  34.437  31.351  1.00  0.00    -0.200 F 
ATOM     96  F   UNL A   1      47.201  36.374  29.437  1.00  0.00    -0.200 F 
ENDBRANCH  63  86
ENDBRANCH  37  38
ENDBRANCH  29  32
ENDBRANCH  27  28
ENDBRANCH  26  27
ENDBRANCH   1  26
TORSDOF 14
ENDMDL
