MODEL 1
REMARK VINA RESULT:     -12.2      0.000      0.000
REMARK SMILES CC[C@](O)(C(=O)NCCCNC(=O)c1ccc(-c2c3nc(c(-c4c(F)c(F)c(F)c(F)c4F)c4ccc([nH]4)c(-c4c(F)c(F)c(F)c(F)c4F)c4nc(c(-c5c(F)c(F)c(F)c(F)c5F)c5ccc2[nH]5)C=C4)C=C3)cc1)[C@@H](C)c1ccc2c(c1)OCCO2
REMARK SMILES IDX 9 1 8 2 7 3 5 4 6 5 3 7 2 8 1 9 77 10 78 11 79 12 80 13
REMARK SMILES IDX 84 14 81 15 83 16 82 17 85 18 88 19 86 20 87 21 4 22 10 24
REMARK SMILES IDX 11 25 12 26 13 28 14 29 15 30 76 31 16 32 75 33 17 34 18 35
REMARK SMILES IDX 19 36 69 37 20 38 74 39 68 40 70 41 21 42 73 43 67 44 66 45
REMARK SMILES IDX 22 47 54 48 34 49 53 50 35 51 38 52 52 53 71 54 36 55 37 56
REMARK SMILES IDX 51 58 72 59 39 60 23 61 24 62 32 63 25 64 26 65 30 66 33 67
REMARK SMILES IDX 27 68 28 69 31 70 29 71 55 72 56 73 64 74 57 75 58 76 62 77
REMARK SMILES IDX 65 78 59 79 60 80 63 81 61 82 40 83 41 84 49 85 42 86 43 87
REMARK SMILES IDX 47 88 50 89 44 90 45 91 48 92 46 93
REMARK H PARENT 7 6 4 23 11 27 70 46 38 57
REMARK Flexibility Score: inf
ROOT
ATOM      1  C   UNL A   1      31.197  32.043  26.513  1.00  0.00     0.042 C 
ENDROOT
BRANCH   1   2
ATOM      2  C   UNL A   1      31.306  30.812  25.635  1.00  0.00     0.117 C 
BRANCH   2   3
ATOM      3  N   UNL A   1      32.339  29.901  26.105  1.00  0.00    -0.354 N 
ATOM      4  C   UNL A   1      32.812  28.743  25.554  1.00  0.00     0.252 C 
ATOM      5  O   UNL A   1      33.741  28.184  26.142  1.00  0.00    -0.272 OA
ATOM      6  H   UNL A   1      32.765  30.160  26.954  1.00  0.00     0.163 HD
BRANCH   4   7
ATOM      7  C   UNL A   1      32.245  28.233  24.189  1.00  0.00     0.149 C 
BRANCH   7   8
ATOM      8  C   UNL A   1      33.227  27.060  23.841  1.00  0.00     0.043 C 
ATOM      9  C   UNL A   1      33.548  26.712  22.401  1.00  0.00     0.007 C 
ENDBRANCH   7   8
BRANCH   7  10
ATOM     10  C   UNL A   1      30.730  27.820  24.371  1.00  0.00     0.058 C 
ATOM     11  C   UNL A   1      29.777  28.317  23.272  1.00  0.00     0.016 C 
BRANCH  10  12
ATOM     12  C   UNL A   1      30.478  26.322  24.557  1.00  0.00    -0.038 A 
ATOM     13  C   UNL A   1      30.298  25.425  23.489  1.00  0.00     0.008 A 
ATOM     14  C   UNL A   1      30.632  25.811  25.852  1.00  0.00     0.054 A 
ATOM     15  C   UNL A   1      30.584  24.069  23.661  1.00  0.00     0.051 A 
ATOM     16  C   UNL A   1      30.973  24.480  26.014  1.00  0.00     0.161 A 
ATOM     17  C   UNL A   1      31.038  23.639  24.900  1.00  0.00     0.161 A 
ATOM     18  O   UNL A   1      31.424  24.127  27.257  1.00  0.00    -0.486 OA
ATOM     19  O   UNL A   1      31.732  22.454  24.955  1.00  0.00    -0.486 OA
ATOM     20  C   UNL A   1      32.308  22.998  27.232  1.00  0.00     0.271 C 
ATOM     21  C   UNL A   1      32.842  22.681  25.840  1.00  0.00     0.271 C 
ENDBRANCH  10  12
ENDBRANCH   7  10
BRANCH   7  22
ATOM     22  O   UNL A   1      32.343  29.286  23.222  1.00  0.00    -0.379 OA
ATOM     23  H   UNL A   1      31.493  29.750  23.161  1.00  0.00     0.212 HD
ENDBRANCH   7  22
ENDBRANCH   4   7
ENDBRANCH   2   3
ENDBRANCH   1   2
BRANCH   1  24
ATOM     24  C   UNL A   1      32.525  32.465  27.119  1.00  0.00     0.118 C 
BRANCH  24  25
ATOM     25  N   UNL A   1      32.535  33.863  27.531  1.00  0.00    -0.352 N 
ATOM     26  C   UNL A   1      33.301  34.501  28.467  1.00  0.00     0.251 C 
ATOM     27  H   UNL A   1      31.889  34.439  27.060  1.00  0.00     0.163 HD
ATOM     28  O   UNL A   1      33.016  35.652  28.807  1.00  0.00    -0.269 OA
BRANCH  26  29
ATOM     29  C   UNL A   1      34.456  33.819  29.081  1.00  0.00     0.039 A 
ATOM     30  C   UNL A   1      35.744  34.267  28.781  1.00  0.00     0.014 A 
ATOM     31  C   UNL A   1      34.277  32.724  29.930  1.00  0.00     0.014 A 
ATOM     32  C   UNL A   1      36.846  33.640  29.363  1.00  0.00     0.010 A 
ATOM     33  C   UNL A   1      35.364  32.179  30.599  1.00  0.00     0.010 A 
ATOM     34  C   UNL A   1      36.663  32.606  30.297  1.00  0.00    -0.014 A 
BRANCH  34  35
ATOM     35  C   UNL A   1      37.821  31.918  30.917  1.00  0.00     0.031 A 
ATOM     36  C   UNL A   1      38.251  32.286  32.312  1.00  0.00     0.074 A 
ATOM     37  C   UNL A   1      38.508  30.998  30.214  1.00  0.00     0.049 A 
ATOM     38  N   UNL A   1      39.255  31.831  33.018  1.00  0.00    -0.248 NA
ATOM     39  C   UNL A   1      37.468  33.330  32.994  1.00  0.00     0.031 C 
ATOM     40  C   UNL A   1      38.225  30.603  28.834  1.00  0.00     0.029 A 
ATOM     41  N   UNL A   1      39.590  30.232  30.565  1.00  0.00    -0.354 N 
ATOM     42  C   UNL A   1      39.228  32.539  34.212  1.00  0.00     0.074 A 
ATOM     43  C   UNL A   1      38.161  33.509  34.106  1.00  0.00     0.031 C 
ATOM     44  C   UNL A   1      39.092  29.646  28.465  1.00  0.00     0.029 A 
ATOM     45  C   UNL A   1      40.011  29.387  29.570  1.00  0.00     0.049 A 
ATOM     46  H   UNL A   1      40.023  30.283  31.448  1.00  0.00     0.167 HD
ATOM     47  C   UNL A   1      39.996  32.372  35.314  1.00  0.00     0.037 A 
ATOM     48  C   UNL A   1      41.025  28.502  29.551  1.00  0.00     0.037 A 
ATOM     49  C   UNL A   1      41.043  31.390  35.421  1.00  0.00     0.049 A 
ATOM     50  C   UNL A   1      41.862  28.326  30.791  1.00  0.00     0.074 A 
ATOM     51  C   UNL A   1      41.854  31.106  36.504  1.00  0.00     0.029 A 
ATOM     52  N   UNL A   1      41.420  30.528  34.401  1.00  0.00    -0.354 N 
ATOM     53  N   UNL A   1      41.783  28.954  31.940  1.00  0.00    -0.248 NA
ATOM     54  C   UNL A   1      42.916  27.306  30.736  1.00  0.00     0.031 C 
ATOM     55  C   UNL A   1      42.754  30.105  36.124  1.00  0.00     0.029 A 
ATOM     56  C   UNL A   1      42.463  29.721  34.825  1.00  0.00     0.049 A 
ATOM     57  H   UNL A   1      41.007  30.494  33.508  1.00  0.00     0.167 HD
ATOM     58  C   UNL A   1      42.754  28.384  32.753  1.00  0.00     0.074 A 
ATOM     59  C   UNL A   1      43.396  27.349  31.970  1.00  0.00     0.031 C 
ATOM     60  C   UNL A   1      43.084  28.690  34.032  1.00  0.00     0.037 A 
BRANCH  47  61
ATOM     61  C   UNL A   1      39.724  33.268  36.489  1.00  0.00     0.064 A 
ATOM     62  C   UNL A   1      38.797  32.918  37.484  1.00  0.00     0.173 A 
ATOM     63  C   UNL A   1      40.406  34.486  36.633  1.00  0.00     0.173 A 
ATOM     64  F   UNL A   1      38.106  31.771  37.390  1.00  0.00    -0.203 F 
ATOM     65  C   UNL A   1      38.534  33.769  38.554  1.00  0.00     0.198 A 
ATOM     66  C   UNL A   1      40.167  35.318  37.725  1.00  0.00     0.198 A 
ATOM     67  F   UNL A   1      41.306  34.871  35.715  1.00  0.00    -0.203 F 
ATOM     68  F   UNL A   1      37.596  33.441  39.454  1.00  0.00    -0.200 F 
ATOM     69  C   UNL A   1      39.224  34.965  38.678  1.00  0.00     0.200 A 
ATOM     70  F   UNL A   1      40.845  36.467  37.849  1.00  0.00    -0.200 F 
ATOM     71  F   UNL A   1      38.973  35.781  39.710  1.00  0.00    -0.200 F 
ENDBRANCH  47  61
BRANCH  48  72
ATOM     72  C   UNL A   1      41.280  27.692  28.331  1.00  0.00     0.064 A 
ATOM     73  C   UNL A   1      40.635  26.463  28.131  1.00  0.00     0.173 A 
ATOM     74  C   UNL A   1      42.170  28.131  27.340  1.00  0.00     0.173 A 
ATOM     75  F   UNL A   1      39.788  25.992  29.057  1.00  0.00    -0.203 F 
ATOM     76  C   UNL A   1      40.891  25.693  26.997  1.00  0.00     0.198 A 
ATOM     77  C   UNL A   1      42.400  27.375  26.192  1.00  0.00     0.198 A 
ATOM     78  F   UNL A   1      42.804  29.304  27.478  1.00  0.00    -0.203 F 
ATOM     79  F   UNL A   1      40.298  24.499  26.855  1.00  0.00    -0.200 F 
ATOM     80  C   UNL A   1      41.767  26.152  26.027  1.00  0.00     0.200 A 
ATOM     81  F   UNL A   1      43.234  27.831  25.248  1.00  0.00    -0.200 F 
ATOM     82  F   UNL A   1      42.008  25.414  24.935  1.00  0.00    -0.200 F 
ENDBRANCH  48  72
BRANCH  60  83
ATOM     83  C   UNL A   1      44.157  27.863  34.681  1.00  0.00     0.064 A 
ATOM     84  C   UNL A   1      45.506  28.249  34.661  1.00  0.00     0.173 A 
ATOM     85  C   UNL A   1      43.825  26.677  35.355  1.00  0.00     0.173 A 
ATOM     86  F   UNL A   1      45.879  29.366  34.019  1.00  0.00    -0.203 F 
ATOM     87  C   UNL A   1      46.485  27.461  35.260  1.00  0.00     0.198 A 
ATOM     88  C   UNL A   1      44.802  25.911  35.984  1.00  0.00     0.198 A 
ATOM     89  F   UNL A   1      42.549  26.267  35.414  1.00  0.00    -0.203 F 
ATOM     90  F   UNL A   1      47.774  27.819  35.175  1.00  0.00    -0.200 F 
ATOM     91  C   UNL A   1      46.132  26.297  35.926  1.00  0.00     0.200 A 
ATOM     92  F   UNL A   1      44.456  24.796  36.643  1.00  0.00    -0.200 F 
ATOM     93  F   UNL A   1      47.076  25.543  36.505  1.00  0.00    -0.200 F 
ENDBRANCH  60  83
ENDBRANCH  34  35
ENDBRANCH  26  29
ENDBRANCH  24  25
ENDBRANCH   1  24
TORSDOF 14
ENDMDL
MODEL 2
REMARK VINA RESULT:     -12.1      0.162      1.968
REMARK SMILES CC[C@](O)(C(=O)NCCCNC(=O)c1ccc(-c2c3nc(c(-c4c(F)c(F)c(F)c(F)c4F)c4ccc([nH]4)c(-c4c(F)c(F)c(F)c(F)c4F)c4nc(c(-c5c(F)c(F)c(F)c(F)c5F)c5ccc2[nH]5)C=C4)C=C3)cc1)[C@@H](C)c1ccc2c(c1)OCCO2
REMARK SMILES IDX 9 1 8 2 7 3 5 4 6 5 3 7 2 8 1 9 77 10 78 11 79 12 80 13
REMARK SMILES IDX 84 14 81 15 83 16 82 17 85 18 88 19 86 20 87 21 4 22 10 24
REMARK SMILES IDX 11 25 12 26 13 28 14 29 15 30 76 31 16 32 75 33 17 34 18 35
REMARK SMILES IDX 19 36 69 37 20 38 74 39 68 40 70 41 21 42 73 43 67 44 66 45
REMARK SMILES IDX 22 47 54 48 34 49 53 50 35 51 38 52 52 53 71 54 36 55 37 56
REMARK SMILES IDX 51 58 72 59 39 60 23 61 24 62 32 63 25 64 26 65 30 66 33 67
REMARK SMILES IDX 27 68 28 69 31 70 29 71 55 72 56 73 64 74 57 75 58 76 62 77
REMARK SMILES IDX 65 78 59 79 60 80 63 81 61 82 40 83 41 84 49 85 42 86 43 87
REMARK SMILES IDX 47 88 50 89 44 90 45 91 48 92 46 93
REMARK H PARENT 7 6 4 23 11 27 70 46 38 57
REMARK Flexibility Score: inf
ROOT
ATOM      1  C   UNL A   1      31.164  31.998  26.490  1.00  0.00     0.042 C 
ENDROOT
BRANCH   1   2
ATOM      2  C   UNL A   1      31.313  30.787  25.590  1.00  0.00     0.117 C 
BRANCH   2   3
ATOM      3  N   UNL A   1      32.320  29.863  26.088  1.00  0.00    -0.354 N 
ATOM      4  C   UNL A   1      32.790  28.696  25.552  1.00  0.00     0.252 C 
ATOM      5  O   UNL A   1      33.695  28.126  26.165  1.00  0.00    -0.272 OA
ATOM      6  H   UNL A   1      32.729  30.119  26.946  1.00  0.00     0.163 HD
BRANCH   4   7
ATOM      7  C   UNL A   1      32.248  28.190  24.176  1.00  0.00     0.149 C 
BRANCH   7   8
ATOM      8  C   UNL A   1      33.236  27.016  23.844  1.00  0.00     0.043 C 
ATOM      9  C   UNL A   1      33.553  26.645  22.409  1.00  0.00     0.007 C 
ENDBRANCH   7   8
BRANCH   7  10
ATOM     10  C   UNL A   1      30.730  27.777  24.327  1.00  0.00     0.058 C 
ATOM     11  C   UNL A   1      29.803  28.259  23.200  1.00  0.00     0.016 C 
BRANCH  10  12
ATOM     12  C   UNL A   1      30.474  26.282  24.527  1.00  0.00    -0.038 A 
ATOM     13  C   UNL A   1      30.301  25.374  23.467  1.00  0.00     0.008 A 
ATOM     14  C   UNL A   1      30.618  25.784  25.829  1.00  0.00     0.054 A 
ATOM     15  C   UNL A   1      30.584  24.019  23.655  1.00  0.00     0.051 A 
ATOM     16  C   UNL A   1      30.956  24.455  26.007  1.00  0.00     0.161 A 
ATOM     17  C   UNL A   1      31.028  23.602  24.902  1.00  0.00     0.161 A 
ATOM     18  O   UNL A   1      31.399  24.114  27.256  1.00  0.00    -0.486 OA
ATOM     19  O   UNL A   1      31.720  22.416  24.974  1.00  0.00    -0.486 OA
ATOM     20  C   UNL A   1      32.281  22.984  27.250  1.00  0.00     0.271 C 
ATOM     21  C   UNL A   1      32.825  22.651  25.865  1.00  0.00     0.271 C 
ENDBRANCH  10  12
ENDBRANCH   7  10
BRANCH   7  22
ATOM     22  O   UNL A   1      32.366  29.244  23.213  1.00  0.00    -0.379 OA
ATOM     23  H   UNL A   1      32.899  28.939  22.462  1.00  0.00     0.212 HD
ENDBRANCH   7  22
ENDBRANCH   4   7
ENDBRANCH   2   3
ENDBRANCH   1   2
BRANCH   1  24
ATOM     24  C   UNL A   1      32.476  32.449  27.108  1.00  0.00     0.118 C 
BRANCH  24  25
ATOM     25  N   UNL A   1      32.443  33.839  27.546  1.00  0.00    -0.352 N 
ATOM     26  C   UNL A   1      33.184  34.481  28.499  1.00  0.00     0.251 C 
ATOM     27  H   UNL A   1      31.783  34.404  27.082  1.00  0.00     0.163 HD
ATOM     28  O   UNL A   1      32.864  35.616  28.859  1.00  0.00    -0.269 OA
BRANCH  26  29
ATOM     29  C   UNL A   1      34.356  33.822  29.107  1.00  0.00     0.039 A 
ATOM     30  C   UNL A   1      35.635  34.275  28.775  1.00  0.00     0.014 A 
ATOM     31  C   UNL A   1      34.201  32.744  29.981  1.00  0.00     0.014 A 
ATOM     32  C   UNL A   1      36.752  33.669  29.351  1.00  0.00     0.010 A 
ATOM     33  C   UNL A   1      35.304  32.222  30.643  1.00  0.00     0.010 A 
ATOM     34  C   UNL A   1      36.594  32.654  30.309  1.00  0.00    -0.014 A 
BRANCH  34  35
ATOM     35  C   UNL A   1      37.768  31.988  30.923  1.00  0.00     0.031 A 
ATOM     36  C   UNL A   1      38.218  32.388  32.303  1.00  0.00     0.074 A 
ATOM     37  C   UNL A   1      38.452  31.062  30.228  1.00  0.00     0.049 A 
ATOM     38  N   UNL A   1      39.239  31.957  33.001  1.00  0.00    -0.248 NA
ATOM     39  C   UNL A   1      37.437  33.439  32.978  1.00  0.00     0.031 C 
ATOM     40  C   UNL A   1      38.150  30.636  28.860  1.00  0.00     0.029 A 
ATOM     41  N   UNL A   1      39.547  30.312  30.576  1.00  0.00    -0.354 N 
ATOM     42  C   UNL A   1      39.224  32.689  34.181  1.00  0.00     0.074 A 
ATOM     43  C   UNL A   1      38.147  33.647  34.074  1.00  0.00     0.031 C 
ATOM     44  C   UNL A   1      39.020  29.679  28.497  1.00  0.00     0.029 A 
ATOM     45  C   UNL A   1      39.959  29.451  29.590  1.00  0.00     0.049 A 
ATOM     46  H   UNL A   1      39.995  30.385  31.450  1.00  0.00     0.167 HD
ATOM     47  C   UNL A   1      40.013  32.551  35.273  1.00  0.00     0.037 A 
ATOM     48  C   UNL A   1      40.981  28.575  29.573  1.00  0.00     0.037 A 
ATOM     49  C   UNL A   1      41.070  31.581  35.382  1.00  0.00     0.049 A 
ATOM     50  C   UNL A   1      41.840  28.432  30.801  1.00  0.00     0.074 A 
ATOM     51  C   UNL A   1      41.902  31.326  36.457  1.00  0.00     0.029 A 
ATOM     52  N   UNL A   1      41.438  30.702  34.373  1.00  0.00    -0.354 N 
ATOM     53  N   UNL A   1      41.775  29.082  31.938  1.00  0.00    -0.248 NA
ATOM     54  C   UNL A   1      42.903  27.420  30.749  1.00  0.00     0.031 C 
ATOM     55  C   UNL A   1      42.805  30.326  36.082  1.00  0.00     0.029 A 
ATOM     56  C   UNL A   1      42.496  29.913  34.795  1.00  0.00     0.049 A 
ATOM     57  H   UNL A   1      41.010  30.646  33.488  1.00  0.00     0.167 HD
ATOM     58  C   UNL A   1      42.764  28.537  32.746  1.00  0.00     0.074 A 
ATOM     59  C   UNL A   1      43.403  27.493  31.974  1.00  0.00     0.031 C 
ATOM     60  C   UNL A   1      43.113  28.872  34.014  1.00  0.00     0.037 A 
BRANCH  47  61
ATOM     61  C   UNL A   1      39.752  33.469  36.434  1.00  0.00     0.064 A 
ATOM     62  C   UNL A   1      40.396  34.711  36.551  1.00  0.00     0.173 A 
ATOM     63  C   UNL A   1      38.836  33.112  37.436  1.00  0.00     0.173 A 
ATOM     64  F   UNL A   1      41.291  35.097  35.629  1.00  0.00    -0.203 F 
ATOM     65  C   UNL A   1      40.166  35.541  37.646  1.00  0.00     0.198 A 
ATOM     66  C   UNL A   1      38.581  33.962  38.510  1.00  0.00     0.198 A 
ATOM     67  F   UNL A   1      38.188  31.939  37.374  1.00  0.00    -0.203 F 
ATOM     68  F   UNL A   1      40.843  36.691  37.767  1.00  0.00    -0.200 F 
ATOM     69  C   UNL A   1      39.253  35.169  38.620  1.00  0.00     0.200 A 
ATOM     70  F   UNL A   1      37.687  33.606  39.444  1.00  0.00    -0.200 F 
ATOM     71  F   UNL A   1      39.028  35.970  39.670  1.00  0.00    -0.200 F 
ENDBRANCH  47  61
BRANCH  48  72
ATOM     72  C   UNL A   1      41.223  27.743  28.365  1.00  0.00     0.064 A 
ATOM     73  C   UNL A   1      42.107  28.165  27.361  1.00  0.00     0.173 A 
ATOM     74  C   UNL A   1      40.581  26.508  28.191  1.00  0.00     0.173 A 
ATOM     75  F   UNL A   1      42.734  29.345  27.474  1.00  0.00    -0.203 F 
ATOM     76  C   UNL A   1      42.318  27.396  26.218  1.00  0.00     0.198 A 
ATOM     77  C   UNL A   1      40.817  25.726  27.063  1.00  0.00     0.198 A 
ATOM     78  F   UNL A   1      39.734  26.054  29.126  1.00  0.00    -0.203 F 
ATOM     79  F   UNL A   1      43.130  27.847  25.252  1.00  0.00    -0.200 F 
ATOM     80  C   UNL A   1      41.679  26.175  26.072  1.00  0.00     0.200 A 
ATOM     81  F   UNL A   1      40.211  24.538  26.934  1.00  0.00    -0.200 F 
ATOM     82  F   UNL A   1      41.886  25.434  24.976  1.00  0.00    -0.200 F 
ENDBRANCH  48  72
BRANCH  60  83
ATOM     83  C   UNL A   1      44.205  28.068  34.661  1.00  0.00     0.064 A 
ATOM     84  C   UNL A   1      43.936  26.883  35.364  1.00  0.00     0.173 A 
ATOM     85  C   UNL A   1      45.543  28.478  34.553  1.00  0.00     0.173 A 
ATOM     86  F   UNL A   1      42.673  26.455  35.507  1.00  0.00    -0.203 F 
ATOM     87  C   UNL A   1      44.963  26.160  35.964  1.00  0.00     0.198 A 
ATOM     88  C   UNL A   1      46.570  27.732  35.124  1.00  0.00     0.198 A 
ATOM     89  F   UNL A   1      45.856  29.597  33.883  1.00  0.00    -0.203 F 
ATOM     90  F   UNL A   1      44.676  25.065  36.682  1.00  0.00    -0.200 F 
ATOM     91  C   UNL A   1      46.278  26.581  35.838  1.00  0.00     0.200 A 
ATOM     92  F   UNL A   1      47.842  28.130  34.986  1.00  0.00    -0.200 F 
ATOM     93  F   UNL A   1      47.265  25.880  36.414  1.00  0.00    -0.200 F 
ENDBRANCH  60  83
ENDBRANCH  34  35
ENDBRANCH  26  29
ENDBRANCH  24  25
ENDBRANCH   1  24
TORSDOF 14
ENDMDL
MODEL 3
REMARK VINA RESULT:     -12.1      0.645      7.474
REMARK SMILES CC[C@](O)(C(=O)NCCCNC(=O)c1ccc(-c2c3nc(c(-c4c(F)c(F)c(F)c(F)c4F)c4ccc([nH]4)c(-c4c(F)c(F)c(F)c(F)c4F)c4nc(c(-c5c(F)c(F)c(F)c(F)c5F)c5ccc2[nH]5)C=C4)C=C3)cc1)[C@@H](C)c1ccc2c(c1)OCCO2
REMARK SMILES IDX 9 1 8 2 7 3 5 4 6 5 3 7 2 8 1 9 77 10 78 11 79 12 80 13
REMARK SMILES IDX 84 14 81 15 83 16 82 17 85 18 88 19 86 20 87 21 4 22 10 24
REMARK SMILES IDX 11 25 12 26 13 28 14 29 15 30 76 31 16 32 75 33 17 34 18 35
REMARK SMILES IDX 19 36 69 37 20 38 74 39 68 40 70 41 21 42 73 43 67 44 66 45
REMARK SMILES IDX 22 47 54 48 34 49 53 50 35 51 38 52 52 53 71 54 36 55 37 56
REMARK SMILES IDX 51 58 72 59 39 60 23 61 24 62 32 63 25 64 26 65 30 66 33 67
REMARK SMILES IDX 27 68 28 69 31 70 29 71 55 72 56 73 64 74 57 75 58 76 62 77
REMARK SMILES IDX 65 78 59 79 60 80 63 81 61 82 40 83 41 84 49 85 42 86 43 87
REMARK SMILES IDX 47 88 50 89 44 90 45 91 48 92 46 93
REMARK H PARENT 7 6 4 23 11 27 70 46 38 57
REMARK Flexibility Score: inf
ROOT
ATOM      1  C   UNL A   1      31.133  32.061  26.509  1.00  0.00     0.042 C 
ENDROOT
BRANCH   1   2
ATOM      2  C   UNL A   1      31.305  30.840  25.626  1.00  0.00     0.117 C 
BRANCH   2   3
ATOM      3  N   UNL A   1      32.407  30.000  26.070  1.00  0.00    -0.354 N 
ATOM      4  C   UNL A   1      32.931  28.866  25.516  1.00  0.00     0.252 C 
ATOM      5  O   UNL A   1      33.912  28.373  26.078  1.00  0.00    -0.272 OA
ATOM      6  H   UNL A   1      32.844  30.296  26.901  1.00  0.00     0.163 HD
BRANCH   4   7
ATOM      7  C   UNL A   1      32.351  28.305  24.177  1.00  0.00     0.149 C 
BRANCH   7   8
ATOM      8  C   UNL A   1      33.305  27.093  23.885  1.00  0.00     0.043 C 
ATOM      9  C   UNL A   1      33.622  26.673  22.464  1.00  0.00     0.007 C 
ENDBRANCH   7   8
BRANCH   7  10
ATOM     10  C   UNL A   1      30.827  27.936  24.377  1.00  0.00     0.058 C 
ATOM     11  C   UNL A   1      29.873  28.477  23.301  1.00  0.00     0.016 C 
BRANCH  10  12
ATOM     12  C   UNL A   1      30.531  26.445  24.549  1.00  0.00    -0.038 A 
ATOM     13  C   UNL A   1      30.332  25.564  23.471  1.00  0.00     0.008 A 
ATOM     14  C   UNL A   1      30.662  25.918  25.840  1.00  0.00     0.054 A 
ATOM     15  C   UNL A   1      30.578  24.198  23.632  1.00  0.00     0.051 A 
ATOM     16  C   UNL A   1      30.964  24.577  25.992  1.00  0.00     0.161 A 
ATOM     17  C   UNL A   1      31.011  23.745  24.871  1.00  0.00     0.161 A 
ATOM     18  O   UNL A   1      31.398  24.199  27.234  1.00  0.00    -0.486 OA
ATOM     19  O   UNL A   1      31.672  22.539  24.918  1.00  0.00    -0.486 OA
ATOM     20  C   UNL A   1      32.249  23.046  27.204  1.00  0.00     0.271 C 
ATOM     21  C   UNL A   1      32.782  22.726  25.813  1.00  0.00     0.271 C 
ENDBRANCH  10  12
ENDBRANCH   7  10
BRANCH   7  22
ATOM     22  O   UNL A   1      32.473  29.307  23.160  1.00  0.00    -0.379 OA
ATOM     23  H   UNL A   1      31.608  29.458  22.748  1.00  0.00     0.212 HD
ENDBRANCH   7  22
ENDBRANCH   4   7
ENDBRANCH   2   3
ENDBRANCH   1   2
BRANCH   1  24
ATOM     24  C   UNL A   1      32.444  32.571  27.083  1.00  0.00     0.118 C 
BRANCH  24  25
ATOM     25  N   UNL A   1      32.376  33.973  27.477  1.00  0.00    -0.352 N 
ATOM     26  C   UNL A   1      33.064  34.651  28.445  1.00  0.00     0.251 C 
ATOM     27  H   UNL A   1      31.734  34.517  26.965  1.00  0.00     0.163 HD
ATOM     28  O   UNL A   1      32.716  35.793  28.755  1.00  0.00    -0.269 OA
BRANCH  26  29
ATOM     29  C   UNL A   1      34.211  34.023  29.128  1.00  0.00     0.039 A 
ATOM     30  C   UNL A   1      35.503  34.444  28.806  1.00  0.00     0.014 A 
ATOM     31  C   UNL A   1      34.020  33.004  30.065  1.00  0.00     0.014 A 
ATOM     32  C   UNL A   1      36.597  33.868  29.453  1.00  0.00     0.010 A 
ATOM     33  C   UNL A   1      35.098  32.518  30.791  1.00  0.00     0.010 A 
ATOM     34  C   UNL A   1      36.402  32.917  30.469  1.00  0.00    -0.014 A 
BRANCH  34  35
ATOM     35  C   UNL A   1      37.551  32.283  31.158  1.00  0.00     0.031 A 
ATOM     36  C   UNL A   1      38.326  31.190  30.472  1.00  0.00     0.074 A 
ATOM     37  C   UNL A   1      37.870  32.659  32.410  1.00  0.00     0.049 A 
ATOM     38  N   UNL A   1      39.335  30.484  30.916  1.00  0.00    -0.248 NA
ATOM     39  C   UNL A   1      37.885  30.813  29.119  1.00  0.00     0.031 C 
ATOM     40  C   UNL A   1      37.156  33.662  33.201  1.00  0.00     0.029 A 
ATOM     41  N   UNL A   1      38.876  32.235  33.241  1.00  0.00    -0.354 N 
ATOM     42  C   UNL A   1      39.638  29.582  29.905  1.00  0.00     0.074 A 
ATOM     43  C   UNL A   1      38.656  29.770  28.860  1.00  0.00     0.031 C 
ATOM     44  C   UNL A   1      37.764  33.799  34.390  1.00  0.00     0.029 A 
ATOM     45  C   UNL A   1      38.888  32.869  34.458  1.00  0.00     0.049 A 
ATOM     46  H   UNL A   1      39.528  31.542  32.987  1.00  0.00     0.167 HD
ATOM     47  C   UNL A   1      40.663  28.700  29.834  1.00  0.00     0.037 A 
ATOM     48  C   UNL A   1      39.714  32.717  35.509  1.00  0.00     0.037 A 
ATOM     49  C   UNL A   1      41.649  28.532  30.868  1.00  0.00     0.049 A 
ATOM     50  C   UNL A   1      40.853  31.737  35.406  1.00  0.00     0.074 A 
ATOM     51  C   UNL A   1      42.753  27.700  30.883  1.00  0.00     0.029 A 
ATOM     52  N   UNL A   1      41.647  29.216  32.076  1.00  0.00    -0.354 N 
ATOM     53  N   UNL A   1      41.170  30.936  34.417  1.00  0.00    -0.248 NA
ATOM     54  C   UNL A   1      41.758  31.654  36.559  1.00  0.00     0.031 C 
ATOM     55  C   UNL A   1      43.392  27.845  32.119  1.00  0.00     0.029 A 
ATOM     56  C   UNL A   1      42.723  28.814  32.850  1.00  0.00     0.049 A 
ATOM     57  H   UNL A   1      40.980  29.890  32.343  1.00  0.00     0.167 HD
ATOM     58  C   UNL A   1      42.327  30.279  34.814  1.00  0.00     0.074 A 
ATOM     59  C   UNL A   1      42.663  30.788  36.127  1.00  0.00     0.031 C 
ATOM     60  C   UNL A   1      43.046  29.338  34.152  1.00  0.00     0.037 A 
BRANCH  47  61
ATOM     61  C   UNL A   1      40.767  27.860  28.593  1.00  0.00     0.064 A 
ATOM     62  C   UNL A   1      40.092  26.635  28.474  1.00  0.00     0.173 A 
ATOM     63  C   UNL A   1      41.539  28.288  27.502  1.00  0.00     0.173 A 
ATOM     64  F   UNL A   1      39.350  26.170  29.491  1.00  0.00    -0.203 F 
ATOM     65  C   UNL A   1      40.218  25.852  27.328  1.00  0.00     0.198 A 
ATOM     66  C   UNL A   1      41.633  27.519  26.344  1.00  0.00     0.198 A 
ATOM     67  F   UNL A   1      42.204  29.452  27.558  1.00  0.00    -0.203 F 
ATOM     68  F   UNL A   1      39.615  24.656  27.267  1.00  0.00    -0.200 F 
ATOM     69  C   UNL A   1      40.982  26.298  26.262  1.00  0.00     0.200 A 
ATOM     70  F   UNL A   1      42.362  27.959  25.308  1.00  0.00    -0.200 F 
ATOM     71  F   UNL A   1      41.099  25.547  25.159  1.00  0.00    -0.200 F 
ENDBRANCH  47  61
BRANCH  48  72
ATOM     72  C   UNL A   1      39.514  33.536  36.734  1.00  0.00     0.064 A 
ATOM     73  C   UNL A   1      40.107  34.800  36.863  1.00  0.00     0.173 A 
ATOM     74  C   UNL A   1      38.725  33.074  37.797  1.00  0.00     0.173 A 
ATOM     75  F   UNL A   1      40.885  35.279  35.881  1.00  0.00    -0.203 F 
ATOM     76  C   UNL A   1      39.938  35.559  38.020  1.00  0.00     0.198 A 
ATOM     77  C   UNL A   1      38.531  33.848  38.939  1.00  0.00     0.198 A 
ATOM     78  F   UNL A   1      38.127  31.877  37.719  1.00  0.00    -0.203 F 
ATOM     79  F   UNL A   1      40.557  36.742  38.137  1.00  0.00    -0.200 F 
ATOM     80  C   UNL A   1      39.146  35.086  39.054  1.00  0.00     0.200 A 
ATOM     81  F   UNL A   1      37.749  33.395  39.928  1.00  0.00    -0.200 F 
ATOM     82  F   UNL A   1      38.979  35.819  40.163  1.00  0.00    -0.200 F 
ENDBRANCH  48  72
BRANCH  60  83
ATOM     83  C   UNL A   1      44.295  28.834  34.818  1.00  0.00     0.064 A 
ATOM     84  C   UNL A   1      44.288  27.705  35.651  1.00  0.00     0.173 A 
ATOM     85  C   UNL A   1      45.522  29.478  34.597  1.00  0.00     0.173 A 
ATOM     86  F   UNL A   1      43.139  27.061  35.905  1.00  0.00    -0.203 F 
ATOM     87  C   UNL A   1      45.455  27.262  36.265  1.00  0.00     0.198 A 
ATOM     88  C   UNL A   1      46.694  29.011  35.184  1.00  0.00     0.198 A 
ATOM     89  F   UNL A   1      45.588  30.556  33.802  1.00  0.00    -0.203 F 
ATOM     90  F   UNL A   1      45.413  26.218  37.105  1.00  0.00    -0.200 F 
ATOM     91  C   UNL A   1      46.658  27.910  36.027  1.00  0.00     0.200 A 
ATOM     92  F   UNL A   1      47.858  29.627  34.938  1.00  0.00    -0.200 F 
ATOM     93  F   UNL A   1      47.781  27.479  36.616  1.00  0.00    -0.200 F 
ENDBRANCH  60  83
ENDBRANCH  34  35
ENDBRANCH  26  29
ENDBRANCH  24  25
ENDBRANCH   1  24
TORSDOF 14
ENDMDL
