MODEL 1
REMARK VINA RESULT:     -13.9      0.000      0.000
REMARK SMILES Cc1cc(NC(=O)/C=C/c2ccco2)cc(C(=O)NCCCNC(=O)c2ccc(-c3c4nc(c(-c5c(F)c(F)c(F)c(F)c5F)c5ccc([nH]5)c(-c5c(F)c(F)c(F)c(F)c5F)c5nc(c(-c6c(F)c(F)c(F)c(F)c6F)c6ccc3[nH]6)C=C5)C=C4)cc2)c1O
REMARK SMILES IDX 20 1 19 2 17 3 18 4 16 6 1 7 2 8 3 9 89 10 4 11 15 12 90 13
REMARK SMILES IDX 5 15 6 16 7 18 8 19 9 20 10 21 11 22 14 23 12 24 13 25 21 26
REMARK SMILES IDX 22 27 23 28 24 29 25 31 26 32 27 33 88 34 28 35 87 36 29 37
REMARK SMILES IDX 30 38 31 39 81 40 32 41 86 42 80 43 82 44 33 45 85 46 79 47
REMARK SMILES IDX 78 48 34 50 66 51 46 52 65 53 47 54 50 55 64 56 83 57 48 58
REMARK SMILES IDX 49 59 63 61 84 62 51 63 35 64 36 65 44 66 37 67 38 68 42 69
REMARK SMILES IDX 45 70 39 71 40 72 43 73 41 74 67 75 68 76 76 77 69 78 70 79
REMARK SMILES IDX 74 80 77 81 71 82 72 83 75 84 73 85 52 86 53 87 61 88 54 89
REMARK SMILES IDX 55 90 59 91 62 92 56 93 57 94 60 95 58 96
REMARK H PARENT 19 5 90 14 5 17 23 30 82 49 50 60
REMARK Flexibility Score: inf
ROOT
ATOM      1  C   UNL A   1      32.312  26.520  26.480  1.00  0.00     0.118 C 
ENDROOT
BRANCH   1   2
ATOM      2  N   UNL A   1      31.234  25.636  26.877  1.00  0.00    -0.352 N 
ATOM      3  C   UNL A   1      30.998  24.323  26.495  1.00  0.00     0.255 C 
ATOM      4  O   UNL A   1      30.150  23.687  27.119  1.00  0.00    -0.269 OA
ATOM      5  H   UNL A   1      30.580  26.020  27.504  1.00  0.00     0.163 HD
BRANCH   3   6
ATOM      6  C   UNL A   1      31.739  23.692  25.353  1.00  0.00     0.083 A 
ATOM      7  C   UNL A   1      32.499  20.238  23.895  1.00  0.00     0.048 C 
ATOM      8  C   UNL A   1      32.403  21.727  24.074  1.00  0.00    -0.006 A 
ATOM      9  C   UNL A   1      32.933  22.570  23.081  1.00  0.00     0.033 A 
ATOM     10  C   UNL A   1      31.781  22.302  25.195  1.00  0.00     0.131 A 
ATOM     11  C   UNL A   1      32.937  23.957  23.234  1.00  0.00     0.042 A 
ATOM     12  C   UNL A   1      32.409  24.488  24.412  1.00  0.00     0.044 A 
BRANCH  10  13
ATOM     13  O   UNL A   1      31.161  21.496  26.109  1.00  0.00    -0.507 OA
ATOM     14  H   UNL A   1      31.126  20.570  25.969  1.00  0.00     0.293 HD
ENDBRANCH  10  13
BRANCH  11  15
ATOM     15  N   UNL A   1      33.358  24.731  22.127  1.00  0.00    -0.322 N 
ATOM     16  C   UNL A   1      32.675  25.573  21.286  1.00  0.00     0.248 C 
ATOM     17  H   UNL A   1      34.318  24.653  21.924  1.00  0.00     0.170 HD
ATOM     18  O   UNL A   1      33.107  25.860  20.174  1.00  0.00    -0.270 OA
BRANCH  16  19
ATOM     19  C   UNL A   1      31.455  26.194  21.816  1.00  0.00     0.075 C 
ATOM     20  C   UNL A   1      31.481  27.453  22.272  1.00  0.00     0.053 C 
BRANCH  20  21
ATOM     21  C   UNL A   1      30.245  28.151  22.353  1.00  0.00     0.126 A 
ATOM     22  C   UNL A   1      29.162  27.955  23.194  1.00  0.00     0.050 A 
ATOM     23  O   UNL A   1      29.999  29.305  21.634  1.00  0.00    -0.465 OA
ATOM     24  C   UNL A   1      28.270  29.045  23.020  1.00  0.00     0.042 A 
ATOM     25  C   UNL A   1      28.831  29.840  22.055  1.00  0.00     0.195 A 
ENDBRANCH  20  21
ENDBRANCH  16  19
ENDBRANCH  11  15
ENDBRANCH   3   6
ENDBRANCH   1   2
BRANCH   1  26
ATOM     26  C   UNL A   1      31.926  27.860  25.885  1.00  0.00     0.042 C 
BRANCH  26  27
ATOM     27  C   UNL A   1      32.995  28.944  25.880  1.00  0.00     0.118 C 
BRANCH  27  28
ATOM     28  N   UNL A   1      32.577  30.247  26.392  1.00  0.00    -0.352 N 
ATOM     29  C   UNL A   1      33.238  31.197  27.141  1.00  0.00     0.251 C 
ATOM     30  H   UNL A   1      31.653  30.492  26.159  1.00  0.00     0.163 HD
ATOM     31  O   UNL A   1      32.681  32.253  27.435  1.00  0.00    -0.269 OA
BRANCH  29  32
ATOM     32  C   UNL A   1      34.603  30.962  27.649  1.00  0.00     0.039 A 
ATOM     33  C   UNL A   1      35.496  32.037  27.736  1.00  0.00     0.014 A 
ATOM     34  C   UNL A   1      35.010  29.688  28.033  1.00  0.00     0.014 A 
ATOM     35  C   UNL A   1      36.751  31.856  28.323  1.00  0.00     0.010 A 
ATOM     36  C   UNL A   1      36.206  29.530  28.714  1.00  0.00     0.010 A 
ATOM     37  C   UNL A   1      37.085  30.612  28.876  1.00  0.00    -0.014 A 
BRANCH  37  38
ATOM     38  C   UNL A   1      38.333  30.375  29.640  1.00  0.00     0.031 A 
ATOM     39  C   UNL A   1      39.350  29.416  29.091  1.00  0.00     0.074 A 
ATOM     40  C   UNL A   1      38.452  30.868  30.889  1.00  0.00     0.049 A 
ATOM     41  N   UNL A   1      40.341  28.816  29.697  1.00  0.00    -0.248 NA
ATOM     42  C   UNL A   1      39.184  29.030  27.680  1.00  0.00     0.031 C 
ATOM     43  C   UNL A   1      37.496  31.763  31.543  1.00  0.00     0.029 A 
ATOM     44  N   UNL A   1      39.408  30.649  31.848  1.00  0.00    -0.354 N 
ATOM     45  C   UNL A   1      40.873  27.938  28.761  1.00  0.00     0.074 A 
ATOM     46  C   UNL A   1      40.074  28.056  27.562  1.00  0.00     0.031 C 
ATOM     47  C   UNL A   1      37.913  32.018  32.793  1.00  0.00     0.029 A 
ATOM     48  C   UNL A   1      39.137  31.267  33.044  1.00  0.00     0.049 A 
ATOM     49  H   UNL A   1      40.211  30.100  31.693  1.00  0.00     0.167 HD
ATOM     50  C   UNL A   1      41.943  27.117  28.894  1.00  0.00     0.037 A 
ATOM     51  C   UNL A   1      39.793  31.212  34.218  1.00  0.00     0.037 A 
ATOM     52  C   UNL A   1      42.761  27.065  30.076  1.00  0.00     0.049 A 
ATOM     53  C   UNL A   1      41.025  30.354  34.315  1.00  0.00     0.074 A 
ATOM     54  C   UNL A   1      43.915  26.336  30.299  1.00  0.00     0.029 A 
ATOM     55  N   UNL A   1      42.513  27.790  31.234  1.00  0.00    -0.354 N 
ATOM     56  N   UNL A   1      41.547  29.557  33.415  1.00  0.00    -0.248 NA
ATOM     57  C   UNL A   1      41.759  30.390  35.587  1.00  0.00     0.031 C 
ATOM     58  C   UNL A   1      44.353  26.603  31.601  1.00  0.00     0.029 A 
ATOM     59  C   UNL A   1      43.493  27.527  32.175  1.00  0.00     0.049 A 
ATOM     60  H   UNL A   1      41.752  28.401  31.365  1.00  0.00     0.167 HD
ATOM     61  C   UNL A   1      42.684  29.016  33.998  1.00  0.00     0.074 A 
ATOM     62  C   UNL A   1      42.782  29.586  35.326  1.00  0.00     0.031 C 
ATOM     63  C   UNL A   1      43.568  28.126  33.483  1.00  0.00     0.037 A 
BRANCH  50  64
ATOM     64  C   UNL A   1      42.285  26.226  27.734  1.00  0.00     0.064 A 
ATOM     65  C   UNL A   1      41.635  24.999  27.526  1.00  0.00     0.173 A 
ATOM     66  C   UNL A   1      43.273  26.606  26.812  1.00  0.00     0.173 A 
ATOM     67  F   UNL A   1      40.693  24.582  28.385  1.00  0.00    -0.203 F 
ATOM     68  C   UNL A   1      41.988  24.171  26.464  1.00  0.00     0.198 A 
ATOM     69  C   UNL A   1      43.598  25.789  25.731  1.00  0.00     0.198 A 
ATOM     70  F   UNL A   1      43.923  27.769  26.957  1.00  0.00    -0.203 F 
ATOM     71  F   UNL A   1      41.394  22.977  26.325  1.00  0.00    -0.200 F 
ATOM     72  C   UNL A   1      42.964  24.568  25.564  1.00  0.00     0.200 A 
ATOM     73  F   UNL A   1      44.534  26.181  24.854  1.00  0.00    -0.200 F 
ATOM     74  F   UNL A   1      43.300  23.770  24.541  1.00  0.00    -0.200 F 
ENDBRANCH  50  64
BRANCH  51  75
ATOM     75  C   UNL A   1      39.319  32.020  35.372  1.00  0.00     0.064 A 
ATOM     76  C   UNL A   1      39.666  33.373  35.483  1.00  0.00     0.173 A 
ATOM     77  C   UNL A   1      38.491  31.476  36.365  1.00  0.00     0.173 A 
ATOM     78  F   UNL A   1      40.468  33.934  34.567  1.00  0.00    -0.203 F 
ATOM     79  C   UNL A   1      39.217  34.149  36.550  1.00  0.00     0.198 A 
ATOM     80  C   UNL A   1      38.022  32.259  37.419  1.00  0.00     0.198 A 
ATOM     81  F   UNL A   1      38.121  30.189  36.301  1.00  0.00    -0.203 F 
ATOM     82  F   UNL A   1      39.594  35.431  36.648  1.00  0.00    -0.200 F 
ATOM     83  C   UNL A   1      38.389  33.593  37.514  1.00  0.00     0.200 A 
ATOM     84  F   UNL A   1      37.210  31.722  38.339  1.00  0.00    -0.200 F 
ATOM     85  F   UNL A   1      37.949  34.341  38.534  1.00  0.00    -0.200 F 
ENDBRANCH  51  75
BRANCH  63  86
ATOM     86  C   UNL A   1      44.734  27.749  34.344  1.00  0.00     0.064 A 
ATOM     87  C   UNL A   1      45.919  28.498  34.343  1.00  0.00     0.173 A 
ATOM     88  C   UNL A   1      44.641  26.656  35.220  1.00  0.00     0.173 A 
ATOM     89  F   UNL A   1      46.058  29.541  33.511  1.00  0.00    -0.203 F 
ATOM     90  C   UNL A   1      46.978  28.155  35.179  1.00  0.00     0.198 A 
ATOM     91  C   UNL A   1      45.691  26.334  36.071  1.00  0.00     0.198 A 
ATOM     92  F   UNL A   1      43.523  25.915  35.258  1.00  0.00    -0.203 F 
ATOM     93  F   UNL A   1      48.116  28.862  35.138  1.00  0.00    -0.200 F 
ATOM     94  C   UNL A   1      46.860  27.080  36.048  1.00  0.00     0.200 A 
ATOM     95  F   UNL A   1      45.572  25.302  36.918  1.00  0.00    -0.200 F 
ATOM     96  F   UNL A   1      47.877  26.759  36.860  1.00  0.00    -0.200 F 
ENDBRANCH  63  86
ENDBRANCH  37  38
ENDBRANCH  29  32
ENDBRANCH  27  28
ENDBRANCH  26  27
ENDBRANCH   1  26
TORSDOF 14
ENDMDL
MODEL 2
REMARK VINA RESULT:     -13.8      0.868      3.802
REMARK SMILES Cc1cc(NC(=O)/C=C/c2ccco2)cc(C(=O)NCCCNC(=O)c2ccc(-c3c4nc(c(-c5c(F)c(F)c(F)c(F)c5F)c5ccc([nH]5)c(-c5c(F)c(F)c(F)c(F)c5F)c5nc(c(-c6c(F)c(F)c(F)c(F)c6F)c6ccc3[nH]6)C=C5)C=C4)cc2)c1O
REMARK SMILES IDX 20 1 19 2 17 3 18 4 16 6 1 7 2 8 3 9 89 10 4 11 15 12 90 13
REMARK SMILES IDX 5 15 6 16 7 18 8 19 9 20 10 21 11 22 14 23 12 24 13 25 21 26
REMARK SMILES IDX 22 27 23 28 24 29 25 31 26 32 27 33 88 34 28 35 87 36 29 37
REMARK SMILES IDX 30 38 31 39 81 40 32 41 86 42 80 43 82 44 33 45 85 46 79 47
REMARK SMILES IDX 78 48 34 50 66 51 46 52 65 53 47 54 50 55 64 56 83 57 48 58
REMARK SMILES IDX 49 59 63 61 84 62 51 63 35 64 36 65 44 66 37 67 38 68 42 69
REMARK SMILES IDX 45 70 39 71 40 72 43 73 41 74 67 75 68 76 76 77 69 78 70 79
REMARK SMILES IDX 74 80 77 81 71 82 72 83 75 84 73 85 52 86 53 87 61 88 54 89
REMARK SMILES IDX 55 90 59 91 62 92 56 93 57 94 60 95 58 96
REMARK H PARENT 19 5 90 14 5 17 23 30 82 49 50 60
REMARK Flexibility Score: inf
ROOT
ATOM      1  C   UNL A   1      33.709  28.981  23.025  1.00  0.00     0.118 C 
ENDROOT
BRANCH   1   2
ATOM      2  N   UNL A   1      33.948  27.642  22.524  1.00  0.00    -0.352 N 
ATOM      3  C   UNL A   1      33.112  26.535  22.560  1.00  0.00     0.255 C 
ATOM      4  O   UNL A   1      33.424  25.556  21.885  1.00  0.00    -0.269 OA
ATOM      5  H   UNL A   1      34.825  27.498  22.099  1.00  0.00     0.163 HD
BRANCH   3   6
ATOM      6  C   UNL A   1      31.869  26.518  23.401  1.00  0.00     0.083 A 
ATOM      7  C   UNL A   1      28.223  27.668  23.277  1.00  0.00     0.048 C 
ATOM      8  C   UNL A   1      29.503  27.012  23.710  1.00  0.00    -0.006 A 
ATOM      9  C   UNL A   1      29.516  26.258  24.898  1.00  0.00     0.033 A 
ATOM     10  C   UNL A   1      30.682  27.110  22.954  1.00  0.00     0.131 A 
ATOM     11  C   UNL A   1      30.694  25.691  25.383  1.00  0.00     0.042 A 
ATOM     12  C   UNL A   1      31.870  25.903  24.662  1.00  0.00     0.044 A 
BRANCH  10  13
ATOM     13  O   UNL A   1      30.654  27.742  21.742  1.00  0.00    -0.507 OA
ATOM     14  H   UNL A   1      30.266  28.592  21.666  1.00  0.00     0.293 HD
ENDBRANCH  10  13
BRANCH  11  15
ATOM     15  N   UNL A   1      30.588  24.832  26.503  1.00  0.00    -0.322 N 
ATOM     16  C   UNL A   1      30.415  23.475  26.604  1.00  0.00     0.248 C 
ATOM     17  H   UNL A   1      30.653  25.294  27.371  1.00  0.00     0.170 HD
ATOM     18  O   UNL A   1      29.974  22.956  27.625  1.00  0.00    -0.270 OA
BRANCH  16  19
ATOM     19  C   UNL A   1      30.876  22.662  25.471  1.00  0.00     0.075 C 
ATOM     20  C   UNL A   1      31.933  21.852  25.607  1.00  0.00     0.053 C 
BRANCH  20  21
ATOM     21  C   UNL A   1      32.071  20.786  24.675  1.00  0.00     0.126 A 
ATOM     22  C   UNL A   1      32.212  20.817  23.298  1.00  0.00     0.050 A 
ATOM     23  O   UNL A   1      32.237  19.473  25.072  1.00  0.00    -0.465 OA
ATOM     24  C   UNL A   1      32.527  19.505  22.860  1.00  0.00     0.042 A 
ATOM     25  C   UNL A   1      32.529  18.724  23.986  1.00  0.00     0.195 A 
ENDBRANCH  20  21
ENDBRANCH  16  19
ENDBRANCH  11  15
ENDBRANCH   3   6
ENDBRANCH   1   2
BRANCH   1  26
ATOM     26  C   UNL A   1      34.168  29.285  24.437  1.00  0.00     0.042 C 
BRANCH  26  27
ATOM     27  C   UNL A   1      33.149  29.084  25.550  1.00  0.00     0.118 C 
BRANCH  27  28
ATOM     28  N   UNL A   1      32.657  30.304  26.186  1.00  0.00    -0.352 N 
ATOM     29  C   UNL A   1      33.247  31.188  27.063  1.00  0.00     0.251 C 
ATOM     30  H   UNL A   1      31.732  30.537  25.943  1.00  0.00     0.163 HD
ATOM     31  O   UNL A   1      32.635  32.182  27.449  1.00  0.00    -0.269 OA
BRANCH  29  32
ATOM     32  C   UNL A   1      34.602  30.950  27.598  1.00  0.00     0.039 A 
ATOM     33  C   UNL A   1      35.501  32.021  27.685  1.00  0.00     0.014 A 
ATOM     34  C   UNL A   1      34.992  29.679  28.007  1.00  0.00     0.014 A 
ATOM     35  C   UNL A   1      36.744  31.839  28.296  1.00  0.00     0.010 A 
ATOM     36  C   UNL A   1      36.175  29.522  28.711  1.00  0.00     0.010 A 
ATOM     37  C   UNL A   1      37.059  30.601  28.873  1.00  0.00    -0.014 A 
BRANCH  37  38
ATOM     38  C   UNL A   1      38.292  30.365  29.663  1.00  0.00     0.031 A 
ATOM     39  C   UNL A   1      39.327  29.417  29.129  1.00  0.00     0.074 A 
ATOM     40  C   UNL A   1      38.380  30.850  30.917  1.00  0.00     0.049 A 
ATOM     41  N   UNL A   1      40.308  28.818  29.751  1.00  0.00    -0.248 NA
ATOM     42  C   UNL A   1      39.194  29.040  27.711  1.00  0.00     0.031 C 
ATOM     43  C   UNL A   1      37.405  31.734  31.557  1.00  0.00     0.029 A 
ATOM     44  N   UNL A   1      39.317  30.629  31.895  1.00  0.00    -0.354 N 
ATOM     45  C   UNL A   1      40.866  27.950  28.820  1.00  0.00     0.074 A 
ATOM     46  C   UNL A   1      40.092  28.073  27.605  1.00  0.00     0.031 C 
ATOM     47  C   UNL A   1      37.794  31.982  32.817  1.00  0.00     0.029 A 
ATOM     48  C   UNL A   1      39.016  31.237  33.089  1.00  0.00     0.049 A 
ATOM     49  H   UNL A   1      40.127  30.087  31.753  1.00  0.00     0.167 HD
ATOM     50  C   UNL A   1      41.937  27.135  28.971  1.00  0.00     0.037 A 
ATOM     51  C   UNL A   1      39.647  31.177  34.277  1.00  0.00     0.037 A 
ATOM     52  C   UNL A   1      42.730  27.079  30.170  1.00  0.00     0.049 A 
ATOM     53  C   UNL A   1      40.882  30.326  34.395  1.00  0.00     0.074 A 
ATOM     54  C   UNL A   1      43.883  26.356  30.412  1.00  0.00     0.029 A 
ATOM     55  N   UNL A   1      42.452  27.794  31.327  1.00  0.00    -0.354 N 
ATOM     56  N   UNL A   1      41.429  29.538  33.500  1.00  0.00    -0.248 NA
ATOM     57  C   UNL A   1      41.588  30.356  35.682  1.00  0.00     0.031 C 
ATOM     58  C   UNL A   1      44.292  26.616  31.725  1.00  0.00     0.029 A 
ATOM     59  C   UNL A   1      43.414  27.530  32.288  1.00  0.00     0.049 A 
ATOM     60  H   UNL A   1      41.685  28.399  31.447  1.00  0.00     0.167 HD
ATOM     61  C   UNL A   1      42.556  29.000  34.103  1.00  0.00     0.074 A 
ATOM     62  C   UNL A   1      42.621  29.561  35.437  1.00  0.00     0.031 C 
ATOM     63  C   UNL A   1      43.456  28.120  33.601  1.00  0.00     0.037 A 
BRANCH  50  64
ATOM     64  C   UNL A   1      42.310  26.255  27.812  1.00  0.00     0.064 A 
ATOM     65  C   UNL A   1      41.720  24.996  27.618  1.00  0.00     0.173 A 
ATOM     66  C   UNL A   1      43.267  26.678  26.876  1.00  0.00     0.173 A 
ATOM     67  F   UNL A   1      40.810  24.537  28.491  1.00  0.00    -0.203 F 
ATOM     68  C   UNL A   1      42.101  24.179  26.558  1.00  0.00     0.198 A 
ATOM     69  C   UNL A   1      43.620  25.871  25.796  1.00  0.00     0.198 A 
ATOM     70  F   UNL A   1      43.860  27.873  27.006  1.00  0.00    -0.203 F 
ATOM     71  F   UNL A   1      41.567  22.956  26.432  1.00  0.00    -0.200 F 
ATOM     72  C   UNL A   1      43.046  24.619  25.643  1.00  0.00     0.200 A 
ATOM     73  F   UNL A   1      44.525  26.304  24.906  1.00  0.00    -0.200 F 
ATOM     74  F   UNL A   1      43.410  23.832  24.622  1.00  0.00    -0.200 F 
ENDBRANCH  50  64
BRANCH  51  75
ATOM     75  C   UNL A   1      39.143  31.973  35.426  1.00  0.00     0.064 A 
ATOM     76  C   UNL A   1      38.354  31.372  36.416  1.00  0.00     0.173 A 
ATOM     77  C   UNL A   1      39.456  33.332  35.578  1.00  0.00     0.173 A 
ATOM     78  F   UNL A   1      38.014  30.079  36.306  1.00  0.00    -0.203 F 
ATOM     79  C   UNL A   1      37.886  32.100  37.509  1.00  0.00     0.198 A 
ATOM     80  C   UNL A   1      39.009  34.054  36.684  1.00  0.00     0.198 A 
ATOM     81  F   UNL A   1      40.216  33.952  34.665  1.00  0.00    -0.203 F 
ATOM     82  F   UNL A   1      37.106  31.507  38.421  1.00  0.00    -0.200 F 
ATOM     83  C   UNL A   1      38.219  33.440  37.645  1.00  0.00     0.200 A 
ATOM     84  F   UNL A   1      39.346  35.343  36.820  1.00  0.00    -0.200 F 
ATOM     85  F   UNL A   1      37.778  34.137  38.700  1.00  0.00    -0.200 F 
ENDBRANCH  51  75
BRANCH  63  86
ATOM     86  C   UNL A   1      44.606  27.743  34.485  1.00  0.00     0.064 A 
ATOM     87  C   UNL A   1      44.547  26.622  35.326  1.00  0.00     0.173 A 
ATOM     88  C   UNL A   1      45.798  28.481  34.446  1.00  0.00     0.173 A 
ATOM     89  F   UNL A   1      43.421  25.897  35.406  1.00  0.00    -0.203 F 
ATOM     90  C   UNL A   1      45.639  26.264  36.110  1.00  0.00     0.198 A 
ATOM     91  C   UNL A   1      46.895  28.104  35.213  1.00  0.00     0.198 A 
ATOM     92  F   UNL A   1      45.901  29.557  33.652  1.00  0.00    -0.203 F 
ATOM     93  F   UNL A   1      45.551  25.210  36.935  1.00  0.00    -0.200 F 
ATOM     94  C   UNL A   1      46.814  26.999  36.047  1.00  0.00     0.200 A 
ATOM     95  F   UNL A   1      48.033  28.808  35.142  1.00  0.00    -0.200 F 
ATOM     96  F   UNL A   1      47.867  26.645  36.795  1.00  0.00    -0.200 F 
ENDBRANCH  63  86
ENDBRANCH  37  38
ENDBRANCH  29  32
ENDBRANCH  27  28
ENDBRANCH  26  27
ENDBRANCH   1  26
TORSDOF 14
ENDMDL
MODEL 3
REMARK VINA RESULT:     -13.8      0.873      3.804
REMARK SMILES Cc1cc(NC(=O)/C=C/c2ccco2)cc(C(=O)NCCCNC(=O)c2ccc(-c3c4nc(c(-c5c(F)c(F)c(F)c(F)c5F)c5ccc([nH]5)c(-c5c(F)c(F)c(F)c(F)c5F)c5nc(c(-c6c(F)c(F)c(F)c(F)c6F)c6ccc3[nH]6)C=C5)C=C4)cc2)c1O
REMARK SMILES IDX 20 1 19 2 17 3 18 4 16 6 1 7 2 8 3 9 89 10 4 11 15 12 90 13
REMARK SMILES IDX 5 15 6 16 7 18 8 19 9 20 10 21 11 22 14 23 12 24 13 25 21 26
REMARK SMILES IDX 22 27 23 28 24 29 25 31 26 32 27 33 88 34 28 35 87 36 29 37
REMARK SMILES IDX 30 38 31 39 81 40 32 41 86 42 80 43 82 44 33 45 85 46 79 47
REMARK SMILES IDX 78 48 34 50 66 51 46 52 65 53 47 54 50 55 64 56 83 57 48 58
REMARK SMILES IDX 49 59 63 61 84 62 51 63 35 64 36 65 44 66 37 67 38 68 42 69
REMARK SMILES IDX 45 70 39 71 40 72 43 73 41 74 67 75 68 76 76 77 69 78 70 79
REMARK SMILES IDX 74 80 77 81 71 82 72 83 75 84 73 85 52 86 53 87 61 88 54 89
REMARK SMILES IDX 55 90 59 91 62 92 56 93 57 94 60 95 58 96
REMARK H PARENT 19 5 90 14 5 17 23 30 82 49 50 60
REMARK Flexibility Score: inf
ROOT
ATOM      1  C   UNL A   1      33.734  28.971  23.093  1.00  0.00     0.118 C 
ENDROOT
BRANCH   1   2
ATOM      2  N   UNL A   1      33.968  27.646  22.554  1.00  0.00    -0.352 N 
ATOM      3  C   UNL A   1      33.135  26.536  22.574  1.00  0.00     0.255 C 
ATOM      4  O   UNL A   1      33.439  25.576  21.868  1.00  0.00    -0.269 OA
ATOM      5  H   UNL A   1      34.839  27.515  22.113  1.00  0.00     0.163 HD
BRANCH   3   6
ATOM      6  C   UNL A   1      31.905  26.494  23.432  1.00  0.00     0.083 A 
ATOM      7  C   UNL A   1      28.230  27.554  23.351  1.00  0.00     0.048 C 
ATOM      8  C   UNL A   1      29.531  26.931  23.770  1.00  0.00    -0.006 A 
ATOM      9  C   UNL A   1      29.579  26.187  24.963  1.00  0.00     0.033 A 
ATOM     10  C   UNL A   1      30.697  27.054  22.997  1.00  0.00     0.131 A 
ATOM     11  C   UNL A   1      30.778  25.652  25.436  1.00  0.00     0.042 A 
ATOM     12  C   UNL A   1      31.938  25.888  24.697  1.00  0.00     0.044 A 
BRANCH  10  13
ATOM     13  O   UNL A   1      30.636  27.677  21.781  1.00  0.00    -0.507 OA
ATOM     14  H   UNL A   1      31.330  27.563  21.162  1.00  0.00     0.293 HD
ENDBRANCH  10  13
BRANCH  11  15
ATOM     15  N   UNL A   1      30.708  24.799  26.562  1.00  0.00    -0.322 N 
ATOM     16  C   UNL A   1      30.538  23.443  26.675  1.00  0.00     0.248 C 
ATOM     17  H   UNL A   1      30.802  25.265  27.425  1.00  0.00     0.170 HD
ATOM     18  O   UNL A   1      30.131  22.929  27.712  1.00  0.00    -0.270 OA
BRANCH  16  19
ATOM     19  C   UNL A   1      30.961  22.624  25.532  1.00  0.00     0.075 C 
ATOM     20  C   UNL A   1      31.990  21.776  25.652  1.00  0.00     0.053 C 
BRANCH  20  21
ATOM     21  C   UNL A   1      32.084  20.715  24.710  1.00  0.00     0.126 A 
ATOM     22  C   UNL A   1      32.221  20.753  23.332  1.00  0.00     0.050 A 
ATOM     23  O   UNL A   1      32.200  19.393  25.094  1.00  0.00    -0.465 OA
ATOM     24  C   UNL A   1      32.483  19.433  22.882  1.00  0.00     0.042 A 
ATOM     25  C   UNL A   1      32.460  18.642  24.000  1.00  0.00     0.195 A 
ENDBRANCH  20  21
ENDBRANCH  16  19
ENDBRANCH  11  15
ENDBRANCH   3   6
ENDBRANCH   1   2
BRANCH   1  26
ATOM     26  C   UNL A   1      34.193  29.232  24.514  1.00  0.00     0.042 C 
BRANCH  26  27
ATOM     27  C   UNL A   1      33.161  29.037  25.616  1.00  0.00     0.118 C 
BRANCH  27  28
ATOM     28  N   UNL A   1      32.665  30.260  26.242  1.00  0.00    -0.352 N 
ATOM     29  C   UNL A   1      33.255  31.160  27.103  1.00  0.00     0.251 C 
ATOM     30  H   UNL A   1      31.736  30.483  26.005  1.00  0.00     0.163 HD
ATOM     31  O   UNL A   1      32.638  32.154  27.482  1.00  0.00    -0.269 OA
BRANCH  29  32
ATOM     32  C   UNL A   1      34.616  30.941  27.629  1.00  0.00     0.039 A 
ATOM     33  C   UNL A   1      35.500  32.025  27.718  1.00  0.00     0.014 A 
ATOM     34  C   UNL A   1      35.029  29.673  28.026  1.00  0.00     0.014 A 
ATOM     35  C   UNL A   1      36.749  31.859  28.320  1.00  0.00     0.010 A 
ATOM     36  C   UNL A   1      36.219  29.531  28.722  1.00  0.00     0.010 A 
ATOM     37  C   UNL A   1      37.087  30.622  28.886  1.00  0.00    -0.014 A 
BRANCH  37  38
ATOM     38  C   UNL A   1      38.328  30.401  29.667  1.00  0.00     0.031 A 
ATOM     39  C   UNL A   1      39.365  29.457  29.131  1.00  0.00     0.074 A 
ATOM     40  C   UNL A   1      38.423  30.894  30.917  1.00  0.00     0.049 A 
ATOM     41  N   UNL A   1      40.357  28.870  29.749  1.00  0.00    -0.248 NA
ATOM     42  C   UNL A   1      39.223  29.070  27.717  1.00  0.00     0.031 C 
ATOM     43  C   UNL A   1      37.446  31.775  31.560  1.00  0.00     0.029 A 
ATOM     44  N   UNL A   1      39.370  30.687  31.889  1.00  0.00    -0.354 N 
ATOM     45  C   UNL A   1      40.913  28.000  28.819  1.00  0.00     0.074 A 
ATOM     46  C   UNL A   1      40.128  28.109  27.610  1.00  0.00     0.031 C 
ATOM     47  C   UNL A   1      37.844  32.035  32.815  1.00  0.00     0.029 A 
ATOM     48  C   UNL A   1      39.075  31.301  33.082  1.00  0.00     0.049 A 
ATOM     49  H   UNL A   1      40.183  30.150  31.744  1.00  0.00     0.167 HD
ATOM     50  C   UNL A   1      41.992  27.194  28.966  1.00  0.00     0.037 A 
ATOM     51  C   UNL A   1      39.716  31.253  34.265  1.00  0.00     0.037 A 
ATOM     52  C   UNL A   1      42.795  27.152  30.158  1.00  0.00     0.049 A 
ATOM     53  C   UNL A   1      40.958  30.413  34.377  1.00  0.00     0.074 A 
ATOM     54  C   UNL A   1      43.956  26.439  30.395  1.00  0.00     0.029 A 
ATOM     55  N   UNL A   1      42.522  27.873  31.313  1.00  0.00    -0.354 N 
ATOM     56  N   UNL A   1      41.503  29.623  33.483  1.00  0.00    -0.248 NA
ATOM     57  C   UNL A   1      41.675  30.457  35.658  1.00  0.00     0.031 C 
ATOM     58  C   UNL A   1      44.373  26.711  31.703  1.00  0.00     0.029 A 
ATOM     59  C   UNL A   1      43.493  27.622  32.267  1.00  0.00     0.049 A 
ATOM     60  H   UNL A   1      41.751  28.473  31.435  1.00  0.00     0.167 HD
ATOM     61  C   UNL A   1      42.639  29.098  34.080  1.00  0.00     0.074 A 
ATOM     62  C   UNL A   1      42.712  29.668  35.410  1.00  0.00     0.031 C 
ATOM     63  C   UNL A   1      43.542  28.221  33.576  1.00  0.00     0.037 A 
BRANCH  50  64
ATOM     64  C   UNL A   1      42.362  26.309  27.810  1.00  0.00     0.064 A 
ATOM     65  C   UNL A   1      43.333  26.688  26.869  1.00  0.00     0.173 A 
ATOM     66  C   UNL A   1      41.744  25.060  27.643  1.00  0.00     0.173 A 
ATOM     67  F   UNL A   1      43.944  27.877  26.974  1.00  0.00    -0.203 F 
ATOM     68  C   UNL A   1      43.641  25.870  25.785  1.00  0.00     0.198 A 
ATOM     69  C   UNL A   1      42.080  24.229  26.576  1.00  0.00     0.198 A 
ATOM     70  F   UNL A   1      40.813  24.643  28.513  1.00  0.00    -0.203 F 
ATOM     71  F   UNL A   1      44.526  26.284  24.868  1.00  0.00    -0.200 F 
ATOM     72  C   UNL A   1      43.020  24.639  25.642  1.00  0.00     0.200 A 
ATOM     73  F   UNL A   1      41.487  23.034  26.446  1.00  0.00    -0.200 F 
ATOM     74  F   UNL A   1      43.319  23.852  24.600  1.00  0.00    -0.200 F 
ENDBRANCH  50  64
BRANCH  51  75
ATOM     75  C   UNL A   1      39.215  32.053  35.412  1.00  0.00     0.064 A 
ATOM     76  C   UNL A   1      38.432  31.455  36.409  1.00  0.00     0.173 A 
ATOM     77  C   UNL A   1      39.527  33.413  35.558  1.00  0.00     0.173 A 
ATOM     78  F   UNL A   1      38.093  30.161  36.305  1.00  0.00    -0.203 F 
ATOM     79  C   UNL A   1      37.968  32.187  37.500  1.00  0.00     0.198 A 
ATOM     80  C   UNL A   1      39.083  34.139  36.662  1.00  0.00     0.198 A 
ATOM     81  F   UNL A   1      40.281  34.031  34.638  1.00  0.00    -0.203 F 
ATOM     82  F   UNL A   1      37.192  31.596  38.418  1.00  0.00    -0.200 F 
ATOM     83  C   UNL A   1      38.299  33.527  37.629  1.00  0.00     0.200 A 
ATOM     84  F   UNL A   1      39.419  35.430  36.792  1.00  0.00    -0.200 F 
ATOM     85  F   UNL A   1      37.861  34.228  38.683  1.00  0.00    -0.200 F 
ENDBRANCH  51  75
BRANCH  63  86
ATOM     86  C   UNL A   1      44.702  27.858  34.453  1.00  0.00     0.064 A 
ATOM     87  C   UNL A   1      45.881  28.618  34.460  1.00  0.00     0.173 A 
ATOM     88  C   UNL A   1      44.608  26.771  35.334  1.00  0.00     0.173 A 
ATOM     89  F   UNL A   1      46.020  29.656  33.623  1.00  0.00    -0.203 F 
ATOM     90  C   UNL A   1      46.933  28.289  35.310  1.00  0.00     0.198 A 
ATOM     91  C   UNL A   1      45.652  26.462  36.199  1.00  0.00     0.198 A 
ATOM     92  F   UNL A   1      43.497  26.021  35.365  1.00  0.00    -0.203 F 
ATOM     93  F   UNL A   1      48.066  29.005  35.276  1.00  0.00    -0.200 F 
ATOM     94  C   UNL A   1      46.815  27.218  36.184  1.00  0.00     0.200 A 
ATOM     95  F   UNL A   1      45.533  25.435  37.051  1.00  0.00    -0.200 F 
ATOM     96  F   UNL A   1      47.825  26.912  37.008  1.00  0.00    -0.200 F 
ENDBRANCH  63  86
ENDBRANCH  37  38
ENDBRANCH  29  32
ENDBRANCH  27  28
ENDBRANCH  26  27
ENDBRANCH   1  26
TORSDOF 14
ENDMDL
