MODEL 1
REMARK VINA RESULT:      -9.7      0.000      0.000
REMARK SMILES O=C(/C=C/C(=O)NCc1ccc(-c2cccs2)s1)NCCCNC(=O)c1ccc(-c2c3nc(c(-c4c(F)c(F)c(F)c(F)c4F)c4ccc([nH]4)c(-c4c(F)c(F)c(F)c(F)c4F)c4nc(c(-c5c(F)c(F)c(F)c(F)c5F)c5ccc2[nH]5)C=C4)C=C3)cc1
REMARK SMILES IDX 20 1 19 2 1 3 2 4 3 6 4 7 5 8 6 9 7 10 8 12 9 13 10 14 18 15
REMARK SMILES IDX 11 16 12 17 13 18 14 19 17 20 15 21 16 22 21 23 22 24 23 25
REMARK SMILES IDX 24 26 25 28 26 29 27 30 88 31 28 32 87 33 29 34 30 35 31 36
REMARK SMILES IDX 81 37 32 38 86 39 80 40 82 41 33 42 85 43 79 44 78 45 34 47
REMARK SMILES IDX 66 48 46 49 65 50 47 51 50 52 64 53 83 54 48 55 49 56 63 58
REMARK SMILES IDX 84 59 51 60 35 61 36 62 44 63 37 64 38 65 42 66 45 67 39 68
REMARK SMILES IDX 40 69 43 70 41 71 67 72 68 73 76 74 69 75 70 76 74 77 77 78
REMARK SMILES IDX 71 79 72 80 75 81 73 82 52 83 53 84 61 85 54 86 55 87 59 88
REMARK SMILES IDX 62 89 56 90 57 91 60 92 58 93
REMARK H PARENT 19 5 7 11 23 27 82 46 50 57
REMARK Flexibility Score: inf
ROOT
ATOM      1  C   UNL A   1      36.511  33.140  30.615  1.00  0.00     0.118 C 
ENDROOT
BRANCH   1   2
ATOM      2  N   UNL A   1      37.020  32.249  31.639  1.00  0.00    -0.352 N 
ATOM      3  O   UNL A   1      36.565  33.646  33.409  1.00  0.00    -0.270 OA
ATOM      4  C   UNL A   1      36.976  32.583  32.967  1.00  0.00     0.244 C 
ATOM      5  H   UNL A   1      37.406  31.382  31.373  1.00  0.00     0.163 HD
BRANCH   4   6
ATOM      6  C   UNL A   1      37.398  31.513  33.898  1.00  0.00     0.077 C 
ATOM      7  C   UNL A   1      38.076  31.779  35.018  1.00  0.00     0.077 C 
BRANCH   7   8
ATOM      8  C   UNL A   1      38.525  30.802  36.031  1.00  0.00     0.244 C 
ATOM      9  O   UNL A   1      37.780  30.581  36.986  1.00  0.00    -0.270 OA
ATOM     10  N   UNL A   1      39.665  30.085  35.916  1.00  0.00    -0.348 N 
ATOM     11  H   UNL A   1      39.811  29.464  36.665  1.00  0.00     0.164 HD
BRANCH  10  12
ATOM     12  C   UNL A   1      40.719  30.041  34.920  1.00  0.00     0.163 C 
BRANCH  12  13
ATOM     13  C   UNL A   1      41.472  28.753  35.084  1.00  0.00     0.024 A 
ATOM     14  C   UNL A   1      41.673  28.025  36.243  1.00  0.00     0.018 A 
ATOM     15  S   UNL A   1      42.176  27.965  33.733  1.00  0.00    -0.138 S 
ATOM     16  C   UNL A   1      42.393  26.821  36.013  1.00  0.00     0.022 A 
ATOM     17  C   UNL A   1      42.723  26.651  34.685  1.00  0.00     0.045 A 
BRANCH  17  18
ATOM     18  C   UNL A   1      43.391  25.508  34.128  1.00  0.00     0.044 A 
ATOM     19  C   UNL A   1      44.145  25.490  32.970  1.00  0.00     0.021 A 
ATOM     20  S   UNL A   1      43.266  23.945  34.816  1.00  0.00    -0.143 S 
ATOM     21  C   UNL A   1      44.609  24.184  32.640  1.00  0.00     0.012 A 
ATOM     22  C   UNL A   1      44.190  23.245  33.556  1.00  0.00     0.065 A 
ENDBRANCH  17  18
ENDBRANCH  12  13
ENDBRANCH  10  12
ENDBRANCH   7   8
ENDBRANCH   4   6
ENDBRANCH   1   2
BRANCH   1  23
ATOM     23  C   UNL A   1      35.064  32.848  30.234  1.00  0.00     0.042 C 
BRANCH  23  24
ATOM     24  C   UNL A   1      34.807  32.774  28.733  1.00  0.00     0.118 C 
BRANCH  24  25
ATOM     25  N   UNL A   1      34.095  31.568  28.333  1.00  0.00    -0.352 N 
ATOM     26  C   UNL A   1      34.549  30.295  28.100  1.00  0.00     0.251 C 
ATOM     27  H   UNL A   1      33.125  31.687  28.211  1.00  0.00     0.163 HD
ATOM     28  O   UNL A   1      33.783  29.462  27.621  1.00  0.00    -0.269 OA
BRANCH  26  29
ATOM     29  C   UNL A   1      35.946  29.912  28.401  1.00  0.00     0.039 A 
ATOM     30  C   UNL A   1      36.917  30.097  27.410  1.00  0.00     0.014 A 
ATOM     31  C   UNL A   1      36.301  29.328  29.619  1.00  0.00     0.014 A 
ATOM     32  C   UNL A   1      38.245  29.742  27.658  1.00  0.00     0.010 A 
ATOM     33  C   UNL A   1      37.639  29.053  29.896  1.00  0.00     0.010 A 
ATOM     34  C   UNL A   1      38.623  29.241  28.915  1.00  0.00    -0.014 A 
BRANCH  34  35
ATOM     35  C   UNL A   1      40.035  28.877  29.202  1.00  0.00     0.031 A 
ATOM     36  C   UNL A   1      40.920  29.829  29.963  1.00  0.00     0.074 A 
ATOM     37  C   UNL A   1      40.535  27.714  28.744  1.00  0.00     0.049 A 
ATOM     38  N   UNL A   1      42.188  29.717  30.271  1.00  0.00    -0.248 NA
ATOM     39  C   UNL A   1      40.305  31.087  30.413  1.00  0.00     0.031 C 
ATOM     40  C   UNL A   1      39.794  26.726  27.959  1.00  0.00     0.029 A 
ATOM     41  N   UNL A   1      41.789  27.167  28.866  1.00  0.00    -0.354 N 
ATOM     42  C   UNL A   1      42.522  30.890  30.935  1.00  0.00     0.074 A 
ATOM     43  C   UNL A   1      41.342  31.727  30.932  1.00  0.00     0.031 C 
ATOM     44  C   UNL A   1      40.597  25.684  27.692  1.00  0.00     0.029 A 
ATOM     45  C   UNL A   1      41.919  25.946  28.252  1.00  0.00     0.049 A 
ATOM     46  H   UNL A   1      42.525  27.610  29.347  1.00  0.00     0.167 HD
ATOM     47  C   UNL A   1      43.696  31.229  31.519  1.00  0.00     0.037 A 
ATOM     48  C   UNL A   1      42.987  25.131  28.150  1.00  0.00     0.037 A 
ATOM     49  C   UNL A   1      44.861  30.384  31.541  1.00  0.00     0.049 A 
ATOM     50  C   UNL A   1      44.284  25.535  28.799  1.00  0.00     0.074 A 
ATOM     51  C   UNL A   1      46.081  30.612  32.151  1.00  0.00     0.029 A 
ATOM     52  N   UNL A   1      44.949  29.145  30.921  1.00  0.00    -0.354 N 
ATOM     53  N   UNL A   1      44.567  26.616  29.483  1.00  0.00    -0.248 NA
ATOM     54  C   UNL A   1      45.408  24.597  28.671  1.00  0.00     0.031 C 
ATOM     55  C   UNL A   1      46.926  29.537  31.856  1.00  0.00     0.029 A 
ATOM     56  C   UNL A   1      46.212  28.608  31.116  1.00  0.00     0.049 A 
ATOM     57  H   UNL A   1      44.222  28.712  30.418  1.00  0.00     0.167 HD
ATOM     58  C   UNL A   1      45.886  26.474  29.896  1.00  0.00     0.074 A 
ATOM     59  C   UNL A   1      46.342  25.194  29.397  1.00  0.00     0.031 C 
ATOM     60  C   UNL A   1      46.648  27.326  30.625  1.00  0.00     0.037 A 
BRANCH  47  61
ATOM     61  C   UNL A   1      43.778  32.574  32.185  1.00  0.00     0.064 A 
ATOM     62  C   UNL A   1      44.008  33.748  31.451  1.00  0.00     0.173 A 
ATOM     63  C   UNL A   1      43.592  32.693  33.571  1.00  0.00     0.173 A 
ATOM     64  F   UNL A   1      44.202  33.689  30.125  1.00  0.00    -0.203 F 
ATOM     65  C   UNL A   1      44.084  34.987  32.084  1.00  0.00     0.198 A 
ATOM     66  C   UNL A   1      43.634  33.938  34.195  1.00  0.00     0.198 A 
ATOM     67  F   UNL A   1      43.362  31.606  34.321  1.00  0.00    -0.203 F 
ATOM     68  F   UNL A   1      44.360  36.086  31.369  1.00  0.00    -0.200 F 
ATOM     69  C   UNL A   1      43.888  35.082  33.453  1.00  0.00     0.200 A 
ATOM     70  F   UNL A   1      43.430  34.030  35.517  1.00  0.00    -0.200 F 
ATOM     71  F   UNL A   1      43.954  36.275  34.060  1.00  0.00    -0.200 F 
ENDBRANCH  47  61
BRANCH  48  72
ATOM     72  C   UNL A   1      42.869  23.838  27.426  1.00  0.00     0.064 A 
ATOM     73  C   UNL A   1      43.234  23.731  26.076  1.00  0.00     0.173 A 
ATOM     74  C   UNL A   1      42.378  22.687  28.061  1.00  0.00     0.173 A 
ATOM     75  F   UNL A   1      43.690  24.807  25.420  1.00  0.00    -0.203 F 
ATOM     76  C   UNL A   1      43.087  22.531  25.383  1.00  0.00     0.198 A 
ATOM     77  C   UNL A   1      42.262  21.479  27.374  1.00  0.00     0.198 A 
ATOM     78  F   UNL A   1      42.018  22.732  29.352  1.00  0.00    -0.203 F 
ATOM     79  F   UNL A   1      43.394  22.472  24.079  1.00  0.00    -0.200 F 
ATOM     80  C   UNL A   1      42.607  21.406  26.034  1.00  0.00     0.200 A 
ATOM     81  F   UNL A   1      41.811  20.390  28.011  1.00  0.00    -0.200 F 
ATOM     82  F   UNL A   1      42.468  20.252  25.366  1.00  0.00    -0.200 F 
ENDBRANCH  48  72
BRANCH  60  83
ATOM     83  C   UNL A   1      48.041  26.880  30.972  1.00  0.00     0.064 A 
ATOM     84  C   UNL A   1      49.130  27.119  30.120  1.00  0.00     0.173 A 
ATOM     85  C   UNL A   1      48.293  26.239  32.195  1.00  0.00     0.173 A 
ATOM     86  F   UNL A   1      48.942  27.717  28.935  1.00  0.00    -0.203 F 
ATOM     87  C   UNL A   1      50.414  26.703  30.466  1.00  0.00     0.198 A 
ATOM     88  C   UNL A   1      49.582  25.856  32.552  1.00  0.00     0.198 A 
ATOM     89  F   UNL A   1      47.289  25.995  33.051  1.00  0.00    -0.203 F 
ATOM     90  F   UNL A   1      51.429  26.893  29.612  1.00  0.00    -0.200 F 
ATOM     91  C   UNL A   1      50.640  26.080  31.684  1.00  0.00     0.200 A 
ATOM     92  F   UNL A   1      49.801  25.270  33.737  1.00  0.00    -0.200 F 
ATOM     93  F   UNL A   1      51.877  25.688  32.018  1.00  0.00    -0.200 F 
ENDBRANCH  60  83
ENDBRANCH  34  35
ENDBRANCH  26  29
ENDBRANCH  24  25
ENDBRANCH  23  24
ENDBRANCH   1  23
TORSDOF 14
ENDMDL
MODEL 2
REMARK VINA RESULT:      -9.7      5.696     10.281
REMARK SMILES O=C(/C=C/C(=O)NCc1ccc(-c2cccs2)s1)NCCCNC(=O)c1ccc(-c2c3nc(c(-c4c(F)c(F)c(F)c(F)c4F)c4ccc([nH]4)c(-c4c(F)c(F)c(F)c(F)c4F)c4nc(c(-c5c(F)c(F)c(F)c(F)c5F)c5ccc2[nH]5)C=C4)C=C3)cc1
REMARK SMILES IDX 20 1 19 2 1 3 2 4 3 6 4 7 5 8 6 9 7 10 8 12 9 13 10 14 18 15
REMARK SMILES IDX 11 16 12 17 13 18 14 19 17 20 15 21 16 22 21 23 22 24 23 25
REMARK SMILES IDX 24 26 25 28 26 29 27 30 88 31 28 32 87 33 29 34 30 35 31 36
REMARK SMILES IDX 81 37 32 38 86 39 80 40 82 41 33 42 85 43 79 44 78 45 34 47
REMARK SMILES IDX 66 48 46 49 65 50 47 51 50 52 64 53 83 54 48 55 49 56 63 58
REMARK SMILES IDX 84 59 51 60 35 61 36 62 44 63 37 64 38 65 42 66 45 67 39 68
REMARK SMILES IDX 40 69 43 70 41 71 67 72 68 73 76 74 69 75 70 76 74 77 77 78
REMARK SMILES IDX 71 79 72 80 75 81 73 82 52 83 53 84 61 85 54 86 55 87 59 88
REMARK SMILES IDX 62 89 56 90 57 91 60 92 58 93
REMARK H PARENT 19 5 7 11 23 27 82 46 50 57
REMARK Flexibility Score: inf
ROOT
ATOM      1  C   UNL A   1      39.104  22.278  25.783  1.00  0.00     0.118 C 
ENDROOT
BRANCH   1   2
ATOM      2  N   UNL A   1      37.893  22.365  24.990  1.00  0.00    -0.352 N 
ATOM      3  O   UNL A   1      36.903  24.010  26.257  1.00  0.00    -0.270 OA
ATOM      4  C   UNL A   1      36.898  23.257  25.295  1.00  0.00     0.244 C 
ATOM      5  H   UNL A   1      37.783  21.768  24.214  1.00  0.00     0.163 HD
BRANCH   4   6
ATOM      6  C   UNL A   1      35.795  23.327  24.312  1.00  0.00     0.077 C 
ATOM      7  C   UNL A   1      34.962  24.371  24.258  1.00  0.00     0.077 C 
BRANCH   7   8
ATOM      8  C   UNL A   1      33.847  24.563  23.309  1.00  0.00     0.244 C 
ATOM      9  O   UNL A   1      34.079  25.178  22.267  1.00  0.00    -0.270 OA
ATOM     10  N   UNL A   1      32.619  24.029  23.490  1.00  0.00    -0.348 N 
ATOM     11  H   UNL A   1      31.995  24.233  22.757  1.00  0.00     0.164 HD
BRANCH  10  12
ATOM     12  C   UNL A   1      32.028  23.218  24.538  1.00  0.00     0.163 C 
BRANCH  12  13
ATOM     13  C   UNL A   1      32.256  21.773  24.203  1.00  0.00     0.024 A 
ATOM     14  C   UNL A   1      32.078  21.141  22.985  1.00  0.00     0.018 A 
ATOM     15  S   UNL A   1      32.852  20.678  25.381  1.00  0.00    -0.138 S 
ATOM     16  C   UNL A   1      32.444  19.768  23.024  1.00  0.00     0.022 A 
ATOM     17  C   UNL A   1      32.895  19.379  24.267  1.00  0.00     0.045 A 
BRANCH  17  18
ATOM     18  C   UNL A   1      33.397  18.075  24.605  1.00  0.00     0.044 A 
ATOM     19  C   UNL A   1      34.591  17.528  24.179  1.00  0.00     0.021 A 
ATOM     20  S   UNL A   1      32.503  16.966  25.555  1.00  0.00    -0.143 S 
ATOM     21  C   UNL A   1      34.765  16.184  24.622  1.00  0.00     0.012 A 
ATOM     22  C   UNL A   1      33.695  15.750  25.372  1.00  0.00     0.065 A 
ENDBRANCH  17  18
ENDBRANCH  12  13
ENDBRANCH  10  12
ENDBRANCH   7   8
ENDBRANCH   4   6
ENDBRANCH   1   2
BRANCH   1  23
ATOM     23  C   UNL A   1      39.300  20.912  26.428  1.00  0.00     0.042 C 
BRANCH  23  24
ATOM     24  C   UNL A   1      39.528  19.772  25.440  1.00  0.00     0.118 C 
BRANCH  24  25
ATOM     25  N   UNL A   1      40.592  18.866  25.848  1.00  0.00    -0.352 N 
ATOM     26  C   UNL A   1      41.869  19.119  26.280  1.00  0.00     0.251 C 
ATOM     27  H   UNL A   1      40.354  17.911  25.807  1.00  0.00     0.163 HD
ATOM     28  O   UNL A   1      42.650  18.183  26.428  1.00  0.00    -0.269 OA
BRANCH  26  29
ATOM     29  C   UNL A   1      42.325  20.499  26.556  1.00  0.00     0.039 A 
ATOM     30  C   UNL A   1      42.757  21.287  25.484  1.00  0.00     0.014 A 
ATOM     31  C   UNL A   1      42.383  21.007  27.856  1.00  0.00     0.014 A 
ATOM     32  C   UNL A   1      43.199  22.593  25.709  1.00  0.00     0.010 A 
ATOM     33  C   UNL A   1      42.743  22.336  28.070  1.00  0.00     0.010 A 
ATOM     34  C   UNL A   1      43.170  23.138  27.003  1.00  0.00    -0.014 A 
BRANCH  34  35
ATOM     35  C   UNL A   1      43.618  24.533  27.257  1.00  0.00     0.031 A 
ATOM     36  C   UNL A   1      42.639  25.561  27.758  1.00  0.00     0.074 A 
ATOM     37  C   UNL A   1      44.891  24.887  26.997  1.00  0.00     0.049 A 
ATOM     38  N   UNL A   1      42.822  26.836  27.994  1.00  0.00    -0.248 NA
ATOM     39  C   UNL A   1      41.262  25.100  28.000  1.00  0.00     0.031 C 
ATOM     40  C   UNL A   1      45.925  23.996  26.469  1.00  0.00     0.029 A 
ATOM     41  N   UNL A   1      45.532  26.094  27.135  1.00  0.00    -0.354 N 
ATOM     42  C   UNL A   1      41.587  27.328  28.396  1.00  0.00     0.074 A 
ATOM     43  C   UNL A   1      40.648  26.230  28.314  1.00  0.00     0.031 C 
ATOM     44  C   UNL A   1      47.076  24.678  26.352  1.00  0.00     0.029 A 
ATOM     45  C   UNL A   1      46.853  26.062  26.759  1.00  0.00     0.049 A 
ATOM     46  H   UNL A   1      45.086  26.905  27.471  1.00  0.00     0.167 HD
ATOM     47  C   UNL A   1      41.269  28.574  28.822  1.00  0.00     0.037 A 
ATOM     48  C   UNL A   1      47.777  27.041  26.742  1.00  0.00     0.037 A 
ATOM     49  C   UNL A   1      42.211  29.657  28.926  1.00  0.00     0.049 A 
ATOM     50  C   UNL A   1      47.396  28.421  27.212  1.00  0.00     0.074 A 
ATOM     51  C   UNL A   1      42.000  30.941  29.396  1.00  0.00     0.029 A 
ATOM     52  N   UNL A   1      43.544  29.582  28.551  1.00  0.00    -0.354 N 
ATOM     53  N   UNL A   1      46.242  28.856  27.654  1.00  0.00    -0.248 NA
ATOM     54  C   UNL A   1      48.452  29.442  27.188  1.00  0.00     0.031 C 
ATOM     55  C   UNL A   1      43.192  31.660  29.255  1.00  0.00     0.029 A 
ATOM     56  C   UNL A   1      44.163  30.805  28.757  1.00  0.00     0.049 A 
ATOM     57  H   UNL A   1      43.986  28.779  28.191  1.00  0.00     0.167 HD
ATOM     58  C   UNL A   1      46.441  30.188  27.996  1.00  0.00     0.074 A 
ATOM     59  C   UNL A   1      47.831  30.484  27.721  1.00  0.00     0.031 C 
ATOM     60  C   UNL A   1      45.552  31.083  28.493  1.00  0.00     0.037 A 
BRANCH  47  61
ATOM     61  C   UNL A   1      39.840  28.832  29.211  1.00  0.00     0.064 A 
ATOM     62  C   UNL A   1      39.383  28.627  30.522  1.00  0.00     0.173 A 
ATOM     63  C   UNL A   1      38.923  29.320  28.267  1.00  0.00     0.173 A 
ATOM     64  F   UNL A   1      40.215  28.152  31.461  1.00  0.00    -0.203 F 
ATOM     65  C   UNL A   1      38.055  28.868  30.866  1.00  0.00     0.198 A 
ATOM     66  C   UNL A   1      37.604  29.593  28.623  1.00  0.00     0.198 A 
ATOM     67  F   UNL A   1      39.306  29.541  27.001  1.00  0.00    -0.203 F 
ATOM     68  F   UNL A   1      37.631  28.612  32.111  1.00  0.00    -0.200 F 
ATOM     69  C   UNL A   1      37.169  29.359  29.919  1.00  0.00     0.200 A 
ATOM     70  F   UNL A   1      36.753  30.081  27.710  1.00  0.00    -0.200 F 
ATOM     71  F   UNL A   1      35.893  29.598  30.253  1.00  0.00    -0.200 F 
ENDBRANCH  47  61
BRANCH  48  72
ATOM     72  C   UNL A   1      49.163  26.748  26.290  1.00  0.00     0.064 A 
ATOM     73  C   UNL A   1      50.129  26.274  27.189  1.00  0.00     0.173 A 
ATOM     74  C   UNL A   1      49.555  26.948  24.958  1.00  0.00     0.173 A 
ATOM     75  F   UNL A   1      49.810  26.086  28.478  1.00  0.00    -0.203 F 
ATOM     76  C   UNL A   1      51.440  26.037  26.780  1.00  0.00     0.198 A 
ATOM     77  C   UNL A   1      50.858  26.678  24.543  1.00  0.00     0.198 A 
ATOM     78  F   UNL A   1      48.670  27.395  24.056  1.00  0.00    -0.203 F 
ATOM     79  F   UNL A   1      52.356  25.635  27.672  1.00  0.00    -0.200 F 
ATOM     80  C   UNL A   1      51.802  26.234  25.456  1.00  0.00     0.200 A 
ATOM     81  F   UNL A   1      51.200  26.857  23.259  1.00  0.00    -0.200 F 
ATOM     82  F   UNL A   1      53.062  26.003  25.063  1.00  0.00    -0.200 F 
ENDBRANCH  48  72
BRANCH  60  83
ATOM     83  C   UNL A   1      46.067  32.456  28.823  1.00  0.00     0.064 A 
ATOM     84  C   UNL A   1      46.062  33.495  27.881  1.00  0.00     0.173 A 
ATOM     85  C   UNL A   1      46.535  32.743  30.114  1.00  0.00     0.173 A 
ATOM     86  F   UNL A   1      45.637  33.270  26.629  1.00  0.00    -0.203 F 
ATOM     87  C   UNL A   1      46.537  34.762  28.211  1.00  0.00     0.198 A 
ATOM     88  C   UNL A   1      46.977  34.019  30.450  1.00  0.00     0.198 A 
ATOM     89  F   UNL A   1      46.553  31.787  31.056  1.00  0.00    -0.203 F 
ATOM     90  F   UNL A   1      46.575  35.724  27.279  1.00  0.00    -0.200 F 
ATOM     91  C   UNL A   1      46.986  35.025  29.496  1.00  0.00     0.200 A 
ATOM     92  F   UNL A   1      47.394  34.275  31.698  1.00  0.00    -0.200 F 
ATOM     93  F   UNL A   1      47.436  36.246  29.814  1.00  0.00    -0.200 F 
ENDBRANCH  60  83
ENDBRANCH  34  35
ENDBRANCH  26  29
ENDBRANCH  24  25
ENDBRANCH  23  24
ENDBRANCH   1  23
TORSDOF 14
ENDMDL
MODEL 3
REMARK VINA RESULT:      -9.7      4.951     10.663
REMARK SMILES O=C(/C=C/C(=O)NCc1ccc(-c2cccs2)s1)NCCCNC(=O)c1ccc(-c2c3nc(c(-c4c(F)c(F)c(F)c(F)c4F)c4ccc([nH]4)c(-c4c(F)c(F)c(F)c(F)c4F)c4nc(c(-c5c(F)c(F)c(F)c(F)c5F)c5ccc2[nH]5)C=C4)C=C3)cc1
REMARK SMILES IDX 20 1 19 2 1 3 2 4 3 6 4 7 5 8 6 9 7 10 8 12 9 13 10 14 18 15
REMARK SMILES IDX 11 16 12 17 13 18 14 19 17 20 15 21 16 22 21 23 22 24 23 25
REMARK SMILES IDX 24 26 25 28 26 29 27 30 88 31 28 32 87 33 29 34 30 35 31 36
REMARK SMILES IDX 81 37 32 38 86 39 80 40 82 41 33 42 85 43 79 44 78 45 34 47
REMARK SMILES IDX 66 48 46 49 65 50 47 51 50 52 64 53 83 54 48 55 49 56 63 58
REMARK SMILES IDX 84 59 51 60 35 61 36 62 44 63 37 64 38 65 42 66 45 67 39 68
REMARK SMILES IDX 40 69 43 70 41 71 67 72 68 73 76 74 69 75 70 76 74 77 77 78
REMARK SMILES IDX 71 79 72 80 75 81 73 82 52 83 53 84 61 85 54 86 55 87 59 88
REMARK SMILES IDX 62 89 56 90 57 91 60 92 58 93
REMARK H PARENT 19 5 7 11 23 27 82 46 50 57
REMARK Flexibility Score: inf
ROOT
ATOM      1  C   UNL A   1      31.755  30.059  27.066  1.00  0.00     0.118 C 
ENDROOT
BRANCH   1   2
ATOM      2  N   UNL A   1      31.727  29.161  25.929  1.00  0.00    -0.352 N 
ATOM      3  O   UNL A   1      34.007  28.886  25.792  1.00  0.00    -0.270 OA
ATOM      4  C   UNL A   1      32.877  28.630  25.403  1.00  0.00     0.244 C 
ATOM      5  H   UNL A   1      30.860  28.926  25.523  1.00  0.00     0.163 HD
BRANCH   4   6
ATOM      6  C   UNL A   1      32.675  27.621  24.342  1.00  0.00     0.077 C 
ATOM      7  C   UNL A   1      33.614  26.721  24.035  1.00  0.00     0.077 C 
BRANCH   7   8
ATOM      8  C   UNL A   1      33.516  25.654  23.018  1.00  0.00     0.244 C 
ATOM      9  O   UNL A   1      33.881  25.918  21.872  1.00  0.00    -0.270 OA
ATOM     10  N   UNL A   1      33.127  24.392  23.303  1.00  0.00    -0.348 N 
ATOM     11  H   UNL A   1      33.134  23.797  22.519  1.00  0.00     0.164 HD
BRANCH  10  12
ATOM     12  C   UNL A   1      32.701  23.730  24.522  1.00  0.00     0.163 C 
BRANCH  12  13
ATOM     13  C   UNL A   1      33.345  22.375  24.574  1.00  0.00     0.024 A 
ATOM     14  C   UNL A   1      34.658  22.067  24.884  1.00  0.00     0.018 A 
ATOM     15  S   UNL A   1      32.434  20.952  24.276  1.00  0.00    -0.138 S 
ATOM     16  C   UNL A   1      34.903  20.666  24.887  1.00  0.00     0.022 A 
ATOM     17  C   UNL A   1      33.775  19.934  24.583  1.00  0.00     0.045 A 
BRANCH  17  18
ATOM     18  C   UNL A   1      33.686  18.500  24.570  1.00  0.00     0.044 A 
ATOM     19  C   UNL A   1      34.345  17.652  23.700  1.00  0.00     0.021 A 
ATOM     20  S   UNL A   1      32.649  17.635  25.622  1.00  0.00    -0.143 S 
ATOM     21  C   UNL A   1      33.984  16.286  23.891  1.00  0.00     0.012 A 
ATOM     22  C   UNL A   1      33.058  16.138  24.899  1.00  0.00     0.065 A 
ENDBRANCH  17  18
ENDBRANCH  12  13
ENDBRANCH  10  12
ENDBRANCH   7   8
ENDBRANCH   4   6
ENDBRANCH   1   2
BRANCH   1  23
ATOM     23  C   UNL A   1      31.486  31.510  26.688  1.00  0.00     0.042 C 
BRANCH  23  24
ATOM     24  C   UNL A   1      32.717  32.410  26.718  1.00  0.00     0.118 C 
BRANCH  24  25
ATOM     25  N   UNL A   1      32.446  33.732  27.265  1.00  0.00    -0.352 N 
ATOM     26  C   UNL A   1      33.025  34.405  28.310  1.00  0.00     0.251 C 
ATOM     27  H   UNL A   1      31.729  34.226  26.806  1.00  0.00     0.163 HD
ATOM     28  O   UNL A   1      32.529  35.462  28.694  1.00  0.00    -0.269 OA
BRANCH  26  29
ATOM     29  C   UNL A   1      34.225  33.873  28.994  1.00  0.00     0.039 A 
ATOM     30  C   UNL A   1      34.059  32.854  29.938  1.00  0.00     0.014 A 
ATOM     31  C   UNL A   1      35.497  34.399  28.758  1.00  0.00     0.014 A 
ATOM     32  C   UNL A   1      35.169  32.332  30.606  1.00  0.00     0.010 A 
ATOM     33  C   UNL A   1      36.613  33.821  29.361  1.00  0.00     0.010 A 
ATOM     34  C   UNL A   1      36.461  32.793  30.303  1.00  0.00    -0.014 A 
BRANCH  34  35
ATOM     35  C   UNL A   1      37.655  32.235  30.990  1.00  0.00     0.031 A 
ATOM     36  C   UNL A   1      38.485  31.174  30.317  1.00  0.00     0.074 A 
ATOM     37  C   UNL A   1      37.969  32.647  32.232  1.00  0.00     0.049 A 
ATOM     38  N   UNL A   1      39.532  30.529  30.768  1.00  0.00    -0.248 NA
ATOM     39  C   UNL A   1      38.066  30.764  28.967  1.00  0.00     0.031 C 
ATOM     40  C   UNL A   1      37.221  33.637  33.009  1.00  0.00     0.029 A 
ATOM     41  N   UNL A   1      38.997  32.281  33.066  1.00  0.00    -0.354 N 
ATOM     42  C   UNL A   1      39.885  29.633  29.768  1.00  0.00     0.074 A 
ATOM     43  C   UNL A   1      38.906  29.772  28.712  1.00  0.00     0.031 C 
ATOM     44  C   UNL A   1      37.828  33.818  34.192  1.00  0.00     0.029 A 
ATOM     45  C   UNL A   1      38.984  32.930  34.276  1.00  0.00     0.049 A 
ATOM     46  H   UNL A   1      39.678  31.613  32.819  1.00  0.00     0.167 HD
ATOM     47  C   UNL A   1      40.944  28.789  29.720  1.00  0.00     0.037 A 
ATOM     48  C   UNL A   1      39.810  32.819  35.333  1.00  0.00     0.037 A 
ATOM     49  C   UNL A   1      41.930  28.671  30.763  1.00  0.00     0.049 A 
ATOM     50  C   UNL A   1      40.975  31.867  35.259  1.00  0.00     0.074 A 
ATOM     51  C   UNL A   1      43.068  27.885  30.788  1.00  0.00     0.029 A 
ATOM     52  N   UNL A   1      41.891  29.358  31.967  1.00  0.00    -0.354 N 
ATOM     53  N   UNL A   1      41.336  31.075  34.281  1.00  0.00    -0.248 NA
ATOM     54  C   UNL A   1      41.852  31.804  36.437  1.00  0.00     0.031 C 
ATOM     55  C   UNL A   1      43.691  28.057  32.029  1.00  0.00     0.029 A 
ATOM     56  C   UNL A   1      42.975  28.997  32.752  1.00  0.00     0.049 A 
ATOM     57  H   UNL A   1      41.197  30.007  32.226  1.00  0.00     0.167 HD
ATOM     58  C   UNL A   1      42.500  30.447  34.707  1.00  0.00     0.074 A 
ATOM     59  C   UNL A   1      42.790  30.962  36.029  1.00  0.00     0.031 C 
ATOM     60  C   UNL A   1      43.260  29.529  34.061  1.00  0.00     0.037 A 
BRANCH  47  61
ATOM     61  C   UNL A   1      41.092  27.928  28.497  1.00  0.00     0.064 A 
ATOM     62  C   UNL A   1      40.412  26.707  28.368  1.00  0.00     0.173 A 
ATOM     63  C   UNL A   1      41.899  28.344  27.427  1.00  0.00     0.173 A 
ATOM     64  F   UNL A   1      39.635  26.257  29.365  1.00  0.00    -0.203 F 
ATOM     65  C   UNL A   1      40.561  25.919  27.229  1.00  0.00     0.198 A 
ATOM     66  C   UNL A   1      42.018  27.570  26.275  1.00  0.00     0.198 A 
ATOM     67  F   UNL A   1      42.567  29.505  27.493  1.00  0.00    -0.203 F 
ATOM     68  F   UNL A   1      39.945  24.732  27.154  1.00  0.00    -0.200 F 
ATOM     69  C   UNL A   1      41.357  26.355  26.181  1.00  0.00     0.200 A 
ATOM     70  F   UNL A   1      42.777  27.999  25.257  1.00  0.00    -0.200 F 
ATOM     71  F   UNL A   1      41.494  25.599  25.082  1.00  0.00    -0.200 F 
ENDBRANCH  47  61
BRANCH  48  72
ATOM     72  C   UNL A   1      39.583  33.652  36.545  1.00  0.00     0.064 A 
ATOM     73  C   UNL A   1      40.190  34.909  36.679  1.00  0.00     0.173 A 
ATOM     74  C   UNL A   1      38.770  33.205  37.597  1.00  0.00     0.173 A 
ATOM     75  F   UNL A   1      40.993  35.372  35.710  1.00  0.00    -0.203 F 
ATOM     76  C   UNL A   1      40.014  35.674  37.830  1.00  0.00     0.198 A 
ATOM     77  C   UNL A   1      38.569  33.986  38.734  1.00  0.00     0.198 A 
ATOM     78  F   UNL A   1      38.163  32.012  37.518  1.00  0.00    -0.203 F 
ATOM     79  F   UNL A   1      40.649  36.848  37.955  1.00  0.00    -0.200 F 
ATOM     80  C   UNL A   1      39.200  35.215  38.854  1.00  0.00     0.200 A 
ATOM     81  F   UNL A   1      37.769  33.544  39.714  1.00  0.00    -0.200 F 
ATOM     82  F   UNL A   1      39.029  35.953  39.959  1.00  0.00    -0.200 F 
ENDBRANCH  48  72
BRANCH  60  83
ATOM     83  C   UNL A   1      44.509  29.057  34.751  1.00  0.00     0.064 A 
ATOM     84  C   UNL A   1      45.732  29.730  34.612  1.00  0.00     0.173 A 
ATOM     85  C   UNL A   1      44.468  27.937  35.596  1.00  0.00     0.173 A 
ATOM     86  F   UNL A   1      45.828  30.798  33.807  1.00  0.00    -0.203 F 
ATOM     87  C   UNL A   1      46.875  29.278  35.267  1.00  0.00     0.198 A 
ATOM     88  C   UNL A   1      45.604  27.510  36.276  1.00  0.00     0.198 A 
ATOM     89  F   UNL A   1      43.321  27.263  35.771  1.00  0.00    -0.203 F 
ATOM     90  F   UNL A   1      48.045  29.904  35.075  1.00  0.00    -0.200 F 
ATOM     91  C   UNL A   1      46.809  28.175  36.104  1.00  0.00     0.200 A 
ATOM     92  F   UNL A   1      45.534  26.454  37.098  1.00  0.00    -0.200 F 
ATOM     93  F   UNL A   1      47.908  27.747  36.740  1.00  0.00    -0.200 F 
ENDBRANCH  60  83
ENDBRANCH  34  35
ENDBRANCH  26  29
ENDBRANCH  24  25
ENDBRANCH  23  24
ENDBRANCH   1  23
TORSDOF 14
ENDMDL
