MODEL 1
REMARK VINA RESULT:     -10.9      0.000      0.000
REMARK SMILES O=C(NCCCNC(=O)[C@@H](O)c1cscc1Br)c1ccc(-c2c3nc(c(-c4c(F)c(F)c(F)c(F)c4F)c4ccc([nH]4)c(-c4c(F)c(F)c(F)c(F)c4F)c4nc(c(-c5c(F)c(F)c(F)c(F)c5F)c5ccc2[nH]5)C=C4)C=C3)cc1
REMARK SMILES IDX 4 1 3 2 1 3 2 4 18 6 19 7 80 8 20 9 79 10 21 11 22 12 23 13
REMARK SMILES IDX 73 14 24 15 78 16 72 17 74 18 25 19 77 20 71 21 70 22 26 24
REMARK SMILES IDX 58 25 38 26 57 27 39 28 42 29 56 30 75 31 40 32 41 33 55 35
REMARK SMILES IDX 76 36 43 37 27 38 28 39 36 40 29 41 30 42 34 43 37 44 31 45
REMARK SMILES IDX 32 46 35 47 33 48 59 49 60 50 68 51 61 52 62 53 66 54 69 55
REMARK SMILES IDX 63 56 64 57 67 58 65 59 44 60 45 61 53 62 46 63 47 64 51 65
REMARK SMILES IDX 54 66 48 67 49 68 52 69 50 70 5 71 6 72 7 73 8 74 9 76 10 77
REMARK SMILES IDX 11 78 12 80 13 81 16 82 14 83 15 84 17 85
REMARK H PARENT 3 5 74 23 42 34 7 75 11 79
REMARK Flexibility Score: inf
ROOT
ATOM      1  C   UNL A   1      46.620  26.539  38.874  1.00  0.00     0.118 C 
ENDROOT
BRANCH   1   2
ATOM      2  N   UNL A   1      47.468  25.836  37.919  1.00  0.00    -0.352 N 
ATOM      3  O   UNL A   1      48.056  24.880  35.964  1.00  0.00    -0.269 OA
ATOM      4  C   UNL A   1      47.308  25.643  36.567  1.00  0.00     0.251 C 
ATOM      5  H   UNL A   1      48.283  25.437  38.301  1.00  0.00     0.163 HD
BRANCH   4   6
ATOM      6  C   UNL A   1      46.222  26.335  35.842  1.00  0.00     0.039 A 
ATOM      7  C   UNL A   1      44.958  25.756  35.732  1.00  0.00     0.014 A 
ATOM      8  C   UNL A   1      46.469  27.588  35.272  1.00  0.00     0.014 A 
ATOM      9  C   UNL A   1      44.002  26.337  34.909  1.00  0.00     0.010 A 
ATOM     10  C   UNL A   1      45.469  28.225  34.534  1.00  0.00     0.010 A 
ATOM     11  C   UNL A   1      44.238  27.587  34.316  1.00  0.00    -0.014 A 
BRANCH  11  12
ATOM     12  C   UNL A   1      43.154  28.223  33.526  1.00  0.00     0.031 A 
ATOM     13  C   UNL A   1      42.932  27.874  32.081  1.00  0.00     0.074 A 
ATOM     14  C   UNL A   1      42.336  29.095  34.147  1.00  0.00     0.049 A 
ATOM     15  N   UNL A   1      42.009  28.312  31.262  1.00  0.00    -0.248 NA
ATOM     16  C   UNL A   1      43.868  26.918  31.473  1.00  0.00     0.031 C 
ATOM     17  C   UNL A   1      42.465  29.518  35.544  1.00  0.00     0.029 A 
ATOM     18  N   UNL A   1      41.224  29.761  33.701  1.00  0.00    -0.354 N 
ATOM     19  C   UNL A   1      42.264  27.703  30.040  1.00  0.00     0.074 A 
ATOM     20  C   UNL A   1      43.444  26.883  30.217  1.00  0.00     0.031 C 
ATOM     21  C   UNL A   1      41.441  30.324  35.856  1.00  0.00     0.029 A 
ATOM     22  C   UNL A   1      40.624  30.529  34.667  1.00  0.00     0.049 A 
ATOM     23  H   UNL A   1      40.889  29.695  32.777  1.00  0.00     0.167 HD
ATOM     24  C   UNL A   1      41.570  27.815  28.881  1.00  0.00     0.037 A 
ATOM     25  C   UNL A   1      39.541  31.325  34.601  1.00  0.00     0.037 A 
ATOM     26  C   UNL A   1      40.385  28.619  28.719  1.00  0.00     0.049 A 
ATOM     27  C   UNL A   1      38.802  31.439  33.299  1.00  0.00     0.074 A 
ATOM     28  C   UNL A   1      39.590  28.771  27.595  1.00  0.00     0.029 A 
ATOM     29  N   UNL A   1      39.824  29.411  29.712  1.00  0.00    -0.354 N 
ATOM     30  N   UNL A   1      39.037  30.836  32.161  1.00  0.00    -0.248 NA
ATOM     31  C   UNL A   1      37.652  32.352  33.274  1.00  0.00     0.031 C 
ATOM     32  C   UNL A   1      38.576  29.687  27.895  1.00  0.00     0.029 A 
ATOM     33  C   UNL A   1      38.708  30.070  29.220  1.00  0.00     0.049 A 
ATOM     34  H   UNL A   1      40.168  29.491  30.631  1.00  0.00     0.167 HD
ATOM     35  C   UNL A   1      38.058  31.281  31.286  1.00  0.00     0.074 A 
ATOM     36  C   UNL A   1      37.212  32.188  32.035  1.00  0.00     0.031 C 
ATOM     37  C   UNL A   1      37.879  30.970  29.979  1.00  0.00     0.037 A 
BRANCH  24  38
ATOM     38  C   UNL A   1      42.081  27.064  27.685  1.00  0.00     0.064 A 
ATOM     39  C   UNL A   1      43.034  27.618  26.817  1.00  0.00     0.173 A 
ATOM     40  C   UNL A   1      41.650  25.752  27.432  1.00  0.00     0.173 A 
ATOM     41  F   UNL A   1      43.472  28.873  27.007  1.00  0.00    -0.203 F 
ATOM     42  C   UNL A   1      43.519  26.896  25.729  1.00  0.00     0.198 A 
ATOM     43  C   UNL A   1      42.157  25.023  26.359  1.00  0.00     0.198 A 
ATOM     44  F   UNL A   1      40.746  25.171  28.235  1.00  0.00    -0.203 F 
ATOM     45  F   UNL A   1      44.398  27.461  24.890  1.00  0.00    -0.200 F 
ATOM     46  C   UNL A   1      43.085  25.598  25.504  1.00  0.00     0.200 A 
ATOM     47  F   UNL A   1      41.746  23.765  26.152  1.00  0.00    -0.200 F 
ATOM     48  F   UNL A   1      43.559  24.902  24.462  1.00  0.00    -0.200 F 
ENDBRANCH  24  38
BRANCH  25  49
ATOM     49  C   UNL A   1      39.100  32.069  35.808  1.00  0.00     0.064 A 
ATOM     50  C   UNL A   1      38.260  31.472  36.757  1.00  0.00     0.173 A 
ATOM     51  C   UNL A   1      39.525  33.384  36.047  1.00  0.00     0.173 A 
ATOM     52  F   UNL A   1      37.813  30.222  36.564  1.00  0.00    -0.203 F 
ATOM     53  C   UNL A   1      37.852  32.167  37.893  1.00  0.00     0.198 A 
ATOM     54  C   UNL A   1      39.142  34.067  37.197  1.00  0.00     0.198 A 
ATOM     55  F   UNL A   1      40.336  33.997  35.171  1.00  0.00    -0.203 F 
ATOM     56  F   UNL A   1      37.018  31.586  38.767  1.00  0.00    -0.200 F 
ATOM     57  C   UNL A   1      38.299  33.461  38.116  1.00  0.00     0.200 A 
ATOM     58  F   UNL A   1      39.591  35.310  37.417  1.00  0.00    -0.200 F 
ATOM     59  F   UNL A   1      37.915  34.125  39.215  1.00  0.00    -0.200 F 
ENDBRANCH  25  49
BRANCH  37  60
ATOM     60  C   UNL A   1      36.705  31.600  29.287  1.00  0.00     0.064 A 
ATOM     61  C   UNL A   1      36.694  32.962  28.955  1.00  0.00     0.173 A 
ATOM     62  C   UNL A   1      35.589  30.826  28.938  1.00  0.00     0.173 A 
ATOM     63  F   UNL A   1      37.731  33.746  29.285  1.00  0.00    -0.203 F 
ATOM     64  C   UNL A   1      35.593  33.535  28.324  1.00  0.00     0.198 A 
ATOM     65  C   UNL A   1      34.502  31.396  28.282  1.00  0.00     0.198 A 
ATOM     66  F   UNL A   1      35.553  29.518  29.231  1.00  0.00    -0.203 F 
ATOM     67  F   UNL A   1      35.582  34.849  28.064  1.00  0.00    -0.200 F 
ATOM     68  C   UNL A   1      34.501  32.750  27.982  1.00  0.00     0.200 A 
ATOM     69  F   UNL A   1      33.452  30.636  27.942  1.00  0.00    -0.200 F 
ATOM     70  F   UNL A   1      33.443  33.303  27.375  1.00  0.00    -0.200 F 
ENDBRANCH  37  60
ENDBRANCH  11  12
ENDBRANCH   4   6
ENDBRANCH   1   2
BRANCH   1  71
ATOM     71  C   UNL A   1      45.911  25.604  39.842  1.00  0.00     0.042 C 
BRANCH  71  72
ATOM     72  C   UNL A   1      45.070  24.541  39.159  1.00  0.00     0.117 C 
BRANCH  72  73
ATOM     73  N   UNL A   1      44.839  23.384  40.012  1.00  0.00    -0.353 N 
ATOM     74  C   UNL A   1      45.566  22.225  40.095  1.00  0.00     0.253 C 
ATOM     75  H   UNL A   1      44.056  23.440  40.607  1.00  0.00     0.163 HD
ATOM     76  O   UNL A   1      45.204  21.370  40.907  1.00  0.00    -0.272 OA
BRANCH  74  77
ATOM     77  C   UNL A   1      46.780  21.996  39.166  1.00  0.00     0.235 C 
BRANCH  77  78
ATOM     78  O   UNL A   1      47.807  21.379  39.950  1.00  0.00    -0.378 OA
ATOM     79  H   UNL A   1      48.638  21.863  39.833  1.00  0.00     0.212 HD
ENDBRANCH  77  78
BRANCH  77  80
ATOM     80  C   UNL A   1      46.439  21.202  37.919  1.00  0.00     0.015 A 
ATOM     81  C   UNL A   1      46.197  21.758  36.667  1.00  0.00     0.073 A 
ATOM     82  C   UNL A   1      46.329  19.775  37.822  1.00  0.00     0.035 A 
ATOM     83  S   UNL A   1      45.727  20.615  35.486  1.00  0.00    -0.151 S 
ATOM     84  C   UNL A   1      45.922  19.328  36.587  1.00  0.00     0.080 A 
ATOM     85  Br  UNL A   1      46.696  18.578  39.244  1.00  0.00    -0.050 Br
ENDBRANCH  77  80
ENDBRANCH  74  77
ENDBRANCH  72  73
ENDBRANCH  71  72
ENDBRANCH   1  71
TORSDOF 12
ENDMDL
MODEL 2
REMARK VINA RESULT:     -10.9      6.119     14.069
REMARK SMILES O=C(NCCCNC(=O)[C@@H](O)c1cscc1Br)c1ccc(-c2c3nc(c(-c4c(F)c(F)c(F)c(F)c4F)c4ccc([nH]4)c(-c4c(F)c(F)c(F)c(F)c4F)c4nc(c(-c5c(F)c(F)c(F)c(F)c5F)c5ccc2[nH]5)C=C4)C=C3)cc1
REMARK SMILES IDX 4 1 3 2 1 3 2 4 18 6 19 7 80 8 20 9 79 10 21 11 22 12 23 13
REMARK SMILES IDX 73 14 24 15 78 16 72 17 74 18 25 19 77 20 71 21 70 22 26 24
REMARK SMILES IDX 58 25 38 26 57 27 39 28 42 29 56 30 75 31 40 32 41 33 55 35
REMARK SMILES IDX 76 36 43 37 27 38 28 39 36 40 29 41 30 42 34 43 37 44 31 45
REMARK SMILES IDX 32 46 35 47 33 48 59 49 60 50 68 51 61 52 62 53 66 54 69 55
REMARK SMILES IDX 63 56 64 57 67 58 65 59 44 60 45 61 53 62 46 63 47 64 51 65
REMARK SMILES IDX 54 66 48 67 49 68 52 69 50 70 5 71 6 72 7 73 8 74 9 76 10 77
REMARK SMILES IDX 11 78 12 80 13 81 16 82 14 83 15 84 17 85
REMARK H PARENT 3 5 74 23 42 34 7 75 11 79
REMARK Flexibility Score: inf
ROOT
ATOM      1  C   UNL A   1      32.610  33.092  27.259  1.00  0.00     0.118 C 
ENDROOT
BRANCH   1   2
ATOM      2  N   UNL A   1      32.420  34.454  27.744  1.00  0.00    -0.352 N 
ATOM      3  O   UNL A   1      32.635  36.223  29.124  1.00  0.00    -0.269 OA
ATOM      4  C   UNL A   1      33.052  35.127  28.762  1.00  0.00     0.251 C 
ATOM      5  H   UNL A   1      31.732  34.973  27.267  1.00  0.00     0.163 HD
BRANCH   4   6
ATOM      6  C   UNL A   1      34.218  34.524  29.440  1.00  0.00     0.039 A 
ATOM      7  C   UNL A   1      35.495  34.630  28.889  1.00  0.00     0.014 A 
ATOM      8  C   UNL A   1      34.034  33.851  30.652  1.00  0.00     0.014 A 
ATOM      9  C   UNL A   1      36.549  33.919  29.447  1.00  0.00     0.010 A 
ATOM     10  C   UNL A   1      35.119  33.227  31.273  1.00  0.00     0.010 A 
ATOM     11  C   UNL A   1      36.379  33.225  30.656  1.00  0.00    -0.014 A 
BRANCH  11  12
ATOM     12  C   UNL A   1      37.554  32.561  31.274  1.00  0.00     0.031 A 
ATOM     13  C   UNL A   1      38.011  32.914  32.661  1.00  0.00     0.074 A 
ATOM     14  C   UNL A   1      38.184  31.594  30.577  1.00  0.00     0.049 A 
ATOM     15  N   UNL A   1      38.996  32.404  33.358  1.00  0.00    -0.248 NA
ATOM     16  C   UNL A   1      37.277  33.982  33.355  1.00  0.00     0.031 C 
ATOM     17  C   UNL A   1      37.834  31.177  29.217  1.00  0.00     0.029 A 
ATOM     18  N   UNL A   1      39.225  30.771  30.919  1.00  0.00    -0.354 N 
ATOM     19  C   UNL A   1      39.012  33.098  34.560  1.00  0.00     0.074 A 
ATOM     20  C   UNL A   1      37.955  34.086  34.490  1.00  0.00     0.031 C 
ATOM     21  C   UNL A   1      38.606  30.141  28.863  1.00  0.00     0.029 A 
ATOM     22  C   UNL A   1      39.548  29.865  29.940  1.00  0.00     0.049 A 
ATOM     23  H   UNL A   1      39.695  30.825  31.782  1.00  0.00     0.167 HD
ATOM     24  C   UNL A   1      39.832  32.921  35.625  1.00  0.00     0.037 A 
ATOM     25  C   UNL A   1      40.508  28.923  29.905  1.00  0.00     0.037 A 
ATOM     26  C   UNL A   1      40.869  31.923  35.694  1.00  0.00     0.049 A 
ATOM     27  C   UNL A   1      41.409  28.761  31.095  1.00  0.00     0.074 A 
ATOM     28  C   UNL A   1      41.730  31.641  36.741  1.00  0.00     0.029 A 
ATOM     29  N   UNL A   1      41.190  31.044  34.668  1.00  0.00    -0.354 N 
ATOM     30  N   UNL A   1      41.395  29.405  32.235  1.00  0.00    -0.248 NA
ATOM     31  C   UNL A   1      42.464  27.745  30.987  1.00  0.00     0.031 C 
ATOM     32  C   UNL A   1      42.599  30.623  36.334  1.00  0.00     0.029 A 
ATOM     33  C   UNL A   1      42.250  30.235  35.051  1.00  0.00     0.049 A 
ATOM     34  H   UNL A   1      40.733  31.001  33.798  1.00  0.00     0.167 HD
ATOM     35  C   UNL A   1      42.426  28.865  32.989  1.00  0.00     0.074 A 
ATOM     36  C   UNL A   1      43.030  27.823  32.184  1.00  0.00     0.031 C 
ATOM     37  C   UNL A   1      42.838  29.204  34.235  1.00  0.00     0.037 A 
BRANCH  24  38
ATOM     38  C   UNL A   1      39.655  33.837  36.803  1.00  0.00     0.064 A 
ATOM     39  C   UNL A   1      38.861  33.481  37.903  1.00  0.00     0.173 A 
ATOM     40  C   UNL A   1      40.331  35.067  36.853  1.00  0.00     0.173 A 
ATOM     41  F   UNL A   1      38.186  32.321  37.901  1.00  0.00    -0.203 F 
ATOM     42  C   UNL A   1      38.732  34.331  38.999  1.00  0.00     0.198 A 
ATOM     43  C   UNL A   1      40.220  35.902  37.962  1.00  0.00     0.198 A 
ATOM     44  F   UNL A   1      41.109  35.453  35.832  1.00  0.00    -0.203 F 
ATOM     45  F   UNL A   1      37.934  33.988  40.020  1.00  0.00    -0.200 F 
ATOM     46  C   UNL A   1      39.415  35.537  39.031  1.00  0.00     0.200 A 
ATOM     47  F   UNL A   1      40.893  37.061  37.996  1.00  0.00    -0.200 F 
ATOM     48  F   UNL A   1      39.297  36.349  40.090  1.00  0.00    -0.200 F 
ENDBRANCH  24  38
BRANCH  25  49
ATOM     49  C   UNL A   1      40.657  28.068  28.701  1.00  0.00     0.064 A 
ATOM     50  C   UNL A   1      39.991  26.839  28.601  1.00  0.00     0.173 A 
ATOM     51  C   UNL A   1      41.451  28.471  27.617  1.00  0.00     0.173 A 
ATOM     52  F   UNL A   1      39.234  26.403  29.620  1.00  0.00    -0.203 F 
ATOM     53  C   UNL A   1      40.125  26.040  27.469  1.00  0.00     0.198 A 
ATOM     54  C   UNL A   1      41.559  27.686  26.473  1.00  0.00     0.198 A 
ATOM     55  F   UNL A   1      42.102  29.642  27.661  1.00  0.00    -0.203 F 
ATOM     56  F   UNL A   1      39.508  24.851  27.415  1.00  0.00    -0.200 F 
ATOM     57  C   UNL A   1      40.902  26.467  26.403  1.00  0.00     0.200 A 
ATOM     58  F   UNL A   1      42.296  28.111  25.438  1.00  0.00    -0.200 F 
ATOM     59  F   UNL A   1      41.021  25.702  25.309  1.00  0.00    -0.200 F 
ENDBRANCH  25  49
BRANCH  37  60
ATOM     60  C   UNL A   1      43.983  28.421  34.808  1.00  0.00     0.064 A 
ATOM     61  C   UNL A   1      43.775  27.226  35.511  1.00  0.00     0.173 A 
ATOM     62  C   UNL A   1      45.302  28.863  34.634  1.00  0.00     0.173 A 
ATOM     63  F   UNL A   1      42.529  26.773  35.719  1.00  0.00    -0.203 F 
ATOM     64  C   UNL A   1      44.845  26.517  36.047  1.00  0.00     0.198 A 
ATOM     65  C   UNL A   1      46.372  28.136  35.146  1.00  0.00     0.198 A 
ATOM     66  F   UNL A   1      45.554  29.998  33.965  1.00  0.00    -0.203 F 
ATOM     67  F   UNL A   1      44.620  25.406  36.762  1.00  0.00    -0.200 F 
ATOM     68  C   UNL A   1      46.144  26.969  35.859  1.00  0.00     0.200 A 
ATOM     69  F   UNL A   1      47.627  28.568  34.955  1.00  0.00    -0.200 F 
ATOM     70  F   UNL A   1      47.173  26.284  36.375  1.00  0.00    -0.200 F 
ENDBRANCH  37  60
ENDBRANCH  11  12
ENDBRANCH   4   6
ENDBRANCH   1   2
BRANCH   1  71
ATOM     71  C   UNL A   1      31.401  32.553  26.508  1.00  0.00     0.042 C 
BRANCH  71  72
ATOM     72  C   UNL A   1      31.311  31.038  26.504  1.00  0.00     0.117 C 
BRANCH  72  73
ATOM     73  N   UNL A   1      32.584  30.406  26.821  1.00  0.00    -0.353 N 
ATOM     74  C   UNL A   1      33.358  29.599  26.028  1.00  0.00     0.253 C 
ATOM     75  H   UNL A   1      32.934  30.580  27.724  1.00  0.00     0.163 HD
ATOM     76  O   UNL A   1      34.422  29.180  26.490  1.00  0.00    -0.272 OA
BRANCH  74  77
ATOM     77  C   UNL A   1      32.881  29.206  24.612  1.00  0.00     0.235 C 
BRANCH  77  78
ATOM     78  O   UNL A   1      34.041  28.837  23.858  1.00  0.00    -0.378 OA
ATOM     79  H   UNL A   1      33.787  28.664  22.938  1.00  0.00     0.212 HD
ENDBRANCH  77  78
BRANCH  77  80
ATOM     80  C   UNL A   1      31.818  28.123  24.616  1.00  0.00     0.015 A 
ATOM     81  C   UNL A   1      31.768  27.066  25.518  1.00  0.00     0.073 A 
ATOM     82  C   UNL A   1      30.703  28.021  23.720  1.00  0.00     0.035 A 
ATOM     83  S   UNL A   1      30.517  25.946  25.198  1.00  0.00    -0.151 S 
ATOM     84  C   UNL A   1      29.945  26.888  23.897  1.00  0.00     0.080 A 
ATOM     85  Br  UNL A   1      30.280  29.307  22.394  1.00  0.00    -0.050 Br
ENDBRANCH  77  80
ENDBRANCH  74  77
ENDBRANCH  72  73
ENDBRANCH  71  72
ENDBRANCH   1  71
TORSDOF 12
ENDMDL
MODEL 3
REMARK VINA RESULT:     -10.9      6.055     13.937
REMARK SMILES O=C(NCCCNC(=O)[C@@H](O)c1cscc1Br)c1ccc(-c2c3nc(c(-c4c(F)c(F)c(F)c(F)c4F)c4ccc([nH]4)c(-c4c(F)c(F)c(F)c(F)c4F)c4nc(c(-c5c(F)c(F)c(F)c(F)c5F)c5ccc2[nH]5)C=C4)C=C3)cc1
REMARK SMILES IDX 4 1 3 2 1 3 2 4 18 6 19 7 80 8 20 9 79 10 21 11 22 12 23 13
REMARK SMILES IDX 73 14 24 15 78 16 72 17 74 18 25 19 77 20 71 21 70 22 26 24
REMARK SMILES IDX 58 25 38 26 57 27 39 28 42 29 56 30 75 31 40 32 41 33 55 35
REMARK SMILES IDX 76 36 43 37 27 38 28 39 36 40 29 41 30 42 34 43 37 44 31 45
REMARK SMILES IDX 32 46 35 47 33 48 59 49 60 50 68 51 61 52 62 53 66 54 69 55
REMARK SMILES IDX 63 56 64 57 67 58 65 59 44 60 45 61 53 62 46 63 47 64 51 65
REMARK SMILES IDX 54 66 48 67 49 68 52 69 50 70 5 71 6 72 7 73 8 74 9 76 10 77
REMARK SMILES IDX 11 78 12 80 13 81 16 82 14 83 15 84 17 85
REMARK H PARENT 3 5 74 23 42 34 7 75 11 79
REMARK Flexibility Score: inf
ROOT
ATOM      1  C   UNL A   1      32.529  32.851  27.217  1.00  0.00     0.118 C 
ENDROOT
BRANCH   1   2
ATOM      2  N   UNL A   1      32.365  34.229  27.662  1.00  0.00    -0.352 N 
ATOM      3  O   UNL A   1      32.627  36.038  28.980  1.00  0.00    -0.269 OA
ATOM      4  C   UNL A   1      33.024  34.926  28.646  1.00  0.00     0.251 C 
ATOM      5  H   UNL A   1      31.674  34.741  27.183  1.00  0.00     0.163 HD
BRANCH   4   6
ATOM      6  C   UNL A   1      34.197  34.330  29.320  1.00  0.00     0.039 A 
ATOM      7  C   UNL A   1      35.489  34.601  28.871  1.00  0.00     0.014 A 
ATOM      8  C   UNL A   1      34.001  33.497  30.426  1.00  0.00     0.014 A 
ATOM      9  C   UNL A   1      36.565  33.906  29.406  1.00  0.00     0.010 A 
ATOM     10  C   UNL A   1      35.097  32.881  31.034  1.00  0.00     0.010 A 
ATOM     11  C   UNL A   1      36.386  33.052  30.506  1.00  0.00    -0.014 A 
BRANCH  11  12
ATOM     12  C   UNL A   1      37.576  32.405  31.114  1.00  0.00     0.031 A 
ATOM     13  C   UNL A   1      38.034  32.758  32.501  1.00  0.00     0.074 A 
ATOM     14  C   UNL A   1      38.217  31.453  30.409  1.00  0.00     0.049 A 
ATOM     15  N   UNL A   1      39.031  32.261  33.190  1.00  0.00    -0.248 NA
ATOM     16  C   UNL A   1      37.286  33.810  33.205  1.00  0.00     0.031 C 
ATOM     17  C   UNL A   1      37.867  31.037  29.049  1.00  0.00     0.029 A 
ATOM     18  N   UNL A   1      39.274  30.646  30.741  1.00  0.00    -0.354 N 
ATOM     19  C   UNL A   1      39.043  32.950  34.395  1.00  0.00     0.074 A 
ATOM     20  C   UNL A   1      37.969  33.919  34.337  1.00  0.00     0.031 C 
ATOM     21  C   UNL A   1      38.654  30.016  28.685  1.00  0.00     0.029 A 
ATOM     22  C   UNL A   1      39.606  29.750  29.755  1.00  0.00     0.049 A 
ATOM     23  H   UNL A   1      39.748  30.703  31.601  1.00  0.00     0.167 HD
ATOM     24  C   UNL A   1      39.872  32.781  35.455  1.00  0.00     0.037 A 
ATOM     25  C   UNL A   1      40.582  28.825  29.710  1.00  0.00     0.037 A 
ATOM     26  C   UNL A   1      40.926  31.800  35.512  1.00  0.00     0.049 A 
ATOM     27  C   UNL A   1      41.493  28.672  30.893  1.00  0.00     0.074 A 
ATOM     28  C   UNL A   1      41.797  31.527  36.553  1.00  0.00     0.029 A 
ATOM     29  N   UNL A   1      41.256  30.932  34.480  1.00  0.00    -0.354 N 
ATOM     30  N   UNL A   1      41.474  29.309  32.037  1.00  0.00    -0.248 NA
ATOM     31  C   UNL A   1      42.563  27.674  30.774  1.00  0.00     0.031 C 
ATOM     32  C   UNL A   1      42.680  30.525  36.136  1.00  0.00     0.029 A 
ATOM     33  C   UNL A   1      42.331  30.138  34.852  1.00  0.00     0.049 A 
ATOM     34  H   UNL A   1      40.794  30.885  33.612  1.00  0.00     0.167 HD
ATOM     35  C   UNL A   1      42.518  28.782  32.782  1.00  0.00     0.074 A 
ATOM     36  C   UNL A   1      43.135  27.755  31.968  1.00  0.00     0.031 C 
ATOM     37  C   UNL A   1      42.932  29.122  34.028  1.00  0.00     0.037 A 
BRANCH  24  38
ATOM     38  C   UNL A   1      39.686  33.687  36.638  1.00  0.00     0.064 A 
ATOM     39  C   UNL A   1      40.308  34.943  36.711  1.00  0.00     0.173 A 
ATOM     40  C   UNL A   1      38.835  33.316  37.691  1.00  0.00     0.173 A 
ATOM     41  F   UNL A   1      41.139  35.343  35.736  1.00  0.00    -0.203 F 
ATOM     42  C   UNL A   1      40.102  35.783  37.803  1.00  0.00     0.198 A 
ATOM     43  C   UNL A   1      38.611  34.169  38.768  1.00  0.00     0.198 A 
ATOM     44  F   UNL A   1      38.210  32.129  37.668  1.00  0.00    -0.203 F 
ATOM     45  F   UNL A   1      40.738  36.960  37.870  1.00  0.00    -0.200 F 
ATOM     46  C   UNL A   1      39.249  35.399  38.827  1.00  0.00     0.200 A 
ATOM     47  F   UNL A   1      37.776  33.801  39.750  1.00  0.00    -0.200 F 
ATOM     48  F   UNL A   1      39.045  36.211  39.873  1.00  0.00    -0.200 F 
ENDBRANCH  24  38
BRANCH  25  49
ATOM     49  C   UNL A   1      40.738  27.979  28.500  1.00  0.00     0.064 A 
ATOM     50  C   UNL A   1      40.110  26.730  28.406  1.00  0.00     0.173 A 
ATOM     51  C   UNL A   1      41.502  28.410  27.405  1.00  0.00     0.173 A 
ATOM     52  F   UNL A   1      39.382  26.268  29.434  1.00  0.00    -0.203 F 
ATOM     53  C   UNL A   1      40.250  25.939  27.269  1.00  0.00     0.198 A 
ATOM     54  C   UNL A   1      41.617  27.632  26.256  1.00  0.00     0.198 A 
ATOM     55  F   UNL A   1      42.118  29.600  27.443  1.00  0.00    -0.203 F 
ATOM     56  F   UNL A   1      39.669  24.732  27.219  1.00  0.00    -0.200 F 
ATOM     57  C   UNL A   1      40.997  26.394  26.192  1.00  0.00     0.200 A 
ATOM     58  F   UNL A   1      42.324  28.083  25.212  1.00  0.00    -0.200 F 
ATOM     59  F   UNL A   1      41.122  25.636  25.094  1.00  0.00    -0.200 F 
ENDBRANCH  25  49
BRANCH  37  60
ATOM     60  C   UNL A   1      44.092  28.355  34.590  1.00  0.00     0.064 A 
ATOM     61  C   UNL A   1      43.908  27.153  35.289  1.00  0.00     0.173 A 
ATOM     62  C   UNL A   1      45.404  28.819  34.410  1.00  0.00     0.173 A 
ATOM     63  F   UNL A   1      42.671  26.679  35.503  1.00  0.00    -0.203 F 
ATOM     64  C   UNL A   1      44.994  26.460  35.815  1.00  0.00     0.198 A 
ATOM     65  C   UNL A   1      46.488  28.108  34.912  1.00  0.00     0.198 A 
ATOM     66  F   UNL A   1      45.632  29.961  33.745  1.00  0.00    -0.203 F 
ATOM     67  F   UNL A   1      44.791  25.342  36.527  1.00  0.00    -0.200 F 
ATOM     68  C   UNL A   1      46.283  26.934  35.621  1.00  0.00     0.200 A 
ATOM     69  F   UNL A   1      47.734  28.561  34.715  1.00  0.00    -0.200 F 
ATOM     70  F   UNL A   1      47.327  26.263  36.128  1.00  0.00    -0.200 F 
ENDBRANCH  37  60
ENDBRANCH  11  12
ENDBRANCH   4   6
ENDBRANCH   1   2
BRANCH   1  71
ATOM     71  C   UNL A   1      31.297  32.301  26.513  1.00  0.00     0.042 C 
BRANCH  71  72
ATOM     72  C   UNL A   1      31.414  30.835  26.135  1.00  0.00     0.117 C 
BRANCH  72  73
ATOM     73  N   UNL A   1      32.668  30.245  26.580  1.00  0.00    -0.353 N 
ATOM     74  C   UNL A   1      33.518  29.423  25.887  1.00  0.00     0.253 C 
ATOM     75  H   UNL A   1      32.942  30.465  27.500  1.00  0.00     0.163 HD
ATOM     76  O   UNL A   1      34.550  29.048  26.450  1.00  0.00    -0.272 OA
BRANCH  74  77
ATOM     77  C   UNL A   1      33.165  28.960  24.456  1.00  0.00     0.235 C 
BRANCH  77  78
ATOM     78  O   UNL A   1      34.393  28.839  23.730  1.00  0.00    -0.378 OA
ATOM     79  H   UNL A   1      35.104  28.582  24.338  1.00  0.00     0.212 HD
ENDBRANCH  77  78
BRANCH  77  80
ATOM     80  C   UNL A   1      32.340  27.686  24.425  1.00  0.00     0.015 A 
ATOM     81  C   UNL A   1      32.725  26.479  25.001  1.00  0.00     0.073 A 
ATOM     82  C   UNL A   1      31.048  27.522  23.824  1.00  0.00     0.035 A 
ATOM     83  S   UNL A   1      31.636  25.197  24.701  1.00  0.00    -0.151 S 
ATOM     84  C   UNL A   1      30.570  26.234  23.869  1.00  0.00     0.080 A 
ATOM     85  Br  UNL A   1      30.059  28.926  23.025  1.00  0.00    -0.050 Br
ENDBRANCH  77  80
ENDBRANCH  74  77
ENDBRANCH  72  73
ENDBRANCH  71  72
ENDBRANCH   1  71
TORSDOF 12
ENDMDL
