MODEL 1
REMARK VINA RESULT:      -9.9      0.000      0.000
REMARK SMILES COCc1cc(C)nc2sc3c(c12)N[C@H](c1ccccc1C(=O)NCCCNC(=O)c1ccc(-c2c4nc(c(-c5c(F)c(F)c(F)c(F)c5F)c5ccc([nH]5)c(-c5c(F)c(F)c(F)c(F)c5F)c5nc(c(-c6c(F)c(F)c(F)c(F)c6F)c6ccc2[nH]6)C=C5)C=C4)cc1)n1c-3nc2ccccc21
REMARK SMILES IDX 25 1 24 2 22 3 23 4 21 6 16 7 17 8 18 9 20 10 19 11 15 12
REMARK SMILES IDX 4 13 5 14 13 15 6 16 9 17 12 18 7 19 8 20 10 21 11 22 14 23
REMARK SMILES IDX 95 24 94 26 96 27 102 28 97 29 101 30 98 31 100 32 99 33
REMARK SMILES IDX 3 34 2 35 1 36 26 37 27 38 28 39 29 40 30 42 31 43 32 44
REMARK SMILES IDX 93 45 33 46 92 47 34 48 35 49 36 50 86 51 37 52 91 53 85 54
REMARK SMILES IDX 87 55 38 56 90 57 84 58 83 59 39 61 71 62 51 63 70 64 52 65
REMARK SMILES IDX 55 66 69 67 88 68 53 69 54 70 68 72 89 73 56 74 40 75 41 76
REMARK SMILES IDX 49 77 42 78 43 79 47 80 50 81 44 82 45 83 48 84 46 85 72 86
REMARK SMILES IDX 73 87 81 88 74 89 75 90 79 91 82 92 76 93 77 94 80 95 78 96
REMARK SMILES IDX 57 97 58 98 66 99 59 100 60 101 64 102 67 103 61 104 62 105
REMARK SMILES IDX 65 106 63 107
REMARK H PARENT 24 5 14 25 28 41 87 60 55 71
REMARK Flexibility Score: inf
ROOT
ATOM      1  C   UNL A   1      42.612  27.567  35.765  1.00  0.00     0.118 C 
ENDROOT
BRANCH   1   2
ATOM      2  N   UNL A   1      43.871  27.772  35.102  1.00  0.00    -0.352 N 
ATOM      3  C   UNL A   1      44.708  28.838  35.140  1.00  0.00     0.251 C 
ATOM      4  O   UNL A   1      45.711  28.818  34.429  1.00  0.00    -0.269 OA
ATOM      5  H   UNL A   1      44.172  27.025  34.534  1.00  0.00     0.163 HD
BRANCH   3   6
ATOM      6  C   UNL A   1      44.344  30.071  35.880  1.00  0.00     0.046 A 
ATOM      7  C   UNL A   1      43.782  31.287  35.395  1.00  0.00     0.008 A 
ATOM      8  C   UNL A   1      43.633  32.311  36.370  1.00  0.00     0.008 A 
ATOM      9  C   UNL A   1      43.922  32.113  37.735  1.00  0.00     0.000 A 
ATOM     10  C   UNL A   1      44.593  29.881  37.263  1.00  0.00     0.014 A 
ATOM     11  C   UNL A   1      44.370  30.884  38.189  1.00  0.00     0.001 A 
BRANCH   7  12
ATOM     12  C   UNL A   1      43.104  31.562  34.021  1.00  0.00     0.215 C 
ATOM     13  C   UNL A   1      38.086  31.371  32.836  1.00  0.00    -0.008 A 
ATOM     14  C   UNL A   1      36.951  32.057  32.286  1.00  0.00     0.030 A 
ATOM     15  C   UNL A   1      39.380  31.865  32.453  1.00  0.00     0.041 A 
ATOM     16  C   UNL A   1      37.070  32.931  31.229  1.00  0.00     0.039 A 
ATOM     17  C   UNL A   1      39.303  32.662  31.288  1.00  0.00     0.126 A 
ATOM     18  C   UNL A   1      40.806  31.870  32.915  1.00  0.00     0.068 A 
ATOM     19  C   UNL A   1      35.954  33.789  30.728  1.00  0.00     0.067 C 
ATOM     20  N   UNL A   1      38.230  33.121  30.632  1.00  0.00    -0.242 NA
ATOM     21  S   UNL A   1      40.783  33.167  30.677  1.00  0.00    -0.110 S 
ATOM     22  C   UNL A   1      41.455  32.830  32.168  1.00  0.00     0.096 A 
ATOM     23  N   UNL A   1      41.542  31.339  33.987  1.00  0.00    -0.359 N 
ATOM     24  C   UNL A   1      42.643  33.455  32.554  1.00  0.00     0.155 A 
ATOM     25  H   UNL A   1      41.091  30.838  34.703  1.00  0.00     0.163 HD
ATOM     26  N   UNL A   1      43.544  32.800  33.335  1.00  0.00    -0.298 N 
ATOM     27  N   UNL A   1      42.974  34.696  32.321  1.00  0.00    -0.227 NA
ATOM     28  C   UNL A   1      44.724  33.479  33.138  1.00  0.00     0.071 A 
ATOM     29  C   UNL A   1      44.289  34.722  32.649  1.00  0.00     0.089 A 
ATOM     30  C   UNL A   1      46.081  33.225  33.343  1.00  0.00     0.029 A 
ATOM     31  C   UNL A   1      45.167  35.793  32.492  1.00  0.00     0.030 A 
ATOM     32  C   UNL A   1      46.963  34.300  33.121  1.00  0.00     0.002 A 
ATOM     33  C   UNL A   1      46.515  35.567  32.733  1.00  0.00     0.002 A 
BRANCH  13  34
ATOM     34  C   UNL A   1      37.725  30.205  33.731  1.00  0.00     0.196 C 
BRANCH  34  35
ATOM     35  O   UNL A   1      38.658  30.040  34.815  1.00  0.00    -0.380 OA
ATOM     36  C   UNL A   1      38.385  30.814  35.984  1.00  0.00     0.195 C 
ENDBRANCH  34  35
ENDBRANCH  13  34
ENDBRANCH   7  12
ENDBRANCH   3   6
ENDBRANCH   1   2
BRANCH   1  37
ATOM     37  C   UNL A   1      42.554  26.264  36.533  1.00  0.00     0.042 C 
BRANCH  37  38
ATOM     38  C   UNL A   1      43.874  25.807  37.171  1.00  0.00     0.118 C 
BRANCH  38  39
ATOM     39  N   UNL A   1      44.203  24.402  37.104  1.00  0.00    -0.352 N 
ATOM     40  C   UNL A   1      45.147  23.781  36.309  1.00  0.00     0.251 C 
ATOM     41  H   UNL A   1      43.688  23.811  37.700  1.00  0.00     0.163 HD
ATOM     42  O   UNL A   1      45.673  22.745  36.620  1.00  0.00    -0.269 OA
BRANCH  40  43
ATOM     43  C   UNL A   1      45.317  24.307  34.937  1.00  0.00     0.039 A 
ATOM     44  C   UNL A   1      46.358  25.136  34.519  1.00  0.00     0.014 A 
ATOM     45  C   UNL A   1      44.228  24.060  34.108  1.00  0.00     0.014 A 
ATOM     46  C   UNL A   1      46.241  25.828  33.306  1.00  0.00     0.010 A 
ATOM     47  C   UNL A   1      44.122  24.727  32.900  1.00  0.00     0.010 A 
ATOM     48  C   UNL A   1      45.106  25.646  32.506  1.00  0.00    -0.014 A 
BRANCH  48  49
ATOM     49  C   UNL A   1      44.891  26.427  31.260  1.00  0.00     0.031 A 
ATOM     50  C   UNL A   1      44.572  25.546  30.066  1.00  0.00     0.074 A 
ATOM     51  C   UNL A   1      44.172  27.550  31.481  1.00  0.00     0.049 A 
ATOM     52  N   UNL A   1      43.463  25.365  29.407  1.00  0.00    -0.248 NA
ATOM     53  C   UNL A   1      45.678  24.691  29.606  1.00  0.00     0.031 C 
ATOM     54  C   UNL A   1      42.724  27.658  31.403  1.00  0.00     0.029 A 
ATOM     55  N   UNL A   1      44.618  28.860  31.359  1.00  0.00    -0.354 N 
ATOM     56  C   UNL A   1      43.727  24.390  28.448  1.00  0.00     0.074 A 
ATOM     57  C   UNL A   1      45.103  23.991  28.627  1.00  0.00     0.031 C 
ATOM     58  C   UNL A   1      42.389  28.935  31.164  1.00  0.00     0.029 A 
ATOM     59  C   UNL A   1      43.606  29.710  30.920  1.00  0.00     0.049 A 
ATOM     60  H   UNL A   1      45.537  29.152  31.559  1.00  0.00     0.167 HD
ATOM     61  C   UNL A   1      42.856  23.942  27.504  1.00  0.00     0.037 A 
ATOM     62  C   UNL A   1      43.752  30.599  29.889  1.00  0.00     0.037 A 
ATOM     63  C   UNL A   1      41.563  24.534  27.461  1.00  0.00     0.049 A 
ATOM     64  C   UNL A   1      43.080  29.896  28.726  1.00  0.00     0.074 A 
ATOM     65  C   UNL A   1      40.276  24.192  27.808  1.00  0.00     0.029 A 
ATOM     66  N   UNL A   1      41.436  25.759  26.856  1.00  0.00    -0.354 N 
ATOM     67  N   UNL A   1      41.802  29.797  28.468  1.00  0.00    -0.248 NA
ATOM     68  C   UNL A   1      43.921  28.932  28.009  1.00  0.00     0.031 C 
ATOM     69  C   UNL A   1      39.552  25.423  27.853  1.00  0.00     0.029 A 
ATOM     70  C   UNL A   1      40.444  26.439  27.510  1.00  0.00     0.049 A 
ATOM     71  H   UNL A   1      41.962  26.089  26.092  1.00  0.00     0.167 HD
ATOM     72  C   UNL A   1      41.663  28.577  27.790  1.00  0.00     0.074 A 
ATOM     73  C   UNL A   1      43.005  28.151  27.455  1.00  0.00     0.031 C 
ATOM     74  C   UNL A   1      40.501  27.860  27.762  1.00  0.00     0.037 A 
BRANCH  61  75
ATOM     75  C   UNL A   1      43.251  22.997  26.439  1.00  0.00     0.064 A 
ATOM     76  C   UNL A   1      43.051  21.625  26.648  1.00  0.00     0.173 A 
ATOM     77  C   UNL A   1      43.934  23.403  25.290  1.00  0.00     0.173 A 
ATOM     78  F   UNL A   1      42.388  21.201  27.736  1.00  0.00    -0.203 F 
ATOM     79  C   UNL A   1      43.551  20.685  25.755  1.00  0.00     0.198 A 
ATOM     80  C   UNL A   1      44.428  22.459  24.391  1.00  0.00     0.198 A 
ATOM     81  F   UNL A   1      44.141  24.707  25.054  1.00  0.00    -0.203 F 
ATOM     82  F   UNL A   1      43.374  19.378  25.995  1.00  0.00    -0.200 F 
ATOM     83  C   UNL A   1      44.248  21.102  24.631  1.00  0.00     0.200 A 
ATOM     84  F   UNL A   1      45.098  22.859  23.303  1.00  0.00    -0.200 F 
ATOM     85  F   UNL A   1      44.751  20.196  23.783  1.00  0.00    -0.200 F 
ENDBRANCH  61  75
BRANCH  62  86
ATOM     86  C   UNL A   1      45.038  31.353  29.768  1.00  0.00     0.064 A 
ATOM     87  C   UNL A   1      44.985  32.749  29.583  1.00  0.00     0.173 A 
ATOM     88  C   UNL A   1      46.323  30.793  29.850  1.00  0.00     0.173 A 
ATOM     89  F   UNL A   1      43.804  33.360  29.401  1.00  0.00    -0.203 F 
ATOM     90  C   UNL A   1      46.130  33.544  29.618  1.00  0.00     0.198 A 
ATOM     91  C   UNL A   1      47.468  31.591  29.914  1.00  0.00     0.198 A 
ATOM     92  F   UNL A   1      46.503  29.467  29.891  1.00  0.00    -0.203 F 
ATOM     93  F   UNL A   1      46.022  34.875  29.495  1.00  0.00    -0.200 F 
ATOM     94  C   UNL A   1      47.370  32.967  29.818  1.00  0.00     0.200 A 
ATOM     95  F   UNL A   1      48.666  31.019  30.098  1.00  0.00    -0.200 F 
ATOM     96  F   UNL A   1      48.464  33.732  29.919  1.00  0.00    -0.200 F 
ENDBRANCH  62  86
BRANCH  74  97
ATOM     97  C   UNL A   1      39.305  28.534  28.330  1.00  0.00     0.064 A 
ATOM     98  C   UNL A   1      38.547  29.419  27.557  1.00  0.00     0.173 A 
ATOM     99  C   UNL A   1      38.874  28.255  29.636  1.00  0.00     0.173 A 
ATOM    100  F   UNL A   1      38.917  29.707  26.301  1.00  0.00    -0.203 F 
ATOM    101  C   UNL A   1      37.382  29.986  28.069  1.00  0.00     0.198 A 
ATOM    102  C   UNL A   1      37.703  28.810  30.138  1.00  0.00     0.198 A 
ATOM    103  F   UNL A   1      39.582  27.430  30.424  1.00  0.00    -0.203 F 
ATOM    104  F   UNL A   1      36.660  30.824  27.312  1.00  0.00    -0.200 F 
ATOM    105  C   UNL A   1      36.956  29.673  29.352  1.00  0.00     0.200 A 
ATOM    106  F   UNL A   1      37.292  28.503  31.377  1.00  0.00    -0.200 F 
ATOM    107  F   UNL A   1      35.819  30.198  29.830  1.00  0.00    -0.200 F 
ENDBRANCH  74  97
ENDBRANCH  48  49
ENDBRANCH  40  43
ENDBRANCH  38  39
ENDBRANCH  37  38
ENDBRANCH   1  37
TORSDOF 13
ENDMDL
MODEL 2
REMARK VINA RESULT:      -9.9      5.166     12.117
REMARK SMILES COCc1cc(C)nc2sc3c(c12)N[C@H](c1ccccc1C(=O)NCCCNC(=O)c1ccc(-c2c4nc(c(-c5c(F)c(F)c(F)c(F)c5F)c5ccc([nH]5)c(-c5c(F)c(F)c(F)c(F)c5F)c5nc(c(-c6c(F)c(F)c(F)c(F)c6F)c6ccc2[nH]6)C=C5)C=C4)cc1)n1c-3nc2ccccc21
REMARK SMILES IDX 25 1 24 2 22 3 23 4 21 6 16 7 17 8 18 9 20 10 19 11 15 12
REMARK SMILES IDX 4 13 5 14 13 15 6 16 9 17 12 18 7 19 8 20 10 21 11 22 14 23
REMARK SMILES IDX 95 24 94 26 96 27 102 28 97 29 101 30 98 31 100 32 99 33
REMARK SMILES IDX 3 34 2 35 1 36 26 37 27 38 28 39 29 40 30 42 31 43 32 44
REMARK SMILES IDX 93 45 33 46 92 47 34 48 35 49 36 50 86 51 37 52 91 53 85 54
REMARK SMILES IDX 87 55 38 56 90 57 84 58 83 59 39 61 71 62 51 63 70 64 52 65
REMARK SMILES IDX 55 66 69 67 88 68 53 69 54 70 68 72 89 73 56 74 40 75 41 76
REMARK SMILES IDX 49 77 42 78 43 79 47 80 50 81 44 82 45 83 48 84 46 85 72 86
REMARK SMILES IDX 73 87 81 88 74 89 75 90 79 91 82 92 76 93 77 94 80 95 78 96
REMARK SMILES IDX 57 97 58 98 66 99 59 100 60 101 64 102 67 103 61 104 62 105
REMARK SMILES IDX 65 106 63 107
REMARK H PARENT 24 5 14 25 28 41 87 60 55 71
REMARK Flexibility Score: inf
ROOT
ATOM      1  C   UNL A   1      32.817  28.085  23.042  1.00  0.00     0.118 C 
ENDROOT
BRANCH   1   2
ATOM      2  N   UNL A   1      33.115  26.892  22.296  1.00  0.00    -0.352 N 
ATOM      3  C   UNL A   1      33.084  25.595  22.688  1.00  0.00     0.251 C 
ATOM      4  O   UNL A   1      33.449  24.735  21.887  1.00  0.00    -0.269 OA
ATOM      5  H   UNL A   1      33.384  27.040  21.360  1.00  0.00     0.163 HD
BRANCH   3   6
ATOM      6  C   UNL A   1      32.787  25.225  24.093  1.00  0.00     0.046 A 
ATOM      7  C   UNL A   1      33.414  24.257  24.928  1.00  0.00     0.008 A 
ATOM      8  C   UNL A   1      32.822  24.095  26.211  1.00  0.00     0.008 A 
ATOM      9  C   UNL A   1      31.759  24.900  26.667  1.00  0.00     0.000 A 
ATOM     10  C   UNL A   1      31.742  26.049  24.585  1.00  0.00     0.014 A 
ATOM     11  C   UNL A   1      31.240  25.903  25.865  1.00  0.00     0.001 A 
BRANCH   7  12
ATOM     12  C   UNL A   1      34.776  23.532  24.719  1.00  0.00     0.215 C 
ATOM     13  C   UNL A   1      39.253  24.383  27.140  1.00  0.00    -0.008 A 
ATOM     14  C   UNL A   1      40.333  23.827  27.905  1.00  0.00     0.030 A 
ATOM     15  C   UNL A   1      38.483  23.458  26.353  1.00  0.00     0.041 A 
ATOM     16  C   UNL A   1      40.805  22.554  27.681  1.00  0.00     0.039 A 
ATOM     17  C   UNL A   1      39.183  22.245  26.153  1.00  0.00     0.126 A 
ATOM     18  C   UNL A   1      37.136  23.318  25.712  1.00  0.00     0.068 A 
ATOM     19  C   UNL A   1      41.811  21.873  28.552  1.00  0.00     0.067 C 
ATOM     20  N   UNL A   1      40.325  21.814  26.701  1.00  0.00    -0.242 NA
ATOM     21  S   UNL A   1      38.427  21.155  25.125  1.00  0.00    -0.110 S 
ATOM     22  C   UNL A   1      37.002  21.989  25.371  1.00  0.00     0.096 A 
ATOM     23  N   UNL A   1      35.975  24.096  25.579  1.00  0.00    -0.359 N 
ATOM     24  C   UNL A   1      35.776  21.352  25.160  1.00  0.00     0.155 A 
ATOM     25  H   UNL A   1      35.909  24.976  26.013  1.00  0.00     0.163 HD
ATOM     26  N   UNL A   1      34.707  22.052  24.691  1.00  0.00    -0.298 N 
ATOM     27  N   UNL A   1      35.486  20.115  25.461  1.00  0.00    -0.227 NA
ATOM     28  C   UNL A   1      33.867  21.091  24.180  1.00  0.00     0.071 A 
ATOM     29  C   UNL A   1      34.305  19.922  24.825  1.00  0.00     0.089 A 
ATOM     30  C   UNL A   1      32.783  21.061  23.301  1.00  0.00     0.029 A 
ATOM     31  C   UNL A   1      33.594  18.727  24.732  1.00  0.00     0.030 A 
ATOM     32  C   UNL A   1      32.111  19.830  23.171  1.00  0.00     0.002 A 
ATOM     33  C   UNL A   1      32.488  18.693  23.894  1.00  0.00     0.002 A 
BRANCH  13  34
ATOM     34  C   UNL A   1      39.113  25.884  27.273  1.00  0.00     0.196 C 
BRANCH  34  35
ATOM     35  O   UNL A   1      40.338  26.575  26.962  1.00  0.00    -0.380 OA
ATOM     36  C   UNL A   1      40.972  26.186  25.744  1.00  0.00     0.195 C 
ENDBRANCH  34  35
ENDBRANCH  13  34
ENDBRANCH   7  12
ENDBRANCH   3   6
ENDBRANCH   1   2
BRANCH   1  37
ATOM     37  C   UNL A   1      34.036  28.681  23.714  1.00  0.00     0.042 C 
BRANCH  37  38
ATOM     38  C   UNL A   1      34.130  28.471  25.231  1.00  0.00     0.118 C 
BRANCH  38  39
ATOM     39  N   UNL A   1      33.221  29.215  26.072  1.00  0.00    -0.352 N 
ATOM     40  C   UNL A   1      33.477  30.351  26.814  1.00  0.00     0.251 C 
ATOM     41  H   UNL A   1      32.301  28.868  26.123  1.00  0.00     0.163 HD
ATOM     42  O   UNL A   1      32.620  31.146  27.097  1.00  0.00    -0.269 OA
BRANCH  40  43
ATOM     43  C   UNL A   1      34.802  30.439  27.466  1.00  0.00     0.039 A 
ATOM     44  C   UNL A   1      35.524  29.354  27.967  1.00  0.00     0.014 A 
ATOM     45  C   UNL A   1      35.212  31.744  27.722  1.00  0.00     0.014 A 
ATOM     46  C   UNL A   1      36.594  29.585  28.842  1.00  0.00     0.010 A 
ATOM     47  C   UNL A   1      36.282  31.972  28.570  1.00  0.00     0.010 A 
ATOM     48  C   UNL A   1      36.957  30.898  29.168  1.00  0.00    -0.014 A 
BRANCH  48  49
ATOM     49  C   UNL A   1      38.021  31.193  30.164  1.00  0.00     0.031 A 
ATOM     50  C   UNL A   1      39.271  30.360  29.947  1.00  0.00     0.074 A 
ATOM     51  C   UNL A   1      38.126  32.516  30.418  1.00  0.00     0.049 A 
ATOM     52  N   UNL A   1      40.453  30.688  29.510  1.00  0.00    -0.248 NA
ATOM     53  C   UNL A   1      39.116  28.919  30.205  1.00  0.00     0.031 C 
ATOM     54  C   UNL A   1      38.992  33.447  29.712  1.00  0.00     0.029 A 
ATOM     55  N   UNL A   1      37.841  33.157  31.616  1.00  0.00    -0.354 N 
ATOM     56  C   UNL A   1      41.193  29.509  29.446  1.00  0.00     0.074 A 
ATOM     57  C   UNL A   1      40.315  28.443  29.866  1.00  0.00     0.031 C 
ATOM     58  C   UNL A   1      39.245  34.501  30.504  1.00  0.00     0.029 A 
ATOM     59  C   UNL A   1      38.682  34.246  31.830  1.00  0.00     0.049 A 
ATOM     60  H   UNL A   1      37.131  32.877  32.238  1.00  0.00     0.167 HD
ATOM     61  C   UNL A   1      42.503  29.406  29.096  1.00  0.00     0.037 A 
ATOM     62  C   UNL A   1      39.356  34.471  33.001  1.00  0.00     0.037 A 
ATOM     63  C   UNL A   1      43.203  30.608  28.789  1.00  0.00     0.049 A 
ATOM     64  C   UNL A   1      40.760  33.991  32.693  1.00  0.00     0.074 A 
ATOM     65  C   UNL A   1      43.676  31.251  27.669  1.00  0.00     0.029 A 
ATOM     66  N   UNL A   1      43.645  31.378  29.836  1.00  0.00    -0.354 N 
ATOM     67  N   UNL A   1      41.700  34.611  32.027  1.00  0.00    -0.248 NA
ATOM     68  C   UNL A   1      40.976  32.549  32.848  1.00  0.00     0.031 C 
ATOM     69  C   UNL A   1      43.919  32.599  28.077  1.00  0.00     0.029 A 
ATOM     70  C   UNL A   1      43.595  32.685  29.431  1.00  0.00     0.049 A 
ATOM     71  H   UNL A   1      43.943  31.052  30.715  1.00  0.00     0.167 HD
ATOM     72  C   UNL A   1      42.460  33.589  31.439  1.00  0.00     0.074 A 
ATOM     73  C   UNL A   1      42.026  32.358  32.063  1.00  0.00     0.031 C 
ATOM     74  C   UNL A   1      43.209  33.764  30.310  1.00  0.00     0.037 A 
BRANCH  61  75
ATOM     75  C   UNL A   1      43.253  28.137  29.176  1.00  0.00     0.064 A 
ATOM     76  C   UNL A   1      43.579  27.469  27.987  1.00  0.00     0.173 A 
ATOM     77  C   UNL A   1      43.536  27.508  30.391  1.00  0.00     0.173 A 
ATOM     78  F   UNL A   1      43.331  28.050  26.802  1.00  0.00    -0.203 F 
ATOM     79  C   UNL A   1      44.136  26.197  28.010  1.00  0.00     0.198 A 
ATOM     80  C   UNL A   1      44.102  26.234  30.413  1.00  0.00     0.198 A 
ATOM     81  F   UNL A   1      43.243  28.116  31.550  1.00  0.00    -0.203 F 
ATOM     82  F   UNL A   1      44.408  25.568  26.858  1.00  0.00    -0.200 F 
ATOM     83  C   UNL A   1      44.389  25.575  29.223  1.00  0.00     0.200 A 
ATOM     84  F   UNL A   1      44.352  25.633  31.583  1.00  0.00    -0.200 F 
ATOM     85  F   UNL A   1      44.903  24.339  29.246  1.00  0.00    -0.200 F 
ENDBRANCH  61  75
BRANCH  62  86
ATOM     86  C   UNL A   1      38.655  34.200  34.295  1.00  0.00     0.064 A 
ATOM     87  C   UNL A   1      37.264  34.413  34.366  1.00  0.00     0.173 A 
ATOM     88  C   UNL A   1      39.262  33.717  35.466  1.00  0.00     0.173 A 
ATOM     89  F   UNL A   1      36.613  34.960  33.327  1.00  0.00    -0.203 F 
ATOM     90  C   UNL A   1      36.513  34.038  35.479  1.00  0.00     0.198 A 
ATOM     91  C   UNL A   1      38.508  33.314  36.571  1.00  0.00     0.198 A 
ATOM     92  F   UNL A   1      40.593  33.601  35.564  1.00  0.00    -0.203 F 
ATOM     93  F   UNL A   1      35.184  34.209  35.475  1.00  0.00    -0.200 F 
ATOM     94  C   UNL A   1      37.133  33.457  36.570  1.00  0.00     0.200 A 
ATOM     95  F   UNL A   1      39.121  32.760  37.626  1.00  0.00    -0.200 F 
ATOM     96  F   UNL A   1      36.408  33.034  37.613  1.00  0.00    -0.200 F 
ENDBRANCH  62  86
BRANCH  74  97
ATOM     97  C   UNL A   1      43.345  35.163  29.828  1.00  0.00     0.064 A 
ATOM     98  C   UNL A   1      44.364  35.991  30.308  1.00  0.00     0.173 A 
ATOM     99  C   UNL A   1      42.489  35.668  28.836  1.00  0.00     0.173 A 
ATOM    100  F   UNL A   1      45.210  35.546  31.248  1.00  0.00    -0.203 F 
ATOM    101  C   UNL A   1      44.535  37.274  29.793  1.00  0.00     0.198 A 
ATOM    102  C   UNL A   1      42.672  36.943  28.314  1.00  0.00     0.198 A 
ATOM    103  F   UNL A   1      41.482  34.919  28.362  1.00  0.00    -0.203 F 
ATOM    104  F   UNL A   1      45.523  38.052  30.255  1.00  0.00    -0.200 F 
ATOM    105  C   UNL A   1      43.697  37.744  28.790  1.00  0.00     0.200 A 
ATOM    106  F   UNL A   1      41.863  37.393  27.343  1.00  0.00    -0.200 F 
ATOM    107  F   UNL A   1      43.884  38.968  28.278  1.00  0.00    -0.200 F 
ENDBRANCH  74  97
ENDBRANCH  48  49
ENDBRANCH  40  43
ENDBRANCH  38  39
ENDBRANCH  37  38
ENDBRANCH   1  37
TORSDOF 13
ENDMDL
MODEL 3
REMARK VINA RESULT:      -9.9      3.832      9.935
REMARK SMILES COCc1cc(C)nc2sc3c(c12)N[C@H](c1ccccc1C(=O)NCCCNC(=O)c1ccc(-c2c4nc(c(-c5c(F)c(F)c(F)c(F)c5F)c5ccc([nH]5)c(-c5c(F)c(F)c(F)c(F)c5F)c5nc(c(-c6c(F)c(F)c(F)c(F)c6F)c6ccc2[nH]6)C=C5)C=C4)cc1)n1c-3nc2ccccc21
REMARK SMILES IDX 25 1 24 2 22 3 23 4 21 6 16 7 17 8 18 9 20 10 19 11 15 12
REMARK SMILES IDX 4 13 5 14 13 15 6 16 9 17 12 18 7 19 8 20 10 21 11 22 14 23
REMARK SMILES IDX 95 24 94 26 96 27 102 28 97 29 101 30 98 31 100 32 99 33
REMARK SMILES IDX 3 34 2 35 1 36 26 37 27 38 28 39 29 40 30 42 31 43 32 44
REMARK SMILES IDX 93 45 33 46 92 47 34 48 35 49 36 50 86 51 37 52 91 53 85 54
REMARK SMILES IDX 87 55 38 56 90 57 84 58 83 59 39 61 71 62 51 63 70 64 52 65
REMARK SMILES IDX 55 66 69 67 88 68 53 69 54 70 68 72 89 73 56 74 40 75 41 76
REMARK SMILES IDX 49 77 42 78 43 79 47 80 50 81 44 82 45 83 48 84 46 85 72 86
REMARK SMILES IDX 73 87 81 88 74 89 75 90 79 91 82 92 76 93 77 94 80 95 78 96
REMARK SMILES IDX 57 97 58 98 66 99 59 100 60 101 64 102 67 103 61 104 62 105
REMARK SMILES IDX 65 106 63 107
REMARK H PARENT 24 5 14 25 28 41 87 60 55 71
REMARK Flexibility Score: inf
ROOT
ATOM      1  C   UNL A   1      44.600  32.785  26.539  1.00  0.00     0.118 C 
ENDROOT
BRANCH   1   2
ATOM      2  N   UNL A   1      45.137  31.698  25.766  1.00  0.00    -0.352 N 
ATOM      3  C   UNL A   1      46.037  30.747  26.117  1.00  0.00     0.251 C 
ATOM      4  O   UNL A   1      46.404  29.947  25.258  1.00  0.00    -0.269 OA
ATOM      5  H   UNL A   1      44.801  31.635  24.842  1.00  0.00     0.163 HD
BRANCH   3   6
ATOM      6  C   UNL A   1      46.697  30.769  27.444  1.00  0.00     0.046 A 
ATOM      7  C   UNL A   1      46.542  29.884  28.550  1.00  0.00     0.008 A 
ATOM      8  C   UNL A   1      47.272  30.244  29.715  1.00  0.00     0.008 A 
ATOM      9  C   UNL A   1      48.163  31.335  29.751  1.00  0.00     0.000 A 
ATOM     10  C   UNL A   1      47.627  31.840  27.490  1.00  0.00     0.014 A 
ATOM     11  C   UNL A   1      48.368  32.114  28.624  1.00  0.00     0.001 A 
BRANCH   7  12
ATOM     12  C   UNL A   1      45.879  28.476  28.579  1.00  0.00     0.215 C 
ATOM     13  C   UNL A   1      40.853  27.309  28.533  1.00  0.00    -0.008 A 
ATOM     14  C   UNL A   1      39.792  26.579  27.898  1.00  0.00     0.030 A 
ATOM     15  C   UNL A   1      42.188  26.827  28.302  1.00  0.00     0.041 A 
ATOM     16  C   UNL A   1      39.990  25.329  27.357  1.00  0.00     0.039 A 
ATOM     17  C   UNL A   1      42.181  25.491  27.841  1.00  0.00     0.126 A 
ATOM     18  C   UNL A   1      43.612  27.293  28.329  1.00  0.00     0.068 A 
ATOM     19  C   UNL A   1      38.967  24.600  26.547  1.00  0.00     0.067 C 
ATOM     20  N   UNL A   1      41.155  24.720  27.459  1.00  0.00    -0.242 NA
ATOM     21  S   UNL A   1      43.698  24.790  27.681  1.00  0.00    -0.110 S 
ATOM     22  C   UNL A   1      44.351  26.327  27.680  1.00  0.00     0.096 A 
ATOM     23  N   UNL A   1      44.301  28.478  28.632  1.00  0.00    -0.359 N 
ATOM     24  C   UNL A   1      45.606  26.551  27.107  1.00  0.00     0.155 A 
ATOM     25  H   UNL A   1      43.809  29.296  28.872  1.00  0.00     0.163 HD
ATOM     26  N   UNL A   1      46.441  27.492  27.624  1.00  0.00    -0.298 N 
ATOM     27  N   UNL A   1      46.066  26.000  26.016  1.00  0.00    -0.227 NA
ATOM     28  C   UNL A   1      47.685  27.138  27.155  1.00  0.00     0.071 A 
ATOM     29  C   UNL A   1      47.380  26.330  26.047  1.00  0.00     0.089 A 
ATOM     30  C   UNL A   1      49.009  27.425  27.490  1.00  0.00     0.029 A 
ATOM     31  C   UNL A   1      48.368  25.906  25.159  1.00  0.00     0.030 A 
ATOM     32  C   UNL A   1      50.000  26.938  26.616  1.00  0.00     0.002 A 
ATOM     33  C   UNL A   1      49.687  26.219  25.457  1.00  0.00     0.002 A 
BRANCH  13  34
ATOM     34  C   UNL A   1      40.380  28.476  29.372  1.00  0.00     0.196 C 
BRANCH  34  35
ATOM     35  O   UNL A   1      39.023  28.308  29.823  1.00  0.00    -0.380 OA
ATOM     36  C   UNL A   1      38.868  27.619  31.064  1.00  0.00     0.195 C 
ENDBRANCH  34  35
ENDBRANCH  13  34
ENDBRANCH   7  12
ENDBRANCH   3   6
ENDBRANCH   1   2
BRANCH   1  37
ATOM     37  C   UNL A   1      44.602  34.100  25.789  1.00  0.00     0.042 C 
BRANCH  37  38
ATOM     38  C   UNL A   1      45.554  35.175  26.331  1.00  0.00     0.118 C 
BRANCH  38  39
ATOM     39  N   UNL A   1      45.095  36.545  26.327  1.00  0.00    -0.352 N 
ATOM     40  C   UNL A   1      44.553  37.269  27.370  1.00  0.00     0.251 C 
ATOM     41  H   UNL A   1      45.180  37.023  25.470  1.00  0.00     0.163 HD
ATOM     42  O   UNL A   1      44.626  38.468  27.432  1.00  0.00    -0.269 OA
BRANCH  40  43
ATOM     43  C   UNL A   1      43.657  36.541  28.295  1.00  0.00     0.039 A 
ATOM     44  C   UNL A   1      44.060  35.914  29.475  1.00  0.00     0.014 A 
ATOM     45  C   UNL A   1      42.371  36.358  27.797  1.00  0.00     0.014 A 
ATOM     46  C   UNL A   1      43.204  34.991  30.090  1.00  0.00     0.010 A 
ATOM     47  C   UNL A   1      41.517  35.462  28.416  1.00  0.00     0.010 A 
ATOM     48  C   UNL A   1      41.939  34.742  29.544  1.00  0.00    -0.014 A 
BRANCH  48  49
ATOM     49  C   UNL A   1      41.033  33.704  30.103  1.00  0.00     0.031 A 
ATOM     50  C   UNL A   1      41.784  32.490  30.620  1.00  0.00     0.074 A 
ATOM     51  C   UNL A   1      40.034  34.243  30.837  1.00  0.00     0.049 A 
ATOM     52  N   UNL A   1      42.000  32.070  31.833  1.00  0.00    -0.248 NA
ATOM     53  C   UNL A   1      42.445  31.677  29.586  1.00  0.00     0.031 C 
ATOM     54  C   UNL A   1      40.078  34.500  32.268  1.00  0.00     0.029 A 
ATOM     55  N   UNL A   1      38.678  34.224  30.536  1.00  0.00    -0.354 N 
ATOM     56  C   UNL A   1      42.810  30.942  31.724  1.00  0.00     0.074 A 
ATOM     57  C   UNL A   1      43.073  30.754  30.316  1.00  0.00     0.031 C 
ATOM     58  C   UNL A   1      38.826  34.535  32.748  1.00  0.00     0.029 A 
ATOM     59  C   UNL A   1      37.896  34.149  31.686  1.00  0.00     0.049 A 
ATOM     60  H   UNL A   1      38.315  34.260  29.622  1.00  0.00     0.167 HD
ATOM     61  C   UNL A   1      43.227  30.154  32.751  1.00  0.00     0.037 A 
ATOM     62  C   UNL A   1      36.872  33.256  31.854  1.00  0.00     0.037 A 
ATOM     63  C   UNL A   1      42.780  30.485  34.062  1.00  0.00     0.049 A 
ATOM     64  C   UNL A   1      37.490  32.176  32.719  1.00  0.00     0.074 A 
ATOM     65  C   UNL A   1      43.304  31.048  35.202  1.00  0.00     0.029 A 
ATOM     66  N   UNL A   1      41.509  30.112  34.421  1.00  0.00    -0.354 N 
ATOM     67  N   UNL A   1      37.696  32.191  34.011  1.00  0.00    -0.248 NA
ATOM     68  C   UNL A   1      38.255  31.157  31.995  1.00  0.00     0.031 C 
ATOM     69  C   UNL A   1      42.177  31.434  35.990  1.00  0.00     0.029 A 
ATOM     70  C   UNL A   1      41.033  31.061  35.285  1.00  0.00     0.049 A 
ATOM     71  H   UNL A   1      41.028  29.310  34.115  1.00  0.00     0.167 HD
ATOM     72  C   UNL A   1      38.827  31.385  34.206  1.00  0.00     0.074 A 
ATOM     73  C   UNL A   1      39.055  30.706  32.949  1.00  0.00     0.031 C 
ATOM     74  C   UNL A   1      39.658  31.504  35.283  1.00  0.00     0.037 A 
BRANCH  61  75
ATOM     75  C   UNL A   1      43.978  28.900  32.541  1.00  0.00     0.064 A 
ATOM     76  C   UNL A   1      45.375  28.926  32.648  1.00  0.00     0.173 A 
ATOM     77  C   UNL A   1      43.365  27.721  32.112  1.00  0.00     0.173 A 
ATOM     78  F   UNL A   1      45.996  30.040  33.068  1.00  0.00    -0.203 F 
ATOM     79  C   UNL A   1      46.140  27.819  32.301  1.00  0.00     0.198 A 
ATOM     80  C   UNL A   1      44.133  26.608  31.772  1.00  0.00     0.198 A 
ATOM     81  F   UNL A   1      42.029  27.656  32.002  1.00  0.00    -0.203 F 
ATOM     82  F   UNL A   1      47.477  27.881  32.381  1.00  0.00    -0.200 F 
ATOM     83  C   UNL A   1      45.519  26.663  31.854  1.00  0.00     0.200 A 
ATOM     84  F   UNL A   1      43.535  25.489  31.344  1.00  0.00    -0.200 F 
ATOM     85  F   UNL A   1      46.257  25.604  31.496  1.00  0.00    -0.200 F 
ENDBRANCH  61  75
BRANCH  62  86
ATOM     86  C   UNL A   1      35.970  32.972  30.694  1.00  0.00     0.064 A 
ATOM     87  C   UNL A   1      34.792  33.732  30.554  1.00  0.00     0.173 A 
ATOM     88  C   UNL A   1      36.206  32.015  29.693  1.00  0.00     0.173 A 
ATOM     89  F   UNL A   1      34.437  34.605  31.510  1.00  0.00    -0.203 F 
ATOM     90  C   UNL A   1      33.981  33.639  29.424  1.00  0.00     0.198 A 
ATOM     91  C   UNL A   1      35.410  31.941  28.547  1.00  0.00     0.198 A 
ATOM     92  F   UNL A   1      37.219  31.144  29.787  1.00  0.00    -0.203 F 
ATOM     93  F   UNL A   1      32.902  34.426  29.312  1.00  0.00    -0.200 F 
ATOM     94  C   UNL A   1      34.310  32.766  28.404  1.00  0.00     0.200 A 
ATOM     95  F   UNL A   1      35.734  31.084  27.569  1.00  0.00    -0.200 F 
ATOM     96  F   UNL A   1      33.572  32.722  27.287  1.00  0.00    -0.200 F 
ENDBRANCH  62  86
BRANCH  74  97
ATOM     97  C   UNL A   1      39.199  32.415  36.364  1.00  0.00     0.064 A 
ATOM     98  C   UNL A   1      38.325  31.963  37.358  1.00  0.00     0.173 A 
ATOM     99  C   UNL A   1      39.676  33.732  36.446  1.00  0.00     0.173 A 
ATOM    100  F   UNL A   1      37.853  30.708  37.323  1.00  0.00    -0.203 F 
ATOM    101  C   UNL A   1      37.961  32.796  38.413  1.00  0.00     0.198 A 
ATOM    102  C   UNL A   1      39.323  34.556  37.509  1.00  0.00     0.198 A 
ATOM    103  F   UNL A   1      40.497  34.218  35.503  1.00  0.00    -0.203 F 
ATOM    104  F   UNL A   1      37.132  32.346  39.363  1.00  0.00    -0.200 F 
ATOM    105  C   UNL A   1      38.469  34.086  38.493  1.00  0.00     0.200 A 
ATOM    106  F   UNL A   1      39.817  35.801  37.585  1.00  0.00    -0.200 F 
ATOM    107  F   UNL A   1      38.139  34.875  39.525  1.00  0.00    -0.200 F 
ENDBRANCH  74  97
ENDBRANCH  48  49
ENDBRANCH  40  43
ENDBRANCH  38  39
ENDBRANCH  37  38
ENDBRANCH   1  37
TORSDOF 13
ENDMDL
