MODEL 1
REMARK VINA RESULT:     -12.6      0.000      0.000
REMARK SMILES Cc1cc(O[C@@H]2C[C@H](C)C[C@H](C)C2)cc(C(=O)NCCCNC(=O)c2ccc(-c3c4nc(c(-c5c(F)c(F)c(F)c(F)c5F)c5ccc([nH]5)c(-c5c(F)c(F)c(F)c(F)c5F)c5nc(c(-c6c(F)c(F)c(F)c(F)c6F)c6ccc3[nH]6)C=C5)C=C4)cc2)c1N
REMARK SMILES IDX 20 1 19 2 18 3 16 4 17 5 15 7 1 8 2 9 3 10 88 11 4 12 14 13
REMARK SMILES IDX 89 14 5 17 6 18 13 19 7 20 11 21 8 22 12 23 10 24 9 25 21 26
REMARK SMILES IDX 22 27 23 28 24 30 25 31 26 32 87 33 27 34 86 35 28 36 29 37
REMARK SMILES IDX 30 38 80 39 31 40 85 41 79 42 81 43 32 44 84 45 78 46 77 47
REMARK SMILES IDX 33 49 65 50 45 51 64 52 46 53 49 54 63 55 82 56 47 57 48 58
REMARK SMILES IDX 62 60 83 61 50 62 34 63 35 64 43 65 36 66 37 67 41 68 44 69
REMARK SMILES IDX 38 70 39 71 42 72 40 73 66 74 67 75 75 76 68 77 69 78 73 79
REMARK SMILES IDX 76 80 70 81 71 82 74 83 72 84 51 85 52 86 60 87 53 88 54 89
REMARK SMILES IDX 58 90 61 91 55 92 56 93 59 94 57 95
REMARK H PARENT 18 6 89 15 89 16 22 29 81 48 49 59
REMARK Flexibility Score: inf
ROOT
ATOM      1  C   UNL A   1      38.073  19.873  24.955  1.00  0.00     0.042 C 
ENDROOT
BRANCH   1   2
ATOM      2  C   UNL A   1      37.043  20.987  24.799  1.00  0.00     0.118 C 
BRANCH   2   3
ATOM      3  N   UNL A   1      37.482  22.151  25.536  1.00  0.00    -0.352 N 
ATOM      4  C   UNL A   1      36.907  23.344  25.873  1.00  0.00     0.253 C 
ATOM      5  O   UNL A   1      37.659  24.128  26.461  1.00  0.00    -0.269 OA
ATOM      6  H   UNL A   1      38.403  22.064  25.873  1.00  0.00     0.163 HD
BRANCH   4   7
ATOM      7  C   UNL A   1      35.463  23.684  25.649  1.00  0.00     0.066 A 
ATOM      8  C   UNL A   1      32.060  22.928  27.204  1.00  0.00     0.047 C 
ATOM      9  C   UNL A   1      33.127  23.272  26.193  1.00  0.00    -0.024 A 
ATOM     10  C   UNL A   1      32.753  23.977  25.042  1.00  0.00     0.052 A 
ATOM     11  C   UNL A   1      34.491  23.075  26.484  1.00  0.00     0.048 A 
ATOM     12  C   UNL A   1      33.665  24.866  24.506  1.00  0.00     0.120 A 
ATOM     13  C   UNL A   1      35.027  24.657  24.735  1.00  0.00     0.062 A 
BRANCH  11  14
ATOM     14  N   UNL A   1      34.844  22.475  27.696  1.00  0.00    -0.398 N 
ATOM     15  H   UNL A   1      34.286  21.756  28.070  1.00  0.00     0.156 HD
ATOM     16  H   UNL A   1      35.651  22.772  28.175  1.00  0.00     0.156 HD
ENDBRANCH  11  14
BRANCH  12  17
ATOM     17  O   UNL A   1      33.316  26.059  23.914  1.00  0.00    -0.490 OA
BRANCH  17  18
ATOM     18  C   UNL A   1      33.813  27.318  24.474  1.00  0.00     0.173 C 
ATOM     19  C   UNL A   1      33.343  28.630  23.853  1.00  0.00     0.048 C 
ATOM     20  C   UNL A   1      33.495  27.380  26.009  1.00  0.00     0.048 C 
ATOM     21  C   UNL A   1      31.901  28.992  24.214  1.00  0.00    -0.010 C 
ATOM     22  C   UNL A   1      32.687  28.617  26.586  1.00  0.00    -0.010 C 
ATOM     23  C   UNL A   1      30.829  27.897  24.258  1.00  0.00     0.008 C 
ATOM     24  C   UNL A   1      32.031  29.600  25.590  1.00  0.00     0.007 C 
ATOM     25  C   UNL A   1      31.640  28.175  27.622  1.00  0.00     0.008 C 
ENDBRANCH  17  18
ENDBRANCH  12  17
ENDBRANCH   4   7
ENDBRANCH   2   3
ENDBRANCH   1   2
BRANCH   1  26
ATOM     26  C   UNL A   1      39.112  20.210  26.022  1.00  0.00     0.118 C 
BRANCH  26  27
ATOM     27  N   UNL A   1      40.220  19.257  25.999  1.00  0.00    -0.352 N 
ATOM     28  C   UNL A   1      41.564  19.492  25.980  1.00  0.00     0.251 C 
ATOM     29  H   UNL A   1      39.959  18.308  25.998  1.00  0.00     0.163 HD
ATOM     30  O   UNL A   1      42.345  18.605  25.618  1.00  0.00    -0.269 OA
BRANCH  28  31
ATOM     31  C   UNL A   1      42.081  20.800  26.407  1.00  0.00     0.039 A 
ATOM     32  C   UNL A   1      42.419  21.756  25.449  1.00  0.00     0.014 A 
ATOM     33  C   UNL A   1      42.253  21.066  27.769  1.00  0.00     0.014 A 
ATOM     34  C   UNL A   1      42.884  23.004  25.862  1.00  0.00     0.010 A 
ATOM     35  C   UNL A   1      42.622  22.337  28.180  1.00  0.00     0.010 A 
ATOM     36  C   UNL A   1      42.957  23.311  27.230  1.00  0.00    -0.014 A 
BRANCH  36  37
ATOM     37  C   UNL A   1      43.399  24.643  27.702  1.00  0.00     0.031 A 
ATOM     38  C   UNL A   1      42.375  25.687  28.046  1.00  0.00     0.074 A 
ATOM     39  C   UNL A   1      44.714  24.931  27.732  1.00  0.00     0.049 A 
ATOM     40  N   UNL A   1      42.550  26.942  28.371  1.00  0.00    -0.248 NA
ATOM     41  C   UNL A   1      40.962  25.277  27.980  1.00  0.00     0.031 C 
ATOM     42  C   UNL A   1      45.790  24.008  27.365  1.00  0.00     0.029 A 
ATOM     43  N   UNL A   1      45.368  26.086  28.074  1.00  0.00    -0.354 N 
ATOM     44  C   UNL A   1      41.275  27.471  28.527  1.00  0.00     0.074 A 
ATOM     45  C   UNL A   1      40.335  26.422  28.201  1.00  0.00     0.031 C 
ATOM     46  C   UNL A   1      46.970  24.626  27.523  1.00  0.00     0.029 A 
ATOM     47  C   UNL A   1      46.733  25.999  27.955  1.00  0.00     0.049 A 
ATOM     48  H   UNL A   1      44.903  26.900  28.374  1.00  0.00     0.167 HD
ATOM     49  C   UNL A   1      40.925  28.715  28.931  1.00  0.00     0.037 A 
ATOM     50  C   UNL A   1      47.683  26.930  28.160  1.00  0.00     0.037 A 
ATOM     51  C   UNL A   1      41.872  29.739  29.280  1.00  0.00     0.049 A 
ATOM     52  C   UNL A   1      47.265  28.305  28.608  1.00  0.00     0.074 A 
ATOM     53  C   UNL A   1      41.627  31.011  29.766  1.00  0.00     0.029 A 
ATOM     54  N   UNL A   1      43.250  29.606  29.176  1.00  0.00    -0.354 N 
ATOM     55  N   UNL A   1      46.060  28.774  28.824  1.00  0.00    -0.248 NA
ATOM     56  C   UNL A   1      48.339  29.277  28.847  1.00  0.00     0.031 C 
ATOM     57  C   UNL A   1      42.854  31.667  29.903  1.00  0.00     0.029 A 
ATOM     58  C   UNL A   1      43.867  30.784  29.563  1.00  0.00     0.049 A 
ATOM     59  H   UNL A   1      43.718  28.796  28.871  1.00  0.00     0.167 HD
ATOM     60  C   UNL A   1      46.230  30.084  29.252  1.00  0.00     0.074 A 
ATOM     61  C   UNL A   1      47.658  30.329  29.279  1.00  0.00     0.031 C 
ATOM     62  C   UNL A   1      45.291  31.001  29.591  1.00  0.00     0.037 A 
BRANCH  49  63
ATOM     63  C   UNL A   1      39.459  29.032  29.021  1.00  0.00     0.064 A 
ATOM     64  C   UNL A   1      38.713  29.400  27.890  1.00  0.00     0.173 A 
ATOM     65  C   UNL A   1      38.783  28.933  30.246  1.00  0.00     0.173 A 
ATOM     66  F   UNL A   1      39.312  29.522  26.696  1.00  0.00    -0.203 F 
ATOM     67  C   UNL A   1      37.354  29.687  27.989  1.00  0.00     0.198 A 
ATOM     68  C   UNL A   1      37.417  29.186  30.335  1.00  0.00     0.198 A 
ATOM     69  F   UNL A   1      39.446  28.582  31.358  1.00  0.00    -0.203 F 
ATOM     70  F   UNL A   1      36.674  30.088  26.905  1.00  0.00    -0.200 F 
ATOM     71  C   UNL A   1      36.705  29.571  29.209  1.00  0.00     0.200 A 
ATOM     72  F   UNL A   1      36.789  29.059  31.512  1.00  0.00    -0.200 F 
ATOM     73  F   UNL A   1      35.395  29.835  29.301  1.00  0.00    -0.200 F 
ENDBRANCH  49  63
BRANCH  50  74
ATOM     74  C   UNL A   1      49.116  26.586  27.965  1.00  0.00     0.064 A 
ATOM     75  C   UNL A   1      49.671  26.521  26.679  1.00  0.00     0.173 A 
ATOM     76  C   UNL A   1      49.959  26.320  29.053  1.00  0.00     0.173 A 
ATOM     77  F   UNL A   1      48.902  26.754  25.605  1.00  0.00    -0.203 F 
ATOM     78  C   UNL A   1      51.007  26.179  26.488  1.00  0.00     0.198 A 
ATOM     79  C   UNL A   1      51.303  26.008  28.863  1.00  0.00     0.198 A 
ATOM     80  F   UNL A   1      49.480  26.378  30.304  1.00  0.00    -0.203 F 
ATOM     81  F   UNL A   1      51.500  26.075  25.247  1.00  0.00    -0.200 F 
ATOM     82  C   UNL A   1      51.824  25.928  27.580  1.00  0.00     0.200 A 
ATOM     83  F   UNL A   1      52.094  25.785  29.922  1.00  0.00    -0.200 F 
ATOM     84  F   UNL A   1      53.111  25.603  27.398  1.00  0.00    -0.200 F 
ENDBRANCH  50  74
BRANCH  62  85
ATOM     85  C   UNL A   1      45.777  32.342  30.061  1.00  0.00     0.064 A 
ATOM     86  C   UNL A   1      45.951  33.415  29.176  1.00  0.00     0.173 A 
ATOM     87  C   UNL A   1      46.019  32.567  31.425  1.00  0.00     0.173 A 
ATOM     88  F   UNL A   1      45.745  33.247  27.861  1.00  0.00    -0.203 F 
ATOM     89  C   UNL A   1      46.372  34.660  29.636  1.00  0.00     0.198 A 
ATOM     90  C   UNL A   1      46.407  33.821  31.885  1.00  0.00     0.198 A 
ATOM     91  F   UNL A   1      45.861  31.575  32.314  1.00  0.00    -0.203 F 
ATOM     92  F   UNL A   1      46.578  35.659  28.767  1.00  0.00    -0.200 F 
ATOM     93  C   UNL A   1      46.591  34.864  30.991  1.00  0.00     0.200 A 
ATOM     94  F   UNL A   1      46.601  34.021  33.197  1.00  0.00    -0.200 F 
ATOM     95  F   UNL A   1      46.984  36.067  31.433  1.00  0.00    -0.200 F 
ENDBRANCH  62  85
ENDBRANCH  36  37
ENDBRANCH  28  31
ENDBRANCH  26  27
ENDBRANCH   1  26
TORSDOF 13
ENDMDL
MODEL 2
REMARK VINA RESULT:     -12.6      0.097      1.953
REMARK SMILES Cc1cc(O[C@@H]2C[C@H](C)C[C@H](C)C2)cc(C(=O)NCCCNC(=O)c2ccc(-c3c4nc(c(-c5c(F)c(F)c(F)c(F)c5F)c5ccc([nH]5)c(-c5c(F)c(F)c(F)c(F)c5F)c5nc(c(-c6c(F)c(F)c(F)c(F)c6F)c6ccc3[nH]6)C=C5)C=C4)cc2)c1N
REMARK SMILES IDX 20 1 19 2 18 3 16 4 17 5 15 7 1 8 2 9 3 10 88 11 4 12 14 13
REMARK SMILES IDX 89 14 5 17 6 18 13 19 7 20 11 21 8 22 12 23 10 24 9 25 21 26
REMARK SMILES IDX 22 27 23 28 24 30 25 31 26 32 87 33 27 34 86 35 28 36 29 37
REMARK SMILES IDX 30 38 80 39 31 40 85 41 79 42 81 43 32 44 84 45 78 46 77 47
REMARK SMILES IDX 33 49 65 50 45 51 64 52 46 53 49 54 63 55 82 56 47 57 48 58
REMARK SMILES IDX 62 60 83 61 50 62 34 63 35 64 43 65 36 66 37 67 41 68 44 69
REMARK SMILES IDX 38 70 39 71 42 72 40 73 66 74 67 75 75 76 68 77 69 78 73 79
REMARK SMILES IDX 76 80 70 81 71 82 74 83 72 84 51 85 52 86 60 87 53 88 54 89
REMARK SMILES IDX 58 90 61 91 55 92 56 93 59 94 57 95
REMARK H PARENT 18 6 89 15 89 16 22 29 81 48 49 59
REMARK Flexibility Score: inf
ROOT
ATOM      1  C   UNL A   1      38.081  19.841  24.973  1.00  0.00     0.042 C 
ENDROOT
BRANCH   1   2
ATOM      2  C   UNL A   1      37.202  21.043  24.644  1.00  0.00     0.118 C 
BRANCH   2   3
ATOM      3  N   UNL A   1      37.593  22.162  25.473  1.00  0.00    -0.352 N 
ATOM      4  C   UNL A   1      36.980  23.313  25.878  1.00  0.00     0.253 C 
ATOM      5  O   UNL A   1      37.698  24.071  26.538  1.00  0.00    -0.269 OA
ATOM      6  H   UNL A   1      38.509  22.074  25.825  1.00  0.00     0.163 HD
BRANCH   4   7
ATOM      7  C   UNL A   1      35.533  23.633  25.643  1.00  0.00     0.066 A 
ATOM      8  C   UNL A   1      32.123  22.757  27.117  1.00  0.00     0.047 C 
ATOM      9  C   UNL A   1      33.198  23.157  26.136  1.00  0.00    -0.024 A 
ATOM     10  C   UNL A   1      32.827  23.894  25.004  1.00  0.00     0.052 A 
ATOM     11  C   UNL A   1      34.561  22.977  26.441  1.00  0.00     0.048 A 
ATOM     12  C   UNL A   1      33.729  24.819  24.514  1.00  0.00     0.120 A 
ATOM     13  C   UNL A   1      35.091  24.629  24.757  1.00  0.00     0.062 A 
BRANCH  11  14
ATOM     14  N   UNL A   1      34.908  22.342  27.637  1.00  0.00    -0.398 N 
ATOM     15  H   UNL A   1      34.205  22.055  28.264  1.00  0.00     0.156 HD
ATOM     16  H   UNL A   1      35.855  22.182  27.852  1.00  0.00     0.156 HD
ENDBRANCH  11  14
BRANCH  12  17
ATOM     17  O   UNL A   1      33.366  26.025  23.958  1.00  0.00    -0.490 OA
BRANCH  17  18
ATOM     18  C   UNL A   1      33.884  27.271  24.527  1.00  0.00     0.173 C 
ATOM     19  C   UNL A   1      33.463  28.594  23.896  1.00  0.00     0.048 C 
ATOM     20  C   UNL A   1      33.535  27.343  26.056  1.00  0.00     0.048 C 
ATOM     21  C   UNL A   1      32.023  28.995  24.225  1.00  0.00    -0.010 C 
ATOM     22  C   UNL A   1      32.748  28.602  26.614  1.00  0.00    -0.010 C 
ATOM     23  C   UNL A   1      30.922  27.929  24.247  1.00  0.00     0.008 C 
ATOM     24  C   UNL A   1      32.140  29.601  25.603  1.00  0.00     0.007 C 
ATOM     25  C   UNL A   1      31.667  28.189  27.627  1.00  0.00     0.008 C 
ENDBRANCH  17  18
ENDBRANCH  12  17
ENDBRANCH   4   7
ENDBRANCH   2   3
ENDBRANCH   1   2
BRANCH   1  26
ATOM     26  C   UNL A   1      39.102  20.167  26.061  1.00  0.00     0.118 C 
BRANCH  26  27
ATOM     27  N   UNL A   1      40.208  19.213  26.050  1.00  0.00    -0.352 N 
ATOM     28  C   UNL A   1      41.553  19.447  26.033  1.00  0.00     0.251 C 
ATOM     29  H   UNL A   1      39.946  18.264  26.055  1.00  0.00     0.163 HD
ATOM     30  O   UNL A   1      42.335  18.556  25.682  1.00  0.00    -0.269 OA
BRANCH  28  31
ATOM     31  C   UNL A   1      42.070  20.757  26.452  1.00  0.00     0.039 A 
ATOM     32  C   UNL A   1      42.424  21.700  25.487  1.00  0.00     0.014 A 
ATOM     33  C   UNL A   1      42.225  21.039  27.813  1.00  0.00     0.014 A 
ATOM     34  C   UNL A   1      42.888  22.951  25.891  1.00  0.00     0.010 A 
ATOM     35  C   UNL A   1      42.594  22.313  28.213  1.00  0.00     0.010 A 
ATOM     36  C   UNL A   1      42.945  23.275  27.257  1.00  0.00    -0.014 A 
BRANCH  36  37
ATOM     37  C   UNL A   1      43.386  24.611  27.718  1.00  0.00     0.031 A 
ATOM     38  C   UNL A   1      42.362  25.653  28.064  1.00  0.00     0.074 A 
ATOM     39  C   UNL A   1      44.700  24.902  27.739  1.00  0.00     0.049 A 
ATOM     40  N   UNL A   1      42.535  26.910  28.382  1.00  0.00    -0.248 NA
ATOM     41  C   UNL A   1      40.950  25.239  28.010  1.00  0.00     0.031 C 
ATOM     42  C   UNL A   1      45.777  23.980  27.369  1.00  0.00     0.029 A 
ATOM     43  N   UNL A   1      45.353  26.061  28.069  1.00  0.00    -0.354 N 
ATOM     44  C   UNL A   1      41.260  27.436  28.543  1.00  0.00     0.074 A 
ATOM     45  C   UNL A   1      40.321  26.383  28.229  1.00  0.00     0.031 C 
ATOM     46  C   UNL A   1      46.956  24.603  27.515  1.00  0.00     0.029 A 
ATOM     47  C   UNL A   1      46.718  25.978  27.942  1.00  0.00     0.049 A 
ATOM     48  H   UNL A   1      44.888  26.875  28.369  1.00  0.00     0.167 HD
ATOM     49  C   UNL A   1      40.908  28.681  28.944  1.00  0.00     0.037 A 
ATOM     50  C   UNL A   1      47.666  26.913  28.136  1.00  0.00     0.037 A 
ATOM     51  C   UNL A   1      41.855  29.710  29.281  1.00  0.00     0.049 A 
ATOM     52  C   UNL A   1      47.247  28.289  28.580  1.00  0.00     0.074 A 
ATOM     53  C   UNL A   1      41.610  30.983  29.761  1.00  0.00     0.029 A 
ATOM     54  N   UNL A   1      43.233  29.581  29.168  1.00  0.00    -0.354 N 
ATOM     55  N   UNL A   1      46.043  28.755  28.801  1.00  0.00    -0.248 NA
ATOM     56  C   UNL A   1      48.321  29.265  28.806  1.00  0.00     0.031 C 
ATOM     57  C   UNL A   1      42.836  31.644  29.887  1.00  0.00     0.029 A 
ATOM     58  C   UNL A   1      43.849  30.762  29.544  1.00  0.00     0.049 A 
ATOM     59  H   UNL A   1      43.701  28.770  28.864  1.00  0.00     0.167 HD
ATOM     60  C   UNL A   1      46.212  30.068  29.221  1.00  0.00     0.074 A 
ATOM     61  C   UNL A   1      47.639  30.317  29.237  1.00  0.00     0.031 C 
ATOM     62  C   UNL A   1      45.273  30.984  29.562  1.00  0.00     0.037 A 
BRANCH  49  63
ATOM     63  C   UNL A   1      39.443  28.995  29.041  1.00  0.00     0.064 A 
ATOM     64  C   UNL A   1      38.754  28.933  30.263  1.00  0.00     0.173 A 
ATOM     65  C   UNL A   1      38.724  29.396  27.906  1.00  0.00     0.173 A 
ATOM     66  F   UNL A   1      39.390  28.543  31.378  1.00  0.00    -0.203 F 
ATOM     67  C   UNL A   1      37.396  29.231  30.337  1.00  0.00     0.198 A 
ATOM     68  C   UNL A   1      37.374  29.728  27.991  1.00  0.00     0.198 A 
ATOM     69  F   UNL A   1      39.332  29.476  26.713  1.00  0.00    -0.203 F 
ATOM     70  F   UNL A   1      36.749  29.114  31.506  1.00  0.00    -0.200 F 
ATOM     71  C   UNL A   1      36.709  29.637  29.204  1.00  0.00     0.200 A 
ATOM     72  F   UNL A   1      36.716  30.134  26.895  1.00  0.00    -0.200 F 
ATOM     73  F   UNL A   1      35.405  29.935  29.279  1.00  0.00    -0.200 F 
ENDBRANCH  49  63
BRANCH  50  74
ATOM     74  C   UNL A   1      49.099  26.572  27.932  1.00  0.00     0.064 A 
ATOM     75  C   UNL A   1      49.942  26.324  29.024  1.00  0.00     0.173 A 
ATOM     76  C   UNL A   1      49.653  26.482  26.647  1.00  0.00     0.173 A 
ATOM     77  F   UNL A   1      49.462  26.411  30.274  1.00  0.00    -0.203 F 
ATOM     78  C   UNL A   1      51.290  26.024  28.841  1.00  0.00     0.198 A 
ATOM     79  C   UNL A   1      50.994  26.152  26.463  1.00  0.00     0.198 A 
ATOM     80  F   UNL A   1      48.888  26.700  25.569  1.00  0.00    -0.203 F 
ATOM     81  F   UNL A   1      52.084  25.841  29.904  1.00  0.00    -0.200 F 
ATOM     82  C   UNL A   1      51.814  25.934  27.560  1.00  0.00     0.200 A 
ATOM     83  F   UNL A   1      51.492  26.046  25.224  1.00  0.00    -0.200 F 
ATOM     84  F   UNL A   1      53.110  25.641  27.383  1.00  0.00    -0.200 F 
ENDBRANCH  50  74
BRANCH  62  85
ATOM     85  C   UNL A   1      45.758  32.328  30.021  1.00  0.00     0.064 A 
ATOM     86  C   UNL A   1      46.053  32.586  31.367  1.00  0.00     0.173 A 
ATOM     87  C   UNL A   1      45.980  33.355  29.090  1.00  0.00     0.173 A 
ATOM     88  F   UNL A   1      45.844  31.642  32.297  1.00  0.00    -0.203 F 
ATOM     89  C   UNL A   1      46.532  33.831  31.768  1.00  0.00     0.198 A 
ATOM     90  C   UNL A   1      46.490  34.586  29.489  1.00  0.00     0.198 A 
ATOM     91  F   UNL A   1      45.720  33.157  27.789  1.00  0.00    -0.203 F 
ATOM     92  F   UNL A   1      46.762  34.071  33.066  1.00  0.00    -0.200 F 
ATOM     93  C   UNL A   1      46.758  34.825  30.828  1.00  0.00     0.200 A 
ATOM     94  F   UNL A   1      46.726  35.539  28.578  1.00  0.00    -0.200 F 
ATOM     95  F   UNL A   1      47.232  36.018  31.215  1.00  0.00    -0.200 F 
ENDBRANCH  62  85
ENDBRANCH  36  37
ENDBRANCH  28  31
ENDBRANCH  26  27
ENDBRANCH   1  26
TORSDOF 13
ENDMDL
MODEL 3
REMARK VINA RESULT:     -12.5      5.361     10.540
REMARK SMILES Cc1cc(O[C@@H]2C[C@H](C)C[C@H](C)C2)cc(C(=O)NCCCNC(=O)c2ccc(-c3c4nc(c(-c5c(F)c(F)c(F)c(F)c5F)c5ccc([nH]5)c(-c5c(F)c(F)c(F)c(F)c5F)c5nc(c(-c6c(F)c(F)c(F)c(F)c6F)c6ccc3[nH]6)C=C5)C=C4)cc2)c1N
REMARK SMILES IDX 20 1 19 2 18 3 16 4 17 5 15 7 1 8 2 9 3 10 88 11 4 12 14 13
REMARK SMILES IDX 89 14 5 17 6 18 13 19 7 20 11 21 8 22 12 23 10 24 9 25 21 26
REMARK SMILES IDX 22 27 23 28 24 30 25 31 26 32 87 33 27 34 86 35 28 36 29 37
REMARK SMILES IDX 30 38 80 39 31 40 85 41 79 42 81 43 32 44 84 45 78 46 77 47
REMARK SMILES IDX 33 49 65 50 45 51 64 52 46 53 49 54 63 55 82 56 47 57 48 58
REMARK SMILES IDX 62 60 83 61 50 62 34 63 35 64 43 65 36 66 37 67 41 68 44 69
REMARK SMILES IDX 38 70 39 71 42 72 40 73 66 74 67 75 75 76 68 77 69 78 73 79
REMARK SMILES IDX 76 80 70 81 71 82 74 83 72 84 51 85 52 86 60 87 53 88 54 89
REMARK SMILES IDX 58 90 61 91 55 92 56 93 59 94 57 95
REMARK H PARENT 18 6 89 15 89 16 22 29 81 48 49 59
REMARK Flexibility Score: inf
ROOT
ATOM      1  C   UNL A   1      31.614  31.910  26.725  1.00  0.00     0.042 C 
ENDROOT
BRANCH   1   2
ATOM      2  C   UNL A   1      31.833  30.424  26.462  1.00  0.00     0.118 C 
BRANCH   2   3
ATOM      3  N   UNL A   1      33.206  30.082  26.762  1.00  0.00    -0.352 N 
ATOM      4  C   UNL A   1      33.995  28.992  26.528  1.00  0.00     0.253 C 
ATOM      5  O   UNL A   1      35.123  29.059  27.026  1.00  0.00    -0.269 OA
ATOM      6  H   UNL A   1      33.680  30.799  27.244  1.00  0.00     0.163 HD
BRANCH   4   7
ATOM      7  C   UNL A   1      33.600  27.827  25.670  1.00  0.00     0.066 A 
ATOM      8  C   UNL A   1      33.368  26.938  21.964  1.00  0.00     0.047 C 
ATOM      9  C   UNL A   1      33.101  26.962  23.450  1.00  0.00    -0.024 A 
ATOM     10  C   UNL A   1      32.517  25.834  24.040  1.00  0.00     0.052 A 
ATOM     11  C   UNL A   1      33.607  27.996  24.261  1.00  0.00     0.048 A 
ATOM     12  C   UNL A   1      32.882  25.522  25.336  1.00  0.00     0.120 A 
ATOM     13  C   UNL A   1      33.332  26.544  26.175  1.00  0.00     0.062 A 
BRANCH  11  14
ATOM     14  N   UNL A   1      34.292  29.055  23.657  1.00  0.00    -0.398 N 
ATOM     15  H   UNL A   1      35.259  29.162  23.804  1.00  0.00     0.156 HD
ATOM     16  H   UNL A   1      33.806  29.693  23.087  1.00  0.00     0.156 HD
ENDBRANCH  11  14
BRANCH  12  17
ATOM     17  O   UNL A   1      33.013  24.236  25.808  1.00  0.00    -0.490 OA
BRANCH  17  18
ATOM     18  C   UNL A   1      34.301  23.787  26.341  1.00  0.00     0.173 C 
ATOM     19  C   UNL A   1      34.433  22.344  26.818  1.00  0.00     0.048 C 
ATOM     20  C   UNL A   1      35.432  24.042  25.284  1.00  0.00     0.048 C 
ATOM     21  C   UNL A   1      34.507  21.330  25.674  1.00  0.00    -0.010 C 
ATOM     22  C   UNL A   1      36.350  22.833  24.822  1.00  0.00    -0.010 C 
ATOM     23  C   UNL A   1      33.615  21.506  24.440  1.00  0.00     0.008 C 
ATOM     24  C   UNL A   1      35.952  21.401  25.243  1.00  0.00     0.007 C 
ATOM     25  C   UNL A   1      36.602  22.862  23.305  1.00  0.00     0.008 C 
ENDBRANCH  17  18
ENDBRANCH  12  17
ENDBRANCH   4   7
ENDBRANCH   2   3
ENDBRANCH   1   2
BRANCH   1  26
ATOM     26  C   UNL A   1      32.917  32.618  27.089  1.00  0.00     0.118 C 
BRANCH  26  27
ATOM     27  N   UNL A   1      32.668  33.989  27.529  1.00  0.00    -0.352 N 
ATOM     28  C   UNL A   1      33.092  34.627  28.659  1.00  0.00     0.251 C 
ATOM     29  H   UNL A   1      32.113  34.531  26.923  1.00  0.00     0.163 HD
ATOM     30  O   UNL A   1      32.521  35.653  29.045  1.00  0.00    -0.269 OA
BRANCH  28  31
ATOM     31  C   UNL A   1      34.244  34.099  29.404  1.00  0.00     0.039 A 
ATOM     32  C   UNL A   1      34.031  33.324  30.544  1.00  0.00     0.014 A 
ATOM     33  C   UNL A   1      35.542  34.398  28.978  1.00  0.00     0.014 A 
ATOM     34  C   UNL A   1      35.127  32.804  31.231  1.00  0.00     0.010 A 
ATOM     35  C   UNL A   1      36.625  33.802  29.604  1.00  0.00     0.010 A 
ATOM     36  C   UNL A   1      36.429  33.014  30.746  1.00  0.00    -0.014 A 
BRANCH  36  37
ATOM     37  C   UNL A   1      37.610  32.435  31.423  1.00  0.00     0.031 A 
ATOM     38  C   UNL A   1      38.345  31.289  30.788  1.00  0.00     0.074 A 
ATOM     39  C   UNL A   1      37.960  32.885  32.643  1.00  0.00     0.049 A 
ATOM     40  N   UNL A   1      39.330  30.572  31.262  1.00  0.00    -0.248 NA
ATOM     41  C   UNL A   1      37.886  30.867  29.453  1.00  0.00     0.031 C 
ATOM     42  C   UNL A   1      37.280  33.956  33.376  1.00  0.00     0.029 A 
ATOM     43  N   UNL A   1      38.963  32.488  33.488  1.00  0.00    -0.354 N 
ATOM     44  C   UNL A   1      39.592  29.608  30.297  1.00  0.00     0.074 A 
ATOM     45  C   UNL A   1      38.624  29.789  29.239  1.00  0.00     0.031 C 
ATOM     46  C   UNL A   1      37.901  34.145  34.550  1.00  0.00     0.029 A 
ATOM     47  C   UNL A   1      38.988  33.180  34.674  1.00  0.00     0.049 A 
ATOM     48  H   UNL A   1      39.604  31.774  33.267  1.00  0.00     0.167 HD
ATOM     49  C   UNL A   1      40.571  28.672  30.288  1.00  0.00     0.037 A 
ATOM     50  C   UNL A   1      39.792  33.040  35.744  1.00  0.00     0.037 A 
ATOM     51  C   UNL A   1      41.545  28.523  31.336  1.00  0.00     0.049 A 
ATOM     52  C   UNL A   1      40.871  31.991  35.707  1.00  0.00     0.074 A 
ATOM     53  C   UNL A   1      42.619  27.654  31.398  1.00  0.00     0.029 A 
ATOM     54  N   UNL A   1      41.558  29.263  32.511  1.00  0.00    -0.354 N 
ATOM     55  N   UNL A   1      41.158  31.133  34.759  1.00  0.00    -0.248 NA
ATOM     56  C   UNL A   1      41.742  31.897  36.886  1.00  0.00     0.031 C 
ATOM     57  C   UNL A   1      43.249  27.829  32.633  1.00  0.00     0.029 A 
ATOM     58  C   UNL A   1      42.606  28.850  33.315  1.00  0.00     0.049 A 
ATOM     59  H   UNL A   1      40.916  29.973  32.738  1.00  0.00     0.167 HD
ATOM     60  C   UNL A   1      42.258  30.417  35.211  1.00  0.00     0.074 A 
ATOM     61  C   UNL A   1      42.595  30.953  36.514  1.00  0.00     0.031 C 
ATOM     62  C   UNL A   1      42.929  29.406  34.605  1.00  0.00     0.037 A 
BRANCH  49  63
ATOM     63  C   UNL A   1      40.637  27.744  29.109  1.00  0.00     0.064 A 
ATOM     64  C   UNL A   1      39.807  26.617  29.009  1.00  0.00     0.173 A 
ATOM     65  C   UNL A   1      41.518  28.003  28.048  1.00  0.00     0.173 A 
ATOM     66  F   UNL A   1      38.955  26.316  30.000  1.00  0.00    -0.203 F 
ATOM     67  C   UNL A   1      39.877  25.769  27.907  1.00  0.00     0.198 A 
ATOM     68  C   UNL A   1      41.561  27.172  26.932  1.00  0.00     0.198 A 
ATOM     69  F   UNL A   1      42.333  29.068  28.090  1.00  0.00    -0.203 F 
ATOM     70  F   UNL A   1      39.111  24.670  27.859  1.00  0.00    -0.200 F 
ATOM     71  C   UNL A   1      40.747  26.051  26.865  1.00  0.00     0.200 A 
ATOM     72  F   UNL A   1      42.394  27.456  25.920  1.00  0.00    -0.200 F 
ATOM     73  F   UNL A   1      40.807  25.241  25.801  1.00  0.00    -0.200 F 
ENDBRANCH  49  63
BRANCH  50  74
ATOM     74  C   UNL A   1      39.620  33.927  36.925  1.00  0.00     0.064 A 
ATOM     75  C   UNL A   1      38.840  33.525  38.018  1.00  0.00     0.173 A 
ATOM     76  C   UNL A   1      40.231  35.187  36.988  1.00  0.00     0.173 A 
ATOM     77  F   UNL A   1      38.224  32.334  37.999  1.00  0.00    -0.203 F 
ATOM     78  C   UNL A   1      38.657  34.360  39.118  1.00  0.00     0.198 A 
ATOM     79  C   UNL A   1      40.073  36.009  38.101  1.00  0.00     0.198 A 
ATOM     80  F   UNL A   1      40.994  35.616  35.973  1.00  0.00    -0.203 F 
ATOM     81  F   UNL A   1      37.867  33.971  40.127  1.00  0.00    -0.200 F 
ATOM     82  C   UNL A   1      39.278  35.599  39.162  1.00  0.00     0.200 A 
ATOM     83  F   UNL A   1      40.690  37.197  38.148  1.00  0.00    -0.200 F 
ATOM     84  F   UNL A   1      39.107  36.401  40.222  1.00  0.00    -0.200 F 
ENDBRANCH  50  74
BRANCH  62  85
ATOM     85  C   UNL A   1      44.119  28.842  35.324  1.00  0.00     0.064 A 
ATOM     86  C   UNL A   1      45.409  29.357  35.133  1.00  0.00     0.173 A 
ATOM     87  C   UNL A   1      43.955  27.806  36.256  1.00  0.00     0.173 A 
ATOM     88  F   UNL A   1      45.620  30.338  34.243  1.00  0.00    -0.203 F 
ATOM     89  C   UNL A   1      46.496  28.840  35.833  1.00  0.00     0.198 A 
ATOM     90  C   UNL A   1      45.038  27.315  36.979  1.00  0.00     0.198 A 
ATOM     91  F   UNL A   1      42.740  27.283  36.481  1.00  0.00    -0.203 F 
ATOM     92  F   UNL A   1      47.727  29.314  35.601  1.00  0.00    -0.200 F 
ATOM     93  C   UNL A   1      46.308  27.826  36.762  1.00  0.00     0.200 A 
ATOM     94  F   UNL A   1      44.851  26.348  37.889  1.00  0.00    -0.200 F 
ATOM     95  F   UNL A   1      47.353  27.339  37.444  1.00  0.00    -0.200 F 
ENDBRANCH  62  85
ENDBRANCH  36  37
ENDBRANCH  28  31
ENDBRANCH  26  27
ENDBRANCH   1  26
TORSDOF 13
ENDMDL
