MODEL 1
REMARK VINA RESULT:     -10.9      0.000      0.000
REMARK SMILES CN1C(=O)C(=Cc2ccc(OCc3cccc(C(=O)NCCCNC(=O)c4ccc(-c5c6nc(c(-c7c(F)c(F)c(F)c(F)c7F)c7ccc([nH]7)c(-c7c(F)c(F)c(F)c(F)c7F)c7nc(c(-c8c(F)c(F)c(F)c(F)c8F)c8ccc5[nH]8)C=C7)C=C6)cc4)c3)c(Cl)c2)C(=O)N(C)C1=S
REMARK SMILES IDX 21 1 20 2 18 3 19 4 17 6 13 7 14 8 90 9 15 10 16 11 12 12
REMARK SMILES IDX 11 13 10 14 7 15 8 16 93 17 9 18 91 19 92 20 6 21 1 22 2 23
REMARK SMILES IDX 3 24 98 25 4 26 5 27 96 28 99 29 94 30 97 31 95 32 22 33
REMARK SMILES IDX 23 34 24 35 25 36 26 38 27 39 28 40 89 41 29 42 88 43 30 44
REMARK SMILES IDX 31 45 32 46 82 47 33 48 87 49 81 50 83 51 34 52 86 53 80 54
REMARK SMILES IDX 79 55 35 57 67 58 47 59 66 60 48 61 51 62 65 63 84 64 49 65
REMARK SMILES IDX 50 66 64 68 85 69 52 70 36 71 37 72 45 73 38 74 39 75 43 76
REMARK SMILES IDX 46 77 40 78 41 79 44 80 42 81 68 82 69 83 77 84 70 85 71 86
REMARK SMILES IDX 75 87 78 88 72 89 73 90 76 91 74 92 53 93 54 94 62 95 55 96
REMARK SMILES IDX 56 97 60 98 63 99 57 100 58 101 61 102 59 103
REMARK H PARENT 20 5 24 37 83 56 51 67
REMARK Flexibility Score: inf
ROOT
ATOM      1  C   UNL A   1      42.758  19.826  26.171  1.00  0.00     0.118 C 
ENDROOT
BRANCH   1   2
ATOM      2  N   UNL A   1      43.192  20.827  25.214  1.00  0.00    -0.352 N 
ATOM      3  C   UNL A   1      43.396  22.177  25.341  1.00  0.00     0.251 C 
ATOM      4  O   UNL A   1      43.431  22.834  24.299  1.00  0.00    -0.269 OA
ATOM      5  H   UNL A   1      43.372  20.473  24.313  1.00  0.00     0.163 HD
BRANCH   3   6
ATOM      6  C   UNL A   1      43.578  22.875  26.646  1.00  0.00     0.040 A 
ATOM      7  C   UNL A   1      44.732  24.380  28.195  1.00  0.00    -0.010 A 
ATOM      8  C   UNL A   1      43.644  24.259  29.079  1.00  0.00     0.007 A 
ATOM      9  C   UNL A   1      44.660  23.720  26.951  1.00  0.00     0.021 A 
ATOM     10  C   UNL A   1      42.547  23.462  28.768  1.00  0.00     0.001 A 
ATOM     11  C   UNL A   1      42.524  22.760  27.566  1.00  0.00     0.014 A 
BRANCH   7  12
ATOM     12  C   UNL A   1      45.872  25.286  28.640  1.00  0.00     0.265 C 
BRANCH  12  13
ATOM     13  O   UNL A   1      46.403  26.270  27.751  1.00  0.00    -0.487 OA
BRANCH  13  14
ATOM     14  C   UNL A   1      45.742  27.444  27.551  1.00  0.00     0.138 A 
ATOM     15  C   UNL A   1      44.344  29.899  27.753  1.00  0.00    -0.023 A 
ATOM     16  C   UNL A   1      45.460  29.608  28.566  1.00  0.00     0.012 A 
ATOM     17  C   UNL A   1      44.011  28.970  26.770  1.00  0.00     0.032 A 
ATOM     18  C   UNL A   1      46.177  28.426  28.435  1.00  0.00     0.048 A 
ATOM     19  C   UNL A   1      44.703  27.749  26.663  1.00  0.00     0.083 A 
ATOM     20  Cl  UNL A   1      44.193  26.695  25.396  1.00  0.00    -0.080 Cl
BRANCH  15  21
ATOM     21  C   UNL A   1      43.402  31.004  28.079  1.00  0.00     0.027 C 
ATOM     22  C   UNL A   1      46.992  34.128  25.749  1.00  0.00     0.156 C 
ATOM     23  N   UNL A   1      45.867  34.135  26.674  1.00  0.00    -0.288 N 
ATOM     24  C   UNL A   1      45.100  32.592  26.639  1.00  0.00     0.265 C 
ATOM     25  C   UNL A   1      45.664  35.605  27.681  1.00  0.00     0.185 C 
ATOM     26  O   UNL A   1      45.279  31.810  25.707  1.00  0.00    -0.268 OA
ATOM     27  C   UNL A   1      43.775  32.293  28.005  1.00  0.00     0.106 C 
ATOM     28  N   UNL A   1      44.289  35.329  28.784  1.00  0.00    -0.288 N 
ATOM     29  S   UNL A   1      46.583  37.001  27.554  1.00  0.00    -0.040 S 
ATOM     30  C   UNL A   1      43.233  33.906  29.089  1.00  0.00     0.265 C 
ATOM     31  C   UNL A   1      43.946  36.468  29.612  1.00  0.00     0.156 C 
ATOM     32  O   UNL A   1      42.178  34.020  29.721  1.00  0.00    -0.268 OA
ENDBRANCH  15  21
ENDBRANCH  13  14
ENDBRANCH  12  13
ENDBRANCH   7  12
ENDBRANCH   3   6
ENDBRANCH   1   2
BRANCH   1  33
ATOM     33  C   UNL A   1      41.249  19.625  26.076  1.00  0.00     0.042 C 
BRANCH  33  34
ATOM     34  C   UNL A   1      40.337  20.515  26.946  1.00  0.00     0.118 C 
BRANCH  34  35
ATOM     35  N   UNL A   1      39.328  21.506  26.340  1.00  0.00    -0.352 N 
ATOM     36  C   UNL A   1      38.938  23.013  26.110  1.00  0.00     0.251 C 
ATOM     37  H   UNL A   1      38.625  20.965  25.911  1.00  0.00     0.163 HD
ATOM     38  O   UNL A   1      38.121  22.710  25.189  1.00  0.00    -0.269 OA
BRANCH  36  39
ATOM     39  C   UNL A   1      39.556  24.811  27.059  1.00  0.00     0.039 A 
ATOM     40  C   UNL A   1      40.420  25.938  26.622  1.00  0.00     0.014 A 
ATOM     41  C   UNL A   1      39.209  25.273  28.499  1.00  0.00     0.014 A 
ATOM     42  C   UNL A   1      40.866  27.066  27.386  1.00  0.00     0.010 A 
ATOM     43  C   UNL A   1      39.658  26.325  29.276  1.00  0.00     0.010 A 
ATOM     44  C   UNL A   1      40.509  27.225  28.713  1.00  0.00    -0.014 A 
BRANCH  44  45
ATOM     45  C   UNL A   1      40.852  28.355  29.568  1.00  0.00     0.031 A 
ATOM     46  C   UNL A   1      42.103  28.297  30.382  1.00  0.00     0.074 A 
ATOM     47  C   UNL A   1      39.869  29.245  29.784  1.00  0.00     0.049 A 
ATOM     48  N   UNL A   1      42.593  29.188  31.197  1.00  0.00    -0.248 NA
ATOM     49  C   UNL A   1      42.891  27.052  30.304  1.00  0.00     0.031 C 
ATOM     50  C   UNL A   1      38.532  29.180  29.175  1.00  0.00     0.029 A 
ATOM     51  N   UNL A   1      39.809  30.334  30.599  1.00  0.00    -0.354 N 
ATOM     52  C   UNL A   1      43.769  28.638  31.687  1.00  0.00     0.074 A 
ATOM     53  C   UNL A   1      43.876  27.299  31.157  1.00  0.00     0.031 C 
ATOM     54  C   UNL A   1      37.796  30.208  29.619  1.00  0.00     0.029 A 
ATOM     55  C   UNL A   1      38.612  31.001  30.524  1.00  0.00     0.049 A 
ATOM     56  H   UNL A   1      40.550  30.614  31.184  1.00  0.00     0.167 HD
ATOM     57  C   UNL A   1      44.681  29.239  32.487  1.00  0.00     0.037 A 
ATOM     58  C   UNL A   1      38.257  32.160  31.102  1.00  0.00     0.037 A 
ATOM     59  C   UNL A   1      44.461  30.556  33.030  1.00  0.00     0.049 A 
ATOM     60  C   UNL A   1      39.315  32.853  31.914  1.00  0.00     0.074 A 
ATOM     61  C   UNL A   1      45.294  31.334  33.809  1.00  0.00     0.029 A 
ATOM     62  N   UNL A   1      43.282  31.278  32.854  1.00  0.00    -0.354 N 
ATOM     63  N   UNL A   1      40.515  32.425  32.237  1.00  0.00    -0.248 NA
ATOM     64  C   UNL A   1      38.996  34.194  32.402  1.00  0.00     0.031 C 
ATOM     65  C   UNL A   1      44.600  32.505  34.141  1.00  0.00     0.029 A 
ATOM     66  C   UNL A   1      43.357  32.487  33.519  1.00  0.00     0.049 A 
ATOM     67  H   UNL A   1      42.507  30.970  32.332  1.00  0.00     0.167 HD
ATOM     68  C   UNL A   1      41.111  33.454  32.946  1.00  0.00     0.074 A 
ATOM     69  C   UNL A   1      40.140  34.535  32.979  1.00  0.00     0.031 C 
ATOM     70  C   UNL A   1      42.340  33.513  33.521  1.00  0.00     0.037 A 
BRANCH  57  71
ATOM     71  C   UNL A   1      45.953  28.494  32.784  1.00  0.00     0.064 A 
ATOM     72  C   UNL A   1      47.159  28.818  32.135  1.00  0.00     0.173 A 
ATOM     73  C   UNL A   1      45.986  27.449  33.720  1.00  0.00     0.173 A 
ATOM     74  F   UNL A   1      47.192  29.802  31.224  1.00  0.00    -0.203 F 
ATOM     75  C   UNL A   1      48.330  28.104  32.381  1.00  0.00     0.198 A 
ATOM     76  C   UNL A   1      47.167  26.755  33.986  1.00  0.00     0.198 A 
ATOM     77  F   UNL A   1      44.871  27.090  34.373  1.00  0.00    -0.203 F 
ATOM     78  F   UNL A   1      49.448  28.397  31.701  1.00  0.00    -0.200 F 
ATOM     79  C   UNL A   1      48.334  27.076  33.310  1.00  0.00     0.200 A 
ATOM     80  F   UNL A   1      47.172  25.767  34.891  1.00  0.00    -0.200 F 
ATOM     81  F   UNL A   1      49.460  26.387  33.543  1.00  0.00    -0.200 F 
ENDBRANCH  57  71
BRANCH  58  82
ATOM     82  C   UNL A   1      36.931  32.760  30.805  1.00  0.00     0.064 A 
ATOM     83  C   UNL A   1      35.882  32.678  31.732  1.00  0.00     0.173 A 
ATOM     84  C   UNL A   1      36.699  33.488  29.629  1.00  0.00     0.173 A 
ATOM     85  F   UNL A   1      36.053  32.006  32.880  1.00  0.00    -0.203 F 
ATOM     86  C   UNL A   1      34.646  33.273  31.482  1.00  0.00     0.198 A 
ATOM     87  C   UNL A   1      35.472  34.106  29.391  1.00  0.00     0.198 A 
ATOM     88  F   UNL A   1      37.678  33.629  28.723  1.00  0.00    -0.203 F 
ATOM     89  F   UNL A   1      33.651  33.146  32.371  1.00  0.00    -0.200 F 
ATOM     90  C   UNL A   1      34.443  33.990  30.313  1.00  0.00     0.200 A 
ATOM     91  F   UNL A   1      35.290  34.823  28.273  1.00  0.00    -0.200 F 
ATOM     92  F   UNL A   1      33.258  34.569  30.077  1.00  0.00    -0.200 F 
ENDBRANCH  58  82
BRANCH  70  93
ATOM     93  C   UNL A   1      42.677  34.797  34.213  1.00  0.00     0.064 A 
ATOM     94  C   UNL A   1      42.270  35.048  35.531  1.00  0.00     0.173 A 
ATOM     95  C   UNL A   1      43.431  35.776  33.552  1.00  0.00     0.173 A 
ATOM     96  F   UNL A   1      41.533  34.144  36.195  1.00  0.00    -0.203 F 
ATOM     97  C   UNL A   1      42.571  36.257  36.148  1.00  0.00     0.198 A 
ATOM     98  C   UNL A   1      43.765  36.967  34.187  1.00  0.00     0.198 A 
ATOM     99  F   UNL A   1      43.851  35.574  32.293  1.00  0.00    -0.203 F 
ATOM    100  F   UNL A   1      42.113  36.506  37.383  1.00  0.00    -0.200 F 
ATOM    101  C   UNL A   1      43.324  37.211  35.480  1.00  0.00     0.200 A 
ATOM    102  F   UNL A   1      44.507  37.880  33.547  1.00  0.00    -0.200 F 
ATOM    103  F   UNL A   1      43.616  38.373  36.078  1.00  0.00    -0.200 F 
ENDBRANCH  70  93
ENDBRANCH  44  45
ENDBRANCH  36  39
ENDBRANCH  34  35
ENDBRANCH  33  34
ENDBRANCH   1  33
TORSDOF 14
ENDMDL
MODEL 2
REMARK VINA RESULT:     -10.7      2.782      4.494
REMARK SMILES CN1C(=O)C(=Cc2ccc(OCc3cccc(C(=O)NCCCNC(=O)c4ccc(-c5c6nc(c(-c7c(F)c(F)c(F)c(F)c7F)c7ccc([nH]7)c(-c7c(F)c(F)c(F)c(F)c7F)c7nc(c(-c8c(F)c(F)c(F)c(F)c8F)c8ccc5[nH]8)C=C7)C=C6)cc4)c3)c(Cl)c2)C(=O)N(C)C1=S
REMARK SMILES IDX 21 1 20 2 18 3 19 4 17 6 13 7 14 8 90 9 15 10 16 11 12 12
REMARK SMILES IDX 11 13 10 14 7 15 8 16 93 17 9 18 91 19 92 20 6 21 1 22 2 23
REMARK SMILES IDX 3 24 98 25 4 26 5 27 96 28 99 29 94 30 97 31 95 32 22 33
REMARK SMILES IDX 23 34 24 35 25 36 26 38 27 39 28 40 89 41 29 42 88 43 30 44
REMARK SMILES IDX 31 45 32 46 82 47 33 48 87 49 81 50 83 51 34 52 86 53 80 54
REMARK SMILES IDX 79 55 35 57 67 58 47 59 66 60 48 61 51 62 65 63 84 64 49 65
REMARK SMILES IDX 50 66 64 68 85 69 52 70 36 71 37 72 45 73 38 74 39 75 43 76
REMARK SMILES IDX 46 77 40 78 41 79 44 80 42 81 68 82 69 83 77 84 70 85 71 86
REMARK SMILES IDX 75 87 78 88 72 89 73 90 76 91 74 92 53 93 54 94 62 95 55 96
REMARK SMILES IDX 56 97 60 98 63 99 57 100 58 101 61 102 59 103
REMARK H PARENT 20 5 24 37 83 56 51 67
REMARK Flexibility Score: inf
ROOT
ATOM      1  C   UNL A   1      42.832  20.004  26.394  1.00  0.00     0.118 C 
ENDROOT
BRANCH   1   2
ATOM      2  N   UNL A   1      43.020  21.034  25.389  1.00  0.00    -0.352 N 
ATOM      3  C   UNL A   1      43.372  22.354  25.496  1.00  0.00     0.251 C 
ATOM      4  O   UNL A   1      43.127  23.076  24.528  1.00  0.00    -0.269 OA
ATOM      5  H   UNL A   1      42.867  20.729  24.465  1.00  0.00     0.163 HD
BRANCH   3   6
ATOM      6  C   UNL A   1      44.027  22.949  26.697  1.00  0.00     0.040 A 
ATOM      7  C   UNL A   1      44.228  23.409  29.093  1.00  0.00    -0.010 A 
ATOM      8  C   UNL A   1      45.501  23.958  28.853  1.00  0.00     0.007 A 
ATOM      9  C   UNL A   1      43.521  22.858  28.006  1.00  0.00     0.021 A 
ATOM     10  C   UNL A   1      46.032  24.012  27.568  1.00  0.00     0.001 A 
ATOM     11  C   UNL A   1      45.291  23.527  26.495  1.00  0.00     0.014 A 
BRANCH   7  12
ATOM     12  C   UNL A   1      43.755  23.397  30.541  1.00  0.00     0.265 C 
BRANCH  12  13
ATOM     13  O   UNL A   1      44.619  23.840  31.588  1.00  0.00    -0.487 OA
BRANCH  13  14
ATOM     14  C   UNL A   1      44.153  24.677  32.557  1.00  0.00     0.138 A 
ATOM     15  C   UNL A   1      43.672  26.761  34.414  1.00  0.00    -0.023 A 
ATOM     16  C   UNL A   1      44.025  27.024  33.073  1.00  0.00     0.012 A 
ATOM     17  C   UNL A   1      43.470  25.429  34.771  1.00  0.00     0.032 A 
ATOM     18  C   UNL A   1      44.213  26.005  32.149  1.00  0.00     0.048 A 
ATOM     19  C   UNL A   1      43.705  24.389  33.851  1.00  0.00     0.083 A 
ATOM     20  Cl  UNL A   1      43.406  22.789  34.423  1.00  0.00    -0.080 Cl
BRANCH  15  21
ATOM     21  C   UNL A   1      43.762  27.805  35.469  1.00  0.00     0.027 C 
ATOM     22  C   UNL A   1      39.314  29.709  33.308  1.00  0.00     0.156 C 
ATOM     23  N   UNL A   1      40.444  30.068  34.154  1.00  0.00    -0.288 N 
ATOM     24  C   UNL A   1      41.325  28.641  34.552  1.00  0.00     0.265 C 
ATOM     25  C   UNL A   1      40.719  31.818  34.428  1.00  0.00     0.185 C 
ATOM     26  O   UNL A   1      40.822  27.525  34.434  1.00  0.00    -0.268 OA
ATOM     27  C   UNL A   1      43.023  28.927  35.415  1.00  0.00     0.106 C 
ATOM     28  N   UNL A   1      42.201  31.994  35.407  1.00  0.00    -0.288 N 
ATOM     29  S   UNL A   1      39.718  33.052  33.893  1.00  0.00    -0.040 S 
ATOM     30  C   UNL A   1      43.407  30.812  36.023  1.00  0.00     0.265 C 
ATOM     31  C   UNL A   1      42.512  33.359  35.783  1.00  0.00     0.156 C 
ATOM     32  O   UNL A   1      44.222  31.129  36.895  1.00  0.00    -0.268 OA
ENDBRANCH  15  21
ENDBRANCH  13  14
ENDBRANCH  12  13
ENDBRANCH   7  12
ENDBRANCH   3   6
ENDBRANCH   1   2
BRANCH   1  33
ATOM     33  C   UNL A   1      41.438  20.111  27.004  1.00  0.00     0.042 C 
BRANCH  33  34
ATOM     34  C   UNL A   1      40.229  19.696  26.140  1.00  0.00     0.118 C 
BRANCH  34  35
ATOM     35  N   UNL A   1      39.068  20.657  25.828  1.00  0.00    -0.352 N 
ATOM     36  C   UNL A   1      38.562  22.146  25.807  1.00  0.00     0.251 C 
ATOM     37  H   UNL A   1      38.323  20.101  25.502  1.00  0.00     0.163 HD
ATOM     38  O   UNL A   1      37.593  21.855  25.042  1.00  0.00    -0.269 OA
BRANCH  36  39
ATOM     39  C   UNL A   1      39.262  23.908  26.764  1.00  0.00     0.039 A 
ATOM     40  C   UNL A   1      39.143  24.418  28.155  1.00  0.00     0.014 A 
ATOM     41  C   UNL A   1      40.052  25.074  26.111  1.00  0.00     0.014 A 
ATOM     42  C   UNL A   1      39.564  25.684  28.678  1.00  0.00     0.010 A 
ATOM     43  C   UNL A   1      40.430  26.321  26.575  1.00  0.00     0.010 A 
ATOM     44  C   UNL A   1      40.168  26.633  27.873  1.00  0.00    -0.014 A 
BRANCH  44  45
ATOM     45  C   UNL A   1      40.690  27.924  28.305  1.00  0.00     0.031 A 
ATOM     46  C   UNL A   1      42.141  28.048  28.638  1.00  0.00     0.074 A 
ATOM     47  C   UNL A   1      39.770  28.839  28.654  1.00  0.00     0.049 A 
ATOM     48  N   UNL A   1      42.805  29.097  29.032  1.00  0.00    -0.248 NA
ATOM     49  C   UNL A   1      42.949  26.815  28.556  1.00  0.00     0.031 C 
ATOM     50  C   UNL A   1      38.317  28.642  28.564  1.00  0.00     0.029 A 
ATOM     51  N   UNL A   1      39.903  30.082  29.195  1.00  0.00    -0.354 N 
ATOM     52  C   UNL A   1      44.115  28.669  29.195  1.00  0.00     0.074 A 
ATOM     53  C   UNL A   1      44.140  27.245  28.951  1.00  0.00     0.031 C 
ATOM     54  C   UNL A   1      37.694  29.742  29.009  1.00  0.00     0.029 A 
ATOM     55  C   UNL A   1      38.703  30.716  29.395  1.00  0.00     0.049 A 
ATOM     56  H   UNL A   1      40.773  30.484  29.420  1.00  0.00     0.167 HD
ATOM     57  C   UNL A   1      45.193  29.431  29.493  1.00  0.00     0.037 A 
ATOM     58  C   UNL A   1      38.474  31.974  29.805  1.00  0.00     0.037 A 
ATOM     59  C   UNL A   1      45.068  30.835  29.792  1.00  0.00     0.049 A 
ATOM     60  C   UNL A   1      39.686  32.829  30.045  1.00  0.00     0.074 A 
ATOM     61  C   UNL A   1      46.051  31.767  30.061  1.00  0.00     0.029 A 
ATOM     62  N   UNL A   1      43.846  31.501  29.883  1.00  0.00    -0.354 N 
ATOM     63  N   UNL A   1      40.954  32.484  30.022  1.00  0.00    -0.248 NA
ATOM     64  C   UNL A   1      39.448  34.245  30.324  1.00  0.00     0.031 C 
ATOM     65  C   UNL A   1      45.421  32.982  30.359  1.00  0.00     0.029 A 
ATOM     66  C   UNL A   1      44.047  32.827  30.216  1.00  0.00     0.049 A 
ATOM     67  H   UNL A   1      42.967  31.085  29.732  1.00  0.00     0.167 HD
ATOM     68  C   UNL A   1      41.672  33.643  30.255  1.00  0.00     0.074 A 
ATOM     69  C   UNL A   1      40.689  34.705  30.391  1.00  0.00     0.031 C 
ATOM     70  C   UNL A   1      43.015  33.828  30.351  1.00  0.00     0.037 A 
BRANCH  57  71
ATOM     71  C   UNL A   1      46.544  28.770  29.487  1.00  0.00     0.064 A 
ATOM     72  C   UNL A   1      47.223  28.506  28.283  1.00  0.00     0.173 A 
ATOM     73  C   UNL A   1      47.178  28.393  30.680  1.00  0.00     0.173 A 
ATOM     74  F   UNL A   1      46.666  28.835  27.108  1.00  0.00    -0.203 F 
ATOM     75  C   UNL A   1      48.457  27.858  28.274  1.00  0.00     0.198 A 
ATOM     76  C   UNL A   1      48.428  27.771  30.669  1.00  0.00     0.198 A 
ATOM     77  F   UNL A   1      46.585  28.616  31.862  1.00  0.00    -0.203 F 
ATOM     78  F   UNL A   1      49.050  27.566  27.107  1.00  0.00    -0.200 F 
ATOM     79  C   UNL A   1      49.061  27.496  29.467  1.00  0.00     0.200 A 
ATOM     80  F   UNL A   1      49.015  27.429  31.824  1.00  0.00    -0.200 F 
ATOM     81  F   UNL A   1      50.246  26.871  29.456  1.00  0.00    -0.200 F 
ENDBRANCH  57  71
BRANCH  58  82
ATOM     82  C   UNL A   1      37.083  32.494  29.860  1.00  0.00     0.064 A 
ATOM     83  C   UNL A   1      36.329  32.404  31.040  1.00  0.00     0.173 A 
ATOM     84  C   UNL A   1      36.500  33.153  28.769  1.00  0.00     0.173 A 
ATOM     85  F   UNL A   1      36.843  31.796  32.119  1.00  0.00    -0.203 F 
ATOM     86  C   UNL A   1      35.038  32.925  31.115  1.00  0.00     0.198 A 
ATOM     87  C   UNL A   1      35.219  33.698  28.853  1.00  0.00     0.198 A 
ATOM     88  F   UNL A   1      37.189  33.299  27.627  1.00  0.00    -0.203 F 
ATOM     89  F   UNL A   1      34.329  32.792  32.245  1.00  0.00    -0.200 F 
ATOM     90  C   UNL A   1      34.486  33.576  30.023  1.00  0.00     0.200 A 
ATOM     91  F   UNL A   1      34.701  34.352  27.804  1.00  0.00    -0.200 F 
ATOM     92  F   UNL A   1      33.248  34.084  30.098  1.00  0.00    -0.200 F 
ENDBRANCH  58  82
BRANCH  70  93
ATOM     93  C   UNL A   1      43.464  35.233  30.604  1.00  0.00     0.064 A 
ATOM     94  C   UNL A   1      43.553  35.752  31.903  1.00  0.00     0.173 A 
ATOM     95  C   UNL A   1      43.827  36.060  29.532  1.00  0.00     0.173 A 
ATOM     96  F   UNL A   1      43.201  35.000  32.957  1.00  0.00    -0.203 F 
ATOM     97  C   UNL A   1      43.950  37.067  32.117  1.00  0.00     0.198 A 
ATOM     98  C   UNL A   1      44.263  37.362  29.752  1.00  0.00     0.198 A 
ATOM     99  F   UNL A   1      43.768  35.601  28.272  1.00  0.00    -0.203 F 
ATOM    100  F   UNL A   1      43.961  37.566  33.361  1.00  0.00    -0.200 F 
ATOM    101  C   UNL A   1      44.311  37.868  31.044  1.00  0.00     0.200 A 
ATOM    102  F   UNL A   1      44.628  38.128  28.716  1.00  0.00    -0.200 F 
ATOM    103  F   UNL A   1      44.696  39.133  31.252  1.00  0.00    -0.200 F 
ENDBRANCH  70  93
ENDBRANCH  44  45
ENDBRANCH  36  39
ENDBRANCH  34  35
ENDBRANCH  33  34
ENDBRANCH   1  33
TORSDOF 14
ENDMDL
MODEL 3
REMARK VINA RESULT:     -10.4      1.281      2.211
REMARK SMILES CN1C(=O)C(=Cc2ccc(OCc3cccc(C(=O)NCCCNC(=O)c4ccc(-c5c6nc(c(-c7c(F)c(F)c(F)c(F)c7F)c7ccc([nH]7)c(-c7c(F)c(F)c(F)c(F)c7F)c7nc(c(-c8c(F)c(F)c(F)c(F)c8F)c8ccc5[nH]8)C=C7)C=C6)cc4)c3)c(Cl)c2)C(=O)N(C)C1=S
REMARK SMILES IDX 21 1 20 2 18 3 19 4 17 6 13 7 14 8 90 9 15 10 16 11 12 12
REMARK SMILES IDX 11 13 10 14 7 15 8 16 93 17 9 18 91 19 92 20 6 21 1 22 2 23
REMARK SMILES IDX 3 24 98 25 4 26 5 27 96 28 99 29 94 30 97 31 95 32 22 33
REMARK SMILES IDX 23 34 24 35 25 36 26 38 27 39 28 40 89 41 29 42 88 43 30 44
REMARK SMILES IDX 31 45 32 46 82 47 33 48 87 49 81 50 83 51 34 52 86 53 80 54
REMARK SMILES IDX 79 55 35 57 67 58 47 59 66 60 48 61 51 62 65 63 84 64 49 65
REMARK SMILES IDX 50 66 64 68 85 69 52 70 36 71 37 72 45 73 38 74 39 75 43 76
REMARK SMILES IDX 46 77 40 78 41 79 44 80 42 81 68 82 69 83 77 84 70 85 71 86
REMARK SMILES IDX 75 87 78 88 72 89 73 90 76 91 74 92 53 93 54 94 62 95 55 96
REMARK SMILES IDX 56 97 60 98 63 99 57 100 58 101 61 102 59 103
REMARK H PARENT 20 5 24 37 83 56 51 67
REMARK Flexibility Score: inf
ROOT
ATOM      1  C   UNL A   1      43.031  20.421  25.849  1.00  0.00     0.118 C 
ENDROOT
BRANCH   1   2
ATOM      2  N   UNL A   1      42.928  21.707  25.185  1.00  0.00    -0.352 N 
ATOM      3  C   UNL A   1      43.087  22.986  25.651  1.00  0.00     0.251 C 
ATOM      4  O   UNL A   1      42.610  23.892  24.965  1.00  0.00    -0.269 OA
ATOM      5  H   UNL A   1      42.703  21.650  24.228  1.00  0.00     0.163 HD
BRANCH   3   6
ATOM      6  C   UNL A   1      43.795  23.331  26.918  1.00  0.00     0.040 A 
ATOM      7  C   UNL A   1      45.650  24.258  28.219  1.00  0.00    -0.010 A 
ATOM      8  C   UNL A   1      44.879  24.093  29.385  1.00  0.00     0.007 A 
ATOM      9  C   UNL A   1      45.071  23.920  26.980  1.00  0.00     0.021 A 
ATOM     10  C   UNL A   1      43.597  23.554  29.330  1.00  0.00     0.001 A 
ATOM     11  C   UNL A   1      43.066  23.159  28.106  1.00  0.00     0.014 A 
BRANCH   7  12
ATOM     12  C   UNL A   1      47.035  24.865  28.402  1.00  0.00     0.265 C 
BRANCH  12  13
ATOM     13  O   UNL A   1      47.219  26.010  29.235  1.00  0.00    -0.487 OA
BRANCH  13  14
ATOM     14  C   UNL A   1      47.205  27.261  28.697  1.00  0.00     0.138 A 
ATOM     15  C   UNL A   1      46.683  29.653  27.272  1.00  0.00    -0.023 A 
ATOM     16  C   UNL A   1      45.653  28.918  27.898  1.00  0.00     0.012 A 
ATOM     17  C   UNL A   1      47.990  29.211  27.464  1.00  0.00     0.032 A 
ATOM     18  C   UNL A   1      45.914  27.772  28.639  1.00  0.00     0.048 A 
ATOM     19  C   UNL A   1      48.256  28.024  28.174  1.00  0.00     0.083 A 
ATOM     20  Cl  UNL A   1      49.920  27.599  28.344  1.00  0.00    -0.080 Cl
BRANCH  15  21
ATOM     21  C   UNL A   1      46.394  30.690  26.245  1.00  0.00     0.027 C 
ATOM     22  C   UNL A   1      45.629  33.909  30.384  1.00  0.00     0.156 C 
ATOM     23  N   UNL A   1      45.336  33.745  28.967  1.00  0.00    -0.288 N 
ATOM     24  C   UNL A   1      46.270  32.434  28.348  1.00  0.00     0.265 C 
ATOM     25  C   UNL A   1      44.038  34.778  28.289  1.00  0.00     0.185 C 
ATOM     26  O   UNL A   1      47.258  32.014  28.947  1.00  0.00    -0.268 OA
ATOM     27  C   UNL A   1      45.813  31.858  26.568  1.00  0.00     0.106 C 
ATOM     28  N   UNL A   1      43.810  34.323  26.579  1.00  0.00    -0.288 N 
ATOM     29  S   UNL A   1      43.229  35.988  29.121  1.00  0.00    -0.040 S 
ATOM     30  C   UNL A   1      44.538  33.044  25.547  1.00  0.00     0.265 C 
ATOM     31  C   UNL A   1      42.842  35.133  25.867  1.00  0.00     0.156 C 
ATOM     32  O   UNL A   1      44.417  33.071  24.318  1.00  0.00    -0.268 OA
ENDBRANCH  15  21
ENDBRANCH  13  14
ENDBRANCH  12  13
ENDBRANCH   7  12
ENDBRANCH   3   6
ENDBRANCH   1   2
BRANCH   1  33
ATOM     33  C   UNL A   1      41.645  19.815  26.043  1.00  0.00     0.042 C 
BRANCH  33  34
ATOM     34  C   UNL A   1      40.657  20.538  26.984  1.00  0.00     0.118 C 
BRANCH  34  35
ATOM     35  N   UNL A   1      39.567  21.490  26.462  1.00  0.00    -0.352 N 
ATOM     36  C   UNL A   1      39.098  22.981  26.280  1.00  0.00     0.251 C 
ATOM     37  H   UNL A   1      38.860  20.924  26.076  1.00  0.00     0.163 HD
ATOM     38  O   UNL A   1      38.233  22.652  25.414  1.00  0.00    -0.269 OA
BRANCH  36  39
ATOM     39  C   UNL A   1      39.704  24.794  27.206  1.00  0.00     0.039 A 
ATOM     40  C   UNL A   1      40.572  25.915  26.761  1.00  0.00     0.014 A 
ATOM     41  C   UNL A   1      39.341  25.279  28.635  1.00  0.00     0.014 A 
ATOM     42  C   UNL A   1      41.008  27.056  27.511  1.00  0.00     0.010 A 
ATOM     43  C   UNL A   1      39.781  26.344  29.400  1.00  0.00     0.010 A 
ATOM     44  C   UNL A   1      40.637  27.235  28.832  1.00  0.00    -0.014 A 
BRANCH  44  45
ATOM     45  C   UNL A   1      40.969  28.380  29.672  1.00  0.00     0.031 A 
ATOM     46  C   UNL A   1      42.227  28.348  30.478  1.00  0.00     0.074 A 
ATOM     47  C   UNL A   1      39.975  29.257  29.887  1.00  0.00     0.049 A 
ATOM     48  N   UNL A   1      42.710  29.255  31.279  1.00  0.00    -0.248 NA
ATOM     49  C   UNL A   1      43.032  27.114  30.407  1.00  0.00     0.031 C 
ATOM     50  C   UNL A   1      38.635  29.166  29.289  1.00  0.00     0.029 A 
ATOM     51  N   UNL A   1      39.906  30.354  30.691  1.00  0.00    -0.354 N 
ATOM     52  C   UNL A   1      43.898  28.728  31.767  1.00  0.00     0.074 A 
ATOM     53  C   UNL A   1      44.020  27.385  31.250  1.00  0.00     0.031 C 
ATOM     54  C   UNL A   1      37.887  30.188  29.727  1.00  0.00     0.029 A 
ATOM     55  C   UNL A   1      38.698  31.003  30.617  1.00  0.00     0.049 A 
ATOM     56  H   UNL A   1      40.646  30.651  31.267  1.00  0.00     0.167 HD
ATOM     57  C   UNL A   1      44.806  29.350  32.553  1.00  0.00     0.037 A 
ATOM     58  C   UNL A   1      38.330  32.162  31.185  1.00  0.00     0.037 A 
ATOM     59  C   UNL A   1      44.571  30.669  33.085  1.00  0.00     0.049 A 
ATOM     60  C   UNL A   1      39.384  32.879  31.982  1.00  0.00     0.074 A 
ATOM     61  C   UNL A   1      45.398  31.468  33.849  1.00  0.00     0.029 A 
ATOM     62  N   UNL A   1      43.380  31.372  32.910  1.00  0.00    -0.354 N 
ATOM     63  N   UNL A   1      40.593  32.472  32.302  1.00  0.00    -0.248 NA
ATOM     64  C   UNL A   1      39.049  34.220  32.459  1.00  0.00     0.031 C 
ATOM     65  C   UNL A   1      44.689  32.632  34.174  1.00  0.00     0.029 A 
ATOM     66  C   UNL A   1      43.443  32.589  33.561  1.00  0.00     0.049 A 
ATOM     67  H   UNL A   1      42.606  31.047  32.397  1.00  0.00     0.167 HD
ATOM     68  C   UNL A   1      41.178  33.517  32.995  1.00  0.00     0.074 A 
ATOM     69  C   UNL A   1      40.192  34.585  33.024  1.00  0.00     0.031 C 
ATOM     70  C   UNL A   1      42.411  33.600  33.561  1.00  0.00     0.037 A 
BRANCH  57  71
ATOM     71  C   UNL A   1      46.091  28.627  32.849  1.00  0.00     0.064 A 
ATOM     72  C   UNL A   1      46.197  27.743  33.940  1.00  0.00     0.173 A 
ATOM     73  C   UNL A   1      47.230  28.804  32.051  1.00  0.00     0.173 A 
ATOM     74  F   UNL A   1      45.145  27.536  34.746  1.00  0.00    -0.203 F 
ATOM     75  C   UNL A   1      47.398  27.101  34.239  1.00  0.00     0.198 A 
ATOM     76  C   UNL A   1      48.423  28.137  32.335  1.00  0.00     0.198 A 
ATOM     77  F   UNL A   1      47.196  29.632  30.997  1.00  0.00    -0.203 F 
ATOM     78  F   UNL A   1      47.484  26.313  35.320  1.00  0.00    -0.200 F 
ATOM     79  C   UNL A   1      48.508  27.295  33.433  1.00  0.00     0.200 A 
ATOM     80  F   UNL A   1      49.494  28.318  31.551  1.00  0.00    -0.200 F 
ATOM     81  F   UNL A   1      49.663  26.679  33.724  1.00  0.00    -0.200 F 
ENDBRANCH  57  71
BRANCH  58  82
ATOM     82  C   UNL A   1      36.993  32.740  30.892  1.00  0.00     0.064 A 
ATOM     83  C   UNL A   1      35.950  32.645  31.825  1.00  0.00     0.173 A 
ATOM     84  C   UNL A   1      36.745  33.459  29.714  1.00  0.00     0.173 A 
ATOM     85  F   UNL A   1      36.137  31.981  32.975  1.00  0.00    -0.203 F 
ATOM     86  C   UNL A   1      34.704  33.219  31.577  1.00  0.00     0.198 A 
ATOM     87  C   UNL A   1      35.506  34.056  29.479  1.00  0.00     0.198 A 
ATOM     88  F   UNL A   1      37.717  33.611  28.803  1.00  0.00    -0.203 F 
ATOM     89  F   UNL A   1      33.715  33.081  32.472  1.00  0.00    -0.200 F 
ATOM     90  C   UNL A   1      34.484  33.928  30.407  1.00  0.00     0.200 A 
ATOM     91  F   UNL A   1      35.309  34.764  28.359  1.00  0.00    -0.200 F 
ATOM     92  F   UNL A   1      33.289  34.487  30.173  1.00  0.00    -0.200 F 
ENDBRANCH  58  82
BRANCH  70  93
ATOM     93  C   UNL A   1      42.733  34.897  34.236  1.00  0.00     0.064 A 
ATOM     94  C   UNL A   1      43.372  35.940  33.551  1.00  0.00     0.173 A 
ATOM     95  C   UNL A   1      42.381  35.099  35.577  1.00  0.00     0.173 A 
ATOM     96  F   UNL A   1      43.741  35.783  32.271  1.00  0.00    -0.203 F 
ATOM     97  C   UNL A   1      43.686  37.128  34.201  1.00  0.00     0.198 A 
ATOM     98  C   UNL A   1      42.659  36.304  36.212  1.00  0.00     0.198 A 
ATOM     99  F   UNL A   1      41.758  34.131  36.268  1.00  0.00    -0.203 F 
ATOM    100  F   UNL A   1      44.360  38.086  33.550  1.00  0.00    -0.200 F 
ATOM    101  C   UNL A   1      43.323  37.312  35.527  1.00  0.00     0.200 A 
ATOM    102  F   UNL A   1      42.293  36.487  37.488  1.00  0.00    -0.200 F 
ATOM    103  F   UNL A   1      43.623  38.458  36.151  1.00  0.00    -0.200 F 
ENDBRANCH  70  93
ENDBRANCH  44  45
ENDBRANCH  36  39
ENDBRANCH  34  35
ENDBRANCH  33  34
ENDBRANCH   1  33
TORSDOF 14
ENDMDL
