MODEL 1
REMARK VINA RESULT:     -13.4      0.000      0.000
REMARK SMILES Cc1ccc(NC(=O)C[C@@H](C(=O)NCCCNC(=O)c2ccc(-c3c4nc(c(-c5c(F)c(F)c(F)c(F)c5F)c5ccc([nH]5)c(-c5c(F)c(F)c(F)c(F)c5F)c5nc(c(-c6c(F)c(F)c(F)c(F)c6F)c6ccc3[nH]6)C=C5)C=C4)cc2)[NH+]2CCOCC2)cc1
REMARK SMILES IDX 14 1 13 2 11 3 12 4 10 6 9 7 7 8 6 9 8 11 5 12 1 13 2 14
REMARK SMILES IDX 3 15 90 16 4 17 89 18 83 19 84 20 88 21 85 23 87 24 86 25
REMARK SMILES IDX 15 26 16 27 17 28 18 29 19 31 20 32 21 33 82 34 22 35 81 36
REMARK SMILES IDX 23 37 24 38 25 39 75 40 26 41 80 42 74 43 76 44 27 45 79 46
REMARK SMILES IDX 73 47 72 48 28 50 60 51 40 52 59 53 41 54 44 55 58 56 77 57
REMARK SMILES IDX 42 58 43 59 57 61 78 62 45 63 29 64 30 65 38 66 31 67 32 68
REMARK SMILES IDX 36 69 39 70 33 71 34 72 37 73 35 74 61 75 62 76 70 77 63 78
REMARK SMILES IDX 64 79 68 80 71 81 65 82 66 83 69 84 67 85 46 86 47 87 55 88
REMARK SMILES IDX 48 89 49 90 53 91 56 92 50 93 51 94 54 95 52 96
REMARK H PARENT 13 5 6 10 83 22 17 30 76 49 44 60
REMARK Flexibility Score: inf
ROOT
ATOM      1  C   UNL A   1      36.669  21.258  25.391  1.00  0.00     0.118 C 
ENDROOT
BRANCH   1   2
ATOM      2  N   UNL A   1      35.942  21.857  26.490  1.00  0.00    -0.351 N 
ATOM      3  C   UNL A   1      34.723  22.460  26.554  1.00  0.00     0.278 C 
ATOM      4  O   UNL A   1      34.257  22.541  27.697  1.00  0.00    -0.268 OA
ATOM      5  H   UNL A   1      36.418  21.821  27.352  1.00  0.00     0.163 HD
BRANCH   3   6
ATOM      6  C   UNL A   1      33.952  22.963  25.283  1.00  0.00     0.283 C 
BRANCH   6   7
ATOM      7  C   UNL A   1      33.710  24.490  25.256  1.00  0.00     0.175 C 
BRANCH   7   8
ATOM      8  C   UNL A   1      34.007  25.283  24.008  1.00  0.00     0.230 C 
ATOM      9  N   UNL A   1      33.926  26.642  23.946  1.00  0.00    -0.326 N 
ATOM     10  H   UNL A   1      34.132  27.018  23.060  1.00  0.00     0.169 HD
ATOM     11  O   UNL A   1      34.357  24.682  22.986  1.00  0.00    -0.274 OA
BRANCH   9  12
ATOM     12  C   UNL A   1      33.603  27.605  24.918  1.00  0.00     0.041 A 
ATOM     13  C   UNL A   1      33.230  31.090  27.411  1.00  0.00     0.044 C 
ATOM     14  C   UNL A   1      33.236  29.841  26.581  1.00  0.00    -0.051 A 
ATOM     15  C   UNL A   1      33.871  28.695  27.063  1.00  0.00     0.005 A 
ATOM     16  C   UNL A   1      32.687  29.820  25.297  1.00  0.00     0.005 A 
ATOM     17  C   UNL A   1      34.040  27.578  26.239  1.00  0.00     0.026 A 
ATOM     18  C   UNL A   1      32.852  28.700  24.479  1.00  0.00     0.026 A 
ENDBRANCH   9  12
ENDBRANCH   7   8
ENDBRANCH   6   7
BRANCH   6  19
ATOM     19  N   UNL A   1      32.662  22.203  25.162  1.00  0.00    -0.320 N 
ATOM     20  C   UNL A   1      32.797  20.742  25.373  1.00  0.00     0.291 C 
ATOM     21  C   UNL A   1      31.801  22.435  23.989  1.00  0.00     0.291 C 
ATOM     22  H   UNL A   1      32.168  22.640  25.941  1.00  0.00     0.348 HD
ATOM     23  C   UNL A   1      33.130  19.950  24.098  1.00  0.00     0.221 C 
ATOM     24  C   UNL A   1      32.150  21.602  22.749  1.00  0.00     0.221 C 
ATOM     25  O   UNL A   1      32.185  20.206  23.055  1.00  0.00    -0.370 OA
ENDBRANCH   6  19
ENDBRANCH   3   6
ENDBRANCH   1   2
BRANCH   1  26
ATOM     26  C   UNL A   1      38.173  21.540  25.396  1.00  0.00     0.042 C 
BRANCH  26  27
ATOM     27  C   UNL A   1      38.595  22.857  26.053  1.00  0.00     0.118 C 
BRANCH  27  28
ATOM     28  N   UNL A   1      40.051  22.983  26.150  1.00  0.00    -0.352 N 
ATOM     29  C   UNL A   1      40.829  24.015  26.633  1.00  0.00     0.251 C 
ATOM     30  H   UNL A   1      40.557  22.206  25.817  1.00  0.00     0.163 HD
ATOM     31  O   UNL A   1      42.030  23.850  26.827  1.00  0.00    -0.269 OA
BRANCH  29  32
ATOM     32  C   UNL A   1      40.189  25.285  27.018  1.00  0.00     0.039 A 
ATOM     33  C   UNL A   1      40.615  26.465  26.399  1.00  0.00     0.014 A 
ATOM     34  C   UNL A   1      39.290  25.325  28.080  1.00  0.00     0.014 A 
ATOM     35  C   UNL A   1      40.333  27.689  27.001  1.00  0.00     0.010 A 
ATOM     36  C   UNL A   1      39.060  26.533  28.713  1.00  0.00     0.010 A 
ATOM     37  C   UNL A   1      39.651  27.702  28.220  1.00  0.00    -0.014 A 
BRANCH  37  38
ATOM     38  C   UNL A   1      39.643  28.865  29.102  1.00  0.00     0.031 A 
ATOM     39  C   UNL A   1      38.633  29.931  28.958  1.00  0.00     0.074 A 
ATOM     40  C   UNL A   1      40.543  28.933  30.109  1.00  0.00     0.049 A 
ATOM     41  N   UNL A   1      38.786  31.141  29.382  1.00  0.00    -0.248 NA
ATOM     42  C   UNL A   1      37.359  29.715  28.287  1.00  0.00     0.031 C 
ATOM     43  C   UNL A   1      40.558  29.879  31.222  1.00  0.00     0.029 A 
ATOM     44  N   UNL A   1      41.772  28.257  30.215  1.00  0.00    -0.354 N 
ATOM     45  C   UNL A   1      37.572  31.783  29.288  1.00  0.00     0.074 A 
ATOM     46  C   UNL A   1      36.733  30.868  28.545  1.00  0.00     0.031 C 
ATOM     47  C   UNL A   1      41.812  29.972  31.689  1.00  0.00     0.029 A 
ATOM     48  C   UNL A   1      42.659  29.191  30.805  1.00  0.00     0.049 A 
ATOM     49  H   UNL A   1      41.974  27.333  29.937  1.00  0.00     0.167 HD
ATOM     50  C   UNL A   1      37.385  32.962  29.952  1.00  0.00     0.037 A 
ATOM     51  C   UNL A   1      43.732  29.672  30.113  1.00  0.00     0.037 A 
ATOM     52  C   UNL A   1      38.618  33.421  30.594  1.00  0.00     0.049 A 
ATOM     53  C   UNL A   1      43.718  31.166  29.874  1.00  0.00     0.074 A 
ATOM     54  C   UNL A   1      39.118  33.356  31.885  1.00  0.00     0.029 A 
ATOM     55  N   UNL A   1      39.678  33.811  29.793  1.00  0.00    -0.354 N 
ATOM     56  N   UNL A   1      42.734  31.953  30.206  1.00  0.00    -0.248 NA
ATOM     57  C   UNL A   1      44.774  31.873  29.146  1.00  0.00     0.031 C 
ATOM     58  C   UNL A   1      40.503  33.682  31.842  1.00  0.00     0.029 A 
ATOM     59  C   UNL A   1      40.841  33.943  30.527  1.00  0.00     0.049 A 
ATOM     60  H   UNL A   1      39.610  33.976  28.826  1.00  0.00     0.167 HD
ATOM     61  C   UNL A   1      42.975  33.206  29.715  1.00  0.00     0.074 A 
ATOM     62  C   UNL A   1      44.266  33.113  29.063  1.00  0.00     0.031 C 
ATOM     63  C   UNL A   1      42.084  34.228  29.839  1.00  0.00     0.037 A 
BRANCH  50  64
ATOM     64  C   UNL A   1      36.031  33.582  30.231  1.00  0.00     0.064 A 
ATOM     65  C   UNL A   1      35.255  34.123  29.181  1.00  0.00     0.173 A 
ATOM     66  C   UNL A   1      35.462  33.725  31.508  1.00  0.00     0.173 A 
ATOM     67  F   UNL A   1      35.597  33.956  27.897  1.00  0.00    -0.203 F 
ATOM     68  C   UNL A   1      34.088  34.859  29.408  1.00  0.00     0.198 A 
ATOM     69  C   UNL A   1      34.329  34.511  31.744  1.00  0.00     0.198 A 
ATOM     70  F   UNL A   1      35.942  33.056  32.564  1.00  0.00    -0.203 F 
ATOM     71  F   UNL A   1      33.401  35.352  28.369  1.00  0.00    -0.200 F 
ATOM     72  C   UNL A   1      33.649  35.091  30.694  1.00  0.00     0.200 A 
ATOM     73  F   UNL A   1      33.898  34.696  33.001  1.00  0.00    -0.200 F 
ATOM     74  F   UNL A   1      32.562  35.840  30.916  1.00  0.00    -0.200 F 
ENDBRANCH  50  64
BRANCH  51  75
ATOM     75  C   UNL A   1      44.318  28.667  29.188  1.00  0.00     0.064 A 
ATOM     76  C   UNL A   1      45.050  27.599  29.740  1.00  0.00     0.173 A 
ATOM     77  C   UNL A   1      43.876  28.538  27.868  1.00  0.00     0.173 A 
ATOM     78  F   UNL A   1      45.499  27.675  31.004  1.00  0.00    -0.203 F 
ATOM     79  C   UNL A   1      45.223  26.406  29.044  1.00  0.00     0.198 A 
ATOM     80  C   UNL A   1      44.070  27.348  27.165  1.00  0.00     0.198 A 
ATOM     81  F   UNL A   1      43.156  29.513  27.294  1.00  0.00    -0.203 F 
ATOM     82  F   UNL A   1      45.819  25.363  29.640  1.00  0.00    -0.200 F 
ATOM     83  C   UNL A   1      44.708  26.273  27.766  1.00  0.00     0.200 A 
ATOM     84  F   UNL A   1      43.557  27.213  25.935  1.00  0.00    -0.200 F 
ATOM     85  F   UNL A   1      44.790  25.097  27.130  1.00  0.00    -0.200 F 
ENDBRANCH  51  75
BRANCH  63  86
ATOM     86  C   UNL A   1      42.352  35.603  29.321  1.00  0.00     0.064 A 
ATOM     87  C   UNL A   1      41.805  36.054  28.111  1.00  0.00     0.173 A 
ATOM     88  C   UNL A   1      43.270  36.456  29.961  1.00  0.00     0.173 A 
ATOM     89  F   UNL A   1      40.942  35.289  27.425  1.00  0.00    -0.203 F 
ATOM     90  C   UNL A   1      42.149  37.296  27.577  1.00  0.00     0.198 A 
ATOM     91  C   UNL A   1      43.645  37.676  29.404  1.00  0.00     0.198 A 
ATOM     92  F   UNL A   1      43.807  36.128  31.146  1.00  0.00    -0.203 F 
ATOM     93  F   UNL A   1      41.582  37.711  26.436  1.00  0.00    -0.200 F 
ATOM     94  C   UNL A   1      43.081  38.099  28.215  1.00  0.00     0.200 A 
ATOM     95  F   UNL A   1      44.556  38.439  30.025  1.00  0.00    -0.200 F 
ATOM     96  F   UNL A   1      43.431  39.279  27.687  1.00  0.00    -0.200 F 
ENDBRANCH  63  86
ENDBRANCH  37  38
ENDBRANCH  29  32
ENDBRANCH  27  28
ENDBRANCH  26  27
ENDBRANCH   1  26
TORSDOF 14
ENDMDL
MODEL 2
REMARK VINA RESULT:     -13.4      3.845     10.246
REMARK SMILES Cc1ccc(NC(=O)C[C@@H](C(=O)NCCCNC(=O)c2ccc(-c3c4nc(c(-c5c(F)c(F)c(F)c(F)c5F)c5ccc([nH]5)c(-c5c(F)c(F)c(F)c(F)c5F)c5nc(c(-c6c(F)c(F)c(F)c(F)c6F)c6ccc3[nH]6)C=C5)C=C4)cc2)[NH+]2CCOCC2)cc1
REMARK SMILES IDX 14 1 13 2 11 3 12 4 10 6 9 7 7 8 6 9 8 11 5 12 1 13 2 14
REMARK SMILES IDX 3 15 90 16 4 17 89 18 83 19 84 20 88 21 85 23 87 24 86 25
REMARK SMILES IDX 15 26 16 27 17 28 18 29 19 31 20 32 21 33 82 34 22 35 81 36
REMARK SMILES IDX 23 37 24 38 25 39 75 40 26 41 80 42 74 43 76 44 27 45 79 46
REMARK SMILES IDX 73 47 72 48 28 50 60 51 40 52 59 53 41 54 44 55 58 56 77 57
REMARK SMILES IDX 42 58 43 59 57 61 78 62 45 63 29 64 30 65 38 66 31 67 32 68
REMARK SMILES IDX 36 69 39 70 33 71 34 72 37 73 35 74 61 75 62 76 70 77 63 78
REMARK SMILES IDX 64 79 68 80 71 81 65 82 66 83 69 84 67 85 46 86 47 87 55 88
REMARK SMILES IDX 48 89 49 90 53 91 56 92 50 93 51 94 54 95 52 96
REMARK H PARENT 13 5 6 10 83 22 17 30 76 49 44 60
REMARK Flexibility Score: inf
ROOT
ATOM      1  C   UNL A   1      32.242  30.135  26.090  1.00  0.00     0.118 C 
ENDROOT
BRANCH   1   2
ATOM      2  N   UNL A   1      32.561  29.243  24.995  1.00  0.00    -0.351 N 
ATOM      3  C   UNL A   1      31.860  28.875  23.887  1.00  0.00     0.278 C 
ATOM      4  O   UNL A   1      32.554  28.382  22.990  1.00  0.00    -0.268 OA
ATOM      5  H   UNL A   1      33.450  28.825  25.065  1.00  0.00     0.163 HD
BRANCH   3   6
ATOM      6  C   UNL A   1      30.315  29.104  23.740  1.00  0.00     0.283 C 
BRANCH   6   7
ATOM      7  C   UNL A   1      29.574  27.958  23.014  1.00  0.00     0.175 C 
BRANCH   7   8
ATOM      8  C   UNL A   1      28.651  27.045  23.781  1.00  0.00     0.230 C 
ATOM      9  N   UNL A   1      29.089  25.995  24.532  1.00  0.00    -0.326 N 
ATOM     10  H   UNL A   1      28.369  25.479  24.960  1.00  0.00     0.169 HD
ATOM     11  O   UNL A   1      27.434  27.258  23.746  1.00  0.00    -0.274 OA
BRANCH   9  12
ATOM     12  C   UNL A   1      30.381  25.515  24.806  1.00  0.00     0.041 A 
ATOM     13  C   UNL A   1      34.596  24.937  25.438  1.00  0.00     0.044 C 
ATOM     14  C   UNL A   1      33.106  25.036  25.303  1.00  0.00    -0.051 A 
ATOM     15  C   UNL A   1      32.472  24.454  24.204  1.00  0.00     0.005 A 
ATOM     16  C   UNL A   1      32.342  25.770  26.213  1.00  0.00     0.005 A 
ATOM     17  C   UNL A   1      31.113  24.680  23.966  1.00  0.00     0.026 A 
ATOM     18  C   UNL A   1      30.983  25.990  25.975  1.00  0.00     0.026 A 
ENDBRANCH   9  12
ENDBRANCH   7   8
ENDBRANCH   6   7
BRANCH   6  19
ATOM     19  N   UNL A   1      30.080  30.424  23.061  1.00  0.00    -0.320 N 
ATOM     20  C   UNL A   1      29.234  31.363  23.836  1.00  0.00     0.291 C 
ATOM     21  C   UNL A   1      29.638  30.438  21.655  1.00  0.00     0.291 C 
ATOM     22  H   UNL A   1      31.049  30.743  23.034  1.00  0.00     0.348 HD
ATOM     23  C   UNL A   1      27.727  31.210  23.580  1.00  0.00     0.221 C 
ATOM     24  C   UNL A   1      28.123  30.313  21.447  1.00  0.00     0.221 C 
ATOM     25  O   UNL A   1      27.415  31.310  22.186  1.00  0.00    -0.370 OA
ENDBRANCH   6  19
ENDBRANCH   3   6
ENDBRANCH   1   2
BRANCH   1  26
ATOM     26  C   UNL A   1      33.136  29.974  27.322  1.00  0.00     0.042 C 
BRANCH  26  27
ATOM     27  C   UNL A   1      34.455  30.748  27.286  1.00  0.00     0.118 C 
BRANCH  27  28
ATOM     28  N   UNL A   1      34.801  31.310  28.593  1.00  0.00    -0.352 N 
ATOM     29  C   UNL A   1      35.846  31.014  29.445  1.00  0.00     0.251 C 
ATOM     30  H   UNL A   1      34.191  32.011  28.917  1.00  0.00     0.163 HD
ATOM     31  O   UNL A   1      36.090  31.740  30.404  1.00  0.00    -0.269 OA
BRANCH  29  32
ATOM     32  C   UNL A   1      36.735  29.880  29.136  1.00  0.00     0.039 A 
ATOM     33  C   UNL A   1      37.090  29.005  30.168  1.00  0.00     0.014 A 
ATOM     34  C   UNL A   1      37.325  29.773  27.880  1.00  0.00     0.014 A 
ATOM     35  C   UNL A   1      38.208  28.189  30.013  1.00  0.00     0.010 A 
ATOM     36  C   UNL A   1      38.470  29.010  27.745  1.00  0.00     0.010 A 
ATOM     37  C   UNL A   1      38.956  28.285  28.838  1.00  0.00    -0.014 A 
BRANCH  37  38
ATOM     38  C   UNL A   1      40.321  27.775  28.734  1.00  0.00     0.031 A 
ATOM     39  C   UNL A   1      40.590  26.365  28.390  1.00  0.00     0.074 A 
ATOM     40  C   UNL A   1      41.356  28.629  28.896  1.00  0.00     0.049 A 
ATOM     41  N   UNL A   1      41.684  25.742  28.676  1.00  0.00    -0.248 NA
ATOM     42  C   UNL A   1      39.614  25.528  27.707  1.00  0.00     0.031 C 
ATOM     43  C   UNL A   1      42.766  28.377  28.611  1.00  0.00     0.029 A 
ATOM     44  N   UNL A   1      41.355  29.870  29.559  1.00  0.00    -0.354 N 
ATOM     45  C   UNL A   1      41.678  24.539  28.007  1.00  0.00     0.074 A 
ATOM     46  C   UNL A   1      40.340  24.431  27.467  1.00  0.00     0.031 C 
ATOM     47  C   UNL A   1      43.510  29.215  29.350  1.00  0.00     0.029 A 
ATOM     48  C   UNL A   1      42.603  29.935  30.226  1.00  0.00     0.049 A 
ATOM     49  H   UNL A   1      40.640  30.548  29.560  1.00  0.00     0.167 HD
ATOM     50  C   UNL A   1      42.841  23.832  27.891  1.00  0.00     0.037 A 
ATOM     51  C   UNL A   1      42.668  29.949  31.589  1.00  0.00     0.037 A 
ATOM     52  C   UNL A   1      43.931  24.460  28.638  1.00  0.00     0.049 A 
ATOM     53  C   UNL A   1      43.396  28.774  32.204  1.00  0.00     0.074 A 
ATOM     54  C   UNL A   1      44.989  25.285  28.294  1.00  0.00     0.029 A 
ATOM     55  N   UNL A   1      43.857  24.490  30.020  1.00  0.00    -0.354 N 
ATOM     56  N   UNL A   1      43.858  27.761  31.527  1.00  0.00    -0.248 NA
ATOM     57  C   UNL A   1      43.567  28.602  33.649  1.00  0.00     0.031 C 
ATOM     58  C   UNL A   1      45.529  25.838  29.490  1.00  0.00     0.029 A 
ATOM     59  C   UNL A   1      44.798  25.349  30.556  1.00  0.00     0.049 A 
ATOM     60  H   UNL A   1      43.216  23.967  30.553  1.00  0.00     0.167 HD
ATOM     61  C   UNL A   1      44.319  26.811  32.396  1.00  0.00     0.074 A 
ATOM     62  C   UNL A   1      44.124  27.381  33.714  1.00  0.00     0.031 C 
ATOM     63  C   UNL A   1      44.793  25.604  31.983  1.00  0.00     0.037 A 
BRANCH  50  64
ATOM     64  C   UNL A   1      43.061  22.704  26.903  1.00  0.00     0.064 A 
ATOM     65  C   UNL A   1      42.406  21.463  27.067  1.00  0.00     0.173 A 
ATOM     66  C   UNL A   1      43.939  22.759  25.807  1.00  0.00     0.173 A 
ATOM     67  F   UNL A   1      41.446  21.290  27.986  1.00  0.00    -0.203 F 
ATOM     68  C   UNL A   1      42.711  20.341  26.290  1.00  0.00     0.198 A 
ATOM     69  C   UNL A   1      44.290  21.624  25.067  1.00  0.00     0.198 A 
ATOM     70  F   UNL A   1      44.437  23.921  25.370  1.00  0.00    -0.203 F 
ATOM     71  F   UNL A   1      42.059  19.189  26.501  1.00  0.00    -0.200 F 
ATOM     72  C   UNL A   1      43.686  20.410  25.318  1.00  0.00     0.200 A 
ATOM     73  F   UNL A   1      45.217  21.721  24.102  1.00  0.00    -0.200 F 
ATOM     74  F   UNL A   1      44.017  19.324  24.608  1.00  0.00    -0.200 F 
ENDBRANCH  50  64
BRANCH  51  75
ATOM     75  C   UNL A   1      41.525  30.664  32.213  1.00  0.00     0.064 A 
ATOM     76  C   UNL A   1      41.500  32.070  32.148  1.00  0.00     0.173 A 
ATOM     77  C   UNL A   1      40.330  30.007  32.526  1.00  0.00     0.173 A 
ATOM     78  F   UNL A   1      42.621  32.748  31.853  1.00  0.00    -0.203 F 
ATOM     79  C   UNL A   1      40.307  32.778  32.265  1.00  0.00     0.198 A 
ATOM     80  C   UNL A   1      39.140  30.722  32.665  1.00  0.00     0.198 A 
ATOM     81  F   UNL A   1      40.286  28.669  32.583  1.00  0.00    -0.203 F 
ATOM     82  F   UNL A   1      40.295  34.105  32.077  1.00  0.00    -0.200 F 
ATOM     83  C   UNL A   1      39.123  32.099  32.497  1.00  0.00     0.200 A 
ATOM     84  F   UNL A   1      37.991  30.064  32.872  1.00  0.00    -0.200 F 
ATOM     85  F   UNL A   1      37.962  32.767  32.517  1.00  0.00    -0.200 F 
ENDBRANCH  51  75
BRANCH  63  86
ATOM     86  C   UNL A   1      45.315  24.572  32.927  1.00  0.00     0.064 A 
ATOM     87  C   UNL A   1      44.526  23.493  33.350  1.00  0.00     0.173 A 
ATOM     88  C   UNL A   1      46.577  24.714  33.535  1.00  0.00     0.173 A 
ATOM     89  F   UNL A   1      43.301  23.303  32.838  1.00  0.00    -0.203 F 
ATOM     90  C   UNL A   1      44.980  22.597  34.318  1.00  0.00     0.198 A 
ATOM     91  C   UNL A   1      47.010  23.843  34.532  1.00  0.00     0.198 A 
ATOM     92  F   UNL A   1      47.419  25.689  33.159  1.00  0.00    -0.203 F 
ATOM     93  F   UNL A   1      44.214  21.557  34.674  1.00  0.00    -0.200 F 
ATOM     94  C   UNL A   1      46.214  22.783  34.920  1.00  0.00     0.200 A 
ATOM     95  F   UNL A   1      48.201  24.040  35.115  1.00  0.00    -0.200 F 
ATOM     96  F   UNL A   1      46.636  21.937  35.869  1.00  0.00    -0.200 F 
ENDBRANCH  63  86
ENDBRANCH  37  38
ENDBRANCH  29  32
ENDBRANCH  27  28
ENDBRANCH  26  27
ENDBRANCH   1  26
TORSDOF 14
ENDMDL
MODEL 3
REMARK VINA RESULT:     -13.4      3.539     10.186
REMARK SMILES Cc1ccc(NC(=O)C[C@@H](C(=O)NCCCNC(=O)c2ccc(-c3c4nc(c(-c5c(F)c(F)c(F)c(F)c5F)c5ccc([nH]5)c(-c5c(F)c(F)c(F)c(F)c5F)c5nc(c(-c6c(F)c(F)c(F)c(F)c6F)c6ccc3[nH]6)C=C5)C=C4)cc2)[NH+]2CCOCC2)cc1
REMARK SMILES IDX 14 1 13 2 11 3 12 4 10 6 9 7 7 8 6 9 8 11 5 12 1 13 2 14
REMARK SMILES IDX 3 15 90 16 4 17 89 18 83 19 84 20 88 21 85 23 87 24 86 25
REMARK SMILES IDX 15 26 16 27 17 28 18 29 19 31 20 32 21 33 82 34 22 35 81 36
REMARK SMILES IDX 23 37 24 38 25 39 75 40 26 41 80 42 74 43 76 44 27 45 79 46
REMARK SMILES IDX 73 47 72 48 28 50 60 51 40 52 59 53 41 54 44 55 58 56 77 57
REMARK SMILES IDX 42 58 43 59 57 61 78 62 45 63 29 64 30 65 38 66 31 67 32 68
REMARK SMILES IDX 36 69 39 70 33 71 34 72 37 73 35 74 61 75 62 76 70 77 63 78
REMARK SMILES IDX 64 79 68 80 71 81 65 82 66 83 69 84 67 85 46 86 47 87 55 88
REMARK SMILES IDX 48 89 49 90 53 91 56 92 50 93 51 94 54 95 52 96
REMARK H PARENT 13 5 6 10 83 22 17 30 76 49 44 60
REMARK Flexibility Score: inf
ROOT
ATOM      1  C   UNL A   1      32.345  30.144  25.747  1.00  0.00     0.118 C 
ENDROOT
BRANCH   1   2
ATOM      2  N   UNL A   1      33.382  29.576  24.913  1.00  0.00    -0.351 N 
ATOM      3  C   UNL A   1      33.443  28.419  24.197  1.00  0.00     0.278 C 
ATOM      4  O   UNL A   1      34.320  28.409  23.325  1.00  0.00    -0.268 OA
ATOM      5  H   UNL A   1      34.196  30.128  24.852  1.00  0.00     0.163 HD
BRANCH   3   6
ATOM      6  C   UNL A   1      32.453  27.223  24.423  1.00  0.00     0.283 C 
BRANCH   6   7
ATOM      7  C   UNL A   1      33.148  25.883  24.755  1.00  0.00     0.175 C 
BRANCH   7   8
ATOM      8  C   UNL A   1      32.809  25.148  26.027  1.00  0.00     0.230 C 
ATOM      9  N   UNL A   1      33.488  24.048  26.461  1.00  0.00    -0.326 N 
ATOM     10  H   UNL A   1      33.140  23.665  27.299  1.00  0.00     0.169 HD
ATOM     11  O   UNL A   1      31.878  25.561  26.728  1.00  0.00    -0.274 OA
BRANCH   9  12
ATOM     12  C   UNL A   1      34.594  23.362  25.931  1.00  0.00     0.041 A 
ATOM     13  C   UNL A   1      37.792  20.641  25.001  1.00  0.00     0.044 C 
ATOM     14  C   UNL A   1      36.680  21.628  25.196  1.00  0.00    -0.051 A 
ATOM     15  C   UNL A   1      36.959  22.884  25.737  1.00  0.00     0.005 A 
ATOM     16  C   UNL A   1      35.353  21.290  24.922  1.00  0.00     0.005 A 
ATOM     17  C   UNL A   1      35.921  23.752  26.088  1.00  0.00     0.026 A 
ATOM     18  C   UNL A   1      34.319  22.162  25.268  1.00  0.00     0.026 A 
ENDBRANCH   9  12
ENDBRANCH   7   8
ENDBRANCH   6   7
BRANCH   6  19
ATOM     19  N   UNL A   1      31.562  27.093  23.220  1.00  0.00    -0.320 N 
ATOM     20  C   UNL A   1      30.991  28.376  22.746  1.00  0.00     0.291 C 
ATOM     21  C   UNL A   1      30.498  26.074  23.222  1.00  0.00     0.291 C 
ATOM     22  H   UNL A   1      32.261  26.741  22.565  1.00  0.00     0.348 HD
ATOM     23  C   UNL A   1      29.663  28.760  23.417  1.00  0.00     0.221 C 
ATOM     24  C   UNL A   1      29.180  26.509  23.875  1.00  0.00     0.221 C 
ATOM     25  O   UNL A   1      28.688  27.719  23.294  1.00  0.00    -0.370 OA
ENDBRANCH   6  19
ENDBRANCH   3   6
ENDBRANCH   1   2
BRANCH   1  26
ATOM     26  C   UNL A   1      32.851  30.779  27.046  1.00  0.00     0.042 C 
BRANCH  26  27
ATOM     27  C   UNL A   1      34.139  30.179  27.615  1.00  0.00     0.118 C 
BRANCH  27  28
ATOM     28  N   UNL A   1      34.729  31.025  28.654  1.00  0.00    -0.352 N 
ATOM     29  C   UNL A   1      35.950  30.939  29.291  1.00  0.00     0.251 C 
ATOM     30  H   UNL A   1      34.163  31.776  28.946  1.00  0.00     0.163 HD
ATOM     31  O   UNL A   1      36.355  31.865  29.987  1.00  0.00    -0.269 OA
BRANCH  29  32
ATOM     32  C   UNL A   1      36.815  29.771  29.044  1.00  0.00     0.039 A 
ATOM     33  C   UNL A   1      37.179  28.965  30.128  1.00  0.00     0.014 A 
ATOM     34  C   UNL A   1      37.376  29.567  27.787  1.00  0.00     0.014 A 
ATOM     35  C   UNL A   1      38.281  28.122  30.008  1.00  0.00     0.010 A 
ATOM     36  C   UNL A   1      38.506  28.777  27.683  1.00  0.00     0.010 A 
ATOM     37  C   UNL A   1      39.006  28.123  28.814  1.00  0.00    -0.014 A 
BRANCH  37  38
ATOM     38  C   UNL A   1      40.360  27.585  28.718  1.00  0.00     0.031 A 
ATOM     39  C   UNL A   1      40.601  26.167  28.386  1.00  0.00     0.074 A 
ATOM     40  C   UNL A   1      41.412  28.419  28.876  1.00  0.00     0.049 A 
ATOM     41  N   UNL A   1      41.682  25.524  28.681  1.00  0.00    -0.248 NA
ATOM     42  C   UNL A   1      39.611  25.344  27.708  1.00  0.00     0.031 C 
ATOM     43  C   UNL A   1      42.818  28.136  28.597  1.00  0.00     0.029 A 
ATOM     44  N   UNL A   1      41.434  29.666  29.528  1.00  0.00    -0.354 N 
ATOM     45  C   UNL A   1      41.653  24.316  28.022  1.00  0.00     0.074 A 
ATOM     46  C   UNL A   1      40.315  24.230  27.479  1.00  0.00     0.031 C 
ATOM     47  C   UNL A   1      43.576  28.965  29.331  1.00  0.00     0.029 A 
ATOM     48  C   UNL A   1      42.681  29.711  30.198  1.00  0.00     0.049 A 
ATOM     49  H   UNL A   1      40.733  30.358  29.521  1.00  0.00     0.167 HD
ATOM     50  C   UNL A   1      42.802  23.585  27.915  1.00  0.00     0.037 A 
ATOM     51  C   UNL A   1      42.743  29.736  31.562  1.00  0.00     0.037 A 
ATOM     52  C   UNL A   1      43.902  24.197  28.660  1.00  0.00     0.049 A 
ATOM     53  C   UNL A   1      43.446  28.551  32.188  1.00  0.00     0.074 A 
ATOM     54  C   UNL A   1      44.978  24.997  28.312  1.00  0.00     0.029 A 
ATOM     55  N   UNL A   1      43.826  24.241  30.042  1.00  0.00    -0.354 N 
ATOM     56  N   UNL A   1      43.888  27.523  31.521  1.00  0.00    -0.248 NA
ATOM     57  C   UNL A   1      43.609  28.388  33.635  1.00  0.00     0.031 C 
ATOM     58  C   UNL A   1      45.526  25.550  29.505  1.00  0.00     0.029 A 
ATOM     59  C   UNL A   1      44.782  25.084  30.572  1.00  0.00     0.049 A 
ATOM     60  H   UNL A   1      43.173  23.735  30.577  1.00  0.00     0.167 HD
ATOM     61  C   UNL A   1      44.328  26.572  32.399  1.00  0.00     0.074 A 
ATOM     62  C   UNL A   1      44.141  27.157  33.712  1.00  0.00     0.031 C 
ATOM     63  C   UNL A   1      44.779  25.352  31.997  1.00  0.00     0.037 A 
BRANCH  50  64
ATOM     64  C   UNL A   1      43.002  22.444  26.938  1.00  0.00     0.064 A 
ATOM     65  C   UNL A   1      42.306  21.225  27.099  1.00  0.00     0.173 A 
ATOM     66  C   UNL A   1      43.899  22.465  25.855  1.00  0.00     0.173 A 
ATOM     67  F   UNL A   1      41.327  21.089  28.003  1.00  0.00    -0.203 F 
ATOM     68  C   UNL A   1      42.587  20.090  26.333  1.00  0.00     0.198 A 
ATOM     69  C   UNL A   1      44.225  21.315  25.127  1.00  0.00     0.198 A 
ATOM     70  F   UNL A   1      44.440  23.608  25.420  1.00  0.00    -0.203 F 
ATOM     71  F   UNL A   1      41.896  18.960  26.540  1.00  0.00    -0.200 F 
ATOM     72  C   UNL A   1      43.579  20.122  25.376  1.00  0.00     0.200 A 
ATOM     73  F   UNL A   1      45.170  21.376  24.177  1.00  0.00    -0.200 F 
ATOM     74  F   UNL A   1      43.887  19.022  24.677  1.00  0.00    -0.200 F 
ENDBRANCH  50  64
BRANCH  51  75
ATOM     75  C   UNL A   1      41.613  30.478  32.176  1.00  0.00     0.064 A 
ATOM     76  C   UNL A   1      41.588  31.881  32.050  1.00  0.00     0.173 A 
ATOM     77  C   UNL A   1      40.424  29.838  32.540  1.00  0.00     0.173 A 
ATOM     78  F   UNL A   1      42.704  32.543  31.705  1.00  0.00    -0.203 F 
ATOM     79  C   UNL A   1      40.398  32.595  32.160  1.00  0.00     0.198 A 
ATOM     80  C   UNL A   1      39.237  30.560  32.671  1.00  0.00     0.198 A 
ATOM     81  F   UNL A   1      40.380  28.503  32.656  1.00  0.00    -0.203 F 
ATOM     82  F   UNL A   1      40.384  33.913  31.916  1.00  0.00    -0.200 F 
ATOM     83  C   UNL A   1      39.218  31.929  32.444  1.00  0.00     0.200 A 
ATOM     84  F   UNL A   1      38.092  29.914  32.929  1.00  0.00    -0.200 F 
ATOM     85  F   UNL A   1      38.058  32.598  32.458  1.00  0.00    -0.200 F 
ENDBRANCH  51  75
BRANCH  63  86
ATOM     86  C   UNL A   1      45.278  24.318  32.952  1.00  0.00     0.064 A 
ATOM     87  C   UNL A   1      44.469  23.253  33.374  1.00  0.00     0.173 A 
ATOM     88  C   UNL A   1      46.537  24.444  33.569  1.00  0.00     0.173 A 
ATOM     89  F   UNL A   1      43.245  23.078  32.854  1.00  0.00    -0.203 F 
ATOM     90  C   UNL A   1      44.901  22.356  34.351  1.00  0.00     0.198 A 
ATOM     91  C   UNL A   1      46.948  23.573  34.575  1.00  0.00     0.198 A 
ATOM     92  F   UNL A   1      47.396  25.404  33.195  1.00  0.00    -0.203 F 
ATOM     93  F   UNL A   1      44.117  21.330  34.707  1.00  0.00    -0.200 F 
ATOM     94  C   UNL A   1      46.133  22.526  34.962  1.00  0.00     0.200 A 
ATOM     95  F   UNL A   1      48.137  23.755  35.167  1.00  0.00    -0.200 F 
ATOM     96  F   UNL A   1      46.535  21.680  35.920  1.00  0.00    -0.200 F 
ENDBRANCH  63  86
ENDBRANCH  37  38
ENDBRANCH  29  32
ENDBRANCH  27  28
ENDBRANCH  26  27
ENDBRANCH   1  26
TORSDOF 14
ENDMDL
