MODEL 1
REMARK VINA RESULT:     -12.6      0.000      0.000
REMARK SMILES CC(C)c1cc(O)cc(C(C)C)c1O[C@@H]1O[C@@H](C(=O)NCCCNC(=O)c2ccc(-c3c4nc(c(-c5c(F)c(F)c(F)c(F)c5F)c5ccc([nH]5)c(-c5c(F)c(F)c(F)c(F)c5F)c5nc(c(-c6c(F)c(F)c(F)c(F)c6F)c6ccc3[nH]6)C=C5)C=C4)cc2)[C@@H](O)[C@H](O)[C@@H]1O
REMARK SMILES IDX 21 1 20 2 18 3 19 4 17 6 15 7 16 8 94 9 92 10 90 11 14 12
REMARK SMILES IDX 13 13 4 14 5 15 6 16 9 17 8 18 2 19 1 20 3 21 7 22 10 24
REMARK SMILES IDX 11 25 12 26 95 27 93 29 91 31 22 33 23 34 24 35 25 36 26 38
REMARK SMILES IDX 27 39 28 40 89 41 29 42 88 43 30 44 31 45 32 46 82 47 33 48
REMARK SMILES IDX 87 49 81 50 83 51 34 52 86 53 80 54 79 55 35 57 67 58 47 59
REMARK SMILES IDX 66 60 48 61 51 62 65 63 84 64 49 65 50 66 64 68 85 69 52 70
REMARK SMILES IDX 36 71 37 72 45 73 38 74 39 75 43 76 46 77 40 78 41 79 44 80
REMARK SMILES IDX 42 81 68 82 69 83 77 84 70 85 71 86 75 87 78 88 72 89 73 90
REMARK SMILES IDX 76 91 74 92 53 93 54 94 62 95 55 96 56 97 60 98 63 99 57 100
REMARK SMILES IDX 58 101 61 102 59 103
REMARK H PARENT 20 5 7 23 95 28 93 30 91 32 24 37 83 56 51 67
REMARK Flexibility Score: inf
ROOT
ATOM      1  C   UNL A   1      31.764  30.003  26.143  1.00  0.00     0.117 C 
ENDROOT
BRANCH   1   2
ATOM      2  N   UNL A   1      32.664  29.798  25.016  1.00  0.00    -0.354 N 
ATOM      3  C   UNL A   1      32.688  28.956  23.952  1.00  0.00     0.252 C 
ATOM      4  O   UNL A   1      33.488  29.278  23.063  1.00  0.00    -0.272 OA
ATOM      5  H   UNL A   1      33.433  30.413  25.029  1.00  0.00     0.163 HD
BRANCH   3   6
ATOM      6  C   UNL A   1      31.860  27.644  23.787  1.00  0.00     0.242 C 
ATOM      7  C   UNL A   1      33.627  26.050  24.192  1.00  0.00     0.339 C 
ATOM      8  O   UNL A   1      32.353  26.561  24.600  1.00  0.00    -0.324 OA
ATOM      9  C   UNL A   1      33.875  25.847  22.661  1.00  0.00     0.214 C 
ATOM     10  C   UNL A   1      32.972  26.710  21.759  1.00  0.00     0.181 C 
ATOM     11  C   UNL A   1      31.614  27.073  22.400  1.00  0.00     0.184 C 
BRANCH   7  12
ATOM     12  O   UNL A   1      34.079  24.933  24.971  1.00  0.00    -0.461 OA
BRANCH  12  13
ATOM     13  C   UNL A   1      33.694  23.620  24.977  1.00  0.00     0.130 A 
ATOM     14  C   UNL A   1      34.802  22.749  24.734  1.00  0.00     0.001 A 
ATOM     15  C   UNL A   1      34.608  21.352  24.671  1.00  0.00     0.054 A 
ATOM     16  C   UNL A   1      33.351  20.814  24.852  1.00  0.00     0.116 A 
ATOM     17  C   UNL A   1      32.410  23.046  25.153  1.00  0.00     0.001 A 
ATOM     18  C   UNL A   1      32.273  21.640  25.100  1.00  0.00     0.054 A 
BRANCH  14  19
ATOM     19  C   UNL A   1      36.225  23.283  24.530  1.00  0.00     0.017 C 
ATOM     20  C   UNL A   1      37.173  22.755  25.612  1.00  0.00     0.012 C 
ATOM     21  C   UNL A   1      36.759  22.953  23.131  1.00  0.00     0.012 C 
ENDBRANCH  14  19
BRANCH  16  22
ATOM     22  O   UNL A   1      33.122  19.474  24.792  1.00  0.00    -0.508 OA
ATOM     23  H   UNL A   1      32.408  19.099  25.269  1.00  0.00     0.293 HD
ENDBRANCH  16  22
BRANCH  17  24
ATOM     24  C   UNL A   1      31.123  23.799  25.405  1.00  0.00     0.017 C 
ATOM     25  C   UNL A   1      30.278  24.078  24.152  1.00  0.00     0.012 C 
ATOM     26  C   UNL A   1      30.279  23.170  26.512  1.00  0.00     0.012 C 
ENDBRANCH  17  24
ENDBRANCH  12  13
ENDBRANCH   7  12
BRANCH   9  27
ATOM     27  O   UNL A   1      33.775  24.489  22.196  1.00  0.00    -0.384 OA
ATOM     28  H   UNL A   1      32.856  24.190  22.269  1.00  0.00     0.211 HD
ENDBRANCH   9  27
BRANCH  10  29
ATOM     29  O   UNL A   1      32.760  26.061  20.497  1.00  0.00    -0.387 OA
ATOM     30  H   UNL A   1      31.958  26.416  20.081  1.00  0.00     0.211 HD
ENDBRANCH  10  29
BRANCH  11  31
ATOM     31  O   UNL A   1      30.744  27.903  21.626  1.00  0.00    -0.387 OA
ATOM     32  H   UNL A   1      30.180  28.423  22.219  1.00  0.00     0.211 HD
ENDBRANCH  11  31
ENDBRANCH   3   6
ENDBRANCH   1   2
BRANCH   1  33
ATOM     33  C   UNL A   1      31.533  31.459  26.493  1.00  0.00     0.042 C 
BRANCH  33  34
ATOM     34  C   UNL A   1      32.826  32.145  26.898  1.00  0.00     0.118 C 
BRANCH  34  35
ATOM     35  N   UNL A   1      32.613  33.550  27.252  1.00  0.00    -0.352 N 
ATOM     36  C   UNL A   1      33.072  34.290  28.314  1.00  0.00     0.251 C 
ATOM     37  H   UNL A   1      32.044  34.049  26.621  1.00  0.00     0.163 HD
ATOM     38  O   UNL A   1      32.528  35.350  28.604  1.00  0.00    -0.269 OA
BRANCH  36  39
ATOM     39  C   UNL A   1      34.226  33.815  29.099  1.00  0.00     0.039 A 
ATOM     40  C   UNL A   1      34.031  32.939  30.170  1.00  0.00     0.014 A 
ATOM     41  C   UNL A   1      35.508  34.269  28.792  1.00  0.00     0.014 A 
ATOM     42  C   UNL A   1      35.135  32.458  30.876  1.00  0.00     0.010 A 
ATOM     43  C   UNL A   1      36.608  33.698  29.409  1.00  0.00     0.010 A 
ATOM     44  C   UNL A   1      36.434  32.799  30.468  1.00  0.00    -0.014 A 
BRANCH  44  45
ATOM     45  C   UNL A   1      37.644  32.252  31.129  1.00  0.00     0.031 A 
ATOM     46  C   UNL A   1      38.412  31.141  30.464  1.00  0.00     0.074 A 
ATOM     47  C   UNL A   1      37.966  32.665  32.368  1.00  0.00     0.049 A 
ATOM     48  N   UNL A   1      39.381  30.404  30.941  1.00  0.00    -0.248 NA
ATOM     49  C   UNL A   1      38.000  30.775  29.098  1.00  0.00     0.031 C 
ATOM     50  C   UNL A   1      37.247  33.683  33.139  1.00  0.00     0.029 A 
ATOM     51  N   UNL A   1      38.970  32.261  33.211  1.00  0.00    -0.354 N 
ATOM     52  C   UNL A   1      39.662  29.468  29.954  1.00  0.00     0.074 A 
ATOM     53  C   UNL A   1      38.730  29.692  28.872  1.00  0.00     0.031 C 
ATOM     54  C   UNL A   1      37.846  33.838  34.330  1.00  0.00     0.029 A 
ATOM     55  C   UNL A   1      38.961  32.904  34.425  1.00  0.00     0.049 A 
ATOM     56  H   UNL A   1      39.635  31.576  32.969  1.00  0.00     0.167 HD
ATOM     57  C   UNL A   1      40.630  28.522  29.943  1.00  0.00     0.037 A 
ATOM     58  C   UNL A   1      39.759  32.743  35.498  1.00  0.00     0.037 A 
ATOM     59  C   UNL A   1      41.597  28.357  30.993  1.00  0.00     0.049 A 
ATOM     60  C   UNL A   1      40.858  31.719  35.435  1.00  0.00     0.074 A 
ATOM     61  C   UNL A   1      42.690  27.509  31.034  1.00  0.00     0.029 A 
ATOM     62  N   UNL A   1      41.593  29.067  32.184  1.00  0.00    -0.354 N 
ATOM     63  N   UNL A   1      41.166  30.893  34.464  1.00  0.00    -0.248 NA
ATOM     64  C   UNL A   1      41.723  31.604  36.617  1.00  0.00     0.031 C 
ATOM     65  C   UNL A   1      43.326  27.680  32.266  1.00  0.00     0.029 A 
ATOM     66  C   UNL A   1      42.652  28.662  32.977  1.00  0.00     0.049 A 
ATOM     67  H   UNL A   1      40.934  29.756  32.429  1.00  0.00     0.167 HD
ATOM     68  C   UNL A   1      42.268  30.177  34.907  1.00  0.00     0.074 A 
ATOM     69  C   UNL A   1      42.590  30.680  36.226  1.00  0.00     0.031 C 
ATOM     70  C   UNL A   1      42.951  29.187  34.283  1.00  0.00     0.037 A 
BRANCH  57  71
ATOM     71  C   UNL A   1      40.711  27.611  28.754  1.00  0.00     0.064 A 
ATOM     72  C   UNL A   1      39.957  26.431  28.679  1.00  0.00     0.173 A 
ATOM     73  C   UNL A   1      41.508  27.952  27.650  1.00  0.00     0.173 A 
ATOM     74  F   UNL A   1      39.190  26.053  29.712  1.00  0.00    -0.203 F 
ATOM     75  C   UNL A   1      40.013  25.615  27.552  1.00  0.00     0.198 A 
ATOM     76  C   UNL A   1      41.540  27.149  26.514  1.00  0.00     0.198 A 
ATOM     77  F   UNL A   1      42.248  29.071  27.670  1.00  0.00    -0.203 F 
ATOM     78  F   UNL A   1      39.313  24.472  27.519  1.00  0.00    -0.200 F 
ATOM     79  C   UNL A   1      40.796  25.979  26.467  1.00  0.00     0.200 A 
ATOM     80  F   UNL A   1      42.290  27.506  25.462  1.00  0.00    -0.200 F 
ATOM     81  F   UNL A   1      40.837  25.201  25.377  1.00  0.00    -0.200 F 
ENDBRANCH  57  71
BRANCH  58  82
ATOM     82  C   UNL A   1      39.563  33.580  36.710  1.00  0.00     0.064 A 
ATOM     83  C   UNL A   1      38.755  33.134  37.765  1.00  0.00     0.173 A 
ATOM     84  C   UNL A   1      40.160  34.843  36.834  1.00  0.00     0.173 A 
ATOM     85  F   UNL A   1      38.146  31.942  37.683  1.00  0.00    -0.203 F 
ATOM     86  C   UNL A   1      38.529  33.930  38.886  1.00  0.00     0.198 A 
ATOM     87  C   UNL A   1      39.957  35.626  37.968  1.00  0.00     0.198 A 
ATOM     88  F   UNL A   1      40.949  35.313  35.856  1.00  0.00    -0.203 F 
ATOM     89  F   UNL A   1      37.710  33.501  39.855  1.00  0.00    -0.200 F 
ATOM     90  C   UNL A   1      39.133  35.175  38.988  1.00  0.00     0.200 A 
ATOM     91  F   UNL A   1      40.553  36.822  38.070  1.00  0.00    -0.200 F 
ATOM     92  F   UNL A   1      38.914  35.941  40.065  1.00  0.00    -0.200 F 
ENDBRANCH  58  82
BRANCH  70  93
ATOM     93  C   UNL A   1      44.119  28.599  35.015  1.00  0.00     0.064 A 
ATOM     94  C   UNL A   1      43.972  27.478  35.843  1.00  0.00     0.173 A 
ATOM     95  C   UNL A   1      45.404  29.139  34.854  1.00  0.00     0.173 A 
ATOM     96  F   UNL A   1      42.759  26.938  36.040  1.00  0.00    -0.203 F 
ATOM     97  C   UNL A   1      45.068  26.929  36.501  1.00  0.00     0.198 A 
ATOM     98  C   UNL A   1      46.502  28.571  35.491  1.00  0.00     0.198 A 
ATOM     99  F   UNL A   1      45.595  30.208  34.066  1.00  0.00    -0.203 F 
ATOM    100  F   UNL A   1      44.899  25.883  37.322  1.00  0.00    -0.200 F 
ATOM    101  C   UNL A   1      46.332  27.470  36.319  1.00  0.00     0.200 A 
ATOM    102  F   UNL A   1      47.724  29.086  35.304  1.00  0.00    -0.200 F 
ATOM    103  F   UNL A   1      47.388  26.935  36.948  1.00  0.00    -0.200 F 
ENDBRANCH  70  93
ENDBRANCH  44  45
ENDBRANCH  36  39
ENDBRANCH  34  35
ENDBRANCH  33  34
ENDBRANCH   1  33
TORSDOF 18
ENDMDL
MODEL 2
REMARK VINA RESULT:     -12.6      5.156     10.613
REMARK SMILES CC(C)c1cc(O)cc(C(C)C)c1O[C@@H]1O[C@@H](C(=O)NCCCNC(=O)c2ccc(-c3c4nc(c(-c5c(F)c(F)c(F)c(F)c5F)c5ccc([nH]5)c(-c5c(F)c(F)c(F)c(F)c5F)c5nc(c(-c6c(F)c(F)c(F)c(F)c6F)c6ccc3[nH]6)C=C5)C=C4)cc2)[C@@H](O)[C@H](O)[C@@H]1O
REMARK SMILES IDX 21 1 20 2 18 3 19 4 17 6 15 7 16 8 94 9 92 10 90 11 14 12
REMARK SMILES IDX 13 13 4 14 5 15 6 16 9 17 8 18 2 19 1 20 3 21 7 22 10 24
REMARK SMILES IDX 11 25 12 26 95 27 93 29 91 31 22 33 23 34 24 35 25 36 26 38
REMARK SMILES IDX 27 39 28 40 89 41 29 42 88 43 30 44 31 45 32 46 82 47 33 48
REMARK SMILES IDX 87 49 81 50 83 51 34 52 86 53 80 54 79 55 35 57 67 58 47 59
REMARK SMILES IDX 66 60 48 61 51 62 65 63 84 64 49 65 50 66 64 68 85 69 52 70
REMARK SMILES IDX 36 71 37 72 45 73 38 74 39 75 43 76 46 77 40 78 41 79 44 80
REMARK SMILES IDX 42 81 68 82 69 83 77 84 70 85 71 86 75 87 78 88 72 89 73 90
REMARK SMILES IDX 76 91 74 92 53 93 54 94 62 95 55 96 56 97 60 98 63 99 57 100
REMARK SMILES IDX 58 101 61 102 59 103
REMARK H PARENT 20 5 7 23 95 28 93 30 91 32 24 37 83 56 51 67
REMARK Flexibility Score: inf
ROOT
ATOM      1  C   UNL A   1      36.636  20.971  24.852  1.00  0.00     0.117 C 
ENDROOT
BRANCH   1   2
ATOM      2  N   UNL A   1      35.911  21.287  26.076  1.00  0.00    -0.354 N 
ATOM      3  C   UNL A   1      34.625  21.603  26.371  1.00  0.00     0.252 C 
ATOM      4  O   UNL A   1      34.346  21.536  27.576  1.00  0.00    -0.272 OA
ATOM      5  H   UNL A   1      36.488  21.265  26.873  1.00  0.00     0.163 HD
BRANCH   3   6
ATOM      6  C   UNL A   1      33.529  22.071  25.364  1.00  0.00     0.242 C 
ATOM      7  C   UNL A   1      33.425  24.398  26.002  1.00  0.00     0.339 C 
ATOM      8  O   UNL A   1      33.684  23.447  24.963  1.00  0.00    -0.324 OA
ATOM      9  C   UNL A   1      32.187  24.150  26.924  1.00  0.00     0.214 C 
ATOM     10  C   UNL A   1      31.726  22.680  26.977  1.00  0.00     0.181 C 
ATOM     11  C   UNL A   1      32.060  21.876  25.700  1.00  0.00     0.184 C 
BRANCH   7  12
ATOM     12  O   UNL A   1      33.523  25.763  25.574  1.00  0.00    -0.461 OA
BRANCH  12  13
ATOM     13  C   UNL A   1      32.693  26.531  24.803  1.00  0.00     0.130 A 
ATOM     14  C   UNL A   1      32.355  27.756  25.457  1.00  0.00     0.001 A 
ATOM     15  C   UNL A   1      31.483  28.676  24.837  1.00  0.00     0.054 A 
ATOM     16  C   UNL A   1      30.956  28.407  23.591  1.00  0.00     0.116 A 
ATOM     17  C   UNL A   1      32.135  26.271  23.525  1.00  0.00     0.001 A 
ATOM     18  C   UNL A   1      31.282  27.235  22.941  1.00  0.00     0.054 A 
BRANCH  14  19
ATOM     19  C   UNL A   1      32.911  28.118  26.840  1.00  0.00     0.017 C 
ATOM     20  C   UNL A   1      33.725  29.415  26.786  1.00  0.00     0.012 C 
ATOM     21  C   UNL A   1      31.797  28.219  27.890  1.00  0.00     0.012 C 
ENDBRANCH  14  19
BRANCH  16  22
ATOM     22  O   UNL A   1      30.107  29.265  22.963  1.00  0.00    -0.508 OA
ATOM     23  H   UNL A   1      30.376  29.699  22.178  1.00  0.00     0.293 HD
ENDBRANCH  16  22
BRANCH  17  24
ATOM     24  C   UNL A   1      32.362  25.033  22.688  1.00  0.00     0.017 C 
ATOM     25  C   UNL A   1      31.257  23.971  22.785  1.00  0.00     0.012 C 
ATOM     26  C   UNL A   1      32.690  25.359  21.232  1.00  0.00     0.012 C 
ENDBRANCH  17  24
ENDBRANCH  12  13
ENDBRANCH   7  12
BRANCH   9  27
ATOM     27  O   UNL A   1      31.029  24.952  26.630  1.00  0.00    -0.384 OA
ATOM     28  H   UNL A   1      31.309  25.857  26.418  1.00  0.00     0.211 HD
ENDBRANCH   9  27
BRANCH  10  29
ATOM     29  O   UNL A   1      30.318  22.607  27.248  1.00  0.00    -0.387 OA
ATOM     30  H   UNL A   1      30.146  21.878  27.865  1.00  0.00     0.211 HD
ENDBRANCH  10  29
BRANCH  11  31
ATOM     31  O   UNL A   1      31.689  20.495  25.700  1.00  0.00    -0.387 OA
ATOM     32  H   UNL A   1      30.803  20.398  25.318  1.00  0.00     0.211 HD
ENDBRANCH  11  31
ENDBRANCH   3   6
ENDBRANCH   1   2
BRANCH   1  33
ATOM     33  C   UNL A   1      37.689  19.894  25.017  1.00  0.00     0.042 C 
BRANCH  33  34
ATOM     34  C   UNL A   1      38.900  20.412  25.772  1.00  0.00     0.118 C 
BRANCH  34  35
ATOM     35  N   UNL A   1      39.915  19.373  25.958  1.00  0.00    -0.352 N 
ATOM     36  C   UNL A   1      41.282  19.457  26.058  1.00  0.00     0.251 C 
ATOM     37  H   UNL A   1      39.556  18.457  26.021  1.00  0.00     0.163 HD
ATOM     38  O   UNL A   1      41.972  18.458  25.889  1.00  0.00    -0.269 OA
BRANCH  36  39
ATOM     39  C   UNL A   1      41.919  20.747  26.380  1.00  0.00     0.039 A 
ATOM     40  C   UNL A   1      42.233  21.647  25.357  1.00  0.00     0.014 A 
ATOM     41  C   UNL A   1      42.237  21.053  27.702  1.00  0.00     0.014 A 
ATOM     42  C   UNL A   1      42.791  22.886  25.678  1.00  0.00     0.010 A 
ATOM     43  C   UNL A   1      42.674  22.325  28.030  1.00  0.00     0.010 A 
ATOM     44  C   UNL A   1      42.971  23.250  27.021  1.00  0.00    -0.014 A 
BRANCH  44  45
ATOM     45  C   UNL A   1      43.482  24.583  27.422  1.00  0.00     0.031 A 
ATOM     46  C   UNL A   1      42.527  25.606  27.975  1.00  0.00     0.074 A 
ATOM     47  C   UNL A   1      44.764  24.905  27.169  1.00  0.00     0.049 A 
ATOM     48  N   UNL A   1      42.723  26.877  28.217  1.00  0.00    -0.248 NA
ATOM     49  C   UNL A   1      41.150  25.154  28.242  1.00  0.00     0.031 C 
ATOM     50  C   UNL A   1      45.760  24.016  26.565  1.00  0.00     0.029 A 
ATOM     51  N   UNL A   1      45.445  26.079  27.364  1.00  0.00    -0.354 N 
ATOM     52  C   UNL A   1      41.492  27.377  28.623  1.00  0.00     0.074 A 
ATOM     53  C   UNL A   1      40.542  26.290  28.545  1.00  0.00     0.031 C 
ATOM     54  C   UNL A   1      46.929  24.670  26.461  1.00  0.00     0.029 A 
ATOM     55  C   UNL A   1      46.753  26.033  26.948  1.00  0.00     0.049 A 
ATOM     56  H   UNL A   1      45.035  26.880  27.765  1.00  0.00     0.167 HD
ATOM     57  C   UNL A   1      41.191  28.626  29.047  1.00  0.00     0.037 A 
ATOM     58  C   UNL A   1      47.699  26.992  26.948  1.00  0.00     0.037 A 
ATOM     59  C   UNL A   1      42.160  29.677  29.189  1.00  0.00     0.049 A 
ATOM     60  C   UNL A   1      47.346  28.355  27.474  1.00  0.00     0.074 A 
ATOM     61  C   UNL A   1      41.987  30.944  29.718  1.00  0.00     0.029 A 
ATOM     62  N   UNL A   1      43.491  29.575  28.812  1.00  0.00    -0.354 N 
ATOM     63  N   UNL A   1      46.198  28.795  27.931  1.00  0.00    -0.248 NA
ATOM     64  C   UNL A   1      48.420  29.358  27.485  1.00  0.00     0.031 C 
ATOM     65  C   UNL A   1      43.206  31.622  29.626  1.00  0.00     0.029 A 
ATOM     66  C   UNL A   1      44.147  30.765  29.077  1.00  0.00     0.049 A 
ATOM     67  H   UNL A   1      43.907  28.776  28.416  1.00  0.00     0.167 HD
ATOM     68  C   UNL A   1      46.415  30.114  28.301  1.00  0.00     0.074 A 
ATOM     69  C   UNL A   1      47.810  30.397  28.037  1.00  0.00     0.031 C 
ATOM     70  C   UNL A   1      45.539  31.014  28.809  1.00  0.00     0.037 A 
BRANCH  57  71
ATOM     71  C   UNL A   1      39.766  28.921  29.412  1.00  0.00     0.064 A 
ATOM     72  C   UNL A   1      38.846  29.390  28.463  1.00  0.00     0.173 A 
ATOM     73  C   UNL A   1      39.300  28.675  30.712  1.00  0.00     0.173 A 
ATOM     74  F   UNL A   1      39.243  29.653  27.209  1.00  0.00    -0.203 F 
ATOM     75  C   UNL A   1      37.516  29.622  28.807  1.00  0.00     0.198 A 
ATOM     76  C   UNL A   1      37.964  28.881  31.046  1.00  0.00     0.198 A 
ATOM     77  F   UNL A   1      40.138  28.224  31.658  1.00  0.00    -0.203 F 
ATOM     78  F   UNL A   1      36.664  30.108  27.893  1.00  0.00    -0.200 F 
ATOM     79  C   UNL A   1      37.074  29.358  30.095  1.00  0.00     0.200 A 
ATOM     80  F   UNL A   1      37.536  28.617  32.288  1.00  0.00    -0.200 F 
ATOM     81  F   UNL A   1      35.792  29.568  30.421  1.00  0.00    -0.200 F 
ENDBRANCH  57  71
BRANCH  58  82
ATOM     82  C   UNL A   1      49.069  26.693  26.456  1.00  0.00     0.064 A 
ATOM     83  C   UNL A   1      50.053  26.209  27.329  1.00  0.00     0.173 A 
ATOM     84  C   UNL A   1      49.429  26.898  25.117  1.00  0.00     0.173 A 
ATOM     85  F   UNL A   1      49.761  26.014  28.623  1.00  0.00    -0.203 F 
ATOM     86  C   UNL A   1      51.352  25.967  26.887  1.00  0.00     0.198 A 
ATOM     87  C   UNL A   1      50.721  26.630  24.670  1.00  0.00     0.198 A 
ATOM     88  F   UNL A   1      48.523  27.354  24.239  1.00  0.00    -0.203 F 
ATOM     89  F   UNL A   1      52.286  25.554  27.755  1.00  0.00    -0.200 F 
ATOM     90  C   UNL A   1      51.685  26.175  25.557  1.00  0.00     0.200 A 
ATOM     91  F   UNL A   1      51.035  26.819  23.381  1.00  0.00    -0.200 F 
ATOM     92  F   UNL A   1      52.934  25.945  25.134  1.00  0.00    -0.200 F 
ENDBRANCH  58  82
BRANCH  70  93
ATOM     93  C   UNL A   1      46.071  32.379  29.125  1.00  0.00     0.064 A 
ATOM     94  C   UNL A   1      46.027  33.415  28.183  1.00  0.00     0.173 A 
ATOM     95  C   UNL A   1      46.591  32.662  30.397  1.00  0.00     0.173 A 
ATOM     96  F   UNL A   1      45.552  33.186  26.949  1.00  0.00    -0.203 F 
ATOM     97  C   UNL A   1      46.505  34.684  28.495  1.00  0.00     0.198 A 
ATOM     98  C   UNL A   1      47.043  33.938  30.715  1.00  0.00     0.198 A 
ATOM     99  F   UNL A   1      46.648  31.703  31.334  1.00  0.00    -0.203 F 
ATOM    100  F   UNL A   1      46.494  35.650  27.567  1.00  0.00    -0.200 F 
ATOM    101  C   UNL A   1      47.006  34.947  29.762  1.00  0.00     0.200 A 
ATOM    102  F   UNL A   1      47.513  34.194  31.943  1.00  0.00    -0.200 F 
ATOM    103  F   UNL A   1      47.459  36.171  30.064  1.00  0.00    -0.200 F 
ENDBRANCH  70  93
ENDBRANCH  44  45
ENDBRANCH  36  39
ENDBRANCH  34  35
ENDBRANCH  33  34
ENDBRANCH   1  33
TORSDOF 18
ENDMDL
MODEL 3
REMARK VINA RESULT:     -12.6      5.190     10.597
REMARK SMILES CC(C)c1cc(O)cc(C(C)C)c1O[C@@H]1O[C@@H](C(=O)NCCCNC(=O)c2ccc(-c3c4nc(c(-c5c(F)c(F)c(F)c(F)c5F)c5ccc([nH]5)c(-c5c(F)c(F)c(F)c(F)c5F)c5nc(c(-c6c(F)c(F)c(F)c(F)c6F)c6ccc3[nH]6)C=C5)C=C4)cc2)[C@@H](O)[C@H](O)[C@@H]1O
REMARK SMILES IDX 21 1 20 2 18 3 19 4 17 6 15 7 16 8 94 9 92 10 90 11 14 12
REMARK SMILES IDX 13 13 4 14 5 15 6 16 9 17 8 18 2 19 1 20 3 21 7 22 10 24
REMARK SMILES IDX 11 25 12 26 95 27 93 29 91 31 22 33 23 34 24 35 25 36 26 38
REMARK SMILES IDX 27 39 28 40 89 41 29 42 88 43 30 44 31 45 32 46 82 47 33 48
REMARK SMILES IDX 87 49 81 50 83 51 34 52 86 53 80 54 79 55 35 57 67 58 47 59
REMARK SMILES IDX 66 60 48 61 51 62 65 63 84 64 49 65 50 66 64 68 85 69 52 70
REMARK SMILES IDX 36 71 37 72 45 73 38 74 39 75 43 76 46 77 40 78 41 79 44 80
REMARK SMILES IDX 42 81 68 82 69 83 77 84 70 85 71 86 75 87 78 88 72 89 73 90
REMARK SMILES IDX 76 91 74 92 53 93 54 94 62 95 55 96 56 97 60 98 63 99 57 100
REMARK SMILES IDX 58 101 61 102 59 103
REMARK H PARENT 20 5 7 23 95 28 93 30 91 32 24 37 83 56 51 67
REMARK Flexibility Score: inf
ROOT
ATOM      1  C   UNL A   1      36.703  21.005  24.827  1.00  0.00     0.117 C 
ENDROOT
BRANCH   1   2
ATOM      2  N   UNL A   1      35.970  21.299  26.051  1.00  0.00    -0.354 N 
ATOM      3  C   UNL A   1      34.678  21.591  26.346  1.00  0.00     0.252 C 
ATOM      4  O   UNL A   1      34.397  21.511  27.550  1.00  0.00    -0.272 OA
ATOM      5  H   UNL A   1      36.546  21.281  26.850  1.00  0.00     0.163 HD
BRANCH   3   6
ATOM      6  C   UNL A   1      33.576  22.048  25.340  1.00  0.00     0.242 C 
ATOM      7  C   UNL A   1      33.491  24.386  25.937  1.00  0.00     0.339 C 
ATOM      8  O   UNL A   1      33.736  23.415  24.913  1.00  0.00    -0.324 OA
ATOM      9  C   UNL A   1      32.260  24.162  26.874  1.00  0.00     0.214 C 
ATOM     10  C   UNL A   1      31.790  22.697  26.957  1.00  0.00     0.181 C 
ATOM     11  C   UNL A   1      32.109  21.868  25.692  1.00  0.00     0.184 C 
BRANCH   7  12
ATOM     12  O   UNL A   1      33.594  25.743  25.483  1.00  0.00    -0.461 OA
BRANCH  12  13
ATOM     13  C   UNL A   1      32.737  26.520  24.753  1.00  0.00     0.130 A 
ATOM     14  C   UNL A   1      32.358  27.698  25.469  1.00  0.00     0.001 A 
ATOM     15  C   UNL A   1      31.453  28.617  24.897  1.00  0.00     0.054 A 
ATOM     16  C   UNL A   1      30.933  28.394  23.639  1.00  0.00     0.116 A 
ATOM     17  C   UNL A   1      32.185  26.305  23.464  1.00  0.00     0.001 A 
ATOM     18  C   UNL A   1      31.298  27.268  22.930  1.00  0.00     0.054 A 
BRANCH  14  19
ATOM     19  C   UNL A   1      32.905  28.009  26.868  1.00  0.00     0.017 C 
ATOM     20  C   UNL A   1      33.857  29.209  26.835  1.00  0.00     0.012 C 
ATOM     21  C   UNL A   1      31.775  28.238  27.879  1.00  0.00     0.012 C 
ENDBRANCH  14  19
BRANCH  16  22
ATOM     22  O   UNL A   1      30.053  29.253  23.056  1.00  0.00    -0.508 OA
ATOM     23  H   UNL A   1      29.997  30.139  23.355  1.00  0.00     0.293 HD
ENDBRANCH  16  22
BRANCH  17  24
ATOM     24  C   UNL A   1      32.452  25.120  22.565  1.00  0.00     0.017 C 
ATOM     25  C   UNL A   1      31.449  23.964  22.697  1.00  0.00     0.012 C 
ATOM     26  C   UNL A   1      32.645  25.521  21.104  1.00  0.00     0.012 C 
ENDBRANCH  17  24
ENDBRANCH  12  13
ENDBRANCH   7  12
BRANCH   9  27
ATOM     27  O   UNL A   1      31.104  24.967  26.575  1.00  0.00    -0.384 OA
ATOM     28  H   UNL A   1      30.350  24.656  27.100  1.00  0.00     0.211 HD
ENDBRANCH   9  27
BRANCH  10  29
ATOM     29  O   UNL A   1      30.385  22.638  27.241  1.00  0.00    -0.387 OA
ATOM     30  H   UNL A   1      30.138  21.725  27.462  1.00  0.00     0.211 HD
ENDBRANCH  10  29
BRANCH  11  31
ATOM     31  O   UNL A   1      31.729  20.489  25.720  1.00  0.00    -0.387 OA
ATOM     32  H   UNL A   1      31.228  20.276  24.918  1.00  0.00     0.211 HD
ENDBRANCH  11  31
ENDBRANCH   3   6
ENDBRANCH   1   2
BRANCH   1  33
ATOM     33  C   UNL A   1      37.768  19.939  24.984  1.00  0.00     0.042 C 
BRANCH  33  34
ATOM     34  C   UNL A   1      38.971  20.465  25.746  1.00  0.00     0.118 C 
BRANCH  34  35
ATOM     35  N   UNL A   1      39.982  19.426  25.957  1.00  0.00    -0.352 N 
ATOM     36  C   UNL A   1      41.347  19.510  26.078  1.00  0.00     0.251 C 
ATOM     37  H   UNL A   1      39.621  18.511  26.023  1.00  0.00     0.163 HD
ATOM     38  O   UNL A   1      42.039  18.508  25.928  1.00  0.00    -0.269 OA
BRANCH  36  39
ATOM     39  C   UNL A   1      41.981  20.802  26.397  1.00  0.00     0.039 A 
ATOM     40  C   UNL A   1      42.323  21.687  25.371  1.00  0.00     0.014 A 
ATOM     41  C   UNL A   1      42.268  21.125  27.723  1.00  0.00     0.014 A 
ATOM     42  C   UNL A   1      42.878  22.928  25.688  1.00  0.00     0.010 A 
ATOM     43  C   UNL A   1      42.701  22.400  28.044  1.00  0.00     0.010 A 
ATOM     44  C   UNL A   1      43.025  23.310  27.030  1.00  0.00    -0.014 A 
BRANCH  44  45
ATOM     45  C   UNL A   1      43.532  24.647  27.425  1.00  0.00     0.031 A 
ATOM     46  C   UNL A   1      42.571  25.672  27.964  1.00  0.00     0.074 A 
ATOM     47  C   UNL A   1      44.815  24.969  27.179  1.00  0.00     0.049 A 
ATOM     48  N   UNL A   1      42.763  26.945  28.199  1.00  0.00    -0.248 NA
ATOM     49  C   UNL A   1      41.193  25.220  28.224  1.00  0.00     0.031 C 
ATOM     50  C   UNL A   1      45.817  24.078  26.590  1.00  0.00     0.029 A 
ATOM     51  N   UNL A   1      45.492  26.146  27.371  1.00  0.00    -0.354 N 
ATOM     52  C   UNL A   1      41.528  27.445  28.591  1.00  0.00     0.074 A 
ATOM     53  C   UNL A   1      40.580  26.357  28.514  1.00  0.00     0.031 C 
ATOM     54  C   UNL A   1      46.985  24.733  26.489  1.00  0.00     0.029 A 
ATOM     55  C   UNL A   1      46.804  26.099  26.965  1.00  0.00     0.049 A 
ATOM     56  H   UNL A   1      45.078  26.949  27.764  1.00  0.00     0.167 HD
ATOM     57  C   UNL A   1      41.221  28.697  29.004  1.00  0.00     0.037 A 
ATOM     58  C   UNL A   1      47.747  27.060  26.966  1.00  0.00     0.037 A 
ATOM     59  C   UNL A   1      42.187  29.751  29.147  1.00  0.00     0.049 A 
ATOM     60  C   UNL A   1      47.388  28.426  27.479  1.00  0.00     0.074 A 
ATOM     61  C   UNL A   1      42.009  31.021  29.664  1.00  0.00     0.029 A 
ATOM     62  N   UNL A   1      43.521  29.649  28.780  1.00  0.00    -0.354 N 
ATOM     63  N   UNL A   1      46.237  28.868  27.924  1.00  0.00    -0.248 NA
ATOM     64  C   UNL A   1      48.460  29.431  27.491  1.00  0.00     0.031 C 
ATOM     65  C   UNL A   1      43.227  31.701  29.577  1.00  0.00     0.029 A 
ATOM     66  C   UNL A   1      44.173  30.841  29.041  1.00  0.00     0.049 A 
ATOM     67  H   UNL A   1      43.942  28.847  28.392  1.00  0.00     0.167 HD
ATOM     68  C   UNL A   1      46.448  30.189  28.287  1.00  0.00     0.074 A 
ATOM     69  C   UNL A   1      47.845  30.473  28.032  1.00  0.00     0.031 C 
ATOM     70  C   UNL A   1      45.567  31.091  28.782  1.00  0.00     0.037 A 
BRANCH  57  71
ATOM     71  C   UNL A   1      39.793  28.992  29.356  1.00  0.00     0.064 A 
ATOM     72  C   UNL A   1      39.313  28.844  30.666  1.00  0.00     0.173 A 
ATOM     73  C   UNL A   1      38.908  29.484  28.385  1.00  0.00     0.173 A 
ATOM     74  F   UNL A   1      40.115  28.364  31.629  1.00  0.00    -0.203 F 
ATOM     75  C   UNL A   1      37.995  29.158  30.986  1.00  0.00     0.198 A 
ATOM     76  C   UNL A   1      37.599  29.824  28.714  1.00  0.00     0.198 A 
ATOM     77  F   UNL A   1      39.317  29.646  27.117  1.00  0.00    -0.203 F 
ATOM     78  F   UNL A   1      37.548  28.971  32.236  1.00  0.00    -0.200 F 
ATOM     79  C   UNL A   1      37.142  29.657  30.013  1.00  0.00     0.200 A 
ATOM     80  F   UNL A   1      36.778  30.315  27.775  1.00  0.00    -0.200 F 
ATOM     81  F   UNL A   1      35.878  29.973  30.326  1.00  0.00    -0.200 F 
ENDBRANCH  57  71
BRANCH  58  82
ATOM     82  C   UNL A   1      49.122  26.760  26.486  1.00  0.00     0.064 A 
ATOM     83  C   UNL A   1      49.469  26.954  25.142  1.00  0.00     0.173 A 
ATOM     84  C   UNL A   1      50.108  26.261  27.349  1.00  0.00     0.173 A 
ATOM     85  F   UNL A   1      48.554  27.411  24.274  1.00  0.00    -0.203 F 
ATOM     86  C   UNL A   1      50.741  26.635  24.673  1.00  0.00     0.198 A 
ATOM     87  C   UNL A   1      51.389  25.969  26.885  1.00  0.00     0.198 A 
ATOM     88  F   UNL A   1      49.830  26.064  28.646  1.00  0.00    -0.203 F 
ATOM     89  F   UNL A   1      51.030  26.781  23.373  1.00  0.00    -0.200 F 
ATOM     90  C   UNL A   1      51.702  26.145  25.545  1.00  0.00     0.200 A 
ATOM     91  F   UNL A   1      52.318  25.509  27.734  1.00  0.00    -0.200 F 
ATOM     92  F   UNL A   1      52.924  25.836  25.094  1.00  0.00    -0.200 F 
ENDBRANCH  58  82
BRANCH  70  93
ATOM     93  C   UNL A   1      46.094  32.459  29.092  1.00  0.00     0.064 A 
ATOM     94  C   UNL A   1      46.650  32.760  30.343  1.00  0.00     0.173 A 
ATOM     95  C   UNL A   1      46.080  33.465  28.115  1.00  0.00     0.173 A 
ATOM     96  F   UNL A   1      46.671  31.833  31.314  1.00  0.00    -0.203 F 
ATOM     97  C   UNL A   1      47.155  34.028  30.613  1.00  0.00     0.198 A 
ATOM     98  C   UNL A   1      46.611  34.724  28.378  1.00  0.00     0.198 A 
ATOM     99  F   UNL A   1      45.563  33.222  26.901  1.00  0.00    -0.203 F 
ATOM    100  F   UNL A   1      47.644  34.308  31.829  1.00  0.00    -0.200 F 
ATOM    101  C   UNL A   1      47.142  35.006  29.629  1.00  0.00     0.200 A 
ATOM    102  F   UNL A   1      46.610  35.663  27.424  1.00  0.00    -0.200 F 
ATOM    103  F   UNL A   1      47.636  36.225  29.888  1.00  0.00    -0.200 F 
ENDBRANCH  70  93
ENDBRANCH  44  45
ENDBRANCH  36  39
ENDBRANCH  34  35
ENDBRANCH  33  34
ENDBRANCH   1  33
TORSDOF 18
ENDMDL
