MODEL 1
REMARK VINA RESULT:     -13.0      0.000      0.000
REMARK SMILES COc1ccc(Br)cc1CNc1ccc(N2CCOCC2)c(C(=O)NCCCNC(=O)c2ccc(-c3c4nc(c(-c5c(F)c(F)c(F)c(F)c5F)c5ccc([nH]5)c(-c5c(F)c(F)c(F)c(F)c5F)c5nc(c(-c6c(F)c(F)c(F)c(F)c6F)c6ccc3[nH]6)C=C5)C=C4)cc2)c1
REMARK SMILES IDX 26 1 25 2 23 3 24 4 22 6 12 7 13 8 95 9 14 10 15 11 11 12
REMARK SMILES IDX 10 14 9 15 3 16 4 17 5 18 8 19 6 20 7 21 2 22 1 23 16 24
REMARK SMILES IDX 17 25 21 26 18 27 20 28 19 29 27 30 28 31 29 32 30 33 31 35
REMARK SMILES IDX 32 36 33 37 94 38 34 39 93 40 35 41 36 42 37 43 87 44 38 45
REMARK SMILES IDX 92 46 86 47 88 48 39 49 91 50 85 51 84 52 40 54 72 55 52 56
REMARK SMILES IDX 71 57 53 58 56 59 70 60 89 61 54 62 55 63 69 65 90 66 57 67
REMARK SMILES IDX 41 68 42 69 50 70 43 71 44 72 48 73 51 74 45 75 46 76 49 77
REMARK SMILES IDX 47 78 73 79 74 80 82 81 75 82 76 83 80 84 83 85 77 86 78 87
REMARK SMILES IDX 81 88 79 89 58 90 59 91 67 92 60 93 61 94 65 95 68 96 62 97
REMARK SMILES IDX 63 98 66 99 64 100
REMARK H PARENT 25 5 11 13 29 34 88 53 56 64
REMARK Flexibility Score: inf
ROOT
ATOM      1  C   UNL A   1      31.611  30.445  26.496  1.00  0.00     0.118 C 
ENDROOT
BRANCH   1   2
ATOM      2  N   UNL A   1      32.321  30.096  25.271  1.00  0.00    -0.352 N 
ATOM      3  C   UNL A   1      32.065  29.268  24.191  1.00  0.00     0.253 C 
ATOM      4  O   UNL A   1      32.904  29.306  23.293  1.00  0.00    -0.269 OA
ATOM      5  H   UNL A   1      33.186  30.558  25.192  1.00  0.00     0.163 HD
BRANCH   3   6
ATOM      6  C   UNL A   1      30.877  28.355  24.126  1.00  0.00     0.065 A 
ATOM      7  C   UNL A   1      30.003  26.131  24.699  1.00  0.00     0.035 A 
ATOM      8  C   UNL A   1      28.911  26.381  23.875  1.00  0.00     0.028 A 
ATOM      9  C   UNL A   1      30.909  27.173  24.875  1.00  0.00     0.041 A 
ATOM     10  C   UNL A   1      28.739  27.635  23.283  1.00  0.00     0.029 A 
ATOM     11  C   UNL A   1      29.698  28.655  23.413  1.00  0.00     0.050 A 
BRANCH   7  12
ATOM     12  N   UNL A   1      30.114  24.921  25.345  1.00  0.00    -0.381 N 
ATOM     13  H   UNL A   1      29.340  24.316  25.303  1.00  0.00     0.160 HD
BRANCH  12  14
ATOM     14  C   UNL A   1      31.281  24.461  26.086  1.00  0.00     0.152 C 
BRANCH  14  15
ATOM     15  C   UNL A   1      32.077  23.508  25.229  1.00  0.00     0.014 A 
ATOM     16  C   UNL A   1      32.974  23.970  24.257  1.00  0.00     0.123 A 
ATOM     17  C   UNL A   1      33.732  23.060  23.512  1.00  0.00     0.048 A 
ATOM     18  C   UNL A   1      33.588  21.685  23.723  1.00  0.00     0.019 A 
ATOM     19  C   UNL A   1      31.970  22.123  25.456  1.00  0.00     0.025 A 
ATOM     20  C   UNL A   1      32.711  21.222  24.697  1.00  0.00     0.018 A 
ATOM     21  Br  UNL A   1      32.531  19.368  25.010  1.00  0.00    -0.051 Br
BRANCH  16  22
ATOM     22  O   UNL A   1      33.150  25.324  24.138  1.00  0.00    -0.496 OA
ATOM     23  C   UNL A   1      33.654  25.717  22.864  1.00  0.00     0.278 C 
ENDBRANCH  16  22
ENDBRANCH  14  15
ENDBRANCH  12  14
ENDBRANCH   7  12
BRANCH  11  24
ATOM     24  N   UNL A   1      29.362  29.920  22.981  1.00  0.00    -0.366 N 
ATOM     25  C   UNL A   1      29.053  31.032  23.877  1.00  0.00     0.145 C 
ATOM     26  C   UNL A   1      29.534  30.254  21.564  1.00  0.00     0.145 C 
ATOM     27  C   UNL A   1      27.948  31.923  23.268  1.00  0.00     0.181 C 
ATOM     28  C   UNL A   1      28.341  31.098  21.099  1.00  0.00     0.181 C 
ATOM     29  O   UNL A   1      28.221  32.286  21.900  1.00  0.00    -0.378 OA
ENDBRANCH  11  24
ENDBRANCH   3   6
ENDBRANCH   1   2
BRANCH   1  30
ATOM     30  C   UNL A   1      31.400  31.935  26.705  1.00  0.00     0.042 C 
BRANCH  30  31
ATOM     31  C   UNL A   1      32.669  32.752  26.863  1.00  0.00     0.118 C 
BRANCH  31  32
ATOM     32  N   UNL A   1      32.450  34.030  27.525  1.00  0.00    -0.352 N 
ATOM     33  C   UNL A   1      33.038  34.606  28.625  1.00  0.00     0.251 C 
ATOM     34  H   UNL A   1      31.752  34.585  27.108  1.00  0.00     0.163 HD
ATOM     35  O   UNL A   1      32.547  35.629  29.094  1.00  0.00    -0.269 OA
BRANCH  33  36
ATOM     36  C   UNL A   1      34.231  34.012  29.273  1.00  0.00     0.039 A 
ATOM     37  C   UNL A   1      34.042  32.984  30.205  1.00  0.00     0.014 A 
ATOM     38  C   UNL A   1      35.522  34.479  29.024  1.00  0.00     0.014 A 
ATOM     39  C   UNL A   1      35.143  32.393  30.829  1.00  0.00     0.010 A 
ATOM     40  C   UNL A   1      36.624  33.818  29.561  1.00  0.00     0.010 A 
ATOM     41  C   UNL A   1      36.448  32.779  30.483  1.00  0.00    -0.014 A 
BRANCH  41  42
ATOM     42  C   UNL A   1      37.628  32.106  31.085  1.00  0.00     0.031 A 
ATOM     43  C   UNL A   1      38.095  32.470  32.470  1.00  0.00     0.074 A 
ATOM     44  C   UNL A   1      38.314  31.202  30.360  1.00  0.00     0.049 A 
ATOM     45  N   UNL A   1      39.102  31.991  33.155  1.00  0.00    -0.248 NA
ATOM     46  C   UNL A   1      37.354  33.534  33.164  1.00  0.00     0.031 C 
ATOM     47  C   UNL A   1      38.013  30.825  28.978  1.00  0.00     0.029 A 
ATOM     48  N   UNL A   1      39.405  30.435  30.682  1.00  0.00    -0.354 N 
ATOM     49  C   UNL A   1      39.127  32.708  34.346  1.00  0.00     0.074 A 
ATOM     50  C   UNL A   1      38.072  33.693  34.266  1.00  0.00     0.031 C 
ATOM     51  C   UNL A   1      38.873  29.873  28.584  1.00  0.00     0.029 A 
ATOM     52  C   UNL A   1      39.801  29.591  29.674  1.00  0.00     0.049 A 
ATOM     53  H   UNL A   1      39.862  30.486  31.554  1.00  0.00     0.167 HD
ATOM     54  C   UNL A   1      39.936  32.540  35.419  1.00  0.00     0.037 A 
ATOM     55  C   UNL A   1      40.794  28.682  29.637  1.00  0.00     0.037 A 
ATOM     56  C   UNL A   1      40.961  31.534  35.509  1.00  0.00     0.049 A 
ATOM     57  C   UNL A   1      41.639  28.473  30.863  1.00  0.00     0.074 A 
ATOM     58  C   UNL A   1      41.787  31.232  36.578  1.00  0.00     0.029 A 
ATOM     59  N   UNL A   1      41.301  30.662  34.484  1.00  0.00    -0.354 N 
ATOM     60  N   UNL A   1      41.594  29.096  32.015  1.00  0.00    -0.248 NA
ATOM     61  C   UNL A   1      42.662  27.422  30.788  1.00  0.00     0.031 C 
ATOM     62  C   UNL A   1      42.652  30.203  36.187  1.00  0.00     0.029 A 
ATOM     63  C   UNL A   1      42.333  29.832  34.890  1.00  0.00     0.049 A 
ATOM     64  H   UNL A   1      40.871  30.637  33.599  1.00  0.00     0.167 HD
ATOM     65  C   UNL A   1      42.561  28.497  32.811  1.00  0.00     0.074 A 
ATOM     66  C   UNL A   1      43.163  27.448  32.014  1.00  0.00     0.031 C 
ATOM     67  C   UNL A   1      42.919  28.791  34.085  1.00  0.00     0.037 A 
BRANCH  54  68
ATOM     68  C   UNL A   1      39.738  33.463  36.589  1.00  0.00     0.064 A 
ATOM     69  C   UNL A   1      40.430  34.680  36.692  1.00  0.00     0.173 A 
ATOM     70  C   UNL A   1      38.828  33.139  37.607  1.00  0.00     0.173 A 
ATOM     71  F   UNL A   1      41.320  35.032  35.753  1.00  0.00    -0.203 F 
ATOM     72  C   UNL A   1      40.242  35.522  37.786  1.00  0.00     0.198 A 
ATOM     73  C   UNL A   1      38.620  33.998  38.683  1.00  0.00     0.198 A 
ATOM     74  F   UNL A   1      38.136  31.991  37.556  1.00  0.00    -0.203 F 
ATOM     75  F   UNL A   1      40.954  36.653  37.889  1.00  0.00    -0.200 F 
ATOM     76  C   UNL A   1      39.333  35.184  38.776  1.00  0.00     0.200 A 
ATOM     77  F   UNL A   1      37.731  33.677  39.634  1.00  0.00    -0.200 F 
ATOM     78  F   UNL A   1      39.150  35.998  39.826  1.00  0.00    -0.200 F 
ENDBRANCH  54  68
BRANCH  55  79
ATOM     79  C   UNL A   1      40.997  27.864  28.415  1.00  0.00     0.064 A 
ATOM     80  C   UNL A   1      41.869  28.288  27.402  1.00  0.00     0.173 A 
ATOM     81  C   UNL A   1      40.342  26.636  28.240  1.00  0.00     0.173 A 
ATOM     82  F   UNL A   1      42.505  29.463  27.516  1.00  0.00    -0.203 F 
ATOM     83  C   UNL A   1      42.064  27.525  26.253  1.00  0.00     0.198 A 
ATOM     84  C   UNL A   1      40.559  25.860  27.104  1.00  0.00     0.198 A 
ATOM     85  F   UNL A   1      39.506  26.181  29.185  1.00  0.00    -0.203 F 
ATOM     86  F   UNL A   1      42.872  27.972  25.283  1.00  0.00    -0.200 F 
ATOM     87  C   UNL A   1      41.414  26.309  26.108  1.00  0.00     0.200 A 
ATOM     88  F   UNL A   1      39.944  24.677  26.975  1.00  0.00    -0.200 F 
ATOM     89  F   UNL A   1      41.609  25.570  25.007  1.00  0.00    -0.200 F 
ENDBRANCH  55  79
BRANCH  67  90
ATOM     90  C   UNL A   1      43.991  27.942  34.703  1.00  0.00     0.064 A 
ATOM     91  C   UNL A   1      43.691  26.744  35.369  1.00  0.00     0.173 A 
ATOM     92  C   UNL A   1      45.338  28.326  34.614  1.00  0.00     0.173 A 
ATOM     93  F   UNL A   1      42.418  26.342  35.493  1.00  0.00    -0.203 F 
ATOM     94  C   UNL A   1      44.697  25.981  35.955  1.00  0.00     0.198 A 
ATOM     95  C   UNL A   1      46.344  27.544  35.174  1.00  0.00     0.198 A 
ATOM     96  F   UNL A   1      45.679  29.458  33.980  1.00  0.00    -0.203 F 
ATOM     97  F   UNL A   1      44.382  24.871  36.636  1.00  0.00    -0.200 F 
ATOM     98  C   UNL A   1      46.023  26.378  35.852  1.00  0.00     0.200 A 
ATOM     99  F   UNL A   1      47.625  27.922  35.064  1.00  0.00    -0.200 F 
ATOM    100  F   UNL A   1      46.989  25.643  36.419  1.00  0.00    -0.200 F 
ENDBRANCH  67  90
ENDBRANCH  41  42
ENDBRANCH  33  36
ENDBRANCH  31  32
ENDBRANCH  30  31
ENDBRANCH   1  30
TORSDOF 15
ENDMDL
MODEL 2
REMARK VINA RESULT:     -12.9      5.383     11.271
REMARK SMILES COc1ccc(Br)cc1CNc1ccc(N2CCOCC2)c(C(=O)NCCCNC(=O)c2ccc(-c3c4nc(c(-c5c(F)c(F)c(F)c(F)c5F)c5ccc([nH]5)c(-c5c(F)c(F)c(F)c(F)c5F)c5nc(c(-c6c(F)c(F)c(F)c(F)c6F)c6ccc3[nH]6)C=C5)C=C4)cc2)c1
REMARK SMILES IDX 26 1 25 2 23 3 24 4 22 6 12 7 13 8 95 9 14 10 15 11 11 12
REMARK SMILES IDX 10 14 9 15 3 16 4 17 5 18 8 19 6 20 7 21 2 22 1 23 16 24
REMARK SMILES IDX 17 25 21 26 18 27 20 28 19 29 27 30 28 31 29 32 30 33 31 35
REMARK SMILES IDX 32 36 33 37 94 38 34 39 93 40 35 41 36 42 37 43 87 44 38 45
REMARK SMILES IDX 92 46 86 47 88 48 39 49 91 50 85 51 84 52 40 54 72 55 52 56
REMARK SMILES IDX 71 57 53 58 56 59 70 60 89 61 54 62 55 63 69 65 90 66 57 67
REMARK SMILES IDX 41 68 42 69 50 70 43 71 44 72 48 73 51 74 45 75 46 76 49 77
REMARK SMILES IDX 47 78 73 79 74 80 82 81 75 82 76 83 80 84 83 85 77 86 78 87
REMARK SMILES IDX 81 88 79 89 58 90 59 91 67 92 60 93 61 94 65 95 68 96 62 97
REMARK SMILES IDX 63 98 66 99 64 100
REMARK H PARENT 25 5 11 13 29 34 88 53 56 64
REMARK Flexibility Score: inf
ROOT
ATOM      1  C   UNL A   1      36.990  20.752  24.674  1.00  0.00     0.118 C 
ENDROOT
BRANCH   1   2
ATOM      2  N   UNL A   1      36.035  21.031  25.742  1.00  0.00    -0.352 N 
ATOM      3  C   UNL A   1      34.656  21.117  25.825  1.00  0.00     0.253 C 
ATOM      4  O   UNL A   1      34.212  21.304  26.957  1.00  0.00    -0.269 OA
ATOM      5  H   UNL A   1      36.475  21.197  26.606  1.00  0.00     0.163 HD
BRANCH   3   6
ATOM      6  C   UNL A   1      33.758  21.033  24.627  1.00  0.00     0.065 A 
ATOM      7  C   UNL A   1      32.633  22.305  22.852  1.00  0.00     0.035 A 
ATOM      8  C   UNL A   1      31.885  21.171  22.554  1.00  0.00     0.028 A 
ATOM      9  C   UNL A   1      33.622  22.170  23.822  1.00  0.00     0.041 A 
ATOM     10  C   UNL A   1      32.149  19.956  23.194  1.00  0.00     0.029 A 
ATOM     11  C   UNL A   1      33.103  19.852  24.223  1.00  0.00     0.050 A 
BRANCH   7  12
ATOM     12  N   UNL A   1      32.421  23.471  22.152  1.00  0.00    -0.381 N 
ATOM     13  H   UNL A   1      31.653  23.493  21.538  1.00  0.00     0.160 HD
BRANCH  12  14
ATOM     14  C   UNL A   1      33.237  24.674  22.243  1.00  0.00     0.152 C 
BRANCH  14  15
ATOM     15  C   UNL A   1      32.588  25.651  23.191  1.00  0.00     0.014 A 
ATOM     16  C   UNL A   1      33.180  25.991  24.415  1.00  0.00     0.123 A 
ATOM     17  C   UNL A   1      32.575  26.937  25.249  1.00  0.00     0.048 A 
ATOM     18  C   UNL A   1      31.370  27.537  24.875  1.00  0.00     0.019 A 
ATOM     19  C   UNL A   1      31.393  26.292  22.810  1.00  0.00     0.025 A 
ATOM     20  C   UNL A   1      30.785  27.215  23.655  1.00  0.00     0.018 A 
ATOM     21  Br  UNL A   1      29.172  28.043  23.126  1.00  0.00    -0.051 Br
BRANCH  16  22
ATOM     22  O   UNL A   1      34.403  25.446  24.708  1.00  0.00    -0.496 OA
ATOM     23  C   UNL A   1      34.440  24.795  25.976  1.00  0.00     0.278 C 
ENDBRANCH  16  22
ENDBRANCH  14  15
ENDBRANCH  12  14
ENDBRANCH   7  12
BRANCH  11  24
ATOM     24  N   UNL A   1      33.454  18.591  24.655  1.00  0.00    -0.366 N 
ATOM     25  C   UNL A   1      34.676  17.901  24.250  1.00  0.00     0.145 C 
ATOM     26  C   UNL A   1      32.694  17.981  25.751  1.00  0.00     0.145 C 
ATOM     27  C   UNL A   1      34.418  16.384  24.112  1.00  0.00     0.181 C 
ATOM     28  C   UNL A   1      32.482  16.493  25.446  1.00  0.00     0.181 C 
ATOM     29  O   UNL A   1      33.745  15.831  25.260  1.00  0.00    -0.378 OA
ENDBRANCH  11  24
ENDBRANCH   3   6
ENDBRANCH   1   2
BRANCH   1  30
ATOM     30  C   UNL A   1      38.006  19.670  24.999  1.00  0.00     0.042 C 
BRANCH  30  31
ATOM     31  C   UNL A   1      39.025  20.038  26.063  1.00  0.00     0.118 C 
BRANCH  31  32
ATOM     32  N   UNL A   1      40.212  19.195  26.036  1.00  0.00    -0.352 N 
ATOM     33  C   UNL A   1      41.550  19.494  26.115  1.00  0.00     0.251 C 
ATOM     34  H   UNL A   1      40.021  18.234  25.945  1.00  0.00     0.163 HD
ATOM     35  O   UNL A   1      42.370  18.609  25.889  1.00  0.00    -0.269 OA
BRANCH  33  36
ATOM     36  C   UNL A   1      42.027  20.858  26.443  1.00  0.00     0.039 A 
ATOM     37  C   UNL A   1      42.193  21.775  25.398  1.00  0.00     0.014 A 
ATOM     38  C   UNL A   1      42.365  21.235  27.743  1.00  0.00     0.014 A 
ATOM     39  C   UNL A   1      42.632  23.074  25.669  1.00  0.00     0.010 A 
ATOM     40  C   UNL A   1      42.696  22.558  28.027  1.00  0.00     0.010 A 
ATOM     41  C   UNL A   1      42.850  23.489  26.992  1.00  0.00    -0.014 A 
BRANCH  41  42
ATOM     42  C   UNL A   1      43.245  24.888  27.298  1.00  0.00     0.031 A 
ATOM     43  C   UNL A   1      44.642  25.371  27.015  1.00  0.00     0.074 A 
ATOM     44  C   UNL A   1      42.355  25.712  27.885  1.00  0.00     0.049 A 
ATOM     45  N   UNL A   1      45.166  26.554  27.216  1.00  0.00    -0.248 NA
ATOM     46  C   UNL A   1      45.587  24.387  26.464  1.00  0.00     0.031 C 
ATOM     47  C   UNL A   1      40.998  25.340  28.286  1.00  0.00     0.029 A 
ATOM     48  N   UNL A   1      42.457  27.033  28.245  1.00  0.00    -0.354 N 
ATOM     49  C   UNL A   1      46.499  26.449  26.837  1.00  0.00     0.074 A 
ATOM     50  C   UNL A   1      46.720  25.074  26.449  1.00  0.00     0.031 C 
ATOM     51  C   UNL A   1      40.381  26.414  28.801  1.00  0.00     0.029 A 
ATOM     52  C   UNL A   1      41.305  27.543  28.792  1.00  0.00     0.049 A 
ATOM     53  H   UNL A   1      43.278  27.563  28.123  1.00  0.00     0.167 HD
ATOM     54  C   UNL A   1      47.445  27.417  26.788  1.00  0.00     0.037 A 
ATOM     55  C   UNL A   1      41.023  28.787  29.225  1.00  0.00     0.037 A 
ATOM     56  C   UNL A   1      47.211  28.793  27.141  1.00  0.00     0.049 A 
ATOM     57  C   UNL A   1      42.071  29.858  29.104  1.00  0.00     0.074 A 
ATOM     58  C   UNL A   1      48.080  29.868  27.058  1.00  0.00     0.029 A 
ATOM     59  N   UNL A   1      46.015  29.285  27.645  1.00  0.00    -0.354 N 
ATOM     60  N   UNL A   1      43.300  29.767  28.660  1.00  0.00    -0.248 NA
ATOM     61  C   UNL A   1      41.684  31.210  29.529  1.00  0.00     0.031 C 
ATOM     62  C   UNL A   1      47.421  31.002  27.548  1.00  0.00     0.029 A 
ATOM     63  C   UNL A   1      46.127  30.644  27.890  1.00  0.00     0.049 A 
ATOM     64  H   UNL A   1      45.206  28.747  27.803  1.00  0.00     0.167 HD
ATOM     65  C   UNL A   1      43.826  31.049  28.726  1.00  0.00     0.074 A 
ATOM     66  C   UNL A   1      42.774  31.904  29.236  1.00  0.00     0.031 C 
ATOM     67  C   UNL A   1      45.069  31.480  28.396  1.00  0.00     0.037 A 
BRANCH  54  68
ATOM     68  C   UNL A   1      48.820  27.023  26.329  1.00  0.00     0.064 A 
ATOM     69  C   UNL A   1      49.792  26.557  27.229  1.00  0.00     0.173 A 
ATOM     70  C   UNL A   1      49.164  27.087  24.971  1.00  0.00     0.173 A 
ATOM     71  F   UNL A   1      49.519  26.487  28.541  1.00  0.00    -0.203 F 
ATOM     72  C   UNL A   1      51.065  26.201  26.791  1.00  0.00     0.198 A 
ATOM     73  C   UNL A   1      50.429  26.701  24.531  1.00  0.00     0.198 A 
ATOM     74  F   UNL A   1      48.273  27.520  24.066  1.00  0.00    -0.203 F 
ATOM     75  F   UNL A   1      51.992  25.811  27.676  1.00  0.00    -0.200 F 
ATOM     76  C   UNL A   1      51.381  26.267  25.442  1.00  0.00     0.200 A 
ATOM     77  F   UNL A   1      50.728  26.753  23.226  1.00  0.00    -0.200 F 
ATOM     78  F   UNL A   1      52.605  25.921  25.021  1.00  0.00    -0.200 F 
ENDBRANCH  54  68
BRANCH  55  79
ATOM     79  C   UNL A   1      39.670  29.091  29.755  1.00  0.00     0.064 A 
ATOM     80  C   UNL A   1      39.382  28.946  31.120  1.00  0.00     0.173 A 
ATOM     81  C   UNL A   1      38.642  29.550  28.917  1.00  0.00     0.173 A 
ATOM     82  F   UNL A   1      40.327  28.495  31.958  1.00  0.00    -0.203 F 
ATOM     83  C   UNL A   1      38.115  29.230  31.624  1.00  0.00     0.198 A 
ATOM     84  C   UNL A   1      37.384  29.861  29.426  1.00  0.00     0.198 A 
ATOM     85  F   UNL A   1      38.870  29.716  27.606  1.00  0.00    -0.203 F 
ATOM     86  F   UNL A   1      37.857  29.045  32.925  1.00  0.00    -0.200 F 
ATOM     87  C   UNL A   1      37.119  29.693  30.778  1.00  0.00     0.200 A 
ATOM     88  F   UNL A   1      36.429  30.325  28.610  1.00  0.00    -0.200 F 
ATOM     89  F   UNL A   1      35.903  29.976  31.263  1.00  0.00    -0.200 F 
ENDBRANCH  55  79
BRANCH  67  90
ATOM     90  C   UNL A   1      45.343  32.948  28.549  1.00  0.00     0.064 A 
ATOM     91  C   UNL A   1      45.984  33.463  29.685  1.00  0.00     0.173 A 
ATOM     92  C   UNL A   1      44.973  33.847  27.537  1.00  0.00     0.173 A 
ATOM     93  F   UNL A   1      46.344  32.646  30.686  1.00  0.00    -0.203 F 
ATOM     94  C   UNL A   1      46.211  34.830  29.819  1.00  0.00     0.198 A 
ATOM     95  C   UNL A   1      45.230  35.209  27.661  1.00  0.00     0.198 A 
ATOM     96  F   UNL A   1      44.366  33.403  26.426  1.00  0.00    -0.203 F 
ATOM     97  F   UNL A   1      46.771  35.308  30.938  1.00  0.00    -0.200 F 
ATOM     98  C   UNL A   1      45.839  35.701  28.805  1.00  0.00     0.200 A 
ATOM     99  F   UNL A   1      44.882  36.047  26.675  1.00  0.00    -0.200 F 
ATOM    100  F   UNL A   1      46.057  37.017  28.937  1.00  0.00    -0.200 F 
ENDBRANCH  67  90
ENDBRANCH  41  42
ENDBRANCH  33  36
ENDBRANCH  31  32
ENDBRANCH  30  31
ENDBRANCH   1  30
TORSDOF 15
ENDMDL
MODEL 3
REMARK VINA RESULT:     -12.9      5.641     10.063
REMARK SMILES COc1ccc(Br)cc1CNc1ccc(N2CCOCC2)c(C(=O)NCCCNC(=O)c2ccc(-c3c4nc(c(-c5c(F)c(F)c(F)c(F)c5F)c5ccc([nH]5)c(-c5c(F)c(F)c(F)c(F)c5F)c5nc(c(-c6c(F)c(F)c(F)c(F)c6F)c6ccc3[nH]6)C=C5)C=C4)cc2)c1
REMARK SMILES IDX 26 1 25 2 23 3 24 4 22 6 12 7 13 8 95 9 14 10 15 11 11 12
REMARK SMILES IDX 10 14 9 15 3 16 4 17 5 18 8 19 6 20 7 21 2 22 1 23 16 24
REMARK SMILES IDX 17 25 21 26 18 27 20 28 19 29 27 30 28 31 29 32 30 33 31 35
REMARK SMILES IDX 32 36 33 37 94 38 34 39 93 40 35 41 36 42 37 43 87 44 38 45
REMARK SMILES IDX 92 46 86 47 88 48 39 49 91 50 85 51 84 52 40 54 72 55 52 56
REMARK SMILES IDX 71 57 53 58 56 59 70 60 89 61 54 62 55 63 69 65 90 66 57 67
REMARK SMILES IDX 41 68 42 69 50 70 43 71 44 72 48 73 51 74 45 75 46 76 49 77
REMARK SMILES IDX 47 78 73 79 74 80 82 81 75 82 76 83 80 84 83 85 77 86 78 87
REMARK SMILES IDX 81 88 79 89 58 90 59 91 67 92 60 93 61 94 65 95 68 96 62 97
REMARK SMILES IDX 63 98 66 99 64 100
REMARK H PARENT 25 5 11 13 29 34 88 53 56 64
REMARK Flexibility Score: inf
ROOT
ATOM      1  C   UNL A   1      37.231  21.047  24.620  1.00  0.00     0.118 C 
ENDROOT
BRANCH   1   2
ATOM      2  N   UNL A   1      36.311  21.262  25.731  1.00  0.00    -0.352 N 
ATOM      3  C   UNL A   1      34.935  21.310  25.869  1.00  0.00     0.253 C 
ATOM      4  O   UNL A   1      34.530  21.443  27.023  1.00  0.00    -0.269 OA
ATOM      5  H   UNL A   1      36.779  21.407  26.585  1.00  0.00     0.163 HD
BRANCH   3   6
ATOM      6  C   UNL A   1      33.994  21.248  24.703  1.00  0.00     0.065 A 
ATOM      7  C   UNL A   1      32.853  22.544  22.956  1.00  0.00     0.035 A 
ATOM      8  C   UNL A   1      32.058  21.434  22.693  1.00  0.00     0.028 A 
ATOM      9  C   UNL A   1      33.869  22.382  23.893  1.00  0.00     0.041 A 
ATOM     10  C   UNL A   1      32.302  20.216  23.334  1.00  0.00     0.029 A 
ATOM     11  C   UNL A   1      33.287  20.087  24.330  1.00  0.00     0.050 A 
BRANCH   7  12
ATOM     12  N   UNL A   1      32.657  23.712  22.254  1.00  0.00    -0.381 N 
ATOM     13  H   UNL A   1      33.289  23.911  21.527  1.00  0.00     0.160 HD
BRANCH  12  14
ATOM     14  C   UNL A   1      31.594  24.678  22.498  1.00  0.00     0.152 C 
BRANCH  14  15
ATOM     15  C   UNL A   1      31.792  25.312  23.852  1.00  0.00     0.014 A 
ATOM     16  C   UNL A   1      31.248  24.748  25.013  1.00  0.00     0.123 A 
ATOM     17  C   UNL A   1      31.490  25.336  26.259  1.00  0.00     0.048 A 
ATOM     18  C   UNL A   1      32.264  26.496  26.353  1.00  0.00     0.019 A 
ATOM     19  C   UNL A   1      32.600  26.460  23.965  1.00  0.00     0.025 A 
ATOM     20  C   UNL A   1      32.819  27.051  25.205  1.00  0.00     0.018 A 
ATOM     21  Br  UNL A   1      33.890  28.602  25.323  1.00  0.00    -0.051 Br
BRANCH  16  22
ATOM     22  O   UNL A   1      30.567  23.565  24.893  1.00  0.00    -0.496 OA
ATOM     23  C   UNL A   1      30.769  22.683  25.996  1.00  0.00     0.278 C 
ENDBRANCH  16  22
ENDBRANCH  14  15
ENDBRANCH  12  14
ENDBRANCH   7  12
BRANCH  11  24
ATOM     24  N   UNL A   1      33.609  18.818  24.761  1.00  0.00    -0.366 N 
ATOM     25  C   UNL A   1      34.835  18.117  24.388  1.00  0.00     0.145 C 
ATOM     26  C   UNL A   1      32.809  18.207  25.827  1.00  0.00     0.145 C 
ATOM     27  C   UNL A   1      34.563  16.605  24.227  1.00  0.00     0.181 C 
ATOM     28  C   UNL A   1      32.588  16.724  25.501  1.00  0.00     0.181 C 
ATOM     29  O   UNL A   1      33.848  16.049  25.348  1.00  0.00    -0.378 OA
ENDBRANCH  11  24
ENDBRANCH   3   6
ENDBRANCH   1   2
BRANCH   1  30
ATOM     30  C   UNL A   1      38.196  19.888  24.809  1.00  0.00     0.042 C 
BRANCH  30  31
ATOM     31  C   UNL A   1      39.071  19.970  26.046  1.00  0.00     0.118 C 
BRANCH  31  32
ATOM     32  N   UNL A   1      40.230  19.089  25.987  1.00  0.00    -0.352 N 
ATOM     33  C   UNL A   1      41.578  19.345  26.034  1.00  0.00     0.251 C 
ATOM     34  H   UNL A   1      40.005  18.135  25.899  1.00  0.00     0.163 HD
ATOM     35  O   UNL A   1      42.364  18.435  25.785  1.00  0.00    -0.269 OA
BRANCH  33  36
ATOM     36  C   UNL A   1      42.107  20.693  26.353  1.00  0.00     0.039 A 
ATOM     37  C   UNL A   1      42.339  21.584  25.298  1.00  0.00     0.014 A 
ATOM     38  C   UNL A   1      42.430  21.076  27.655  1.00  0.00     0.014 A 
ATOM     39  C   UNL A   1      42.828  22.866  25.560  1.00  0.00     0.010 A 
ATOM     40  C   UNL A   1      42.811  22.387  27.927  1.00  0.00     0.010 A 
ATOM     41  C   UNL A   1      43.032  23.294  26.882  1.00  0.00    -0.014 A 
BRANCH  41  42
ATOM     42  C   UNL A   1      43.481  24.679  27.176  1.00  0.00     0.031 A 
ATOM     43  C   UNL A   1      42.514  25.702  27.709  1.00  0.00     0.074 A 
ATOM     44  C   UNL A   1      44.754  25.031  26.911  1.00  0.00     0.049 A 
ATOM     45  N   UNL A   1      42.725  26.956  28.022  1.00  0.00    -0.248 NA
ATOM     46  C   UNL A   1      41.118  25.271  27.882  1.00  0.00     0.031 C 
ATOM     47  C   UNL A   1      45.765  24.156  26.315  1.00  0.00     0.029 A 
ATOM     48  N   UNL A   1      45.416  26.216  27.107  1.00  0.00    -0.354 N 
ATOM     49  C   UNL A   1      41.490  27.464  28.407  1.00  0.00     0.074 A 
ATOM     50  C   UNL A   1      40.524  26.403  28.234  1.00  0.00     0.031 C 
ATOM     51  C   UNL A   1      46.927  24.820  26.230  1.00  0.00     0.029 A 
ATOM     52  C   UNL A   1      46.739  26.174  26.739  1.00  0.00     0.049 A 
ATOM     53  H   UNL A   1      44.984  27.020  27.477  1.00  0.00     0.167 HD
ATOM     54  C   UNL A   1      41.194  28.695  28.890  1.00  0.00     0.037 A 
ATOM     55  C   UNL A   1      47.695  27.119  26.815  1.00  0.00     0.037 A 
ATOM     56  C   UNL A   1      42.165  29.737  29.096  1.00  0.00     0.049 A 
ATOM     57  C   UNL A   1      47.355  28.457  27.410  1.00  0.00     0.074 A 
ATOM     58  C   UNL A   1      41.982  30.994  29.647  1.00  0.00     0.029 A 
ATOM     59  N   UNL A   1      43.507  29.641  28.756  1.00  0.00    -0.354 N 
ATOM     60  N   UNL A   1      46.202  28.896  27.855  1.00  0.00    -0.248 NA
ATOM     61  C   UNL A   1      48.453  29.424  27.531  1.00  0.00     0.031 C 
ATOM     62  C   UNL A   1      43.207  31.672  29.605  1.00  0.00     0.029 A 
ATOM     63  C   UNL A   1      44.162  30.820  29.074  1.00  0.00     0.049 A 
ATOM     64  H   UNL A   1      43.932  28.851  28.351  1.00  0.00     0.167 HD
ATOM     65  C   UNL A   1      46.441  30.178  28.331  1.00  0.00     0.074 A 
ATOM     66  C   UNL A   1      47.852  30.437  28.138  1.00  0.00     0.031 C 
ATOM     67  C   UNL A   1      45.568  31.061  28.877  1.00  0.00     0.037 A 
BRANCH  54  68
ATOM     68  C   UNL A   1      39.759  28.978  29.236  1.00  0.00     0.064 A 
ATOM     69  C   UNL A   1      39.276  28.837  30.547  1.00  0.00     0.173 A 
ATOM     70  C   UNL A   1      38.862  29.420  28.252  1.00  0.00     0.173 A 
ATOM     71  F   UNL A   1      40.089  28.406  31.523  1.00  0.00    -0.203 F 
ATOM     72  C   UNL A   1      37.942  29.097  30.853  1.00  0.00     0.198 A 
ATOM     73  C   UNL A   1      37.536  29.708  28.568  1.00  0.00     0.198 A 
ATOM     74  F   UNL A   1      39.270  29.577  26.985  1.00  0.00    -0.203 F 
ATOM     75  F   UNL A   1      37.492  28.902  32.100  1.00  0.00    -0.200 F 
ATOM     76  C   UNL A   1      37.075  29.538  29.865  1.00  0.00     0.200 A 
ATOM     77  F   UNL A   1      36.702  30.148  27.615  1.00  0.00    -0.200 F 
ATOM     78  F   UNL A   1      35.792  29.792  30.161  1.00  0.00    -0.200 F 
ENDBRANCH  54  68
BRANCH  55  79
ATOM     79  C   UNL A   1      49.076  26.805  26.369  1.00  0.00     0.064 A 
ATOM     80  C   UNL A   1      49.477  27.043  25.047  1.00  0.00     0.173 A 
ATOM     81  C   UNL A   1      50.029  26.280  27.255  1.00  0.00     0.173 A 
ATOM     82  F   UNL A   1      48.596  27.529  24.159  1.00  0.00    -0.203 F 
ATOM     83  C   UNL A   1      50.771  26.751  24.622  1.00  0.00     0.198 A 
ATOM     84  C   UNL A   1      51.331  26.015  26.836  1.00  0.00     0.198 A 
ATOM     85  F   UNL A   1      49.699  26.045  28.533  1.00  0.00    -0.203 F 
ATOM     86  F   UNL A   1      51.115  26.951  23.343  1.00  0.00    -0.200 F 
ATOM     87  C   UNL A   1      51.698  26.243  25.518  1.00  0.00     0.200 A 
ATOM     88  F   UNL A   1      52.229  25.541  27.709  1.00  0.00    -0.200 F 
ATOM     89  F   UNL A   1      52.946  25.972  25.113  1.00  0.00    -0.200 F 
ENDBRANCH  55  79
BRANCH  67  90
ATOM     90  C   UNL A   1      46.128  32.377  29.332  1.00  0.00     0.064 A 
ATOM     91  C   UNL A   1      46.623  32.557  30.632  1.00  0.00     0.173 A 
ATOM     92  C   UNL A   1      46.184  33.467  28.449  1.00  0.00     0.173 A 
ATOM     93  F   UNL A   1      46.579  31.551  31.516  1.00  0.00    -0.203 F 
ATOM     94  C   UNL A   1      47.118  33.792  31.043  1.00  0.00     0.198 A 
ATOM     95  C   UNL A   1      46.708  34.690  28.855  1.00  0.00     0.198 A 
ATOM     96  F   UNL A   1      45.731  33.343  27.193  1.00  0.00    -0.203 F 
ATOM     97  F   UNL A   1      47.531  33.958  32.307  1.00  0.00    -0.200 F 
ATOM     98  C   UNL A   1      47.166  34.855  30.153  1.00  0.00     0.200 A 
ATOM     99  F   UNL A   1      46.765  35.713  27.991  1.00  0.00    -0.200 F 
ATOM    100  F   UNL A   1      47.642  36.043  30.552  1.00  0.00    -0.200 F 
ENDBRANCH  67  90
ENDBRANCH  41  42
ENDBRANCH  33  36
ENDBRANCH  31  32
ENDBRANCH  30  31
ENDBRANCH   1  30
TORSDOF 15
ENDMDL
