MODEL 1
REMARK VINA RESULT:     -13.0      0.000      0.000
REMARK SMILES COC(=O)c1nc(C)cc(N[C@@H]2C=C[C@H](C(=O)NCCCNC(=O)c3ccc(-c4c5nc(c(-c6c(F)c(F)c(F)c(F)c6F)c6ccc([nH]6)c(-c6c(F)c(F)c(F)c(F)c6F)c6nc(c(-c7c(F)c(F)c(F)c(F)c7F)c7ccc4[nH]7)C=C6)C=C5)cc3)C2)n1
REMARK SMILES IDX 19 1 18 2 16 3 17 4 15 6 12 7 13 8 88 9 14 10 11 11 10 13
REMARK SMILES IDX 5 14 6 15 89 16 7 17 8 18 9 19 3 20 4 21 2 22 1 23 20 24
REMARK SMILES IDX 21 25 22 26 23 27 24 29 25 30 26 31 87 32 27 33 86 34 28 35
REMARK SMILES IDX 29 36 30 37 80 38 31 39 85 40 79 41 81 42 32 43 84 44 78 45
REMARK SMILES IDX 77 46 33 48 65 49 45 50 64 51 46 52 49 53 63 54 82 55 47 56
REMARK SMILES IDX 48 57 62 59 83 60 50 61 34 62 35 63 43 64 36 65 37 66 41 67
REMARK SMILES IDX 44 68 38 69 39 70 42 71 40 72 66 73 67 74 75 75 68 76 69 77
REMARK SMILES IDX 73 78 76 79 70 80 71 81 74 82 72 83 51 84 52 85 60 86 53 87
REMARK SMILES IDX 54 88 58 89 61 90 55 91 56 92 59 93 57 94
REMARK H PARENT 18 5 11 12 22 28 81 47 49 58
REMARK Flexibility Score: inf
ROOT
ATOM      1  C   UNL A   1      31.586  26.388  25.852  1.00  0.00     0.117 C 
ENDROOT
BRANCH   1   2
ATOM      2  N   UNL A   1      31.155  25.223  26.597  1.00  0.00    -0.356 N 
ATOM      3  C   UNL A   1      31.756  24.028  26.840  1.00  0.00     0.227 C 
ATOM      4  O   UNL A   1      31.029  23.138  27.289  1.00  0.00    -0.274 OA
ATOM      5  H   UNL A   1      30.263  25.314  27.004  1.00  0.00     0.163 HD
BRANCH   3   6
ATOM      6  C   UNL A   1      33.233  23.825  26.506  1.00  0.00     0.103 C 
ATOM      7  C   UNL A   1      33.856  21.505  25.964  1.00  0.00     0.104 C 
ATOM      8  C   UNL A   1      34.310  21.886  27.327  1.00  0.00    -0.006 C 
ATOM      9  C   UNL A   1      33.415  22.834  25.340  1.00  0.00     0.046 C 
ATOM     10  C   UNL A   1      33.988  23.152  27.622  1.00  0.00    -0.016 C 
BRANCH   7  11
ATOM     11  N   UNL A   1      32.832  20.481  25.935  1.00  0.00    -0.364 N 
ATOM     12  H   UNL A   1      32.078  20.622  26.553  1.00  0.00     0.162 HD
BRANCH  11  13
ATOM     13  C   UNL A   1      32.759  19.333  25.166  1.00  0.00     0.131 A 
ATOM     14  C   UNL A   1      32.789  17.063  24.859  1.00  0.00     0.241 A 
ATOM     15  N   UNL A   1      32.596  17.129  23.526  1.00  0.00    -0.227 NA
ATOM     16  N   UNL A   1      32.890  18.113  25.705  1.00  0.00    -0.205 NA
ATOM     17  C   UNL A   1      32.456  18.357  23.015  1.00  0.00     0.044 A 
ATOM     18  C   UNL A   1      32.171  18.440  21.548  1.00  0.00     0.067 C 
ATOM     19  C   UNL A   1      32.526  19.489  23.805  1.00  0.00     0.070 A 
BRANCH  14  20
ATOM     20  C   UNL A   1      32.935  15.676  25.404  1.00  0.00     0.376 C 
ATOM     21  O   UNL A   1      32.162  15.165  26.209  1.00  0.00    -0.242 OA
BRANCH  20  22
ATOM     22  O   UNL A   1      34.088  15.099  24.966  1.00  0.00    -0.463 OA
ATOM     23  C   UNL A   1      35.255  15.824  25.347  1.00  0.00     0.282 C 
ENDBRANCH  20  22
ENDBRANCH  14  20
ENDBRANCH  11  13
ENDBRANCH   7  11
ENDBRANCH   3   6
ENDBRANCH   1   2
BRANCH   1  24
ATOM     24  C   UNL A   1      31.634  27.622  26.753  1.00  0.00     0.042 C 
BRANCH  24  25
ATOM     25  C   UNL A   1      32.722  28.644  26.417  1.00  0.00     0.118 C 
BRANCH  25  26
ATOM     26  N   UNL A   1      32.335  30.031  26.628  1.00  0.00    -0.352 N 
ATOM     27  C   UNL A   1      33.100  31.061  27.130  1.00  0.00     0.251 C 
ATOM     28  H   UNL A   1      31.411  30.262  26.381  1.00  0.00     0.163 HD
ATOM     29  O   UNL A   1      32.632  32.187  27.252  1.00  0.00    -0.269 OA
BRANCH  27  30
ATOM     30  C   UNL A   1      34.473  30.774  27.597  1.00  0.00     0.039 A 
ATOM     31  C   UNL A   1      35.352  31.848  27.765  1.00  0.00     0.014 A 
ATOM     32  C   UNL A   1      34.858  29.482  27.960  1.00  0.00     0.014 A 
ATOM     33  C   UNL A   1      36.584  31.644  28.391  1.00  0.00     0.010 A 
ATOM     34  C   UNL A   1      36.058  29.291  28.641  1.00  0.00     0.010 A 
ATOM     35  C   UNL A   1      36.923  30.374  28.883  1.00  0.00    -0.014 A 
BRANCH  35  36
ATOM     36  C   UNL A   1      38.165  30.150  29.668  1.00  0.00     0.031 A 
ATOM     37  C   UNL A   1      39.212  29.206  29.150  1.00  0.00     0.074 A 
ATOM     38  C   UNL A   1      38.308  30.721  30.882  1.00  0.00     0.049 A 
ATOM     39  N   UNL A   1      40.282  28.748  29.747  1.00  0.00    -0.248 NA
ATOM     40  C   UNL A   1      39.015  28.687  27.788  1.00  0.00     0.031 C 
ATOM     41  C   UNL A   1      37.352  31.640  31.504  1.00  0.00     0.029 A 
ATOM     42  N   UNL A   1      39.299  30.589  31.826  1.00  0.00    -0.354 N 
ATOM     43  C   UNL A   1      40.869  27.869  28.845  1.00  0.00     0.074 A 
ATOM     44  C   UNL A   1      40.022  27.833  27.674  1.00  0.00     0.031 C 
ATOM     45  C   UNL A   1      37.801  31.986  32.721  1.00  0.00     0.029 A 
ATOM     46  C   UNL A   1      39.046  31.276  32.992  1.00  0.00     0.049 A 
ATOM     47  H   UNL A   1      40.112  30.055  31.682  1.00  0.00     0.167 HD
ATOM     48  C   UNL A   1      42.017  27.167  28.982  1.00  0.00     0.037 A 
ATOM     49  C   UNL A   1      39.725  31.301  34.157  1.00  0.00     0.037 A 
ATOM     50  C   UNL A   1      42.872  27.234  30.137  1.00  0.00     0.049 A 
ATOM     51  C   UNL A   1      40.990  30.489  34.286  1.00  0.00     0.074 A 
ATOM     52  C   UNL A   1      44.089  26.607  30.343  1.00  0.00     0.029 A 
ATOM     53  N   UNL A   1      42.599  27.967  31.282  1.00  0.00    -0.354 N 
ATOM     54  N   UNL A   1      41.565  29.710  33.404  1.00  0.00    -0.248 NA
ATOM     55  C   UNL A   1      41.701  30.562  35.571  1.00  0.00     0.031 C 
ATOM     56  C   UNL A   1      44.522  26.911  31.637  1.00  0.00     0.029 A 
ATOM     57  C   UNL A   1      43.612  27.786  32.207  1.00  0.00     0.049 A 
ATOM     58  H   UNL A   1      41.803  28.531  31.416  1.00  0.00     0.167 HD
ATOM     59  C   UNL A   1      42.725  29.240  34.008  1.00  0.00     0.074 A 
ATOM     60  C   UNL A   1      42.773  29.818  35.332  1.00  0.00     0.031 C 
ATOM     61  C   UNL A   1      43.666  28.405  33.506  1.00  0.00     0.037 A 
BRANCH  48  62
ATOM     62  C   UNL A   1      42.425  26.252  27.865  1.00  0.00     0.064 A 
ATOM     63  C   UNL A   1      41.845  24.987  27.697  1.00  0.00     0.173 A 
ATOM     64  C   UNL A   1      43.351  26.683  26.903  1.00  0.00     0.173 A 
ATOM     65  F   UNL A   1      40.961  24.524  28.594  1.00  0.00    -0.203 F 
ATOM     66  C   UNL A   1      42.186  24.181  26.615  1.00  0.00     0.198 A 
ATOM     67  C   UNL A   1      43.667  25.889  25.804  1.00  0.00     0.198 A 
ATOM     68  F   UNL A   1      43.930  27.889  27.013  1.00  0.00    -0.203 F 
ATOM     69  F   UNL A   1      41.643  22.962  26.491  1.00  0.00    -0.200 F 
ATOM     70  C   UNL A   1      43.088  24.637  25.663  1.00  0.00     0.200 A 
ATOM     71  F   UNL A   1      44.523  26.338  24.877  1.00  0.00    -0.200 F 
ATOM     72  F   UNL A   1      43.397  23.870  24.609  1.00  0.00    -0.200 F 
ENDBRANCH  48  62
BRANCH  49  73
ATOM     73  C   UNL A   1      39.223  32.104  35.307  1.00  0.00     0.064 A 
ATOM     74  C   UNL A   1      39.558  33.459  35.447  1.00  0.00     0.173 A 
ATOM     75  C   UNL A   1      38.440  31.524  36.316  1.00  0.00     0.173 A 
ATOM     76  F   UNL A   1      40.322  34.058  34.522  1.00  0.00    -0.203 F 
ATOM     77  C   UNL A   1      39.164  34.189  36.567  1.00  0.00     0.198 A 
ATOM     78  C   UNL A   1      38.015  32.263  37.418  1.00  0.00     0.198 A 
ATOM     79  F   UNL A   1      38.084  30.232  36.233  1.00  0.00    -0.203 F 
ATOM     80  F   UNL A   1      39.558  35.462  36.707  1.00  0.00    -0.200 F 
ATOM     81  C   UNL A   1      38.390  33.591  37.550  1.00  0.00     0.200 A 
ATOM     82  F   UNL A   1      37.253  31.686  38.356  1.00  0.00    -0.200 F 
ATOM     83  F   UNL A   1      38.017  34.291  38.630  1.00  0.00    -0.200 F 
ENDBRANCH  49  73
BRANCH  61  84
ATOM     84  C   UNL A   1      44.877  28.123  34.347  1.00  0.00     0.064 A 
ATOM     85  C   UNL A   1      45.995  28.967  34.348  1.00  0.00     0.173 A 
ATOM     86  C   UNL A   1      44.870  27.038  35.239  1.00  0.00     0.173 A 
ATOM     87  F   UNL A   1      46.056  30.008  33.505  1.00  0.00    -0.203 F 
ATOM     88  C   UNL A   1      47.065  28.733  35.209  1.00  0.00     0.198 A 
ATOM     89  C   UNL A   1      45.925  26.825  36.118  1.00  0.00     0.198 A 
ATOM     90  F   UNL A   1      43.818  26.204  35.281  1.00  0.00    -0.203 F 
ATOM     91  F   UNL A   1      48.137  29.536  35.176  1.00  0.00    -0.200 F 
ATOM     92  C   UNL A   1      47.023  27.671  36.101  1.00  0.00     0.200 A 
ATOM     93  F   UNL A   1      45.874  25.811  36.993  1.00  0.00    -0.200 F 
ATOM     94  F   UNL A   1      48.042  27.465  36.947  1.00  0.00    -0.200 F 
ENDBRANCH  61  84
ENDBRANCH  35  36
ENDBRANCH  27  30
ENDBRANCH  25  26
ENDBRANCH  24  25
ENDBRANCH   1  24
TORSDOF 14
ENDMDL
MODEL 2
REMARK VINA RESULT:     -12.9      1.400      2.769
REMARK SMILES COC(=O)c1nc(C)cc(N[C@@H]2C=C[C@H](C(=O)NCCCNC(=O)c3ccc(-c4c5nc(c(-c6c(F)c(F)c(F)c(F)c6F)c6ccc([nH]6)c(-c6c(F)c(F)c(F)c(F)c6F)c6nc(c(-c7c(F)c(F)c(F)c(F)c7F)c7ccc4[nH]7)C=C6)C=C5)cc3)C2)n1
REMARK SMILES IDX 19 1 18 2 16 3 17 4 15 6 12 7 13 8 88 9 14 10 11 11 10 13
REMARK SMILES IDX 5 14 6 15 89 16 7 17 8 18 9 19 3 20 4 21 2 22 1 23 20 24
REMARK SMILES IDX 21 25 22 26 23 27 24 29 25 30 26 31 87 32 27 33 86 34 28 35
REMARK SMILES IDX 29 36 30 37 80 38 31 39 85 40 79 41 81 42 32 43 84 44 78 45
REMARK SMILES IDX 77 46 33 48 65 49 45 50 64 51 46 52 49 53 63 54 82 55 47 56
REMARK SMILES IDX 48 57 62 59 83 60 50 61 34 62 35 63 43 64 36 65 37 66 41 67
REMARK SMILES IDX 44 68 38 69 39 70 42 71 40 72 66 73 67 74 75 75 68 76 69 77
REMARK SMILES IDX 73 78 76 79 70 80 71 81 74 82 72 83 51 84 52 85 60 86 53 87
REMARK SMILES IDX 54 88 58 89 61 90 55 91 56 92 59 93 57 94
REMARK H PARENT 18 5 11 12 22 28 81 47 49 58
REMARK Flexibility Score: inf
ROOT
ATOM      1  C   UNL A   1      32.352  28.005  27.426  1.00  0.00     0.117 C 
ENDROOT
BRANCH   1   2
ATOM      2  N   UNL A   1      33.060  27.457  26.287  1.00  0.00    -0.356 N 
ATOM      3  C   UNL A   1      32.779  26.418  25.458  1.00  0.00     0.227 C 
ATOM      4  O   UNL A   1      33.705  26.031  24.742  1.00  0.00    -0.274 OA
ATOM      5  H   UNL A   1      33.901  27.925  26.075  1.00  0.00     0.163 HD
BRANCH   3   6
ATOM      6  C   UNL A   1      31.400  25.759  25.488  1.00  0.00     0.103 C 
ATOM      7  C   UNL A   1      31.256  23.621  24.274  1.00  0.00     0.104 C 
ATOM      8  C   UNL A   1      30.613  24.723  23.513  1.00  0.00    -0.006 C 
ATOM      9  C   UNL A   1      31.511  24.231  25.657  1.00  0.00     0.046 C 
ATOM     10  C   UNL A   1      30.674  25.886  24.174  1.00  0.00    -0.016 C 
BRANCH   7  11
ATOM     11  N   UNL A   1      32.444  23.073  23.652  1.00  0.00    -0.364 N 
ATOM     12  H   UNL A   1      32.713  23.504  22.807  1.00  0.00     0.162 HD
BRANCH  11  13
ATOM     13  C   UNL A   1      33.256  22.035  24.070  1.00  0.00     0.131 A 
ATOM     14  C   UNL A   1      33.678  19.848  24.609  1.00  0.00     0.241 A 
ATOM     15  N   UNL A   1      34.974  20.057  24.916  1.00  0.00    -0.227 NA
ATOM     16  N   UNL A   1      32.791  20.784  24.204  1.00  0.00    -0.205 NA
ATOM     17  C   UNL A   1      35.417  21.310  24.762  1.00  0.00     0.044 A 
ATOM     18  C   UNL A   1      36.871  21.540  25.031  1.00  0.00     0.067 C 
ATOM     19  C   UNL A   1      34.588  22.330  24.335  1.00  0.00     0.070 A 
BRANCH  14  20
ATOM     20  C   UNL A   1      33.211  18.436  24.782  1.00  0.00     0.376 C 
ATOM     21  O   UNL A   1      32.114  18.120  25.232  1.00  0.00    -0.242 OA
BRANCH  20  22
ATOM     22  O   UNL A   1      34.200  17.554  24.469  1.00  0.00    -0.463 OA
ATOM     23  C   UNL A   1      33.966  16.863  23.244  1.00  0.00     0.282 C 
ENDBRANCH  20  22
ENDBRANCH  14  20
ENDBRANCH  11  13
ENDBRANCH   7  11
ENDBRANCH   3   6
ENDBRANCH   1   2
BRANCH   1  24
ATOM     24  C   UNL A   1      31.754  29.372  27.088  1.00  0.00     0.042 C 
BRANCH  24  25
ATOM     25  C   UNL A   1      32.718  30.374  26.449  1.00  0.00     0.118 C 
BRANCH  25  26
ATOM     26  N   UNL A   1      32.528  31.751  26.877  1.00  0.00    -0.352 N 
ATOM     27  C   UNL A   1      33.414  32.562  27.553  1.00  0.00     0.251 C 
ATOM     28  H   UNL A   1      31.658  32.155  26.655  1.00  0.00     0.163 HD
ATOM     29  O   UNL A   1      33.110  33.712  27.850  1.00  0.00    -0.269 OA
BRANCH  27  30
ATOM     30  C   UNL A   1      34.710  32.003  27.991  1.00  0.00     0.039 A 
ATOM     31  C   UNL A   1      35.830  32.839  27.978  1.00  0.00     0.014 A 
ATOM     32  C   UNL A   1      34.801  30.706  28.502  1.00  0.00     0.014 A 
ATOM     33  C   UNL A   1      37.020  32.411  28.568  1.00  0.00     0.010 A 
ATOM     34  C   UNL A   1      35.969  30.306  29.147  1.00  0.00     0.010 A 
ATOM     35  C   UNL A   1      37.084  31.162  29.206  1.00  0.00    -0.014 A 
BRANCH  35  36
ATOM     36  C   UNL A   1      38.292  30.732  29.956  1.00  0.00     0.031 A 
ATOM     37  C   UNL A   1      39.218  29.715  29.354  1.00  0.00     0.074 A 
ATOM     38  C   UNL A   1      38.504  31.183  31.210  1.00  0.00     0.049 A 
ATOM     39  N   UNL A   1      40.228  29.088  29.900  1.00  0.00    -0.248 NA
ATOM     40  C   UNL A   1      38.958  29.333  27.957  1.00  0.00     0.031 C 
ATOM     41  C   UNL A   1      37.665  32.157  31.913  1.00  0.00     0.029 A 
ATOM     42  N   UNL A   1      39.474  30.861  32.129  1.00  0.00    -0.354 N 
ATOM     43  C   UNL A   1      40.705  28.220  28.925  1.00  0.00     0.074 A 
ATOM     44  C   UNL A   1      39.856  28.377  27.765  1.00  0.00     0.031 C 
ATOM     45  C   UNL A   1      38.154  32.349  33.149  1.00  0.00     0.029 A 
ATOM     46  C   UNL A   1      39.308  31.478  33.348  1.00  0.00     0.049 A 
ATOM     47  H   UNL A   1      40.219  30.248  31.934  1.00  0.00     0.167 HD
ATOM     48  C   UNL A   1      41.762  27.379  28.993  1.00  0.00     0.037 A 
ATOM     49  C   UNL A   1      39.987  31.330  34.503  1.00  0.00     0.037 A 
ATOM     50  C   UNL A   1      42.621  27.252  30.140  1.00  0.00     0.049 A 
ATOM     51  C   UNL A   1      41.147  30.367  34.554  1.00  0.00     0.074 A 
ATOM     52  C   UNL A   1      43.755  26.472  30.282  1.00  0.00     0.029 A 
ATOM     53  N   UNL A   1      42.439  27.919  31.342  1.00  0.00    -0.354 N 
ATOM     54  N   UNL A   1      41.624  29.597  33.607  1.00  0.00    -0.248 NA
ATOM     55  C   UNL A   1      41.865  30.252  35.832  1.00  0.00     0.031 C 
ATOM     56  C   UNL A   1      44.224  26.619  31.590  1.00  0.00     0.029 A 
ATOM     57  C   UNL A   1      43.425  27.547  32.238  1.00  0.00     0.049 A 
ATOM     58  H   UNL A   1      41.715  28.561  31.529  1.00  0.00     0.167 HD
ATOM     59  C   UNL A   1      42.721  28.947  34.158  1.00  0.00     0.074 A 
ATOM     60  C   UNL A   1      42.840  29.409  35.523  1.00  0.00     0.031 C 
ATOM     61  C   UNL A   1      43.556  28.050  33.581  1.00  0.00     0.037 A 
BRANCH  48  62
ATOM     62  C   UNL A   1      42.056  26.514  27.803  1.00  0.00     0.064 A 
ATOM     63  C   UNL A   1      43.039  26.859  26.865  1.00  0.00     0.173 A 
ATOM     64  C   UNL A   1      41.402  25.283  27.646  1.00  0.00     0.173 A 
ATOM     65  F   UNL A   1      43.687  28.030  26.964  1.00  0.00    -0.203 F 
ATOM     66  C   UNL A   1      43.347  26.010  25.805  1.00  0.00     0.198 A 
ATOM     67  C   UNL A   1      41.733  24.422  26.605  1.00  0.00     0.198 A 
ATOM     68  F   UNL A   1      40.458  24.902  28.521  1.00  0.00    -0.203 F 
ATOM     69  F   UNL A   1      44.266  26.375  24.902  1.00  0.00    -0.200 F 
ATOM     70  C   UNL A   1      42.702  24.787  25.682  1.00  0.00     0.200 A 
ATOM     71  F   UNL A   1      41.123  23.233  26.498  1.00  0.00    -0.200 F 
ATOM     72  F   UNL A   1      43.016  23.961  24.675  1.00  0.00    -0.200 F 
ENDBRANCH  48  62
BRANCH  49  73
ATOM     73  C   UNL A   1      39.586  32.092  35.719  1.00  0.00     0.064 A 
ATOM     74  C   UNL A   1      38.580  31.620  36.574  1.00  0.00     0.173 A 
ATOM     75  C   UNL A   1      40.167  33.333  36.026  1.00  0.00     0.173 A 
ATOM     76  F   UNL A   1      37.977  30.450  36.316  1.00  0.00    -0.203 F 
ATOM     77  C   UNL A   1      38.143  32.374  37.662  1.00  0.00     0.198 A 
ATOM     78  C   UNL A   1      39.754  34.070  37.134  1.00  0.00     0.198 A 
ATOM     79  F   UNL A   1      41.138  33.833  35.246  1.00  0.00    -0.203 F 
ATOM     80  F   UNL A   1      37.131  31.929  38.419  1.00  0.00    -0.200 F 
ATOM     81  C   UNL A   1      38.733  33.597  37.943  1.00  0.00     0.200 A 
ATOM     82  F   UNL A   1      40.340  35.243  37.412  1.00  0.00    -0.200 F 
ATOM     83  F   UNL A   1      38.307  34.325  38.984  1.00  0.00    -0.200 F 
ENDBRANCH  49  73
BRANCH  61  84
ATOM     84  C   UNL A   1      44.726  27.561  34.383  1.00  0.00     0.064 A 
ATOM     85  C   UNL A   1      44.668  26.385  35.143  1.00  0.00     0.173 A 
ATOM     86  C   UNL A   1      45.957  28.234  34.304  1.00  0.00     0.173 A 
ATOM     87  F   UNL A   1      43.513  25.714  35.262  1.00  0.00    -0.203 F 
ATOM     88  C   UNL A   1      45.798  25.903  35.800  1.00  0.00     0.198 A 
ATOM     89  C   UNL A   1      47.090  27.733  34.935  1.00  0.00     0.198 A 
ATOM     90  F   UNL A   1      46.066  29.360  33.582  1.00  0.00    -0.203 F 
ATOM     91  F   UNL A   1      45.714  24.792  36.545  1.00  0.00    -0.200 F 
ATOM     92  C   UNL A   1      47.009  26.570  35.685  1.00  0.00     0.200 A 
ATOM     93  F   UNL A   1      48.264  28.368  34.806  1.00  0.00    -0.200 F 
ATOM     94  F   UNL A   1      48.101  26.089  36.296  1.00  0.00    -0.200 F 
ENDBRANCH  61  84
ENDBRANCH  35  36
ENDBRANCH  27  30
ENDBRANCH  25  26
ENDBRANCH  24  25
ENDBRANCH   1  24
TORSDOF 14
ENDMDL
MODEL 3
REMARK VINA RESULT:     -12.9      2.190      3.510
REMARK SMILES COC(=O)c1nc(C)cc(N[C@@H]2C=C[C@H](C(=O)NCCCNC(=O)c3ccc(-c4c5nc(c(-c6c(F)c(F)c(F)c(F)c6F)c6ccc([nH]6)c(-c6c(F)c(F)c(F)c(F)c6F)c6nc(c(-c7c(F)c(F)c(F)c(F)c7F)c7ccc4[nH]7)C=C6)C=C5)cc3)C2)n1
REMARK SMILES IDX 19 1 18 2 16 3 17 4 15 6 12 7 13 8 88 9 14 10 11 11 10 13
REMARK SMILES IDX 5 14 6 15 89 16 7 17 8 18 9 19 3 20 4 21 2 22 1 23 20 24
REMARK SMILES IDX 21 25 22 26 23 27 24 29 25 30 26 31 87 32 27 33 86 34 28 35
REMARK SMILES IDX 29 36 30 37 80 38 31 39 85 40 79 41 81 42 32 43 84 44 78 45
REMARK SMILES IDX 77 46 33 48 65 49 45 50 64 51 46 52 49 53 63 54 82 55 47 56
REMARK SMILES IDX 48 57 62 59 83 60 50 61 34 62 35 63 43 64 36 65 37 66 41 67
REMARK SMILES IDX 44 68 38 69 39 70 42 71 40 72 66 73 67 74 75 75 68 76 69 77
REMARK SMILES IDX 73 78 76 79 70 80 71 81 74 82 72 83 51 84 52 85 60 86 53 87
REMARK SMILES IDX 54 88 58 89 61 90 55 91 56 92 59 93 57 94
REMARK H PARENT 18 5 11 12 22 28 81 47 49 58
REMARK Flexibility Score: inf
ROOT
ATOM      1  C   UNL A   1      32.613  29.853  27.221  1.00  0.00     0.117 C 
ENDROOT
BRANCH   1   2
ATOM      2  N   UNL A   1      31.724  28.908  26.577  1.00  0.00    -0.356 N 
ATOM      3  C   UNL A   1      31.900  28.070  25.521  1.00  0.00     0.227 C 
ATOM      4  O   UNL A   1      30.876  27.579  25.042  1.00  0.00    -0.274 OA
ATOM      5  H   UNL A   1      30.825  28.864  26.978  1.00  0.00     0.163 HD
BRANCH   3   6
ATOM      6  C   UNL A   1      33.299  27.827  24.956  1.00  0.00     0.103 C 
ATOM      7  C   UNL A   1      33.576  25.677  23.785  1.00  0.00     0.104 C 
ATOM      8  C   UNL A   1      34.212  25.652  25.128  1.00  0.00    -0.006 C 
ATOM      9  C   UNL A   1      33.237  27.157  23.570  1.00  0.00     0.046 C 
ATOM     10  C   UNL A   1      34.079  26.823  25.764  1.00  0.00    -0.016 C 
BRANCH   7  11
ATOM     11  N   UNL A   1      32.438  24.793  23.642  1.00  0.00    -0.364 N 
ATOM     12  H   UNL A   1      31.807  25.032  22.924  1.00  0.00     0.162 HD
BRANCH  11  13
ATOM     13  C   UNL A   1      32.108  23.662  24.366  1.00  0.00     0.131 A 
ATOM     14  C   UNL A   1      32.373  21.472  24.987  1.00  0.00     0.241 A 
ATOM     15  N   UNL A   1      31.350  21.482  25.866  1.00  0.00    -0.227 NA
ATOM     16  N   UNL A   1      32.775  22.508  24.218  1.00  0.00    -0.205 NA
ATOM     17  C   UNL A   1      30.709  22.647  26.005  1.00  0.00     0.044 A 
ATOM     18  C   UNL A   1      29.618  22.689  27.030  1.00  0.00     0.067 C 
ATOM     19  C   UNL A   1      31.061  23.766  25.275  1.00  0.00     0.070 A 
BRANCH  14  20
ATOM     20  C   UNL A   1      33.077  20.157  24.857  1.00  0.00     0.376 C 
ATOM     21  O   UNL A   1      34.294  20.031  24.758  1.00  0.00    -0.242 OA
BRANCH  20  22
ATOM     22  O   UNL A   1      32.184  19.133  24.765  1.00  0.00    -0.463 OA
ATOM     23  C   UNL A   1      32.530  18.015  25.580  1.00  0.00     0.282 C 
ENDBRANCH  20  22
ENDBRANCH  14  20
ENDBRANCH  11  13
ENDBRANCH   7  11
ENDBRANCH   3   6
ENDBRANCH   1   2
BRANCH   1  24
ATOM     24  C   UNL A   1      32.183  31.291  26.925  1.00  0.00     0.042 C 
BRANCH  24  25
ATOM     25  C   UNL A   1      33.199  32.373  27.295  1.00  0.00     0.118 C 
BRANCH  25  26
ATOM     26  N   UNL A   1      32.615  33.669  27.607  1.00  0.00    -0.352 N 
ATOM     27  C   UNL A   1      33.084  34.624  28.483  1.00  0.00     0.251 C 
ATOM     28  H   UNL A   1      31.782  33.891  27.133  1.00  0.00     0.163 HD
ATOM     29  O   UNL A   1      32.478  35.677  28.645  1.00  0.00    -0.269 OA
BRANCH  27  30
ATOM     30  C   UNL A   1      34.286  34.330  29.292  1.00  0.00     0.039 A 
ATOM     31  C   UNL A   1      34.118  33.663  30.509  1.00  0.00     0.014 A 
ATOM     32  C   UNL A   1      35.566  34.618  28.813  1.00  0.00     0.014 A 
ATOM     33  C   UNL A   1      35.236  33.194  31.201  1.00  0.00     0.010 A 
ATOM     34  C   UNL A   1      36.676  34.093  29.472  1.00  0.00     0.010 A 
ATOM     35  C   UNL A   1      36.521  33.357  30.661  1.00  0.00    -0.014 A 
BRANCH  35  36
ATOM     36  C   UNL A   1      37.718  32.756  31.304  1.00  0.00     0.031 A 
ATOM     37  C   UNL A   1      38.426  31.612  30.638  1.00  0.00     0.074 A 
ATOM     38  C   UNL A   1      38.110  33.177  32.525  1.00  0.00     0.049 A 
ATOM     39  N   UNL A   1      39.380  30.846  31.100  1.00  0.00    -0.248 NA
ATOM     40  C   UNL A   1      37.983  31.267  29.278  1.00  0.00     0.031 C 
ATOM     41  C   UNL A   1      37.493  34.266  33.285  1.00  0.00     0.029 A 
ATOM     42  N   UNL A   1      39.105  32.720  33.357  1.00  0.00    -0.354 N 
ATOM     43  C   UNL A   1      39.631  29.913  30.101  1.00  0.00     0.074 A 
ATOM     44  C   UNL A   1      38.710  30.189  29.021  1.00  0.00     0.031 C 
ATOM     45  C   UNL A   1      38.118  34.390  34.467  1.00  0.00     0.029 A 
ATOM     46  C   UNL A   1      39.145  33.359  34.574  1.00  0.00     0.049 A 
ATOM     47  H   UNL A   1      39.730  32.003  33.105  1.00  0.00     0.167 HD
ATOM     48  C   UNL A   1      40.555  28.926  30.087  1.00  0.00     0.037 A 
ATOM     49  C   UNL A   1      39.901  33.118  35.665  1.00  0.00     0.037 A 
ATOM     50  C   UNL A   1      41.490  28.679  31.151  1.00  0.00     0.049 A 
ATOM     51  C   UNL A   1      40.907  31.995  35.626  1.00  0.00     0.074 A 
ATOM     52  C   UNL A   1      42.507  27.741  31.202  1.00  0.00     0.029 A 
ATOM     53  N   UNL A   1      41.522  29.371  32.353  1.00  0.00    -0.354 N 
ATOM     54  N   UNL A   1      41.176  31.160  34.653  1.00  0.00    -0.248 NA
ATOM     55  C   UNL A   1      41.718  31.782  36.834  1.00  0.00     0.031 C 
ATOM     56  C   UNL A   1      43.113  27.823  32.459  1.00  0.00     0.029 A 
ATOM     57  C   UNL A   1      42.523  28.861  33.161  1.00  0.00     0.049 A 
ATOM     58  H   UNL A   1      40.920  30.112  32.594  1.00  0.00     0.167 HD
ATOM     59  C   UNL A   1      42.213  30.358  35.112  1.00  0.00     0.074 A 
ATOM     60  C   UNL A   1      42.526  30.803  36.452  1.00  0.00     0.031 C 
ATOM     61  C   UNL A   1      42.850  29.345  34.477  1.00  0.00     0.037 A 
BRANCH  48  62
ATOM     62  C   UNL A   1      40.608  28.022  28.890  1.00  0.00     0.064 A 
ATOM     63  C   UNL A   1      39.848  26.846  28.820  1.00  0.00     0.173 A 
ATOM     64  C   UNL A   1      41.365  28.383  27.766  1.00  0.00     0.173 A 
ATOM     65  F   UNL A   1      39.114  26.451  29.871  1.00  0.00    -0.203 F 
ATOM     66  C   UNL A   1      39.856  26.056  27.673  1.00  0.00     0.198 A 
ATOM     67  C   UNL A   1      41.347  27.609  26.609  1.00  0.00     0.198 A 
ATOM     68  F   UNL A   1      42.104  29.504  27.778  1.00  0.00    -0.203 F 
ATOM     69  F   UNL A   1      39.149  24.919  27.639  1.00  0.00    -0.200 F 
ATOM     70  C   UNL A   1      40.596  26.444  26.565  1.00  0.00     0.200 A 
ATOM     71  F   UNL A   1      42.047  27.995  25.533  1.00  0.00    -0.200 F 
ATOM     72  F   UNL A   1      40.584  25.696  25.454  1.00  0.00    -0.200 F 
ENDBRANCH  48  62
BRANCH  49  73
ATOM     73  C   UNL A   1      39.732  33.936  36.898  1.00  0.00     0.064 A 
ATOM     74  C   UNL A   1      38.905  33.507  37.947  1.00  0.00     0.173 A 
ATOM     75  C   UNL A   1      40.354  35.187  37.035  1.00  0.00     0.173 A 
ATOM     76  F   UNL A   1      38.270  32.329  37.859  1.00  0.00    -0.203 F 
ATOM     77  C   UNL A   1      38.676  34.312  39.062  1.00  0.00     0.198 A 
ATOM     78  C   UNL A   1      40.153  35.975  38.166  1.00  0.00     0.198 A 
ATOM     79  F   UNL A   1      41.160  35.647  36.065  1.00  0.00    -0.203 F 
ATOM     80  F   UNL A   1      37.826  33.905  40.015  1.00  0.00    -0.200 F 
ATOM     81  C   UNL A   1      39.303  35.544  39.172  1.00  0.00     0.200 A 
ATOM     82  F   UNL A   1      40.775  37.156  38.276  1.00  0.00    -0.200 F 
ATOM     83  F   UNL A   1      39.077  36.319  40.241  1.00  0.00    -0.200 F 
ENDBRANCH  49  73
BRANCH  61  84
ATOM     84  C   UNL A   1      44.007  28.692  35.176  1.00  0.00     0.064 A 
ATOM     85  C   UNL A   1      45.314  29.184  35.069  1.00  0.00     0.173 A 
ATOM     86  C   UNL A   1      43.778  27.614  36.047  1.00  0.00     0.173 A 
ATOM     87  F   UNL A   1      45.587  30.202  34.240  1.00  0.00    -0.203 F 
ATOM     88  C   UNL A   1      46.353  28.617  35.804  1.00  0.00     0.198 A 
ATOM     89  C   UNL A   1      44.810  27.071  36.803  1.00  0.00     0.198 A 
ATOM     90  F   UNL A   1      42.541  27.112  36.190  1.00  0.00    -0.203 F 
ATOM     91  F   UNL A   1      47.601  29.083  35.666  1.00  0.00    -0.200 F 
ATOM     92  C   UNL A   1      46.097  27.571  36.679  1.00  0.00     0.200 A 
ATOM     93  F   UNL A   1      44.558  26.074  37.662  1.00  0.00    -0.200 F 
ATOM     94  F   UNL A   1      47.093  27.045  37.406  1.00  0.00    -0.200 F 
ENDBRANCH  61  84
ENDBRANCH  35  36
ENDBRANCH  27  30
ENDBRANCH  25  26
ENDBRANCH  24  25
ENDBRANCH   1  24
TORSDOF 14
ENDMDL
