MODEL 1
REMARK VINA RESULT:     -11.8      0.000      0.000
REMARK SMILES C[NH2+][C@]1(C(=O)NCCCNC(=O)c2ccc(-c3c4nc(c(-c5c(F)c(F)c(F)c(F)c5F)c5ccc([nH]5)c(-c5c(F)c(F)c(F)c(F)c5F)c5nc(c(-c6c(F)c(F)c(F)c(F)c6F)c6ccc3[nH]6)C=C5)C=C4)cc2)CCC[C@@H]1CC[N@H+]1CCC[C@H]([NH+](C)C)C1
REMARK SMILES IDX 7 1 6 2 4 3 5 4 3 6 76 7 79 8 77 9 78 10 2 11 1 12 80 15
REMARK SMILES IDX 81 16 82 17 83 18 90 19 84 21 86 22 85 23 87 24 88 25 89 26
REMARK SMILES IDX 8 28 9 29 10 30 11 31 12 33 13 34 14 35 75 36 15 37 74 38
REMARK SMILES IDX 16 39 17 40 18 41 68 42 19 43 73 44 67 45 69 46 20 47 72 48
REMARK SMILES IDX 66 49 65 50 21 52 53 53 33 54 52 55 34 56 37 57 51 58 70 59
REMARK SMILES IDX 35 60 36 61 50 63 71 64 38 65 22 66 23 67 31 68 24 69 25 70
REMARK SMILES IDX 29 71 32 72 26 73 27 74 30 75 28 76 54 77 55 78 63 79 56 80
REMARK SMILES IDX 57 81 61 82 64 83 58 84 59 85 62 86 60 87 39 88 40 89 48 90
REMARK SMILES IDX 41 91 42 92 46 93 49 94 43 95 44 96 47 97 45 98
REMARK H PARENT 6 5 2 13 2 14 82 20 87 27 10 32 69 51 37 62
REMARK Flexibility Score: inf
ROOT
ATOM      1  C   UNL A   1      32.975  26.457  25.111  1.00  0.00     0.118 C 
ENDROOT
BRANCH   1   2
ATOM      2  N   UNL A   1      33.244  25.915  23.791  1.00  0.00    -0.351 N 
ATOM      3  C   UNL A   1      33.933  24.827  23.357  1.00  0.00     0.281 C 
ATOM      4  O   UNL A   1      33.962  24.685  22.126  1.00  0.00    -0.268 OA
ATOM      5  H   UNL A   1      32.846  26.445  23.062  1.00  0.00     0.163 HD
BRANCH   3   6
ATOM      6  C   UNL A   1      34.564  23.744  24.298  1.00  0.00     0.178 C 
ATOM      7  C   UNL A   1      35.450  24.264  25.441  1.00  0.00     0.079 C 
ATOM      8  C   UNL A   1      33.435  22.995  25.080  1.00  0.00     0.066 C 
ATOM      9  C   UNL A   1      35.491  23.116  26.439  1.00  0.00     0.008 C 
ATOM     10  C   UNL A   1      34.124  22.434  26.340  1.00  0.00     0.011 C 
BRANCH   6  11
ATOM     11  N   UNL A   1      35.300  22.741  23.455  1.00  0.00    -0.336 N 
ATOM     12  C   UNL A   1      36.726  23.002  23.295  1.00  0.00     0.331 C 
ATOM     13  H   UNL A   1      35.193  21.823  23.888  1.00  0.00     0.346 HD
ATOM     14  H   UNL A   1      34.892  22.798  22.521  1.00  0.00     0.346 HD
ENDBRANCH   6  11
BRANCH   8  15
ATOM     15  C   UNL A   1      32.684  21.918  24.266  1.00  0.00     0.072 C 
BRANCH  15  16
ATOM     16  C   UNL A   1      32.209  20.696  25.069  1.00  0.00     0.262 C 
BRANCH  16  17
ATOM     17  N   UNL A   1      32.578  19.368  24.543  1.00  0.00    -0.330 N 
ATOM     18  C   UNL A   1      32.225  19.151  23.136  1.00  0.00     0.262 C 
ATOM     19  C   UNL A   1      34.038  19.168  24.699  1.00  0.00     0.327 C 
ATOM     20  H   UNL A   1      32.039  18.695  25.086  1.00  0.00     0.348 HD
ATOM     21  C   UNL A   1      32.487  17.699  22.744  1.00  0.00     0.068 C 
ATOM     22  C   UNL A   1      34.528  17.739  24.324  1.00  0.00     0.239 C 
ATOM     23  C   UNL A   1      33.941  17.296  22.965  1.00  0.00     0.077 C 
BRANCH  22  24
ATOM     24  N   UNL A   1      34.425  16.695  25.376  1.00  0.00    -0.333 N 
ATOM     25  C   UNL A   1      33.153  15.973  25.296  1.00  0.00     0.332 C 
ATOM     26  C   UNL A   1      35.530  15.742  25.403  1.00  0.00     0.332 C 
ATOM     27  H   UNL A   1      34.475  17.218  26.250  1.00  0.00     0.348 HD
ENDBRANCH  22  24
ENDBRANCH  16  17
ENDBRANCH  15  16
ENDBRANCH   8  15
ENDBRANCH   3   6
ENDBRANCH   1   2
BRANCH   1  28
ATOM     28  C   UNL A   1      33.462  27.899  25.218  1.00  0.00     0.042 C 
BRANCH  28  29
ATOM     29  C   UNL A   1      34.139  28.203  26.551  1.00  0.00     0.118 C 
BRANCH  29  30
ATOM     30  N   UNL A   1      33.844  29.550  27.017  1.00  0.00    -0.352 N 
ATOM     31  C   UNL A   1      34.566  30.368  27.849  1.00  0.00     0.251 C 
ATOM     32  H   UNL A   1      32.999  29.931  26.685  1.00  0.00     0.163 HD
ATOM     33  O   UNL A   1      34.051  31.385  28.300  1.00  0.00    -0.269 OA
BRANCH  31  34
ATOM     34  C   UNL A   1      35.958  30.027  28.216  1.00  0.00     0.039 A 
ATOM     35  C   UNL A   1      36.210  29.524  29.497  1.00  0.00     0.014 A 
ATOM     36  C   UNL A   1      37.016  30.239  27.328  1.00  0.00     0.014 A 
ATOM     37  C   UNL A   1      37.514  29.188  29.867  1.00  0.00     0.010 A 
ATOM     38  C   UNL A   1      38.305  29.840  27.673  1.00  0.00     0.010 A 
ATOM     39  C   UNL A   1      38.568  29.317  28.948  1.00  0.00    -0.014 A 
BRANCH  39  40
ATOM     40  C   UNL A   1      39.952  28.917  29.308  1.00  0.00     0.031 A 
ATOM     41  C   UNL A   1      40.814  29.833  30.132  1.00  0.00     0.074 A 
ATOM     42  C   UNL A   1      40.451  27.758  28.840  1.00  0.00     0.049 A 
ATOM     43  N   UNL A   1      42.066  29.692  30.491  1.00  0.00    -0.248 NA
ATOM     44  C   UNL A   1      40.195  31.084  30.594  1.00  0.00     0.031 C 
ATOM     45  C   UNL A   1      39.727  26.806  27.996  1.00  0.00     0.029 A 
ATOM     46  N   UNL A   1      41.689  27.188  28.998  1.00  0.00    -0.354 N 
ATOM     47  C   UNL A   1      42.386  30.839  31.204  1.00  0.00     0.074 A 
ATOM     48  C   UNL A   1      41.214  31.688  31.186  1.00  0.00     0.031 C 
ATOM     49  C   UNL A   1      40.526  25.762  27.726  1.00  0.00     0.029 A 
ATOM     50  C   UNL A   1      41.829  25.987  28.345  1.00  0.00     0.049 A 
ATOM     51  H   UNL A   1      42.408  27.599  29.529  1.00  0.00     0.167 HD
ATOM     52  C   UNL A   1      43.546  31.146  31.834  1.00  0.00     0.037 A 
ATOM     53  C   UNL A   1      42.891  25.165  28.250  1.00  0.00     0.037 A 
ATOM     54  C   UNL A   1      44.700  30.287  31.870  1.00  0.00     0.049 A 
ATOM     55  C   UNL A   1      44.168  25.532  28.955  1.00  0.00     0.074 A 
ATOM     56  C   UNL A   1      45.899  30.478  32.534  1.00  0.00     0.029 A 
ATOM     57  N   UNL A   1      44.799  29.071  31.209  1.00  0.00    -0.354 N 
ATOM     58  N   UNL A   1      44.438  26.588  29.684  1.00  0.00    -0.248 NA
ATOM     59  C   UNL A   1      45.289  24.589  28.829  1.00  0.00     0.031 C 
ATOM     60  C   UNL A   1      46.740  29.401  32.237  1.00  0.00     0.029 A 
ATOM     61  C   UNL A   1      46.048  28.512  31.429  1.00  0.00     0.049 A 
ATOM     62  H   UNL A   1      44.087  28.664  30.663  1.00  0.00     0.167 HD
ATOM     63  C   UNL A   1      45.745  26.426  30.124  1.00  0.00     0.074 A 
ATOM     64  C   UNL A   1      46.209  25.160  29.592  1.00  0.00     0.031 C 
ATOM     65  C   UNL A   1      46.493  27.250  30.896  1.00  0.00     0.037 A 
BRANCH  52  66
ATOM     66  C   UNL A   1      43.623  32.470  32.539  1.00  0.00     0.064 A 
ATOM     67  C   UNL A   1      43.233  32.614  33.879  1.00  0.00     0.173 A 
ATOM     68  C   UNL A   1      44.125  33.601  31.878  1.00  0.00     0.173 A 
ATOM     69  F   UNL A   1      42.736  31.567  34.555  1.00  0.00    -0.203 F 
ATOM     70  C   UNL A   1      43.313  33.847  34.521  1.00  0.00     0.198 A 
ATOM     71  C   UNL A   1      44.233  34.826  32.532  1.00  0.00     0.198 A 
ATOM     72  F   UNL A   1      44.518  33.517  30.598  1.00  0.00    -0.203 F 
ATOM     73  F   UNL A   1      42.886  33.972  35.785  1.00  0.00    -0.200 F 
ATOM     74  C   UNL A   1      43.819  34.951  33.849  1.00  0.00     0.200 A 
ATOM     75  F   UNL A   1      44.735  35.887  31.885  1.00  0.00    -0.200 F 
ATOM     76  F   UNL A   1      43.902  36.136  34.470  1.00  0.00    -0.200 F 
ENDBRANCH  52  66
BRANCH  53  77
ATOM     77  C   UNL A   1      42.783  23.902  27.476  1.00  0.00     0.064 A 
ATOM     78  C   UNL A   1      42.340  22.721  28.088  1.00  0.00     0.173 A 
ATOM     79  C   UNL A   1      43.114  23.848  26.116  1.00  0.00     0.173 A 
ATOM     80  F   UNL A   1      42.030  22.717  29.392  1.00  0.00    -0.203 F 
ATOM     81  C   UNL A   1      42.251  21.529  27.371  1.00  0.00     0.198 A 
ATOM     82  C   UNL A   1      42.998  22.662  25.393  1.00  0.00     0.198 A 
ATOM     83  F   UNL A   1      43.538  24.952  25.482  1.00  0.00    -0.203 F 
ATOM     84  F   UNL A   1      41.866  20.405  27.990  1.00  0.00    -0.200 F 
ATOM     85  C   UNL A   1      42.575  21.501  26.023  1.00  0.00     0.200 A 
ATOM     86  F   UNL A   1      43.298  22.644  24.087  1.00  0.00    -0.200 F 
ATOM     87  F   UNL A   1      42.484  20.357  25.333  1.00  0.00    -0.200 F 
ENDBRANCH  53  77
BRANCH  65  88
ATOM     88  C   UNL A   1      47.881  26.797  31.240  1.00  0.00     0.064 A 
ATOM     89  C   UNL A   1      48.138  26.001  32.367  1.00  0.00     0.173 A 
ATOM     90  C   UNL A   1      48.963  27.132  30.412  1.00  0.00     0.173 A 
ATOM     91  F   UNL A   1      47.140  25.667  33.198  1.00  0.00    -0.203 F 
ATOM     92  C   UNL A   1      49.431  25.578  32.663  1.00  0.00     0.198 A 
ATOM     93  C   UNL A   1      50.250  26.683  30.696  1.00  0.00     0.198 A 
ATOM     94  F   UNL A   1      48.771  27.887  29.319  1.00  0.00    -0.203 F 
ATOM     95  F   UNL A   1      49.659  24.858  33.771  1.00  0.00    -0.200 F 
ATOM     96  C   UNL A   1      50.483  25.912  31.825  1.00  0.00     0.200 A 
ATOM     97  F   UNL A   1      51.264  26.996  29.877  1.00  0.00    -0.200 F 
ATOM     98  F   UNL A   1      51.726  25.499  32.110  1.00  0.00    -0.200 F 
ENDBRANCH  65  88
ENDBRANCH  39  40
ENDBRANCH  31  34
ENDBRANCH  29  30
ENDBRANCH  28  29
ENDBRANCH   1  28
TORSDOF 15
ENDMDL
MODEL 2
REMARK VINA RESULT:     -11.6      2.872      7.801
REMARK SMILES C[NH2+][C@]1(C(=O)NCCCNC(=O)c2ccc(-c3c4nc(c(-c5c(F)c(F)c(F)c(F)c5F)c5ccc([nH]5)c(-c5c(F)c(F)c(F)c(F)c5F)c5nc(c(-c6c(F)c(F)c(F)c(F)c6F)c6ccc3[nH]6)C=C5)C=C4)cc2)CCC[C@@H]1CC[N@H+]1CCC[C@H]([NH+](C)C)C1
REMARK SMILES IDX 7 1 6 2 4 3 5 4 3 6 76 7 79 8 77 9 78 10 2 11 1 12 80 15
REMARK SMILES IDX 81 16 82 17 83 18 90 19 84 21 86 22 85 23 87 24 88 25 89 26
REMARK SMILES IDX 8 28 9 29 10 30 11 31 12 33 13 34 14 35 75 36 15 37 74 38
REMARK SMILES IDX 16 39 17 40 18 41 68 42 19 43 73 44 67 45 69 46 20 47 72 48
REMARK SMILES IDX 66 49 65 50 21 52 53 53 33 54 52 55 34 56 37 57 51 58 70 59
REMARK SMILES IDX 35 60 36 61 50 63 71 64 38 65 22 66 23 67 31 68 24 69 25 70
REMARK SMILES IDX 29 71 32 72 26 73 27 74 30 75 28 76 54 77 55 78 63 79 56 80
REMARK SMILES IDX 57 81 61 82 64 83 58 84 59 85 62 86 60 87 39 88 40 89 48 90
REMARK SMILES IDX 41 91 42 92 46 93 49 94 43 95 44 96 47 97 45 98
REMARK H PARENT 6 5 2 13 2 14 82 20 87 27 10 32 69 51 37 62
REMARK Flexibility Score: inf
ROOT
ATOM      1  C   UNL A   1      31.197  27.211  25.910  1.00  0.00     0.118 C 
ENDROOT
BRANCH   1   2
ATOM      2  N   UNL A   1      31.012  25.966  26.633  1.00  0.00    -0.351 N 
ATOM      3  C   UNL A   1      31.487  24.706  26.447  1.00  0.00     0.281 C 
ATOM      4  O   UNL A   1      31.094  23.872  27.277  1.00  0.00    -0.268 OA
ATOM      5  H   UNL A   1      30.422  26.051  27.416  1.00  0.00     0.163 HD
BRANCH   3   6
ATOM      6  C   UNL A   1      32.539  24.306  25.355  1.00  0.00     0.178 C 
ATOM      7  C   UNL A   1      33.184  25.461  24.574  1.00  0.00     0.079 C 
ATOM      8  C   UNL A   1      33.781  23.640  26.033  1.00  0.00     0.066 C 
ATOM      9  C   UNL A   1      34.459  24.860  23.998  1.00  0.00     0.008 C 
ATOM     10  C   UNL A   1      34.938  23.839  25.033  1.00  0.00     0.011 C 
BRANCH   6  11
ATOM     11  N   UNL A   1      31.914  23.305  24.426  1.00  0.00    -0.336 N 
ATOM     12  C   UNL A   1      30.896  23.848  23.532  1.00  0.00     0.331 C 
ATOM     13  H   UNL A   1      32.653  22.899  23.853  1.00  0.00     0.346 HD
ATOM     14  H   UNL A   1      31.438  22.623  25.018  1.00  0.00     0.346 HD
ENDBRANCH   6  11
BRANCH   8  15
ATOM     15  C   UNL A   1      33.582  22.165  26.448  1.00  0.00     0.072 C 
BRANCH  15  16
ATOM     16  C   UNL A   1      34.570  21.166  25.825  1.00  0.00     0.262 C 
BRANCH  16  17
ATOM     17  N   UNL A   1      34.008  19.900  25.319  1.00  0.00    -0.330 N 
ATOM     18  C   UNL A   1      32.974  20.060  24.291  1.00  0.00     0.262 C 
ATOM     19  C   UNL A   1      35.099  19.066  24.764  1.00  0.00     0.327 C 
ATOM     20  H   UNL A   1      33.557  19.457  26.119  1.00  0.00     0.348 HD
ATOM     21  C   UNL A   1      32.338  18.711  23.966  1.00  0.00     0.068 C 
ATOM     22  C   UNL A   1      34.655  17.636  24.339  1.00  0.00     0.239 C 
ATOM     23  C   UNL A   1      33.366  17.690  23.489  1.00  0.00     0.077 C 
BRANCH  22  24
ATOM     24  N   UNL A   1      34.613  16.602  25.405  1.00  0.00    -0.333 N 
ATOM     25  C   UNL A   1      33.482  15.687  25.223  1.00  0.00     0.332 C 
ATOM     26  C   UNL A   1      35.844  15.834  25.563  1.00  0.00     0.332 C 
ATOM     27  H   UNL A   1      34.495  17.136  26.265  1.00  0.00     0.348 HD
ENDBRANCH  22  24
ENDBRANCH  16  17
ENDBRANCH  15  16
ENDBRANCH   8  15
ENDBRANCH   3   6
ENDBRANCH   1   2
BRANCH   1  28
ATOM     28  C   UNL A   1      31.791  28.285  26.816  1.00  0.00     0.042 C 
BRANCH  28  29
ATOM     29  C   UNL A   1      32.874  29.112  26.132  1.00  0.00     0.118 C 
BRANCH  29  30
ATOM     30  N   UNL A   1      32.641  30.542  26.274  1.00  0.00    -0.352 N 
ATOM     31  C   UNL A   1      33.267  31.456  27.083  1.00  0.00     0.251 C 
ATOM     32  H   UNL A   1      31.926  30.907  25.704  1.00  0.00     0.163 HD
ATOM     33  O   UNL A   1      32.786  32.576  27.222  1.00  0.00    -0.269 OA
BRANCH  31  34
ATOM     34  C   UNL A   1      34.511  31.099  27.799  1.00  0.00     0.039 A 
ATOM     35  C   UNL A   1      35.509  32.069  27.936  1.00  0.00     0.014 A 
ATOM     36  C   UNL A   1      34.719  29.809  28.296  1.00  0.00     0.014 A 
ATOM     37  C   UNL A   1      36.690  31.761  28.614  1.00  0.00     0.010 A 
ATOM     38  C   UNL A   1      35.866  29.522  29.031  1.00  0.00     0.010 A 
ATOM     39  C   UNL A   1      36.867  30.493  29.191  1.00  0.00    -0.014 A 
BRANCH  39  40
ATOM     40  C   UNL A   1      38.094  30.164  29.958  1.00  0.00     0.031 A 
ATOM     41  C   UNL A   1      39.116  29.222  29.384  1.00  0.00     0.074 A 
ATOM     42  C   UNL A   1      38.258  30.665  31.197  1.00  0.00     0.049 A 
ATOM     43  N   UNL A   1      40.215  28.760  29.926  1.00  0.00    -0.248 NA
ATOM     44  C   UNL A   1      38.855  28.711  28.030  1.00  0.00     0.031 C 
ATOM     45  C   UNL A   1      37.317  31.555  31.878  1.00  0.00     0.029 A 
ATOM     46  N   UNL A   1      39.270  30.489  32.107  1.00  0.00    -0.354 N 
ATOM     47  C   UNL A   1      40.766  27.897  28.988  1.00  0.00     0.074 A 
ATOM     48  C   UNL A   1      39.856  27.860  27.863  1.00  0.00     0.031 C 
ATOM     49  C   UNL A   1      37.804  31.862  33.092  1.00  0.00     0.029 A 
ATOM     50  C   UNL A   1      39.070  31.163  33.287  1.00  0.00     0.049 A 
ATOM     51  H   UNL A   1      40.063  29.934  31.932  1.00  0.00     0.167 HD
ATOM     52  C   UNL A   1      41.934  27.214  29.052  1.00  0.00     0.037 A 
ATOM     53  C   UNL A   1      39.820  31.205  34.405  1.00  0.00     0.037 A 
ATOM     54  C   UNL A   1      42.847  27.275  30.163  1.00  0.00     0.049 A 
ATOM     55  C   UNL A   1      41.111  30.433  34.452  1.00  0.00     0.074 A 
ATOM     56  C   UNL A   1      44.086  26.672  30.297  1.00  0.00     0.029 A 
ATOM     57  N   UNL A   1      42.618  27.980  31.336  1.00  0.00    -0.354 N 
ATOM     58  N   UNL A   1      41.655  29.674  33.533  1.00  0.00    -0.248 NA
ATOM     59  C   UNL A   1      41.895  30.530  35.691  1.00  0.00     0.031 C 
ATOM     60  C   UNL A   1      44.585  26.974  31.568  1.00  0.00     0.029 A 
ATOM     61  C   UNL A   1      43.681  27.807  32.208  1.00  0.00     0.049 A 
ATOM     62  H   UNL A   1      41.818  28.523  31.521  1.00  0.00     0.167 HD
ATOM     63  C   UNL A   1      42.854  29.223  34.069  1.00  0.00     0.074 A 
ATOM     64  C   UNL A   1      42.965  29.809  35.390  1.00  0.00     0.031 C 
ATOM     65  C   UNL A   1      43.778  28.399  33.518  1.00  0.00     0.037 A 
BRANCH  52  66
ATOM     66  C   UNL A   1      42.292  26.342  27.884  1.00  0.00     0.064 A 
ATOM     67  C   UNL A   1      41.756  25.053  27.735  1.00  0.00     0.173 A 
ATOM     68  C   UNL A   1      43.155  26.811  26.882  1.00  0.00     0.173 A 
ATOM     69  F   UNL A   1      40.934  24.552  28.670  1.00  0.00    -0.203 F 
ATOM     70  C   UNL A   1      42.094  24.257  26.645  1.00  0.00     0.198 A 
ATOM     71  C   UNL A   1      43.467  26.023  25.776  1.00  0.00     0.198 A 
ATOM     72  F   UNL A   1      43.690  28.037  26.971  1.00  0.00    -0.203 F 
ATOM     73  F   UNL A   1      41.609  23.010  26.551  1.00  0.00    -0.200 F 
ATOM     74  C   UNL A   1      42.944  24.744  25.663  1.00  0.00     0.200 A 
ATOM     75  F   UNL A   1      44.277  26.502  24.822  1.00  0.00    -0.200 F 
ATOM     76  F   UNL A   1      43.264  23.978  24.610  1.00  0.00    -0.200 F 
ENDBRANCH  52  66
BRANCH  53  77
ATOM     77  C   UNL A   1      39.380  32.026  35.562  1.00  0.00     0.064 A 
ATOM     78  C   UNL A   1      39.824  33.347  35.715  1.00  0.00     0.173 A 
ATOM     79  C   UNL A   1      38.509  31.514  36.533  1.00  0.00     0.173 A 
ATOM     80  F   UNL A   1      40.674  33.875  34.823  1.00  0.00    -0.203 F 
ATOM     81  C   UNL A   1      39.428  34.118  36.806  1.00  0.00     0.198 A 
ATOM     82  C   UNL A   1      38.091  32.295  37.609  1.00  0.00     0.198 A 
ATOM     83  F   UNL A   1      38.051  30.257  36.429  1.00  0.00    -0.203 F 
ATOM     84  F   UNL A   1      39.901  35.363  36.951  1.00  0.00    -0.200 F 
ATOM     85  C   UNL A   1      38.557  33.593  37.749  1.00  0.00     0.200 A 
ATOM     86  F   UNL A   1      37.237  31.788  38.509  1.00  0.00    -0.200 F 
ATOM     87  F   UNL A   1      38.172  34.337  38.795  1.00  0.00    -0.200 F 
ENDBRANCH  53  77
BRANCH  65  88
ATOM     88  C   UNL A   1      45.006  28.105  34.328  1.00  0.00     0.064 A 
ATOM     89  C   UNL A   1      46.142  28.927  34.270  1.00  0.00     0.173 A 
ATOM     90  C   UNL A   1      45.033  27.008  35.203  1.00  0.00     0.173 A 
ATOM     91  F   UNL A   1      46.171  29.979  33.438  1.00  0.00    -0.203 F 
ATOM     92  C   UNL A   1      47.267  28.646  35.039  1.00  0.00     0.198 A 
ATOM     93  C   UNL A   1      46.150  26.747  35.992  1.00  0.00     0.198 A 
ATOM     94  F   UNL A   1      43.971  26.194  35.300  1.00  0.00    -0.203 F 
ATOM     95  F   UNL A   1      48.358  29.418  34.932  1.00  0.00    -0.200 F 
ATOM     96  C   UNL A   1      47.268  27.563  35.905  1.00  0.00     0.200 A 
ATOM     97  F   UNL A   1      46.144  25.708  36.838  1.00  0.00    -0.200 F 
ATOM     98  F   UNL A   1      48.351  27.299  36.649  1.00  0.00    -0.200 F 
ENDBRANCH  65  88
ENDBRANCH  39  40
ENDBRANCH  31  34
ENDBRANCH  29  30
ENDBRANCH  28  29
ENDBRANCH   1  28
TORSDOF 15
ENDMDL
MODEL 3
REMARK VINA RESULT:     -11.6      2.793      3.817
REMARK SMILES C[NH2+][C@]1(C(=O)NCCCNC(=O)c2ccc(-c3c4nc(c(-c5c(F)c(F)c(F)c(F)c5F)c5ccc([nH]5)c(-c5c(F)c(F)c(F)c(F)c5F)c5nc(c(-c6c(F)c(F)c(F)c(F)c6F)c6ccc3[nH]6)C=C5)C=C4)cc2)CCC[C@@H]1CC[N@H+]1CCC[C@H]([NH+](C)C)C1
REMARK SMILES IDX 7 1 6 2 4 3 5 4 3 6 76 7 79 8 77 9 78 10 2 11 1 12 80 15
REMARK SMILES IDX 81 16 82 17 83 18 90 19 84 21 86 22 85 23 87 24 88 25 89 26
REMARK SMILES IDX 8 28 9 29 10 30 11 31 12 33 13 34 14 35 75 36 15 37 74 38
REMARK SMILES IDX 16 39 17 40 18 41 68 42 19 43 73 44 67 45 69 46 20 47 72 48
REMARK SMILES IDX 66 49 65 50 21 52 53 53 33 54 52 55 34 56 37 57 51 58 70 59
REMARK SMILES IDX 35 60 36 61 50 63 71 64 38 65 22 66 23 67 31 68 24 69 25 70
REMARK SMILES IDX 29 71 32 72 26 73 27 74 30 75 28 76 54 77 55 78 63 79 56 80
REMARK SMILES IDX 57 81 61 82 64 83 58 84 59 85 62 86 60 87 39 88 40 89 48 90
REMARK SMILES IDX 41 91 42 92 46 93 49 94 43 95 44 96 47 97 45 98
REMARK H PARENT 6 5 2 13 2 14 82 20 87 27 10 32 69 51 37 62
REMARK Flexibility Score: inf
ROOT
ATOM      1  C   UNL A   1      31.208  27.347  25.860  1.00  0.00     0.118 C 
ENDROOT
BRANCH   1   2
ATOM      2  N   UNL A   1      30.950  26.100  26.559  1.00  0.00    -0.351 N 
ATOM      3  C   UNL A   1      31.517  24.867  26.496  1.00  0.00     0.281 C 
ATOM      4  O   UNL A   1      31.013  24.022  27.251  1.00  0.00    -0.268 OA
ATOM      5  H   UNL A   1      30.214  26.162  27.211  1.00  0.00     0.163 HD
BRANCH   3   6
ATOM      6  C   UNL A   1      32.781  24.514  25.638  1.00  0.00     0.178 C 
ATOM      7  C   UNL A   1      33.716  25.681  25.288  1.00  0.00     0.079 C 
ATOM      8  C   UNL A   1      33.729  23.573  26.452  1.00  0.00     0.066 C 
ATOM      9  C   UNL A   1      35.037  25.014  24.934  1.00  0.00     0.008 C 
ATOM     10  C   UNL A   1      35.125  23.774  25.827  1.00  0.00     0.011 C 
BRANCH   6  11
ATOM     11  N   UNL A   1      32.338  23.784  24.402  1.00  0.00    -0.336 N 
ATOM     12  C   UNL A   1      31.826  24.638  23.336  1.00  0.00     0.331 C 
ATOM     13  H   UNL A   1      33.136  23.266  24.036  1.00  0.00     0.346 HD
ATOM     14  H   UNL A   1      31.561  23.186  24.686  1.00  0.00     0.346 HD
ENDBRANCH   6  11
BRANCH   8  15
ATOM     15  C   UNL A   1      33.291  22.092  26.500  1.00  0.00     0.072 C 
BRANCH  15  16
ATOM     16  C   UNL A   1      34.314  21.084  25.951  1.00  0.00     0.262 C 
BRANCH  16  17
ATOM     17  N   UNL A   1      33.775  19.848  25.352  1.00  0.00    -0.330 N 
ATOM     18  C   UNL A   1      32.769  20.066  24.308  1.00  0.00     0.262 C 
ATOM     19  C   UNL A   1      34.888  19.057  24.777  1.00  0.00     0.327 C 
ATOM     20  H   UNL A   1      33.306  19.354  26.110  1.00  0.00     0.348 HD
ATOM     21  C   UNL A   1      32.153  18.735  23.881  1.00  0.00     0.068 C 
ATOM     22  C   UNL A   1      34.467  17.653  24.252  1.00  0.00     0.239 C 
ATOM     23  C   UNL A   1      33.202  17.753  23.372  1.00  0.00     0.077 C 
BRANCH  22  24
ATOM     24  N   UNL A   1      34.403  16.555  25.250  1.00  0.00    -0.333 N 
ATOM     25  C   UNL A   1      33.269  15.662  24.997  1.00  0.00     0.332 C 
ATOM     26  C   UNL A   1      35.628  15.770  25.377  1.00  0.00     0.332 C 
ATOM     27  H   UNL A   1      34.277  17.035  26.141  1.00  0.00     0.348 HD
ENDBRANCH  22  24
ENDBRANCH  16  17
ENDBRANCH  15  16
ENDBRANCH   8  15
ENDBRANCH   3   6
ENDBRANCH   1   2
BRANCH   1  28
ATOM     28  C   UNL A   1      31.869  28.364  26.785  1.00  0.00     0.042 C 
BRANCH  28  29
ATOM     29  C   UNL A   1      32.950  29.187  26.091  1.00  0.00     0.118 C 
BRANCH  29  30
ATOM     30  N   UNL A   1      32.776  30.615  26.314  1.00  0.00    -0.352 N 
ATOM     31  C   UNL A   1      33.433  31.454  27.178  1.00  0.00     0.251 C 
ATOM     32  H   UNL A   1      32.083  31.043  25.761  1.00  0.00     0.163 HD
ATOM     33  O   UNL A   1      32.998  32.583  27.379  1.00  0.00    -0.269 OA
BRANCH  31  34
ATOM     34  C   UNL A   1      34.654  31.004  27.881  1.00  0.00     0.039 A 
ATOM     35  C   UNL A   1      35.724  31.896  28.005  1.00  0.00     0.014 A 
ATOM     36  C   UNL A   1      34.769  29.702  28.378  1.00  0.00     0.014 A 
ATOM     37  C   UNL A   1      36.886  31.499  28.671  1.00  0.00     0.010 A 
ATOM     38  C   UNL A   1      35.899  29.329  29.100  1.00  0.00     0.010 A 
ATOM     39  C   UNL A   1      36.973  30.221  29.247  1.00  0.00    -0.014 A 
BRANCH  39  40
ATOM     40  C   UNL A   1      38.180  29.800  30.002  1.00  0.00     0.031 A 
ATOM     41  C   UNL A   1      38.440  30.343  31.379  1.00  0.00     0.074 A 
ATOM     42  C   UNL A   1      39.072  28.976  29.420  1.00  0.00     0.049 A 
ATOM     43  N   UNL A   1      39.468  30.149  32.166  1.00  0.00    -0.248 NA
ATOM     44  C   UNL A   1      37.421  31.245  31.936  1.00  0.00     0.031 C 
ATOM     45  C   UNL A   1      38.952  28.418  28.073  1.00  0.00     0.029 A 
ATOM     46  N   UNL A   1      40.262  28.475  29.884  1.00  0.00    -0.354 N 
ATOM     47  C   UNL A   1      39.226  30.913  33.300  1.00  0.00     0.074 A 
ATOM     48  C   UNL A   1      37.979  31.613  33.079  1.00  0.00     0.031 C 
ATOM     49  C   UNL A   1      40.016  27.636  27.826  1.00  0.00     0.029 A 
ATOM     50  C   UNL A   1      40.908  27.667  28.980  1.00  0.00     0.049 A 
ATOM     51  H   UNL A   1      40.619  28.674  30.780  1.00  0.00     0.167 HD
ATOM     52  C   UNL A   1      39.967  31.005  34.431  1.00  0.00     0.037 A 
ATOM     53  C   UNL A   1      42.091  27.031  29.069  1.00  0.00     0.037 A 
ATOM     54  C   UNL A   1      41.194  30.287  34.655  1.00  0.00     0.049 A 
ATOM     55  C   UNL A   1      42.897  27.154  30.334  1.00  0.00     0.074 A 
ATOM     56  C   UNL A   1      41.985  30.262  35.791  1.00  0.00     0.029 A 
ATOM     57  N   UNL A   1      41.810  29.466  33.721  1.00  0.00    -0.354 N 
ATOM     58  N   UNL A   1      42.626  27.826  31.427  1.00  0.00    -0.248 NA
ATOM     59  C   UNL A   1      44.173  26.425  30.380  1.00  0.00     0.031 C 
ATOM     60  C   UNL A   1      43.103  29.465  35.528  1.00  0.00     0.029 A 
ATOM     61  C   UNL A   1      42.984  28.950  34.246  1.00  0.00     0.049 A 
ATOM     62  H   UNL A   1      41.465  29.278  32.819  1.00  0.00     0.167 HD
ATOM     63  C   UNL A   1      43.679  27.582  32.298  1.00  0.00     0.074 A 
ATOM     64  C   UNL A   1      44.588  26.686  31.611  1.00  0.00     0.031 C 
ATOM     65  C   UNL A   1      43.876  28.057  33.552  1.00  0.00     0.037 A 
BRANCH  52  66
ATOM     66  C   UNL A   1      39.468  31.917  35.515  1.00  0.00     0.064 A 
ATOM     67  C   UNL A   1      38.576  31.469  36.501  1.00  0.00     0.173 A 
ATOM     68  C   UNL A   1      39.913  33.245  35.590  1.00  0.00     0.173 A 
ATOM     69  F   UNL A   1      38.111  30.210  36.470  1.00  0.00    -0.203 F 
ATOM     70  C   UNL A   1      38.125  32.325  37.502  1.00  0.00     0.198 A 
ATOM     71  C   UNL A   1      39.484  34.090  36.610  1.00  0.00     0.198 A 
ATOM     72  F   UNL A   1      40.772  33.723  34.676  1.00  0.00    -0.203 F 
ATOM     73  F   UNL A   1      37.233  31.889  38.403  1.00  0.00    -0.200 F 
ATOM     74  C   UNL A   1      38.584  33.633  37.560  1.00  0.00     0.200 A 
ATOM     75  F   UNL A   1      39.940  35.349  36.672  1.00  0.00    -0.200 F 
ATOM     76  F   UNL A   1      38.153  34.454  38.528  1.00  0.00    -0.200 F 
ENDBRANCH  52  66
BRANCH  53  77
ATOM     77  C   UNL A   1      42.574  26.202  27.936  1.00  0.00     0.064 A 
ATOM     78  C   UNL A   1      43.435  26.738  26.969  1.00  0.00     0.173 A 
ATOM     79  C   UNL A   1      42.190  24.861  27.796  1.00  0.00     0.173 A 
ATOM     80  F   UNL A   1      43.814  28.022  27.048  1.00  0.00    -0.203 F 
ATOM     81  C   UNL A   1      43.879  25.970  25.894  1.00  0.00     0.198 A 
ATOM     82  C   UNL A   1      42.658  24.085  26.737  1.00  0.00     0.198 A 
ATOM     83  F   UNL A   1      41.372  24.298  28.699  1.00  0.00    -0.203 F 
ATOM     84  F   UNL A   1      44.667  26.520  24.961  1.00  0.00    -0.200 F 
ATOM     85  C   UNL A   1      43.495  24.642  25.782  1.00  0.00     0.200 A 
ATOM     86  F   UNL A   1      42.295  22.798  26.642  1.00  0.00    -0.200 F 
ATOM     87  F   UNL A   1      43.927  23.902  24.753  1.00  0.00    -0.200 F 
ENDBRANCH  53  77
BRANCH  65  88
ATOM     88  C   UNL A   1      45.106  27.594  34.276  1.00  0.00     0.064 A 
ATOM     89  C   UNL A   1      45.108  26.423  35.050  1.00  0.00     0.173 A 
ATOM     90  C   UNL A   1      46.307  28.310  34.165  1.00  0.00     0.173 A 
ATOM     91  F   UNL A   1      43.980  25.712  35.200  1.00  0.00    -0.203 F 
ATOM     92  C   UNL A   1      46.262  26.001  35.704  1.00  0.00     0.198 A 
ATOM     93  C   UNL A   1      47.467  27.869  34.798  1.00  0.00     0.198 A 
ATOM     94  F   UNL A   1      46.360  29.434  33.433  1.00  0.00    -0.203 F 
ATOM     95  F   UNL A   1      46.228  24.906  36.476  1.00  0.00    -0.200 F 
ATOM     96  C   UNL A   1      47.441  26.719  35.571  1.00  0.00     0.200 A 
ATOM     97  F   UNL A   1      48.609  28.556  34.657  1.00  0.00    -0.200 F 
ATOM     98  F   UNL A   1      48.552  26.307  36.197  1.00  0.00    -0.200 F 
ENDBRANCH  65  88
ENDBRANCH  39  40
ENDBRANCH  31  34
ENDBRANCH  29  30
ENDBRANCH  28  29
ENDBRANCH   1  28
TORSDOF 15
ENDMDL
