MODEL 1
REMARK VINA RESULT:     -12.9      0.000      0.000
REMARK SMILES CCN(C(=O)c1ccc(C)cc1F)[C@@H]1COC[C@@H]1C(=O)NCCCNC(=O)c1ccc(-c2c3nc(c(-c4c(F)c(F)c(F)c(F)c4F)c4ccc([nH]4)c(-c4c(F)c(F)c(F)c(F)c4F)c4nc(c(-c5c(F)c(F)c(F)c(F)c5F)c5ccc2[nH]5)C=C4)C=C3)cc1
REMARK SMILES IDX 22 1 21 2 19 3 20 4 18 6 14 7 15 8 16 9 17 10 3 11 2 12 1 13
REMARK SMILES IDX 4 14 5 15 6 16 7 17 12 18 8 19 11 20 13 21 9 22 10 23 23 24
REMARK SMILES IDX 24 25 25 26 26 27 27 29 28 30 29 31 90 32 30 33 89 34 31 35
REMARK SMILES IDX 32 36 33 37 83 38 34 39 88 40 82 41 84 42 35 43 87 44 81 45
REMARK SMILES IDX 80 46 36 48 68 49 48 50 67 51 49 52 52 53 66 54 85 55 50 56
REMARK SMILES IDX 51 57 65 59 86 60 53 61 37 62 38 63 46 64 39 65 40 66 44 67
REMARK SMILES IDX 47 68 41 69 42 70 45 71 43 72 69 73 70 74 78 75 71 76 72 77
REMARK SMILES IDX 76 78 79 79 73 80 74 81 77 82 75 83 54 84 55 85 63 86 56 87
REMARK SMILES IDX 57 88 61 89 64 90 58 91 59 92 62 93 60 94
REMARK H PARENT 21 5 25 28 84 47 52 58
REMARK Flexibility Score: inf
ROOT
ATOM      1  C   UNL A   1      35.386  23.216  26.081  1.00  0.00     0.117 C 
ENDROOT
BRANCH   1   2
ATOM      2  N   UNL A   1      34.073  22.830  25.591  1.00  0.00    -0.356 N 
ATOM      3  C   UNL A   1      33.185  23.541  24.829  1.00  0.00     0.227 C 
ATOM      4  O   UNL A   1      32.083  23.032  24.634  1.00  0.00    -0.275 OA
ATOM      5  H   UNL A   1      33.779  21.926  25.845  1.00  0.00     0.163 HD
BRANCH   3   6
ATOM      6  C   UNL A   1      33.618  24.858  24.195  1.00  0.00     0.129 C 
ATOM      7  C   UNL A   1      32.506  25.780  23.680  1.00  0.00     0.126 C 
ATOM      8  C   UNL A   1      32.253  25.191  22.293  1.00  0.00     0.186 C 
ATOM      9  O   UNL A   1      33.581  24.947  21.785  1.00  0.00    -0.378 OA
ATOM     10  C   UNL A   1      34.385  24.539  22.907  1.00  0.00     0.176 C 
BRANCH   7  11
ATOM     11  N   UNL A   1      31.389  26.104  24.596  1.00  0.00    -0.333 N 
BRANCH  11  12
ATOM     12  C   UNL A   1      30.004  25.865  24.132  1.00  0.00     0.117 C 
ATOM     13  C   UNL A   1      29.147  27.066  23.741  1.00  0.00     0.027 C 
ENDBRANCH  11  12
BRANCH  11  14
ATOM     14  C   UNL A   1      31.685  26.469  25.926  1.00  0.00     0.257 C 
ATOM     15  O   UNL A   1      31.502  25.717  26.880  1.00  0.00    -0.269 OA
BRANCH  14  16
ATOM     16  C   UNL A   1      32.262  27.785  26.282  1.00  0.00     0.075 A 
ATOM     17  C   UNL A   1      31.503  28.941  26.498  1.00  0.00     0.017 A 
ATOM     18  C   UNL A   1      33.635  27.822  26.546  1.00  0.00     0.136 A 
ATOM     19  C   UNL A   1      32.127  30.126  26.903  1.00  0.00     0.004 A 
ATOM     20  C   UNL A   1      34.249  28.985  26.998  1.00  0.00     0.043 A 
ATOM     21  F   UNL A   1      34.409  26.744  26.363  1.00  0.00    -0.206 F 
ATOM     22  C   UNL A   1      33.502  30.153  27.158  1.00  0.00    -0.048 A 
ATOM     23  C   UNL A   1      34.162  31.394  27.668  1.00  0.00     0.044 C 
ENDBRANCH  14  16
ENDBRANCH  11  14
ENDBRANCH   7  11
ENDBRANCH   3   6
ENDBRANCH   1   2
BRANCH   1  24
ATOM     24  C   UNL A   1      36.394  22.134  25.764  1.00  0.00     0.042 C 
BRANCH  24  25
ATOM     25  C   UNL A   1      37.749  22.690  25.462  1.00  0.00     0.118 C 
BRANCH  25  26
ATOM     26  N   UNL A   1      38.752  22.179  26.372  1.00  0.00    -0.352 N 
ATOM     27  C   UNL A   1      39.795  22.860  26.955  1.00  0.00     0.251 C 
ATOM     28  H   UNL A   1      38.678  21.225  26.602  1.00  0.00     0.163 HD
ATOM     29  O   UNL A   1      40.770  22.236  27.352  1.00  0.00    -0.269 OA
BRANCH  27  30
ATOM     30  C   UNL A   1      39.704  24.324  27.168  1.00  0.00     0.039 A 
ATOM     31  C   UNL A   1      40.358  25.194  26.280  1.00  0.00     0.014 A 
ATOM     32  C   UNL A   1      39.129  24.840  28.324  1.00  0.00     0.014 A 
ATOM     33  C   UNL A   1      40.565  26.521  26.650  1.00  0.00     0.010 A 
ATOM     34  C   UNL A   1      39.117  26.170  28.569  1.00  0.00     0.010 A 
ATOM     35  C   UNL A   1      39.994  26.954  27.839  1.00  0.00    -0.014 A 
BRANCH  35  36
ATOM     36  C   UNL A   1      40.341  28.136  28.592  1.00  0.00     0.031 A 
ATOM     37  C   UNL A   1      39.452  29.289  28.534  1.00  0.00     0.074 A 
ATOM     38  C   UNL A   1      41.211  27.882  29.604  1.00  0.00     0.049 A 
ATOM     39  N   UNL A   1      39.636  30.347  29.227  1.00  0.00    -0.248 NA
ATOM     40  C   UNL A   1      38.245  29.345  27.722  1.00  0.00     0.031 C 
ATOM     41  C   UNL A   1      41.419  28.565  30.872  1.00  0.00     0.029 A 
ATOM     42  N   UNL A   1      42.188  26.865  29.624  1.00  0.00    -0.354 N 
ATOM     43  C   UNL A   1      38.457  31.052  29.243  1.00  0.00     0.074 A 
ATOM     44  C   UNL A   1      37.655  30.444  28.211  1.00  0.00     0.031 C 
ATOM     45  C   UNL A   1      42.635  28.227  31.347  1.00  0.00     0.029 A 
ATOM     46  C   UNL A   1      43.278  27.416  30.324  1.00  0.00     0.049 A 
ATOM     47  H   UNL A   1      42.121  25.964  29.232  1.00  0.00     0.167 HD
ATOM     48  C   UNL A   1      38.315  31.959  30.252  1.00  0.00     0.037 A 
ATOM     49  C   UNL A   1      44.364  27.796  29.583  1.00  0.00     0.037 A 
ATOM     50  C   UNL A   1      39.621  32.157  30.904  1.00  0.00     0.049 A 
ATOM     51  C   UNL A   1      44.492  29.301  29.530  1.00  0.00     0.074 A 
ATOM     52  C   UNL A   1      40.168  31.735  32.104  1.00  0.00     0.029 A 
ATOM     53  N   UNL A   1      40.695  32.556  30.107  1.00  0.00    -0.354 N 
ATOM     54  N   UNL A   1      43.494  30.131  29.695  1.00  0.00    -0.248 NA
ATOM     55  C   UNL A   1      45.770  29.985  29.391  1.00  0.00     0.031 C 
ATOM     56  C   UNL A   1      41.588  31.762  31.963  1.00  0.00     0.029 A 
ATOM     57  C   UNL A   1      41.902  32.224  30.693  1.00  0.00     0.049 A 
ATOM     58  H   UNL A   1      40.605  33.015  29.240  1.00  0.00     0.167 HD
ATOM     59  C   UNL A   1      43.965  31.414  29.756  1.00  0.00     0.074 A 
ATOM     60  C   UNL A   1      45.397  31.267  29.547  1.00  0.00     0.031 C 
ATOM     61  C   UNL A   1      43.161  32.496  30.002  1.00  0.00     0.037 A 
BRANCH  48  62
ATOM     62  C   UNL A   1      37.019  32.525  30.798  1.00  0.00     0.064 A 
ATOM     63  C   UNL A   1      36.249  33.404  30.001  1.00  0.00     0.173 A 
ATOM     64  C   UNL A   1      36.518  32.340  32.103  1.00  0.00     0.173 A 
ATOM     65  F   UNL A   1      36.585  33.670  28.731  1.00  0.00    -0.203 F 
ATOM     66  C   UNL A   1      35.108  34.059  30.478  1.00  0.00     0.198 A 
ATOM     67  C   UNL A   1      35.362  32.977  32.572  1.00  0.00     0.198 A 
ATOM     68  F   UNL A   1      37.124  31.559  32.999  1.00  0.00    -0.203 F 
ATOM     69  F   UNL A   1      34.448  34.910  29.680  1.00  0.00    -0.200 F 
ATOM     70  C   UNL A   1      34.663  33.845  31.764  1.00  0.00     0.200 A 
ATOM     71  F   UNL A   1      34.944  32.749  33.826  1.00  0.00    -0.200 F 
ATOM     72  F   UNL A   1      33.571  34.471  32.223  1.00  0.00    -0.200 F 
ENDBRANCH  48  62
BRANCH  49  73
ATOM     73  C   UNL A   1      44.636  26.804  28.489  1.00  0.00     0.064 A 
ATOM     74  C   UNL A   1      44.378  27.241  27.169  1.00  0.00     0.173 A 
ATOM     75  C   UNL A   1      45.553  25.753  28.642  1.00  0.00     0.173 A 
ATOM     76  F   UNL A   1      43.505  28.240  26.958  1.00  0.00    -0.203 F 
ATOM     77  C   UNL A   1      45.120  26.775  26.085  1.00  0.00     0.198 A 
ATOM     78  C   UNL A   1      46.274  25.265  27.542  1.00  0.00     0.198 A 
ATOM     79  F   UNL A   1      45.856  25.287  29.862  1.00  0.00    -0.203 F 
ATOM     80  F   UNL A   1      44.956  27.328  24.874  1.00  0.00    -0.200 F 
ATOM     81  C   UNL A   1      46.092  25.810  26.278  1.00  0.00     0.200 A 
ATOM     82  F   UNL A   1      47.210  24.321  27.723  1.00  0.00    -0.200 F 
ATOM     83  F   UNL A   1      46.871  25.433  25.254  1.00  0.00    -0.200 F 
ENDBRANCH  49  73
BRANCH  61  84
ATOM     84  C   UNL A   1      43.526  33.935  29.701  1.00  0.00     0.064 A 
ATOM     85  C   UNL A   1      43.700  34.445  28.404  1.00  0.00     0.173 A 
ATOM     86  C   UNL A   1      43.563  34.906  30.735  1.00  0.00     0.173 A 
ATOM     87  F   UNL A   1      43.517  33.685  27.318  1.00  0.00    -0.203 F 
ATOM     88  C   UNL A   1      44.004  35.788  28.169  1.00  0.00     0.198 A 
ATOM     89  C   UNL A   1      43.776  36.261  30.487  1.00  0.00     0.198 A 
ATOM     90  F   UNL A   1      43.358  34.587  32.021  1.00  0.00    -0.203 F 
ATOM     91  F   UNL A   1      44.240  36.199  26.915  1.00  0.00    -0.200 F 
ATOM     92  C   UNL A   1      44.032  36.696  29.206  1.00  0.00     0.200 A 
ATOM     93  F   UNL A   1      43.711  37.139  31.497  1.00  0.00    -0.200 F 
ATOM     94  F   UNL A   1      44.276  37.992  28.969  1.00  0.00    -0.200 F 
ENDBRANCH  61  84
ENDBRANCH  35  36
ENDBRANCH  27  30
ENDBRANCH  25  26
ENDBRANCH  24  25
ENDBRANCH   1  24
TORSDOF 14
ENDMDL
MODEL 2
REMARK VINA RESULT:     -12.8      2.984      9.151
REMARK SMILES CCN(C(=O)c1ccc(C)cc1F)[C@@H]1COC[C@@H]1C(=O)NCCCNC(=O)c1ccc(-c2c3nc(c(-c4c(F)c(F)c(F)c(F)c4F)c4ccc([nH]4)c(-c4c(F)c(F)c(F)c(F)c4F)c4nc(c(-c5c(F)c(F)c(F)c(F)c5F)c5ccc2[nH]5)C=C4)C=C3)cc1
REMARK SMILES IDX 22 1 21 2 19 3 20 4 18 6 14 7 15 8 16 9 17 10 3 11 2 12 1 13
REMARK SMILES IDX 4 14 5 15 6 16 7 17 12 18 8 19 11 20 13 21 9 22 10 23 23 24
REMARK SMILES IDX 24 25 25 26 26 27 27 29 28 30 29 31 90 32 30 33 89 34 31 35
REMARK SMILES IDX 32 36 33 37 83 38 34 39 88 40 82 41 84 42 35 43 87 44 81 45
REMARK SMILES IDX 80 46 36 48 68 49 48 50 67 51 49 52 52 53 66 54 85 55 50 56
REMARK SMILES IDX 51 57 65 59 86 60 53 61 37 62 38 63 46 64 39 65 40 66 44 67
REMARK SMILES IDX 47 68 41 69 42 70 45 71 43 72 69 73 70 74 78 75 71 76 72 77
REMARK SMILES IDX 76 78 79 79 73 80 74 81 77 82 75 83 54 84 55 85 63 86 56 87
REMARK SMILES IDX 57 88 61 89 64 90 58 91 59 92 62 93 60 94
REMARK H PARENT 21 5 25 28 84 47 52 58
REMARK Flexibility Score: inf
ROOT
ATOM      1  C   UNL A   1      33.594  28.516  25.151  1.00  0.00     0.117 C 
ENDROOT
BRANCH   1   2
ATOM      2  N   UNL A   1      32.572  27.907  24.316  1.00  0.00    -0.356 N 
ATOM      3  C   UNL A   1      32.094  26.624  24.321  1.00  0.00     0.227 C 
ATOM      4  O   UNL A   1      31.297  26.321  23.435  1.00  0.00    -0.275 OA
ATOM      5  H   UNL A   1      32.163  28.504  23.650  1.00  0.00     0.163 HD
BRANCH   3   6
ATOM      6  C   UNL A   1      32.490  25.674  25.446  1.00  0.00     0.129 C 
ATOM      7  C   UNL A   1      32.357  24.173  25.167  1.00  0.00     0.126 C 
ATOM      8  C   UNL A   1      30.881  23.942  25.487  1.00  0.00     0.186 C 
ATOM      9  O   UNL A   1      30.680  24.693  26.702  1.00  0.00    -0.378 OA
ATOM     10  C   UNL A   1      31.504  25.868  26.604  1.00  0.00     0.176 C 
BRANCH   7  11
ATOM     11  N   UNL A   1      32.972  23.636  23.932  1.00  0.00    -0.333 N 
BRANCH  11  12
ATOM     12  C   UNL A   1      32.115  22.886  22.986  1.00  0.00     0.117 C 
ATOM     13  C   UNL A   1      32.171  21.360  23.001  1.00  0.00     0.027 C 
ENDBRANCH  11  12
BRANCH  11  14
ATOM     14  C   UNL A   1      34.300  23.997  23.621  1.00  0.00     0.257 C 
ATOM     15  O   UNL A   1      34.579  24.868  22.801  1.00  0.00    -0.269 OA
BRANCH  14  16
ATOM     16  C   UNL A   1      35.470  23.368  24.274  1.00  0.00     0.075 A 
ATOM     17  C   UNL A   1      36.096  22.206  23.810  1.00  0.00     0.017 A 
ATOM     18  C   UNL A   1      36.052  24.069  25.336  1.00  0.00     0.136 A 
ATOM     19  C   UNL A   1      37.243  21.722  24.449  1.00  0.00     0.004 A 
ATOM     20  C   UNL A   1      37.221  23.618  25.940  1.00  0.00     0.043 A 
ATOM     21  F   UNL A   1      35.500  25.191  25.817  1.00  0.00    -0.206 F 
ATOM     22  C   UNL A   1      37.813  22.427  25.515  1.00  0.00    -0.048 A 
ATOM     23  C   UNL A   1      39.083  21.961  26.150  1.00  0.00     0.044 C 
ENDBRANCH  14  16
ENDBRANCH  11  14
ENDBRANCH   7  11
ENDBRANCH   3   6
ENDBRANCH   1   2
BRANCH   1  24
ATOM     24  C   UNL A   1      33.017  29.702  25.891  1.00  0.00     0.042 C 
BRANCH  24  25
ATOM     25  C   UNL A   1      33.678  29.921  27.215  1.00  0.00     0.118 C 
BRANCH  25  26
ATOM     26  N   UNL A   1      34.421  31.164  27.243  1.00  0.00    -0.352 N 
ATOM     27  C   UNL A   1      35.606  31.430  27.887  1.00  0.00     0.251 C 
ATOM     28  H   UNL A   1      34.028  31.911  26.738  1.00  0.00     0.163 HD
ATOM     29  O   UNL A   1      35.892  32.588  28.161  1.00  0.00    -0.269 OA
BRANCH  27  30
ATOM     30  C   UNL A   1      36.561  30.334  28.178  1.00  0.00     0.039 A 
ATOM     31  C   UNL A   1      36.524  29.698  29.430  1.00  0.00     0.014 A 
ATOM     32  C   UNL A   1      37.598  30.043  27.299  1.00  0.00     0.014 A 
ATOM     33  C   UNL A   1      37.607  28.921  29.836  1.00  0.00     0.010 A 
ATOM     34  C   UNL A   1      38.524  29.102  27.593  1.00  0.00     0.010 A 
ATOM     35  C   UNL A   1      38.625  28.708  28.917  1.00  0.00    -0.014 A 
BRANCH  35  36
ATOM     36  C   UNL A   1      39.968  28.254  29.195  1.00  0.00     0.031 A 
ATOM     37  C   UNL A   1      40.305  26.862  28.926  1.00  0.00     0.074 A 
ATOM     38  C   UNL A   1      40.868  29.270  29.253  1.00  0.00     0.049 A 
ATOM     39  N   UNL A   1      41.485  26.391  29.066  1.00  0.00    -0.248 NA
ATOM     40  C   UNL A   1      39.355  25.876  28.432  1.00  0.00     0.031 C 
ATOM     41  C   UNL A   1      42.298  29.288  28.981  1.00  0.00     0.029 A 
ATOM     42  N   UNL A   1      40.601  30.594  29.656  1.00  0.00    -0.354 N 
ATOM     43  C   UNL A   1      41.549  25.203  28.380  1.00  0.00     0.074 A 
ATOM     44  C   UNL A   1      40.176  24.874  28.091  1.00  0.00     0.031 C 
ATOM     45  C   UNL A   1      42.830  30.382  29.562  1.00  0.00     0.029 A 
ATOM     46  C   UNL A   1      41.765  31.017  30.325  1.00  0.00     0.049 A 
ATOM     47  H   UNL A   1      39.777  31.112  29.503  1.00  0.00     0.167 HD
ATOM     48  C   UNL A   1      42.800  24.770  28.048  1.00  0.00     0.037 A 
ATOM     49  C   UNL A   1      41.707  31.087  31.690  1.00  0.00     0.037 A 
ATOM     50  C   UNL A   1      43.793  25.565  28.789  1.00  0.00     0.049 A 
ATOM     51  C   UNL A   1      42.535  29.997  32.331  1.00  0.00     0.074 A 
ATOM     52  C   UNL A   1      44.656  26.590  28.439  1.00  0.00     0.029 A 
ATOM     53  N   UNL A   1      43.698  25.596  30.181  1.00  0.00    -0.354 N 
ATOM     54  N   UNL A   1      42.837  28.864  31.750  1.00  0.00    -0.248 NA
ATOM     55  C   UNL A   1      43.170  30.143  33.633  1.00  0.00     0.031 C 
ATOM     56  C   UNL A   1      44.967  27.316  29.629  1.00  0.00     0.029 A 
ATOM     57  C   UNL A   1      44.319  26.717  30.699  1.00  0.00     0.049 A 
ATOM     58  H   UNL A   1      43.248  24.909  30.724  1.00  0.00     0.167 HD
ATOM     59  C   UNL A   1      43.728  28.172  32.523  1.00  0.00     0.074 A 
ATOM     60  C   UNL A   1      43.894  29.012  33.698  1.00  0.00     0.031 C 
ATOM     61  C   UNL A   1      44.289  26.983  32.136  1.00  0.00     0.037 A 
BRANCH  48  62
ATOM     62  C   UNL A   1      43.169  23.798  26.944  1.00  0.00     0.064 A 
ATOM     63  C   UNL A   1      42.851  22.427  27.084  1.00  0.00     0.173 A 
ATOM     64  C   UNL A   1      43.908  24.104  25.783  1.00  0.00     0.173 A 
ATOM     65  F   UNL A   1      42.138  21.980  28.126  1.00  0.00    -0.203 F 
ATOM     66  C   UNL A   1      43.264  21.454  26.166  1.00  0.00     0.198 A 
ATOM     67  C   UNL A   1      44.300  23.134  24.852  1.00  0.00     0.198 A 
ATOM     68  F   UNL A   1      44.311  25.343  25.496  1.00  0.00    -0.203 F 
ATOM     69  F   UNL A   1      42.961  20.166  26.382  1.00  0.00    -0.200 F 
ATOM     70  C   UNL A   1      43.989  21.807  25.049  1.00  0.00     0.200 A 
ATOM     71  F   UNL A   1      45.001  23.501  23.769  1.00  0.00    -0.200 F 
ATOM     72  F   UNL A   1      44.386  20.878  24.170  1.00  0.00    -0.200 F 
ENDBRANCH  48  62
BRANCH  49  73
ATOM     73  C   UNL A   1      40.381  31.629  32.139  1.00  0.00     0.064 A 
ATOM     74  C   UNL A   1      39.522  30.717  32.795  1.00  0.00     0.173 A 
ATOM     75  C   UNL A   1      40.178  32.993  32.401  1.00  0.00     0.173 A 
ATOM     76  F   UNL A   1      39.662  29.398  32.580  1.00  0.00    -0.203 F 
ATOM     77  C   UNL A   1      38.630  31.132  33.784  1.00  0.00     0.198 A 
ATOM     78  C   UNL A   1      39.257  33.406  33.374  1.00  0.00     0.198 A 
ATOM     79  F   UNL A   1      40.956  33.918  31.822  1.00  0.00    -0.203 F 
ATOM     80  F   UNL A   1      37.948  30.222  34.495  1.00  0.00    -0.200 F 
ATOM     81  C   UNL A   1      38.523  32.475  34.096  1.00  0.00     0.200 A 
ATOM     82  F   UNL A   1      39.141  34.709  33.673  1.00  0.00    -0.200 F 
ATOM     83  F   UNL A   1      37.740  32.863  35.113  1.00  0.00    -0.200 F 
ENDBRANCH  49  73
BRANCH  61  84
ATOM     84  C   UNL A   1      44.954  25.992  33.070  1.00  0.00     0.064 A 
ATOM     85  C   UNL A   1      46.328  25.703  33.056  1.00  0.00     0.173 A 
ATOM     86  C   UNL A   1      44.230  25.401  34.137  1.00  0.00     0.173 A 
ATOM     87  F   UNL A   1      47.171  26.323  32.221  1.00  0.00    -0.203 F 
ATOM     88  C   UNL A   1      46.908  24.807  33.956  1.00  0.00     0.198 A 
ATOM     89  C   UNL A   1      44.831  24.579  35.089  1.00  0.00     0.198 A 
ATOM     90  F   UNL A   1      42.922  25.625  34.322  1.00  0.00    -0.203 F 
ATOM     91  F   UNL A   1      48.210  24.509  33.842  1.00  0.00    -0.200 F 
ATOM     92  C   UNL A   1      46.164  24.254  34.978  1.00  0.00     0.200 A 
ATOM     93  F   UNL A   1      44.110  24.124  36.123  1.00  0.00    -0.200 F 
ATOM     94  F   UNL A   1      46.735  23.433  35.868  1.00  0.00    -0.200 F 
ENDBRANCH  61  84
ENDBRANCH  35  36
ENDBRANCH  27  30
ENDBRANCH  25  26
ENDBRANCH  24  25
ENDBRANCH   1  24
TORSDOF 14
ENDMDL
MODEL 3
REMARK VINA RESULT:     -12.8      3.162      9.206
REMARK SMILES CCN(C(=O)c1ccc(C)cc1F)[C@@H]1COC[C@@H]1C(=O)NCCCNC(=O)c1ccc(-c2c3nc(c(-c4c(F)c(F)c(F)c(F)c4F)c4ccc([nH]4)c(-c4c(F)c(F)c(F)c(F)c4F)c4nc(c(-c5c(F)c(F)c(F)c(F)c5F)c5ccc2[nH]5)C=C4)C=C3)cc1
REMARK SMILES IDX 22 1 21 2 19 3 20 4 18 6 14 7 15 8 16 9 17 10 3 11 2 12 1 13
REMARK SMILES IDX 4 14 5 15 6 16 7 17 12 18 8 19 11 20 13 21 9 22 10 23 23 24
REMARK SMILES IDX 24 25 25 26 26 27 27 29 28 30 29 31 90 32 30 33 89 34 31 35
REMARK SMILES IDX 32 36 33 37 83 38 34 39 88 40 82 41 84 42 35 43 87 44 81 45
REMARK SMILES IDX 80 46 36 48 68 49 48 50 67 51 49 52 52 53 66 54 85 55 50 56
REMARK SMILES IDX 51 57 65 59 86 60 53 61 37 62 38 63 46 64 39 65 40 66 44 67
REMARK SMILES IDX 47 68 41 69 42 70 45 71 43 72 69 73 70 74 78 75 71 76 72 77
REMARK SMILES IDX 76 78 79 79 73 80 74 81 77 82 75 83 54 84 55 85 63 86 56 87
REMARK SMILES IDX 57 88 61 89 64 90 58 91 59 92 62 93 60 94
REMARK H PARENT 21 5 25 28 84 47 52 58
REMARK Flexibility Score: inf
ROOT
ATOM      1  C   UNL A   1      33.105  29.353  24.987  1.00  0.00     0.117 C 
ENDROOT
BRANCH   1   2
ATOM      2  N   UNL A   1      33.748  29.009  23.730  1.00  0.00    -0.356 N 
ATOM      3  C   UNL A   1      33.510  27.955  22.890  1.00  0.00     0.227 C 
ATOM      4  O   UNL A   1      34.268  27.821  21.932  1.00  0.00    -0.275 OA
ATOM      5  H   UNL A   1      34.460  29.624  23.441  1.00  0.00     0.163 HD
BRANCH   3   6
ATOM      6  C   UNL A   1      32.292  27.066  23.119  1.00  0.00     0.129 C 
ATOM      7  C   UNL A   1      32.509  25.552  23.023  1.00  0.00     0.126 C 
ATOM      8  C   UNL A   1      32.391  25.332  21.515  1.00  0.00     0.186 C 
ATOM      9  O   UNL A   1      31.257  26.143  21.146  1.00  0.00    -0.378 OA
ATOM     10  C   UNL A   1      31.297  27.315  21.979  1.00  0.00     0.176 C 
BRANCH   7  11
ATOM     11  N   UNL A   1      33.615  24.955  23.805  1.00  0.00    -0.333 N 
BRANCH  11  12
ATOM     12  C   UNL A   1      33.936  25.532  25.129  1.00  0.00     0.117 C 
ATOM     13  C   UNL A   1      33.176  25.024  26.352  1.00  0.00     0.027 C 
ENDBRANCH  11  12
BRANCH  11  14
ATOM     14  C   UNL A   1      34.210  23.763  23.340  1.00  0.00     0.257 C 
ATOM     15  O   UNL A   1      35.234  23.749  22.662  1.00  0.00    -0.269 OA
BRANCH  14  16
ATOM     16  C   UNL A   1      33.659  22.424  23.649  1.00  0.00     0.075 A 
ATOM     17  C   UNL A   1      32.584  21.843  22.967  1.00  0.00     0.017 A 
ATOM     18  C   UNL A   1      34.355  21.657  24.589  1.00  0.00     0.136 A 
ATOM     19  C   UNL A   1      32.175  20.541  23.278  1.00  0.00     0.004 A 
ATOM     20  C   UNL A   1      33.983  20.345  24.863  1.00  0.00     0.043 A 
ATOM     21  F   UNL A   1      35.396  22.159  25.267  1.00  0.00    -0.206 F 
ATOM     22  C   UNL A   1      32.875  19.785  24.225  1.00  0.00    -0.048 A 
ATOM     23  C   UNL A   1      32.495  18.366  24.504  1.00  0.00     0.044 C 
ENDBRANCH  14  16
ENDBRANCH  11  14
ENDBRANCH   7  11
ENDBRANCH   3   6
ENDBRANCH   1   2
BRANCH   1  24
ATOM     24  C   UNL A   1      34.042  29.069  26.141  1.00  0.00     0.042 C 
BRANCH  24  25
ATOM     25  C   UNL A   1      33.759  29.934  27.328  1.00  0.00     0.118 C 
BRANCH  25  26
ATOM     26  N   UNL A   1      34.534  31.157  27.296  1.00  0.00    -0.352 N 
ATOM     27  C   UNL A   1      35.755  31.404  27.878  1.00  0.00     0.251 C 
ATOM     28  H   UNL A   1      34.135  31.905  26.795  1.00  0.00     0.163 HD
ATOM     29  O   UNL A   1      36.082  32.559  28.115  1.00  0.00    -0.269 OA
BRANCH  27  30
ATOM     30  C   UNL A   1      36.694  30.289  28.144  1.00  0.00     0.039 A 
ATOM     31  C   UNL A   1      36.606  29.585  29.356  1.00  0.00     0.014 A 
ATOM     32  C   UNL A   1      37.765  30.043  27.291  1.00  0.00     0.014 A 
ATOM     33  C   UNL A   1      37.670  28.781  29.760  1.00  0.00     0.010 A 
ATOM     34  C   UNL A   1      38.677  29.083  27.569  1.00  0.00     0.010 A 
ATOM     35  C   UNL A   1      38.724  28.616  28.872  1.00  0.00    -0.014 A 
BRANCH  35  36
ATOM     36  C   UNL A   1      40.053  28.140  29.176  1.00  0.00     0.031 A 
ATOM     37  C   UNL A   1      40.386  26.753  28.879  1.00  0.00     0.074 A 
ATOM     38  C   UNL A   1      40.961  29.145  29.289  1.00  0.00     0.049 A 
ATOM     39  N   UNL A   1      41.557  26.267  29.041  1.00  0.00    -0.248 NA
ATOM     40  C   UNL A   1      39.442  25.790  28.330  1.00  0.00     0.031 C 
ATOM     41  C   UNL A   1      42.398  29.157  29.061  1.00  0.00     0.029 A 
ATOM     42  N   UNL A   1      40.694  30.461  29.721  1.00  0.00    -0.354 N 
ATOM     43  C   UNL A   1      41.631  25.097  28.324  1.00  0.00     0.074 A 
ATOM     44  C   UNL A   1      40.264  24.790  27.985  1.00  0.00     0.031 C 
ATOM     45  C   UNL A   1      42.923  30.229  29.688  1.00  0.00     0.029 A 
ATOM     46  C   UNL A   1      41.842  30.853  30.436  1.00  0.00     0.049 A 
ATOM     47  H   UNL A   1      39.880  30.990  29.558  1.00  0.00     0.167 HD
ATOM     48  C   UNL A   1      42.887  24.661  28.017  1.00  0.00     0.037 A 
ATOM     49  C   UNL A   1      41.743  30.886  31.800  1.00  0.00     0.037 A 
ATOM     50  C   UNL A   1      43.865  25.426  28.810  1.00  0.00     0.049 A 
ATOM     51  C   UNL A   1      42.541  29.770  32.435  1.00  0.00     0.074 A 
ATOM     52  C   UNL A   1      44.747  26.451  28.515  1.00  0.00     0.029 A 
ATOM     53  N   UNL A   1      43.728  25.419  30.199  1.00  0.00    -0.354 N 
ATOM     54  N   UNL A   1      42.850  28.651  31.832  1.00  0.00    -0.248 NA
ATOM     55  C   UNL A   1      43.139  29.875  33.759  1.00  0.00     0.031 C 
ATOM     56  C   UNL A   1      45.029  27.141  29.733  1.00  0.00     0.029 A 
ATOM     57  C   UNL A   1      44.343  26.519  30.766  1.00  0.00     0.049 A 
ATOM     58  H   UNL A   1      43.255  24.721  30.709  1.00  0.00     0.167 HD
ATOM     59  C   UNL A   1      43.712  27.929  32.612  1.00  0.00     0.074 A 
ATOM     60  C   UNL A   1      43.850  28.735  33.814  1.00  0.00     0.031 C 
ATOM     61  C   UNL A   1      44.273  26.745  32.208  1.00  0.00     0.037 A 
BRANCH  48  62
ATOM     62  C   UNL A   1      43.280  23.717  26.899  1.00  0.00     0.064 A 
ATOM     63  C   UNL A   1      42.940  22.346  26.988  1.00  0.00     0.173 A 
ATOM     64  C   UNL A   1      44.061  24.045  25.772  1.00  0.00     0.173 A 
ATOM     65  F   UNL A   1      42.186  21.879  27.993  1.00  0.00    -0.203 F 
ATOM     66  C   UNL A   1      43.370  21.395  26.056  1.00  0.00     0.198 A 
ATOM     67  C   UNL A   1      44.472  23.097  24.827  1.00  0.00     0.198 A 
ATOM     68  F   UNL A   1      44.489  25.287  25.534  1.00  0.00    -0.203 F 
ATOM     69  F   UNL A   1      43.044  20.106  26.224  1.00  0.00    -0.200 F 
ATOM     70  C   UNL A   1      44.136  21.770  24.975  1.00  0.00     0.200 A 
ATOM     71  F   UNL A   1      45.212  23.485  23.778  1.00  0.00    -0.200 F 
ATOM     72  F   UNL A   1      44.550  20.860  24.082  1.00  0.00    -0.200 F 
ENDBRANCH  48  62
BRANCH  49  73
ATOM     73  C   UNL A   1      40.409  31.429  32.225  1.00  0.00     0.064 A 
ATOM     74  C   UNL A   1      40.081  32.721  31.755  1.00  0.00     0.173 A 
ATOM     75  C   UNL A   1      39.341  30.594  32.585  1.00  0.00     0.173 A 
ATOM     76  F   UNL A   1      41.061  33.570  31.401  1.00  0.00    -0.203 F 
ATOM     77  C   UNL A   1      38.762  33.094  31.495  1.00  0.00     0.198 A 
ATOM     78  C   UNL A   1      38.015  30.986  32.351  1.00  0.00     0.198 A 
ATOM     79  F   UNL A   1      39.570  29.351  33.033  1.00  0.00    -0.203 F 
ATOM     80  F   UNL A   1      38.503  34.268  30.900  1.00  0.00    -0.200 F 
ATOM     81  C   UNL A   1      37.732  32.211  31.763  1.00  0.00     0.200 A 
ATOM     82  F   UNL A   1      37.010  30.138  32.620  1.00  0.00    -0.200 F 
ATOM     83  F   UNL A   1      36.475  32.531  31.423  1.00  0.00    -0.200 F 
ENDBRANCH  49  73
BRANCH  61  84
ATOM     84  C   UNL A   1      44.900  25.723  33.133  1.00  0.00     0.064 A 
ATOM     85  C   UNL A   1      46.268  25.404  33.137  1.00  0.00     0.173 A 
ATOM     86  C   UNL A   1      44.146  25.127  34.176  1.00  0.00     0.173 A 
ATOM     87  F   UNL A   1      47.138  26.022  32.329  1.00  0.00    -0.203 F 
ATOM     88  C   UNL A   1      46.813  24.478  34.029  1.00  0.00     0.198 A 
ATOM     89  C   UNL A   1      44.712  24.274  35.122  1.00  0.00     0.198 A 
ATOM     90  F   UNL A   1      42.839  25.376  34.344  1.00  0.00    -0.203 F 
ATOM     91  F   UNL A   1      48.110  24.155  33.931  1.00  0.00    -0.200 F 
ATOM     92  C   UNL A   1      46.040  23.922  35.027  1.00  0.00     0.200 A 
ATOM     93  F   UNL A   1      43.964  23.814  36.134  1.00  0.00    -0.200 F 
ATOM     94  F   UNL A   1      46.578  23.072  35.911  1.00  0.00    -0.200 F 
ENDBRANCH  61  84
ENDBRANCH  35  36
ENDBRANCH  27  30
ENDBRANCH  25  26
ENDBRANCH  24  25
ENDBRANCH   1  24
TORSDOF 14
ENDMDL
