MODEL 1
REMARK VINA RESULT:     -14.3      0.000      0.000
REMARK SMILES O=C(NCCCNC(=O)c1nn(Cc2ccc(F)cc2)c2c1CN(C(=O)[C@H]1CC1(F)F)CC2)c1ccc(-c2c3nc(c(-c4c(F)c(F)c(F)c(F)c4F)c4ccc([nH]4)c(-c4c(F)c(F)c(F)c(F)c4F)c4nc(c(-c5c(F)c(F)c(F)c(F)c5F)c5ccc2[nH]5)C=C4)C=C3)cc1
REMARK SMILES IDX 5 1 4 2 3 3 1 4 2 5 34 7 35 8 96 9 36 10 95 11 37 12 38 13
REMARK SMILES IDX 39 14 89 15 40 16 94 17 88 18 90 19 41 20 93 21 87 22 86 23
REMARK SMILES IDX 42 25 74 26 54 27 73 28 55 29 58 30 72 31 91 32 56 33 57 34
REMARK SMILES IDX 71 36 92 37 59 38 43 39 44 40 52 41 45 42 46 43 50 44 53 45
REMARK SMILES IDX 47 46 48 47 51 48 49 49 75 50 76 51 84 52 77 53 78 54 82 55
REMARK SMILES IDX 85 56 79 57 80 58 83 59 81 60 60 61 61 62 69 63 62 64 63 65
REMARK SMILES IDX 67 66 70 67 64 68 65 69 68 70 66 71 6 72 7 73 8 74 9 76
REMARK SMILES IDX 10 77 11 78 22 79 12 80 21 81 23 82 33 83 24 84 32 85 13 86
REMARK SMILES IDX 14 87 15 88 20 89 16 90 19 91 17 92 18 93 25 94 26 95 27 96
REMARK SMILES IDX 28 97 29 98 30 99 31 100
REMARK H PARENT 3 6 90 24 58 35 7 75
REMARK Flexibility Score: inf
ROOT
ATOM      1  C   UNL A   1      35.199  29.861  27.403  1.00  0.00     0.042 C 
ENDROOT
BRANCH   1   2
ATOM      2  C   UNL A   1      34.649  31.265  27.653  1.00  0.00     0.118 C 
BRANCH   2   3
ATOM      3  N   UNL A   1      34.472  31.613  29.048  1.00  0.00    -0.352 N 
ATOM      4  O   UNL A   1      34.846  32.333  31.098  1.00  0.00    -0.269 OA
ATOM      5  C   UNL A   1      35.306  31.729  30.125  1.00  0.00     0.251 C 
ATOM      6  H   UNL A   1      33.535  31.813  29.272  1.00  0.00     0.163 HD
BRANCH   5   7
ATOM      7  C   UNL A   1      36.653  31.108  30.248  1.00  0.00     0.039 A 
ATOM      8  C   UNL A   1      37.878  31.739  30.025  1.00  0.00     0.014 A 
ATOM      9  C   UNL A   1      36.649  29.729  30.536  1.00  0.00     0.014 A 
ATOM     10  C   UNL A   1      39.054  30.988  29.970  1.00  0.00     0.010 A 
ATOM     11  C   UNL A   1      37.814  28.979  30.485  1.00  0.00     0.010 A 
ATOM     12  C   UNL A   1      39.010  29.602  30.148  1.00  0.00    -0.014 A 
BRANCH  12  13
ATOM     13  C   UNL A   1      40.257  28.836  30.136  1.00  0.00     0.031 A 
ATOM     14  C   UNL A   1      40.861  28.630  31.490  1.00  0.00     0.074 A 
ATOM     15  C   UNL A   1      40.707  28.212  29.024  1.00  0.00     0.049 A 
ATOM     16  N   UNL A   1      42.072  28.873  31.881  1.00  0.00    -0.248 NA
ATOM     17  C   UNL A   1      39.967  28.185  32.577  1.00  0.00     0.031 C 
ATOM     18  C   UNL A   1      40.051  28.119  27.716  1.00  0.00     0.029 A 
ATOM     19  N   UNL A   1      41.816  27.433  28.850  1.00  0.00    -0.354 N 
ATOM     20  C   UNL A   1      42.138  28.455  33.212  1.00  0.00     0.074 A 
ATOM     21  C   UNL A   1      40.792  28.169  33.624  1.00  0.00     0.031 C 
ATOM     22  C   UNL A   1      40.645  27.156  26.975  1.00  0.00     0.029 A 
ATOM     23  C   UNL A   1      41.800  26.652  27.696  1.00  0.00     0.049 A 
ATOM     24  H   UNL A   1      42.565  27.425  29.488  1.00  0.00     0.167 HD
ATOM     25  C   UNL A   1      43.327  28.164  33.808  1.00  0.00     0.037 A 
ATOM     26  C   UNL A   1      42.638  25.624  27.397  1.00  0.00     0.037 A 
ATOM     27  C   UNL A   1      44.416  28.830  33.147  1.00  0.00     0.049 A 
ATOM     28  C   UNL A   1      43.835  25.768  28.263  1.00  0.00     0.074 A 
ATOM     29  C   UNL A   1      44.760  30.152  32.939  1.00  0.00     0.029 A 
ATOM     30  N   UNL A   1      45.181  28.109  32.267  1.00  0.00    -0.354 N 
ATOM     31  N   UNL A   1      44.692  26.743  28.163  1.00  0.00    -0.248 NA
ATOM     32  C   UNL A   1      43.812  25.072  29.540  1.00  0.00     0.031 C 
ATOM     33  C   UNL A   1      45.309  30.184  31.624  1.00  0.00     0.029 A 
ATOM     34  C   UNL A   1      45.334  28.875  31.142  1.00  0.00     0.049 A 
ATOM     35  H   UNL A   1      45.551  27.209  32.416  1.00  0.00     0.167 HD
ATOM     36  C   UNL A   1      45.002  27.067  29.473  1.00  0.00     0.074 A 
ATOM     37  C   UNL A   1      44.472  25.967  30.278  1.00  0.00     0.031 C 
ATOM     38  C   UNL A   1      45.402  28.326  29.810  1.00  0.00     0.037 A 
BRANCH  25  39
ATOM     39  C   UNL A   1      43.540  26.994  34.744  1.00  0.00     0.064 A 
ATOM     40  C   UNL A   1      43.772  25.671  34.307  1.00  0.00     0.173 A 
ATOM     41  C   UNL A   1      43.837  27.241  36.101  1.00  0.00     0.173 A 
ATOM     42  F   UNL A   1      43.612  25.299  33.032  1.00  0.00    -0.203 F 
ATOM     43  C   UNL A   1      44.296  24.687  35.145  1.00  0.00     0.198 A 
ATOM     44  C   UNL A   1      44.409  26.265  36.923  1.00  0.00     0.198 A 
ATOM     45  F   UNL A   1      43.670  28.464  36.626  1.00  0.00    -0.203 F 
ATOM     46  F   UNL A   1      44.535  23.464  34.652  1.00  0.00    -0.200 F 
ATOM     47  C   UNL A   1      44.646  24.992  36.442  1.00  0.00     0.200 A 
ATOM     48  F   UNL A   1      44.797  26.587  38.165  1.00  0.00    -0.200 F 
ATOM     49  F   UNL A   1      45.255  24.076  37.205  1.00  0.00    -0.200 F 
ENDBRANCH  25  39
BRANCH  26  50
ATOM     50  C   UNL A   1      42.314  24.327  26.741  1.00  0.00     0.064 A 
ATOM     51  C   UNL A   1      41.314  23.478  27.254  1.00  0.00     0.173 A 
ATOM     52  C   UNL A   1      43.186  23.754  25.796  1.00  0.00     0.173 A 
ATOM     53  F   UNL A   1      40.481  23.901  28.215  1.00  0.00    -0.203 F 
ATOM     54  C   UNL A   1      41.210  22.139  26.871  1.00  0.00     0.198 A 
ATOM     55  C   UNL A   1      43.084  22.409  25.416  1.00  0.00     0.198 A 
ATOM     56  F   UNL A   1      44.199  24.473  25.290  1.00  0.00    -0.203 F 
ATOM     57  F   UNL A   1      40.281  21.356  27.440  1.00  0.00    -0.200 F 
ATOM     58  C   UNL A   1      42.103  21.599  25.965  1.00  0.00     0.200 A 
ATOM     59  F   UNL A   1      43.977  21.882  24.567  1.00  0.00    -0.200 F 
ATOM     60  F   UNL A   1      42.048  20.296  25.658  1.00  0.00    -0.200 F 
ENDBRANCH  26  50
BRANCH  38  61
ATOM     61  C   UNL A   1      45.715  29.292  28.702  1.00  0.00     0.064 A 
ATOM     62  C   UNL A   1      47.059  29.498  28.368  1.00  0.00     0.173 A 
ATOM     63  C   UNL A   1      44.762  30.136  28.103  1.00  0.00     0.173 A 
ATOM     64  F   UNL A   1      48.015  28.755  28.947  1.00  0.00    -0.203 F 
ATOM     65  C   UNL A   1      47.439  30.510  27.491  1.00  0.00     0.198 A 
ATOM     66  C   UNL A   1      45.143  31.126  27.198  1.00  0.00     0.198 A 
ATOM     67  F   UNL A   1      43.469  30.063  28.437  1.00  0.00    -0.203 F 
ATOM     68  F   UNL A   1      48.739  30.726  27.251  1.00  0.00    -0.200 F 
ATOM     69  C   UNL A   1      46.482  31.321  26.903  1.00  0.00     0.200 A 
ATOM     70  F   UNL A   1      44.218  31.926  26.645  1.00  0.00    -0.200 F 
ATOM     71  F   UNL A   1      46.854  32.310  26.080  1.00  0.00    -0.200 F 
ENDBRANCH  38  61
ENDBRANCH  12  13
ENDBRANCH   5   7
ENDBRANCH   2   3
ENDBRANCH   1   2
BRANCH   1  72
ATOM     72  C   UNL A   1      34.226  28.906  26.704  1.00  0.00     0.118 C 
BRANCH  72  73
ATOM     73  N   UNL A   1      33.097  28.542  27.548  1.00  0.00    -0.351 N 
ATOM     74  C   UNL A   1      31.922  27.888  27.237  1.00  0.00     0.272 C 
ATOM     75  H   UNL A   1      33.185  28.805  28.492  1.00  0.00     0.163 HD
ATOM     76  O   UNL A   1      31.025  27.890  28.080  1.00  0.00    -0.267 OA
BRANCH  74  77
ATOM     77  C   UNL A   1      31.740  27.257  25.920  1.00  0.00     0.155 A 
ATOM     78  N   UNL A   1      31.140  27.879  24.883  1.00  0.00    -0.167 NA
ATOM     79  C   UNL A   1      32.206  25.975  25.517  1.00  0.00     0.026 A 
ATOM     80  N   UNL A   1      31.113  26.968  23.886  1.00  0.00    -0.264 N 
ATOM     81  C   UNL A   1      31.698  25.794  24.247  1.00  0.00     0.046 A 
ATOM     82  C   UNL A   1      33.000  24.947  26.257  1.00  0.00     0.159 C 
ATOM     83  C   UNL A   1      31.823  24.540  23.461  1.00  0.00     0.078 C 
ATOM     84  N   UNL A   1      33.260  23.797  25.357  1.00  0.00    -0.337 N 
ATOM     85  C   UNL A   1      32.164  23.403  24.449  1.00  0.00     0.126 C 
BRANCH  80  86
ATOM     86  C   UNL A   1      30.608  27.350  22.572  1.00  0.00     0.180 C 
BRANCH  86  87
ATOM     87  C   UNL A   1      29.667  28.530  22.626  1.00  0.00    -0.026 A 
ATOM     88  C   UNL A   1      28.341  28.355  23.062  1.00  0.00     0.008 A 
ATOM     89  C   UNL A   1      30.097  29.815  22.258  1.00  0.00     0.008 A 
ATOM     90  C   UNL A   1      27.466  29.436  23.132  1.00  0.00     0.039 A 
ATOM     91  C   UNL A   1      29.219  30.899  22.336  1.00  0.00     0.039 A 
ATOM     92  C   UNL A   1      27.914  30.700  22.772  1.00  0.00     0.123 A 
ATOM     93  F   UNL A   1      27.076  31.742  22.849  1.00  0.00    -0.207 F 
ENDBRANCH  86  87
ENDBRANCH  80  86
BRANCH  84  94
ATOM     94  C   UNL A   1      34.487  23.147  25.452  1.00  0.00     0.232 C 
ATOM     95  O   UNL A   1      34.689  22.190  26.177  1.00  0.00    -0.274 OA
BRANCH  94  96
ATOM     96  C   UNL A   1      35.568  23.627  24.561  1.00  0.00     0.154 C 
ATOM     97  C   UNL A   1      37.021  23.595  25.007  1.00  0.00     0.097 C 
ATOM     98  C   UNL A   1      36.527  22.668  23.961  1.00  0.00     0.260 C 
ATOM     99  F   UNL A   1      36.530  21.320  24.224  1.00  0.00    -0.206 F 
ATOM    100  F   UNL A   1      36.967  22.835  22.666  1.00  0.00    -0.206 F 
ENDBRANCH  94  96
ENDBRANCH  84  94
ENDBRANCH  74  77
ENDBRANCH  72  73
ENDBRANCH   1  72
TORSDOF 14
ENDMDL
MODEL 2
REMARK VINA RESULT:     -14.3      1.249      4.489
REMARK SMILES O=C(NCCCNC(=O)c1nn(Cc2ccc(F)cc2)c2c1CN(C(=O)[C@H]1CC1(F)F)CC2)c1ccc(-c2c3nc(c(-c4c(F)c(F)c(F)c(F)c4F)c4ccc([nH]4)c(-c4c(F)c(F)c(F)c(F)c4F)c4nc(c(-c5c(F)c(F)c(F)c(F)c5F)c5ccc2[nH]5)C=C4)C=C3)cc1
REMARK SMILES IDX 5 1 4 2 3 3 1 4 2 5 34 7 35 8 96 9 36 10 95 11 37 12 38 13
REMARK SMILES IDX 39 14 89 15 40 16 94 17 88 18 90 19 41 20 93 21 87 22 86 23
REMARK SMILES IDX 42 25 74 26 54 27 73 28 55 29 58 30 72 31 91 32 56 33 57 34
REMARK SMILES IDX 71 36 92 37 59 38 43 39 44 40 52 41 45 42 46 43 50 44 53 45
REMARK SMILES IDX 47 46 48 47 51 48 49 49 75 50 76 51 84 52 77 53 78 54 82 55
REMARK SMILES IDX 85 56 79 57 80 58 83 59 81 60 60 61 61 62 69 63 62 64 63 65
REMARK SMILES IDX 67 66 70 67 64 68 65 69 68 70 66 71 6 72 7 73 8 74 9 76
REMARK SMILES IDX 10 77 11 78 22 79 12 80 21 81 23 82 33 83 24 84 32 85 13 86
REMARK SMILES IDX 14 87 15 88 20 89 16 90 19 91 17 92 18 93 25 94 26 95 27 96
REMARK SMILES IDX 28 97 29 98 30 99 31 100
REMARK H PARENT 3 6 90 24 58 35 7 75
REMARK Flexibility Score: inf
ROOT
ATOM      1  C   UNL A   1      35.096  29.981  27.340  1.00  0.00     0.042 C 
ENDROOT
BRANCH   1   2
ATOM      2  C   UNL A   1      34.474  31.348  27.625  1.00  0.00     0.118 C 
BRANCH   2   3
ATOM      3  N   UNL A   1      34.291  31.656  29.028  1.00  0.00    -0.352 N 
ATOM      4  O   UNL A   1      34.635  32.367  31.087  1.00  0.00    -0.269 OA
ATOM      5  C   UNL A   1      35.128  31.820  30.096  1.00  0.00     0.251 C 
ATOM      6  H   UNL A   1      33.343  31.773  29.269  1.00  0.00     0.163 HD
BRANCH   5   7
ATOM      7  C   UNL A   1      36.523  31.310  30.190  1.00  0.00     0.039 A 
ATOM      8  C   UNL A   1      37.689  32.046  29.975  1.00  0.00     0.014 A 
ATOM      9  C   UNL A   1      36.636  29.928  30.437  1.00  0.00     0.014 A 
ATOM     10  C   UNL A   1      38.922  31.398  29.888  1.00  0.00     0.010 A 
ATOM     11  C   UNL A   1      37.859  29.278  30.354  1.00  0.00     0.010 A 
ATOM     12  C   UNL A   1      38.996  30.008  30.025  1.00  0.00    -0.014 A 
BRANCH  12  13
ATOM     13  C   UNL A   1      40.301  29.349  29.979  1.00  0.00     0.031 A 
ATOM     14  C   UNL A   1      40.957  29.199  31.316  1.00  0.00     0.074 A 
ATOM     15  C   UNL A   1      40.771  28.761  28.856  1.00  0.00     0.049 A 
ATOM     16  N   UNL A   1      42.153  29.543  31.674  1.00  0.00    -0.248 NA
ATOM     17  C   UNL A   1      40.134  28.684  32.429  1.00  0.00     0.031 C 
ATOM     18  C   UNL A   1      40.090  28.609  27.567  1.00  0.00     0.029 A 
ATOM     19  N   UNL A   1      41.936  28.077  28.653  1.00  0.00    -0.354 N 
ATOM     20  C   UNL A   1      42.291  29.137  33.003  1.00  0.00     0.074 A 
ATOM     21  C   UNL A   1      40.985  28.742  33.452  1.00  0.00     0.031 C 
ATOM     22  C   UNL A   1      40.742  27.696  26.811  1.00  0.00     0.029 A 
ATOM     23  C   UNL A   1      41.954  27.293  27.500  1.00  0.00     0.049 A 
ATOM     24  H   UNL A   1      42.701  28.134  29.270  1.00  0.00     0.167 HD
ATOM     25  C   UNL A   1      43.516  28.949  33.567  1.00  0.00     0.037 A 
ATOM     26  C   UNL A   1      42.867  26.338  27.180  1.00  0.00     0.037 A 
ATOM     27  C   UNL A   1      44.527  29.701  32.875  1.00  0.00     0.049 A 
ATOM     28  C   UNL A   1      44.070  26.584  28.012  1.00  0.00     0.074 A 
ATOM     29  C   UNL A   1      44.753  31.046  32.656  1.00  0.00     0.029 A 
ATOM     30  N   UNL A   1      45.325  29.043  31.975  1.00  0.00    -0.354 N 
ATOM     31  N   UNL A   1      44.840  27.627  27.887  1.00  0.00    -0.248 NA
ATOM     32  C   UNL A   1      44.141  25.894  29.291  1.00  0.00     0.031 C 
ATOM     33  C   UNL A   1      45.261  31.120  31.326  1.00  0.00     0.029 A 
ATOM     34  C   UNL A   1      45.383  29.816  30.845  1.00  0.00     0.049 A 
ATOM     35  H   UNL A   1      45.773  28.178  32.115  1.00  0.00     0.167 HD
ATOM     36  C   UNL A   1      45.158  27.980  29.189  1.00  0.00     0.074 A 
ATOM     37  C   UNL A   1      44.744  26.843  30.009  1.00  0.00     0.031 C 
ATOM     38  C   UNL A   1      45.460  29.270  29.513  1.00  0.00     0.037 A 
BRANCH  25  39
ATOM     39  C   UNL A   1      43.851  27.804  34.498  1.00  0.00     0.064 A 
ATOM     40  C   UNL A   1      44.022  27.949  35.892  1.00  0.00     0.173 A 
ATOM     41  C   UNL A   1      43.685  26.478  34.046  1.00  0.00     0.173 A 
ATOM     42  F   UNL A   1      44.115  29.146  36.481  1.00  0.00    -0.203 F 
ATOM     43  C   UNL A   1      43.990  26.864  36.767  1.00  0.00     0.198 A 
ATOM     44  C   UNL A   1      43.603  25.399  34.932  1.00  0.00     0.198 A 
ATOM     45  F   UNL A   1      43.499  26.216  32.744  1.00  0.00    -0.203 F 
ATOM     46  F   UNL A   1      44.113  27.078  38.084  1.00  0.00    -0.200 F 
ATOM     47  C   UNL A   1      43.747  25.593  36.292  1.00  0.00     0.200 A 
ATOM     48  F   UNL A   1      43.311  24.176  34.465  1.00  0.00    -0.200 F 
ATOM     49  F   UNL A   1      43.602  24.574  37.147  1.00  0.00    -0.200 F 
ENDBRANCH  25  39
BRANCH  26  50
ATOM     50  C   UNL A   1      42.635  25.016  26.535  1.00  0.00     0.064 A 
ATOM     51  C   UNL A   1      41.922  23.996  27.194  1.00  0.00     0.173 A 
ATOM     52  C   UNL A   1      43.372  24.622  25.402  1.00  0.00     0.173 A 
ATOM     53  F   UNL A   1      41.251  24.248  28.326  1.00  0.00    -0.203 F 
ATOM     54  C   UNL A   1      41.966  22.666  26.768  1.00  0.00     0.198 A 
ATOM     55  C   UNL A   1      43.420  23.287  24.979  1.00  0.00     0.198 A 
ATOM     56  F   UNL A   1      44.121  25.516  24.739  1.00  0.00    -0.203 F 
ATOM     57  F   UNL A   1      41.323  21.723  27.472  1.00  0.00    -0.200 F 
ATOM     58  C   UNL A   1      42.727  22.308  25.672  1.00  0.00     0.200 A 
ATOM     59  F   UNL A   1      44.190  22.940  23.938  1.00  0.00    -0.200 F 
ATOM     60  F   UNL A   1      42.827  21.020  25.312  1.00  0.00    -0.200 F 
ENDBRANCH  26  50
BRANCH  38  61
ATOM     61  C   UNL A   1      45.661  30.255  28.395  1.00  0.00     0.064 A 
ATOM     62  C   UNL A   1      46.972  30.605  28.054  1.00  0.00     0.173 A 
ATOM     63  C   UNL A   1      44.619  30.983  27.794  1.00  0.00     0.173 A 
ATOM     64  F   UNL A   1      48.007  29.977  28.635  1.00  0.00    -0.203 F 
ATOM     65  C   UNL A   1      47.236  31.645  27.167  1.00  0.00     0.198 A 
ATOM     66  C   UNL A   1      44.885  32.001  26.879  1.00  0.00     0.198 A 
ATOM     67  F   UNL A   1      43.342  30.770  28.134  1.00  0.00    -0.203 F 
ATOM     68  F   UNL A   1      48.503  32.002  26.919  1.00  0.00    -0.200 F 
ATOM     69  C   UNL A   1      46.193  32.340  26.576  1.00  0.00     0.200 A 
ATOM     70  F   UNL A   1      43.875  32.689  26.323  1.00  0.00    -0.200 F 
ATOM     71  F   UNL A   1      46.451  33.357  25.744  1.00  0.00    -0.200 F 
ENDBRANCH  38  61
ENDBRANCH  12  13
ENDBRANCH   5   7
ENDBRANCH   2   3
ENDBRANCH   1   2
BRANCH   1  72
ATOM     72  C   UNL A   1      34.137  28.956  26.724  1.00  0.00     0.118 C 
BRANCH  72  73
ATOM     73  N   UNL A   1      33.034  28.620  27.612  1.00  0.00    -0.351 N 
ATOM     74  C   UNL A   1      31.898  27.871  27.382  1.00  0.00     0.272 C 
ATOM     75  H   UNL A   1      33.110  28.985  28.523  1.00  0.00     0.163 HD
ATOM     76  O   UNL A   1      31.005  27.910  28.229  1.00  0.00    -0.267 OA
BRANCH  74  77
ATOM     77  C   UNL A   1      31.748  27.095  26.141  1.00  0.00     0.155 A 
ATOM     78  N   UNL A   1      31.870  25.752  26.094  1.00  0.00    -0.167 NA
ATOM     79  C   UNL A   1      31.398  27.599  24.857  1.00  0.00     0.026 A 
ATOM     80  N   UNL A   1      31.725  25.424  24.792  1.00  0.00    -0.264 N 
ATOM     81  C   UNL A   1      31.492  26.514  24.011  1.00  0.00     0.046 A 
ATOM     82  C   UNL A   1      31.068  28.987  24.409  1.00  0.00     0.159 C 
ATOM     83  C   UNL A   1      31.331  26.580  22.536  1.00  0.00     0.078 C 
ATOM     84  N   UNL A   1      30.728  28.959  22.966  1.00  0.00    -0.337 N 
ATOM     85  C   UNL A   1      31.522  28.053  22.112  1.00  0.00     0.126 C 
BRANCH  80  86
ATOM     86  C   UNL A   1      31.708  24.019  24.397  1.00  0.00     0.180 C 
BRANCH  86  87
ATOM     87  C   UNL A   1      33.091  23.422  24.298  1.00  0.00    -0.026 A 
ATOM     88  C   UNL A   1      33.401  22.241  24.999  1.00  0.00     0.008 A 
ATOM     89  C   UNL A   1      34.082  24.019  23.503  1.00  0.00     0.008 A 
ATOM     90  C   UNL A   1      34.668  21.670  24.905  1.00  0.00     0.039 A 
ATOM     91  C   UNL A   1      35.349  23.440  23.405  1.00  0.00     0.039 A 
ATOM     92  C   UNL A   1      35.630  22.272  24.106  1.00  0.00     0.123 A 
ATOM     93  F   UNL A   1      36.845  21.718  24.007  1.00  0.00    -0.207 F 
ENDBRANCH  86  87
ENDBRANCH  80  86
BRANCH  84  94
ATOM     94  C   UNL A   1      29.723  29.807  22.508  1.00  0.00     0.232 C 
ATOM     95  O   UNL A   1      29.381  29.878  21.341  1.00  0.00    -0.274 OA
BRANCH  94  96
ATOM     96  C   UNL A   1      29.005  30.605  23.527  1.00  0.00     0.154 C 
ATOM     97  C   UNL A   1      29.177  32.113  23.604  1.00  0.00     0.097 C 
ATOM     98  C   UNL A   1      27.906  31.517  23.128  1.00  0.00     0.260 C 
ATOM     99  F   UNL A   1      27.524  31.737  21.827  1.00  0.00    -0.206 F 
ATOM    100  F   UNL A   1      26.781  31.643  23.914  1.00  0.00    -0.206 F 
ENDBRANCH  94  96
ENDBRANCH  84  94
ENDBRANCH  74  77
ENDBRANCH  72  73
ENDBRANCH   1  72
TORSDOF 14
ENDMDL
MODEL 3
REMARK VINA RESULT:     -14.2      1.083      4.435
REMARK SMILES O=C(NCCCNC(=O)c1nn(Cc2ccc(F)cc2)c2c1CN(C(=O)[C@H]1CC1(F)F)CC2)c1ccc(-c2c3nc(c(-c4c(F)c(F)c(F)c(F)c4F)c4ccc([nH]4)c(-c4c(F)c(F)c(F)c(F)c4F)c4nc(c(-c5c(F)c(F)c(F)c(F)c5F)c5ccc2[nH]5)C=C4)C=C3)cc1
REMARK SMILES IDX 5 1 4 2 3 3 1 4 2 5 34 7 35 8 96 9 36 10 95 11 37 12 38 13
REMARK SMILES IDX 39 14 89 15 40 16 94 17 88 18 90 19 41 20 93 21 87 22 86 23
REMARK SMILES IDX 42 25 74 26 54 27 73 28 55 29 58 30 72 31 91 32 56 33 57 34
REMARK SMILES IDX 71 36 92 37 59 38 43 39 44 40 52 41 45 42 46 43 50 44 53 45
REMARK SMILES IDX 47 46 48 47 51 48 49 49 75 50 76 51 84 52 77 53 78 54 82 55
REMARK SMILES IDX 85 56 79 57 80 58 83 59 81 60 60 61 61 62 69 63 62 64 63 65
REMARK SMILES IDX 67 66 70 67 64 68 65 69 68 70 66 71 6 72 7 73 8 74 9 76
REMARK SMILES IDX 10 77 11 78 22 79 12 80 21 81 23 82 33 83 24 84 32 85 13 86
REMARK SMILES IDX 14 87 15 88 20 89 16 90 19 91 17 92 18 93 25 94 26 95 27 96
REMARK SMILES IDX 28 97 29 98 30 99 31 100
REMARK H PARENT 3 6 90 24 58 35 7 75
REMARK Flexibility Score: inf
ROOT
ATOM      1  C   UNL A   1      35.244  29.815  27.427  1.00  0.00     0.042 C 
ENDROOT
BRANCH   1   2
ATOM      2  C   UNL A   1      34.808  31.254  27.703  1.00  0.00     0.118 C 
BRANCH   2   3
ATOM      3  N   UNL A   1      34.590  31.569  29.100  1.00  0.00    -0.352 N 
ATOM      4  O   UNL A   1      34.906  32.229  31.180  1.00  0.00    -0.269 OA
ATOM      5  C   UNL A   1      35.388  31.641  30.207  1.00  0.00     0.251 C 
ATOM      6  H   UNL A   1      33.649  31.780  29.297  1.00  0.00     0.163 HD
BRANCH   5   7
ATOM      7  C   UNL A   1      36.718  30.993  30.360  1.00  0.00     0.039 A 
ATOM      8  C   UNL A   1      37.961  31.607  30.198  1.00  0.00     0.014 A 
ATOM      9  C   UNL A   1      36.680  29.607  30.608  1.00  0.00     0.014 A 
ATOM     10  C   UNL A   1      39.125  30.837  30.162  1.00  0.00     0.010 A 
ATOM     11  C   UNL A   1      37.833  28.837  30.577  1.00  0.00     0.010 A 
ATOM     12  C   UNL A   1      39.051  29.447  30.300  1.00  0.00    -0.014 A 
BRANCH  12  13
ATOM     13  C   UNL A   1      40.284  28.659  30.309  1.00  0.00     0.031 A 
ATOM     14  C   UNL A   1      40.836  28.405  31.677  1.00  0.00     0.074 A 
ATOM     15  C   UNL A   1      40.762  28.057  29.197  1.00  0.00     0.049 A 
ATOM     16  N   UNL A   1      42.036  28.615  32.117  1.00  0.00    -0.248 NA
ATOM     17  C   UNL A   1      39.897  27.947  32.720  1.00  0.00     0.031 C 
ATOM     18  C   UNL A   1      40.151  28.013  27.864  1.00  0.00     0.029 A 
ATOM     19  N   UNL A   1      41.863  27.264  29.040  1.00  0.00    -0.354 N 
ATOM     20  C   UNL A   1      42.049  28.159  33.437  1.00  0.00     0.074 A 
ATOM     21  C   UNL A   1      40.684  27.887  33.794  1.00  0.00     0.031 C 
ATOM     22  C   UNL A   1      40.754  27.059  27.118  1.00  0.00     0.029 A 
ATOM     23  C   UNL A   1      41.874  26.515  27.864  1.00  0.00     0.049 A 
ATOM     24  H   UNL A   1      42.589  27.224  29.703  1.00  0.00     0.167 HD
ATOM     25  C   UNL A   1      43.211  27.831  34.066  1.00  0.00     0.037 A 
ATOM     26  C   UNL A   1      42.704  25.480  27.566  1.00  0.00     0.037 A 
ATOM     27  C   UNL A   1      44.334  28.495  33.462  1.00  0.00     0.049 A 
ATOM     28  C   UNL A   1      43.872  25.578  28.476  1.00  0.00     0.074 A 
ATOM     29  C   UNL A   1      44.708  29.815  33.302  1.00  0.00     0.029 A 
ATOM     30  N   UNL A   1      45.117  27.784  32.589  1.00  0.00    -0.354 N 
ATOM     31  N   UNL A   1      44.749  26.540  28.434  1.00  0.00    -0.248 NA
ATOM     32  C   UNL A   1      43.792  24.849  29.732  1.00  0.00     0.031 C 
ATOM     33  C   UNL A   1      45.303  29.873  32.009  1.00  0.00     0.029 A 
ATOM     34  C   UNL A   1      45.323  28.577  31.491  1.00  0.00     0.049 A 
ATOM     35  H   UNL A   1      45.465  26.873  32.725  1.00  0.00     0.167 HD
ATOM     36  C   UNL A   1      45.019  26.822  29.762  1.00  0.00     0.074 A 
ATOM     37  C   UNL A   1      44.441  25.711  30.517  1.00  0.00     0.031 C 
ATOM     38  C   UNL A   1      45.428  28.064  30.148  1.00  0.00     0.037 A 
BRANCH  25  39
ATOM     39  C   UNL A   1      43.370  26.632  34.975  1.00  0.00     0.064 A 
ATOM     40  C   UNL A   1      43.600  25.318  34.510  1.00  0.00     0.173 A 
ATOM     41  C   UNL A   1      43.618  26.836  36.349  1.00  0.00     0.173 A 
ATOM     42  F   UNL A   1      43.484  24.985  33.219  1.00  0.00    -0.203 F 
ATOM     43  C   UNL A   1      44.076  24.303  35.339  1.00  0.00     0.198 A 
ATOM     44  C   UNL A   1      44.143  25.829  37.164  1.00  0.00     0.198 A 
ATOM     45  F   UNL A   1      43.449  28.046  36.902  1.00  0.00    -0.203 F 
ATOM     46  F   UNL A   1      44.317  23.090  34.821  1.00  0.00    -0.200 F 
ATOM     47  C   UNL A   1      44.381  24.566  36.657  1.00  0.00     0.200 A 
ATOM     48  F   UNL A   1      44.487  26.109  38.429  1.00  0.00    -0.200 F 
ATOM     49  F   UNL A   1      44.946  23.620  37.416  1.00  0.00    -0.200 F 
ENDBRANCH  25  39
BRANCH  26  50
ATOM     50  C   UNL A   1      42.381  24.208  26.863  1.00  0.00     0.064 A 
ATOM     51  C   UNL A   1      41.348  23.364  27.316  1.00  0.00     0.173 A 
ATOM     52  C   UNL A   1      43.276  23.644  25.934  1.00  0.00     0.173 A 
ATOM     53  F   UNL A   1      40.488  23.776  28.258  1.00  0.00    -0.203 F 
ATOM     54  C   UNL A   1      41.234  22.038  26.893  1.00  0.00     0.198 A 
ATOM     55  C   UNL A   1      43.164  22.313  25.514  1.00  0.00     0.198 A 
ATOM     56  F   UNL A   1      44.320  24.358  25.484  1.00  0.00    -0.203 F 
ATOM     57  F   UNL A   1      40.272  21.258  27.407  1.00  0.00    -0.200 F 
ATOM     58  C   UNL A   1      42.150  21.507  26.004  1.00  0.00     0.200 A 
ATOM     59  F   UNL A   1      44.077  21.792  24.682  1.00  0.00    -0.200 F 
ATOM     60  F   UNL A   1      42.082  20.213  25.659  1.00  0.00    -0.200 F 
ENDBRANCH  26  50
BRANCH  38  61
ATOM     61  C   UNL A   1      45.796  29.054  29.079  1.00  0.00     0.064 A 
ATOM     62  C   UNL A   1      44.778  29.850  28.541  1.00  0.00     0.173 A 
ATOM     63  C   UNL A   1      47.057  29.106  28.457  1.00  0.00     0.173 A 
ATOM     64  F   UNL A   1      43.543  29.803  29.063  1.00  0.00    -0.203 F 
ATOM     65  C   UNL A   1      45.000  30.649  27.423  1.00  0.00     0.198 A 
ATOM     66  C   UNL A   1      47.286  29.934  27.359  1.00  0.00     0.198 A 
ATOM     67  F   UNL A   1      48.056  28.310  28.855  1.00  0.00    -0.203 F 
ATOM     68  F   UNL A   1      43.985  31.341  26.889  1.00  0.00    -0.200 F 
ATOM     69  C   UNL A   1      46.254  30.694  26.834  1.00  0.00     0.200 A 
ATOM     70  F   UNL A   1      48.494  29.962  26.775  1.00  0.00    -0.200 F 
ATOM     71  F   UNL A   1      46.456  31.444  25.743  1.00  0.00    -0.200 F 
ENDBRANCH  38  61
ENDBRANCH  12  13
ENDBRANCH   5   7
ENDBRANCH   2   3
ENDBRANCH   1   2
BRANCH   1  72
ATOM     72  C   UNL A   1      34.184  28.944  26.745  1.00  0.00     0.118 C 
BRANCH  72  73
ATOM     73  N   UNL A   1      33.073  28.621  27.628  1.00  0.00    -0.351 N 
ATOM     74  C   UNL A   1      31.931  27.881  27.396  1.00  0.00     0.272 C 
ATOM     75  H   UNL A   1      33.147  28.991  28.538  1.00  0.00     0.163 HD
ATOM     76  O   UNL A   1      31.034  27.933  28.238  1.00  0.00    -0.267 OA
BRANCH  74  77
ATOM     77  C   UNL A   1      31.781  27.101  26.157  1.00  0.00     0.155 A 
ATOM     78  N   UNL A   1      31.905  25.758  26.116  1.00  0.00    -0.167 NA
ATOM     79  C   UNL A   1      31.428  27.600  24.873  1.00  0.00     0.026 A 
ATOM     80  N   UNL A   1      31.759  25.425  24.815  1.00  0.00    -0.264 N 
ATOM     81  C   UNL A   1      31.523  26.511  24.030  1.00  0.00     0.046 A 
ATOM     82  C   UNL A   1      31.096  28.984  24.419  1.00  0.00     0.159 C 
ATOM     83  C   UNL A   1      31.361  26.571  22.555  1.00  0.00     0.078 C 
ATOM     84  N   UNL A   1      30.754  28.951  22.977  1.00  0.00    -0.337 N 
ATOM     85  C   UNL A   1      31.548  28.043  22.126  1.00  0.00     0.126 C 
BRANCH  80  86
ATOM     86  C   UNL A   1      31.744  24.018  24.426  1.00  0.00     0.180 C 
BRANCH  86  87
ATOM     87  C   UNL A   1      33.129  23.428  24.307  1.00  0.00    -0.026 A 
ATOM     88  C   UNL A   1      33.372  22.109  24.732  1.00  0.00     0.008 A 
ATOM     89  C   UNL A   1      34.188  24.173  23.764  1.00  0.00     0.008 A 
ATOM     90  C   UNL A   1      34.640  21.546  24.614  1.00  0.00     0.039 A 
ATOM     91  C   UNL A   1      35.457  23.603  23.641  1.00  0.00     0.039 A 
ATOM     92  C   UNL A   1      35.671  22.297  24.066  1.00  0.00     0.123 A 
ATOM     93  F   UNL A   1      36.889  21.753  23.943  1.00  0.00    -0.207 F 
ENDBRANCH  86  87
ENDBRANCH  80  86
BRANCH  84  94
ATOM     94  C   UNL A   1      29.747  29.795  22.517  1.00  0.00     0.232 C 
ATOM     95  O   UNL A   1      29.421  29.880  21.347  1.00  0.00    -0.274 OA
BRANCH  94  96
ATOM     96  C   UNL A   1      29.006  30.571  23.537  1.00  0.00     0.154 C 
ATOM     97  C   UNL A   1      29.247  32.061  23.715  1.00  0.00     0.097 C 
ATOM     98  C   UNL A   1      27.981  31.560  23.129  1.00  0.00     0.260 C 
ATOM     99  F   UNL A   1      27.692  31.873  21.823  1.00  0.00    -0.206 F 
ATOM    100  F   UNL A   1      26.816  31.700  23.851  1.00  0.00    -0.206 F 
ENDBRANCH  94  96
ENDBRANCH  84  94
ENDBRANCH  74  77
ENDBRANCH  72  73
ENDBRANCH   1  72
TORSDOF 14
ENDMDL
