MODEL 1
REMARK VINA RESULT:     -12.1      0.000      0.000
REMARK SMILES CCC(CC)(NC(=O)NCc1ccccc1F)C(=O)NCCCNC(=O)c1ccc(-c2c3nc(c(-c4c(F)c(F)c(F)c(F)c4F)c4ccc([nH]4)c(-c4c(F)c(F)c(F)c(F)c4F)c4nc(c(-c5c(F)c(F)c(F)c(F)c5F)c5ccc2[nH]5)C=C4)C=C3)cc1
REMARK SMILES IDX 21 1 20 2 18 3 19 4 3 6 2 7 1 8 4 9 5 10 6 11 7 12 8 14 9 15
REMARK SMILES IDX 10 17 11 18 12 19 16 20 13 21 15 22 17 23 14 24 22 25 23 26
REMARK SMILES IDX 24 27 25 28 26 30 27 31 28 32 89 33 29 34 88 35 30 36 31 37
REMARK SMILES IDX 32 38 82 39 33 40 87 41 81 42 83 43 34 44 86 45 80 46 79 47
REMARK SMILES IDX 35 49 67 50 47 51 66 52 48 53 51 54 65 55 84 56 49 57 50 58
REMARK SMILES IDX 64 60 85 61 52 62 36 63 37 64 45 65 38 66 39 67 43 68 46 69
REMARK SMILES IDX 40 70 41 71 44 72 42 73 68 74 69 75 77 76 70 77 71 78 75 79
REMARK SMILES IDX 78 80 72 81 73 82 76 83 74 84 53 85 54 86 62 87 55 88 56 89
REMARK SMILES IDX 60 90 63 91 57 92 58 93 61 94 59 95
REMARK H PARENT 20 5 6 13 9 16 24 29 83 48 51 59
REMARK Flexibility Score: inf
ROOT
ATOM      1  C   UNL A   1      31.775  29.980  25.782  1.00  0.00     0.117 C 
ENDROOT
BRANCH   1   2
ATOM      2  N   UNL A   1      32.967  29.721  24.974  1.00  0.00    -0.354 N 
ATOM      3  C   UNL A   1      33.145  28.946  23.841  1.00  0.00     0.245 C 
ATOM      4  O   UNL A   1      33.983  29.319  23.014  1.00  0.00    -0.272 OA
ATOM      5  H   UNL A   1      33.780  30.175  25.290  1.00  0.00     0.163 HD
BRANCH   3   6
ATOM      6  C   UNL A   1      32.199  27.772  23.509  1.00  0.00     0.120 C 
BRANCH   6   7
ATOM      7  C   UNL A   1      30.679  28.054  23.351  1.00  0.00     0.035 C 
ATOM      8  C   UNL A   1      30.230  29.152  22.400  1.00  0.00     0.007 C 
ENDBRANCH   6   7
BRANCH   6   9
ATOM      9  C   UNL A   1      32.435  26.841  24.756  1.00  0.00     0.035 C 
ATOM     10  C   UNL A   1      33.786  26.184  24.944  1.00  0.00     0.007 C 
ENDBRANCH   6   9
BRANCH   6  11
ATOM     11  N   UNL A   1      32.648  27.226  22.216  1.00  0.00    -0.324 N 
ATOM     12  C   UNL A   1      32.499  26.043  21.597  1.00  0.00     0.315 C 
ATOM     13  H   UNL A   1      33.171  27.873  21.688  1.00  0.00     0.166 HD
ATOM     14  O   UNL A   1      33.183  25.877  20.580  1.00  0.00    -0.249 OA
ATOM     15  N   UNL A   1      31.636  25.063  21.893  1.00  0.00    -0.334 N 
ATOM     16  H   UNL A   1      31.518  24.478  21.111  1.00  0.00     0.165 HD
BRANCH  15  17
ATOM     17  C   UNL A   1      30.806  24.574  23.005  1.00  0.00     0.156 C 
BRANCH  17  18
ATOM     18  C   UNL A   1      31.347  23.374  23.763  1.00  0.00     0.007 A 
ATOM     19  C   UNL A   1      32.030  22.355  23.080  1.00  0.00     0.008 A 
ATOM     20  C   UNL A   1      31.186  23.201  25.138  1.00  0.00     0.128 A 
ATOM     21  C   UNL A   1      32.721  21.346  23.761  1.00  0.00     0.001 A 
ATOM     22  C   UNL A   1      31.824  22.162  25.827  1.00  0.00     0.039 A 
ATOM     23  F   UNL A   1      30.453  24.076  25.843  1.00  0.00    -0.207 F 
ATOM     24  C   UNL A   1      32.642  21.266  25.144  1.00  0.00     0.003 A 
ENDBRANCH  17  18
ENDBRANCH  15  17
ENDBRANCH   6  11
ENDBRANCH   3   6
ENDBRANCH   1   2
BRANCH   1  25
ATOM     25  C   UNL A   1      31.531  31.368  26.379  1.00  0.00     0.042 C 
BRANCH  25  26
ATOM     26  C   UNL A   1      32.704  32.163  26.918  1.00  0.00     0.118 C 
BRANCH  26  27
ATOM     27  N   UNL A   1      32.367  33.495  27.376  1.00  0.00    -0.352 N 
ATOM     28  C   UNL A   1      33.007  34.303  28.282  1.00  0.00     0.251 C 
ATOM     29  H   UNL A   1      31.552  33.879  26.977  1.00  0.00     0.163 HD
ATOM     30  O   UNL A   1      32.538  35.407  28.541  1.00  0.00    -0.269 OA
BRANCH  28  31
ATOM     31  C   UNL A   1      34.237  33.857  28.980  1.00  0.00     0.039 A 
ATOM     32  C   UNL A   1      34.094  32.912  30.001  1.00  0.00     0.014 A 
ATOM     33  C   UNL A   1      35.503  34.376  28.689  1.00  0.00     0.014 A 
ATOM     34  C   UNL A   1      35.220  32.444  30.683  1.00  0.00     0.010 A 
ATOM     35  C   UNL A   1      36.635  33.879  29.346  1.00  0.00     0.010 A 
ATOM     36  C   UNL A   1      36.505  32.897  30.338  1.00  0.00    -0.014 A 
BRANCH  36  37
ATOM     37  C   UNL A   1      37.701  32.259  30.949  1.00  0.00     0.031 A 
ATOM     38  C   UNL A   1      38.181  32.629  32.322  1.00  0.00     0.074 A 
ATOM     39  C   UNL A   1      38.365  31.327  30.237  1.00  0.00     0.049 A 
ATOM     40  N   UNL A   1      39.154  32.102  33.023  1.00  0.00    -0.248 NA
ATOM     41  C   UNL A   1      37.492  33.740  32.993  1.00  0.00     0.031 C 
ATOM     42  C   UNL A   1      38.032  30.925  28.869  1.00  0.00     0.029 A 
ATOM     43  N   UNL A   1      39.443  30.542  30.561  1.00  0.00    -0.354 N 
ATOM     44  C   UNL A   1      39.188  32.806  34.218  1.00  0.00     0.074 A 
ATOM     45  C   UNL A   1      38.171  33.833  34.129  1.00  0.00     0.031 C 
ATOM     46  C   UNL A   1      38.855  29.938  28.489  1.00  0.00     0.029 A 
ATOM     47  C   UNL A   1      39.795  29.657  29.572  1.00  0.00     0.049 A 
ATOM     48  H   UNL A   1      39.918  30.607  31.421  1.00  0.00     0.167 HD
ATOM     49  C   UNL A   1      39.981  32.597  35.298  1.00  0.00     0.037 A 
ATOM     50  C   UNL A   1      40.756  28.717  29.539  1.00  0.00     0.037 A 
ATOM     51  C   UNL A   1      40.994  31.572  35.382  1.00  0.00     0.049 A 
ATOM     52  C   UNL A   1      41.623  28.509  30.749  1.00  0.00     0.074 A 
ATOM     53  C   UNL A   1      41.811  31.254  36.454  1.00  0.00     0.029 A 
ATOM     54  N   UNL A   1      41.337  30.708  34.352  1.00  0.00    -0.354 N 
ATOM     55  N   UNL A   1      41.592  29.127  31.904  1.00  0.00    -0.248 NA
ATOM     56  C   UNL A   1      42.652  27.464  30.654  1.00  0.00     0.031 C 
ATOM     57  C   UNL A   1      42.684  30.236  36.055  1.00  0.00     0.029 A 
ATOM     58  C   UNL A   1      42.372  29.876  34.755  1.00  0.00     0.049 A 
ATOM     59  H   UNL A   1      40.910  30.688  33.465  1.00  0.00     0.167 HD
ATOM     60  C   UNL A   1      42.585  28.541  32.677  1.00  0.00     0.074 A 
ATOM     61  C   UNL A   1      43.180  27.496  31.870  1.00  0.00     0.031 C 
ATOM     62  C   UNL A   1      42.971  28.849  33.940  1.00  0.00     0.037 A 
BRANCH  49  63
ATOM     63  C   UNL A   1      39.784  33.480  36.498  1.00  0.00     0.064 A 
ATOM     64  C   UNL A   1      38.872  33.128  37.504  1.00  0.00     0.173 A 
ATOM     65  C   UNL A   1      40.431  34.720  36.606  1.00  0.00     0.173 A 
ATOM     66  F   UNL A   1      38.219  31.958  37.446  1.00  0.00    -0.203 F 
ATOM     67  C   UNL A   1      38.604  33.991  38.565  1.00  0.00     0.198 A 
ATOM     68  C   UNL A   1      40.182  35.568  37.683  1.00  0.00     0.198 A 
ATOM     69  F   UNL A   1      41.316  35.105  35.674  1.00  0.00    -0.203 F 
ATOM     70  F   UNL A   1      37.701  33.648  39.494  1.00  0.00    -0.200 F 
ATOM     71  C   UNL A   1      39.262  35.208  38.655  1.00  0.00     0.200 A 
ATOM     72  F   UNL A   1      40.834  36.736  37.778  1.00  0.00    -0.200 F 
ATOM     73  F   UNL A   1      39.007  36.034  39.679  1.00  0.00    -0.200 F 
ENDBRANCH  49  63
BRANCH  50  74
ATOM     74  C   UNL A   1      40.911  27.869  28.328  1.00  0.00     0.064 A 
ATOM     75  C   UNL A   1      40.275  26.623  28.223  1.00  0.00     0.173 A 
ATOM     76  C   UNL A   1      41.730  28.276  27.265  1.00  0.00     0.173 A 
ATOM     77  F   UNL A   1      39.486  26.187  29.215  1.00  0.00    -0.203 F 
ATOM     78  C   UNL A   1      40.469  25.809  27.110  1.00  0.00     0.198 A 
ATOM     79  C   UNL A   1      41.899  27.473  26.139  1.00  0.00     0.198 A 
ATOM     80  F   UNL A   1      42.343  29.468  27.311  1.00  0.00    -0.203 F 
ATOM     81  F   UNL A   1      39.880  24.606  27.052  1.00  0.00    -0.200 F 
ATOM     82  C   UNL A   1      41.276  26.236  26.066  1.00  0.00     0.200 A 
ATOM     83  F   UNL A   1      42.660  27.901  25.123  1.00  0.00    -0.200 F 
ATOM     84  F   UNL A   1      41.453  25.457  24.991  1.00  0.00    -0.200 F 
ENDBRANCH  50  74
BRANCH  62  85
ATOM     85  C   UNL A   1      44.094  28.044  34.531  1.00  0.00     0.064 A 
ATOM     86  C   UNL A   1      43.834  26.844  35.211  1.00  0.00     0.173 A 
ATOM     87  C   UNL A   1      45.427  28.478  34.457  1.00  0.00     0.173 A 
ATOM     88  F   UNL A   1      42.578  26.386  35.320  1.00  0.00    -0.203 F 
ATOM     89  C   UNL A   1      44.865  26.112  35.796  1.00  0.00     0.198 A 
ATOM     90  C   UNL A   1      46.459  27.725  35.012  1.00  0.00     0.198 A 
ATOM     91  F   UNL A   1      45.732  29.611  33.806  1.00  0.00    -0.203 F 
ATOM     92  F   UNL A   1      44.588  24.983  36.463  1.00  0.00    -0.200 F 
ATOM     93  C   UNL A   1      46.176  26.549  35.688  1.00  0.00     0.200 A 
ATOM     94  F   UNL A   1      47.729  28.133  34.880  1.00  0.00    -0.200 F 
ATOM     95  F   UNL A   1      47.170  25.829  36.229  1.00  0.00    -0.200 F 
ENDBRANCH  62  85
ENDBRANCH  36  37
ENDBRANCH  28  31
ENDBRANCH  26  27
ENDBRANCH  25  26
ENDBRANCH   1  25
TORSDOF 15
ENDMDL
MODEL 2
REMARK VINA RESULT:     -11.9      5.386     10.783
REMARK SMILES CCC(CC)(NC(=O)NCc1ccccc1F)C(=O)NCCCNC(=O)c1ccc(-c2c3nc(c(-c4c(F)c(F)c(F)c(F)c4F)c4ccc([nH]4)c(-c4c(F)c(F)c(F)c(F)c4F)c4nc(c(-c5c(F)c(F)c(F)c(F)c5F)c5ccc2[nH]5)C=C4)C=C3)cc1
REMARK SMILES IDX 21 1 20 2 18 3 19 4 3 6 2 7 1 8 4 9 5 10 6 11 7 12 8 14 9 15
REMARK SMILES IDX 10 17 11 18 12 19 16 20 13 21 15 22 17 23 14 24 22 25 23 26
REMARK SMILES IDX 24 27 25 28 26 30 27 31 28 32 89 33 29 34 88 35 30 36 31 37
REMARK SMILES IDX 32 38 82 39 33 40 87 41 81 42 83 43 34 44 86 45 80 46 79 47
REMARK SMILES IDX 35 49 67 50 47 51 66 52 48 53 51 54 65 55 84 56 49 57 50 58
REMARK SMILES IDX 64 60 85 61 52 62 36 63 37 64 45 65 38 66 39 67 43 68 46 69
REMARK SMILES IDX 40 70 41 71 44 72 42 73 68 74 69 75 77 76 70 77 71 78 75 79
REMARK SMILES IDX 78 80 72 81 73 82 76 83 74 84 53 85 54 86 62 87 55 88 56 89
REMARK SMILES IDX 60 90 63 91 57 92 58 93 61 94 59 95
REMARK H PARENT 20 5 6 13 9 16 24 29 83 48 51 59
REMARK Flexibility Score: inf
ROOT
ATOM      1  C   UNL A   1      36.413  20.971  24.853  1.00  0.00     0.117 C 
ENDROOT
BRANCH   1   2
ATOM      2  N   UNL A   1      35.945  21.467  26.148  1.00  0.00    -0.354 N 
ATOM      3  C   UNL A   1      34.674  21.791  26.591  1.00  0.00     0.245 C 
ATOM      4  O   UNL A   1      34.414  21.601  27.784  1.00  0.00    -0.272 OA
ATOM      5  H   UNL A   1      36.655  21.592  26.818  1.00  0.00     0.163 HD
BRANCH   3   6
ATOM      6  C   UNL A   1      33.552  22.183  25.606  1.00  0.00     0.120 C 
BRANCH   6   7
ATOM      7  C   UNL A   1      33.089  21.147  24.543  1.00  0.00     0.035 C 
ATOM      8  C   UNL A   1      32.655  19.765  25.005  1.00  0.00     0.007 C 
ENDBRANCH   6   7
BRANCH   6   9
ATOM      9  C   UNL A   1      34.208  23.419  24.886  1.00  0.00     0.035 C 
ATOM     10  C   UNL A   1      34.429  24.698  25.667  1.00  0.00     0.007 C 
ENDBRANCH   6   9
BRANCH   6  11
ATOM     11  N   UNL A   1      32.363  22.482  26.425  1.00  0.00    -0.324 N 
ATOM     12  C   UNL A   1      31.195  23.101  26.187  1.00  0.00     0.315 C 
ATOM     13  H   UNL A   1      32.443  22.155  27.351  1.00  0.00     0.166 HD
ATOM     14  O   UNL A   1      30.497  23.336  27.182  1.00  0.00    -0.249 OA
ATOM     15  N   UNL A   1      30.654  23.410  25.001  1.00  0.00    -0.334 N 
ATOM     16  H   UNL A   1      29.686  23.551  25.107  1.00  0.00     0.165 HD
BRANCH  15  17
ATOM     17  C   UNL A   1      31.033  23.608  23.594  1.00  0.00     0.156 C 
BRANCH  17  18
ATOM     18  C   UNL A   1      31.594  24.974  23.240  1.00  0.00     0.007 A 
ATOM     19  C   UNL A   1      31.169  26.116  23.938  1.00  0.00     0.008 A 
ATOM     20  C   UNL A   1      32.521  25.179  22.217  1.00  0.00     0.128 A 
ATOM     21  C   UNL A   1      31.809  27.352  23.788  1.00  0.00     0.001 A 
ATOM     22  C   UNL A   1      33.128  26.426  22.016  1.00  0.00     0.039 A 
ATOM     23  F   UNL A   1      32.895  24.155  21.434  1.00  0.00    -0.207 F 
ATOM     24  C   UNL A   1      32.814  27.500  22.843  1.00  0.00     0.003 A 
ENDBRANCH  17  18
ENDBRANCH  15  17
ENDBRANCH   6  11
ENDBRANCH   3   6
ENDBRANCH   1   2
BRANCH   1  25
ATOM     25  C   UNL A   1      37.698  20.145  24.759  1.00  0.00     0.042 C 
BRANCH  25  26
ATOM     26  C   UNL A   1      38.811  20.383  25.760  1.00  0.00     0.118 C 
BRANCH  26  27
ATOM     27  N   UNL A   1      39.851  19.375  25.753  1.00  0.00    -0.352 N 
ATOM     28  C   UNL A   1      41.187  19.486  26.049  1.00  0.00     0.251 C 
ATOM     29  H   UNL A   1      39.554  18.473  25.494  1.00  0.00     0.163 HD
ATOM     30  O   UNL A   1      41.905  18.495  25.965  1.00  0.00    -0.269 OA
BRANCH  28  31
ATOM     31  C   UNL A   1      41.786  20.784  26.437  1.00  0.00     0.039 A 
ATOM     32  C   UNL A   1      42.056  21.703  25.418  1.00  0.00     0.014 A 
ATOM     33  C   UNL A   1      42.128  21.096  27.758  1.00  0.00     0.014 A 
ATOM     34  C   UNL A   1      42.606  22.949  25.726  1.00  0.00     0.010 A 
ATOM     35  C   UNL A   1      42.644  22.359  28.071  1.00  0.00     0.010 A 
ATOM     36  C   UNL A   1      42.873  23.303  27.061  1.00  0.00    -0.014 A 
BRANCH  36  37
ATOM     37  C   UNL A   1      43.290  24.692  27.386  1.00  0.00     0.031 A 
ATOM     38  C   UNL A   1      44.683  25.183  27.122  1.00  0.00     0.074 A 
ATOM     39  C   UNL A   1      42.382  25.522  27.938  1.00  0.00     0.049 A 
ATOM     40  N   UNL A   1      45.172  26.390  27.271  1.00  0.00    -0.248 NA
ATOM     41  C   UNL A   1      45.659  24.196  26.639  1.00  0.00     0.031 C 
ATOM     42  C   UNL A   1      41.014  25.144  28.298  1.00  0.00     0.029 A 
ATOM     43  N   UNL A   1      42.462  26.848  28.280  1.00  0.00    -0.354 N 
ATOM     44  C   UNL A   1      46.505  26.311  26.892  1.00  0.00     0.074 A 
ATOM     45  C   UNL A   1      46.763  24.927  26.554  1.00  0.00     0.031 C 
ATOM     46  C   UNL A   1      40.370  26.222  28.765  1.00  0.00     0.029 A 
ATOM     47  C   UNL A   1      41.285  27.360  28.768  1.00  0.00     0.049 A 
ATOM     48  H   UNL A   1      43.283  27.381  28.184  1.00  0.00     0.167 HD
ATOM     49  C   UNL A   1      47.420  27.308  26.814  1.00  0.00     0.037 A 
ATOM     50  C   UNL A   1      40.970  28.607  29.164  1.00  0.00     0.037 A 
ATOM     51  C   UNL A   1      47.158  28.686  27.153  1.00  0.00     0.049 A 
ATOM     52  C   UNL A   1      42.005  29.693  29.069  1.00  0.00     0.074 A 
ATOM     53  C   UNL A   1      48.009  29.774  27.056  1.00  0.00     0.029 A 
ATOM     54  N   UNL A   1      45.960  29.164  27.665  1.00  0.00    -0.354 N 
ATOM     55  N   UNL A   1      43.238  29.623  28.632  1.00  0.00    -0.248 NA
ATOM     56  C   UNL A   1      41.599  31.034  29.511  1.00  0.00     0.031 C 
ATOM     57  C   UNL A   1      47.346  30.898  27.560  1.00  0.00     0.029 A 
ATOM     58  C   UNL A   1      46.060  30.526  27.914  1.00  0.00     0.049 A 
ATOM     59  H   UNL A   1      45.157  28.618  27.827  1.00  0.00     0.167 HD
ATOM     60  C   UNL A   1      43.753  30.907  28.735  1.00  0.00     0.074 A 
ATOM     61  C   UNL A   1      42.687  31.744  29.246  1.00  0.00     0.031 C 
ATOM     62  C   UNL A   1      45.000  31.349  28.438  1.00  0.00     0.037 A 
BRANCH  49  63
ATOM     63  C   UNL A   1      48.798  26.962  26.325  1.00  0.00     0.064 A 
ATOM     64  C   UNL A   1      49.122  27.064  24.963  1.00  0.00     0.173 A 
ATOM     65  C   UNL A   1      49.772  26.442  27.191  1.00  0.00     0.173 A 
ATOM     66  F   UNL A   1      48.225  27.545  24.089  1.00  0.00    -0.203 F 
ATOM     67  C   UNL A   1      50.361  26.644  24.486  1.00  0.00     0.198 A 
ATOM     68  C   UNL A   1      51.020  26.049  26.715  1.00  0.00     0.198 A 
ATOM     69  F   UNL A   1      49.517  26.327  28.503  1.00  0.00    -0.203 F 
ATOM     70  F   UNL A   1      50.633  26.716  23.176  1.00  0.00    -0.200 F 
ATOM     71  C   UNL A   1      51.310  26.141  25.362  1.00  0.00     0.200 A 
ATOM     72  F   UNL A   1      51.944  25.581  27.567  1.00  0.00    -0.200 F 
ATOM     73  F   UNL A   1      52.505  25.742  24.902  1.00  0.00    -0.200 F 
ENDBRANCH  49  63
BRANCH  50  74
ATOM     74  C   UNL A   1      39.592  28.898  29.641  1.00  0.00     0.064 A 
ATOM     75  C   UNL A   1      38.614  29.412  28.776  1.00  0.00     0.173 A 
ATOM     76  C   UNL A   1      39.239  28.701  30.983  1.00  0.00     0.173 A 
ATOM     77  F   UNL A   1      38.905  29.624  27.485  1.00  0.00    -0.203 F 
ATOM     78  C   UNL A   1      37.341  29.735  29.242  1.00  0.00     0.198 A 
ATOM     79  C   UNL A   1      37.957  28.997  31.440  1.00  0.00     0.198 A 
ATOM     80  F   UNL A   1      40.134  28.193  31.843  1.00  0.00    -0.203 F 
ATOM     81  F   UNL A   1      36.438  30.261  28.403  1.00  0.00    -0.200 F 
ATOM     82  C   UNL A   1      37.012  29.523  30.572  1.00  0.00     0.200 A 
ATOM     83  F   UNL A   1      37.635  28.766  32.720  1.00  0.00    -0.200 F 
ATOM     84  F   UNL A   1      35.784  29.824  31.016  1.00  0.00    -0.200 F 
ENDBRANCH  50  74
BRANCH  62  85
ATOM     85  C   UNL A   1      45.283  32.809  28.660  1.00  0.00     0.064 A 
ATOM     86  C   UNL A   1      45.028  33.749  27.650  1.00  0.00     0.173 A 
ATOM     87  C   UNL A   1      45.842  33.274  29.861  1.00  0.00     0.173 A 
ATOM     88  F   UNL A   1      44.502  33.358  26.479  1.00  0.00    -0.203 F 
ATOM     89  C   UNL A   1      45.323  35.098  27.832  1.00  0.00     0.198 A 
ATOM     90  C   UNL A   1      46.104  34.629  30.052  1.00  0.00     0.198 A 
ATOM     91  F   UNL A   1      46.094  32.420  30.864  1.00  0.00    -0.203 F 
ATOM     92  F   UNL A   1      45.095  35.972  26.843  1.00  0.00    -0.200 F 
ATOM     93  C   UNL A   1      45.853  35.537  29.036  1.00  0.00     0.200 A 
ATOM     94  F   UNL A   1      46.587  35.056  31.228  1.00  0.00    -0.200 F 
ATOM     95  F   UNL A   1      46.113  36.840  29.219  1.00  0.00    -0.200 F 
ENDBRANCH  62  85
ENDBRANCH  36  37
ENDBRANCH  28  31
ENDBRANCH  26  27
ENDBRANCH  25  26
ENDBRANCH   1  25
TORSDOF 15
ENDMDL
MODEL 3
REMARK VINA RESULT:     -11.9      1.113      2.289
REMARK SMILES CCC(CC)(NC(=O)NCc1ccccc1F)C(=O)NCCCNC(=O)c1ccc(-c2c3nc(c(-c4c(F)c(F)c(F)c(F)c4F)c4ccc([nH]4)c(-c4c(F)c(F)c(F)c(F)c4F)c4nc(c(-c5c(F)c(F)c(F)c(F)c5F)c5ccc2[nH]5)C=C4)C=C3)cc1
REMARK SMILES IDX 21 1 20 2 18 3 19 4 3 6 2 7 1 8 4 9 5 10 6 11 7 12 8 14 9 15
REMARK SMILES IDX 10 17 11 18 12 19 16 20 13 21 15 22 17 23 14 24 22 25 23 26
REMARK SMILES IDX 24 27 25 28 26 30 27 31 28 32 89 33 29 34 88 35 30 36 31 37
REMARK SMILES IDX 32 38 82 39 33 40 87 41 81 42 83 43 34 44 86 45 80 46 79 47
REMARK SMILES IDX 35 49 67 50 47 51 66 52 48 53 51 54 65 55 84 56 49 57 50 58
REMARK SMILES IDX 64 60 85 61 52 62 36 63 37 64 45 65 38 66 39 67 43 68 46 69
REMARK SMILES IDX 40 70 41 71 44 72 42 73 68 74 69 75 77 76 70 77 71 78 75 79
REMARK SMILES IDX 78 80 72 81 73 82 76 83 74 84 53 85 54 86 62 87 55 88 56 89
REMARK SMILES IDX 60 90 63 91 57 92 58 93 61 94 59 95
REMARK H PARENT 20 5 6 13 9 16 24 29 83 48 51 59
REMARK Flexibility Score: inf
ROOT
ATOM      1  C   UNL A   1      31.746  29.957  25.553  1.00  0.00     0.117 C 
ENDROOT
BRANCH   1   2
ATOM      2  N   UNL A   1      32.877  29.882  24.628  1.00  0.00    -0.354 N 
ATOM      3  C   UNL A   1      33.189  28.956  23.648  1.00  0.00     0.245 C 
ATOM      4  O   UNL A   1      33.781  29.358  22.642  1.00  0.00    -0.272 OA
ATOM      5  H   UNL A   1      33.526  30.616  24.718  1.00  0.00     0.163 HD
BRANCH   3   6
ATOM      6  C   UNL A   1      32.646  27.511  23.701  1.00  0.00     0.120 C 
BRANCH   6   7
ATOM      7  C   UNL A   1      31.174  27.278  24.143  1.00  0.00     0.035 C 
ATOM      8  C   UNL A   1      30.051  27.664  23.193  1.00  0.00     0.007 C 
ENDBRANCH   6   7
BRANCH   6   9
ATOM      9  C   UNL A   1      33.620  26.867  24.755  1.00  0.00     0.035 C 
ATOM     10  C   UNL A   1      33.122  26.608  26.162  1.00  0.00     0.007 C 
ENDBRANCH   6   9
BRANCH   6  11
ATOM     11  N   UNL A   1      32.748  26.976  22.332  1.00  0.00    -0.324 N 
ATOM     12  C   UNL A   1      33.009  25.762  21.819  1.00  0.00     0.315 C 
ATOM     13  H   UNL A   1      32.588  27.659  21.641  1.00  0.00     0.166 HD
ATOM     14  O   UNL A   1      33.199  25.723  20.597  1.00  0.00    -0.249 OA
ATOM     15  N   UNL A   1      32.996  24.582  22.451  1.00  0.00    -0.334 N 
ATOM     16  H   UNL A   1      32.900  23.856  21.794  1.00  0.00     0.165 HD
BRANCH  15  17
ATOM     17  C   UNL A   1      33.079  24.015  23.806  1.00  0.00     0.156 C 
BRANCH  17  18
ATOM     18  C   UNL A   1      34.448  23.519  24.239  1.00  0.00     0.007 A 
ATOM     19  C   UNL A   1      35.423  23.207  23.278  1.00  0.00     0.008 A 
ATOM     20  C   UNL A   1      34.806  23.326  25.574  1.00  0.00     0.128 A 
ATOM     21  C   UNL A   1      36.753  22.950  23.634  1.00  0.00     0.001 A 
ATOM     22  C   UNL A   1      36.120  23.012  25.943  1.00  0.00     0.039 A 
ATOM     23  F   UNL A   1      33.895  23.500  26.544  1.00  0.00    -0.207 F 
ATOM     24  C   UNL A   1      37.109  22.882  24.973  1.00  0.00     0.003 A 
ENDBRANCH  17  18
ENDBRANCH  15  17
ENDBRANCH   6  11
ENDBRANCH   3   6
ENDBRANCH   1   2
BRANCH   1  25
ATOM     25  C   UNL A   1      31.474  31.240  26.342  1.00  0.00     0.042 C 
BRANCH  25  26
ATOM     26  C   UNL A   1      32.641  32.040  26.886  1.00  0.00     0.118 C 
BRANCH  26  27
ATOM     27  N   UNL A   1      32.306  33.389  27.294  1.00  0.00    -0.352 N 
ATOM     28  C   UNL A   1      32.947  34.229  28.170  1.00  0.00     0.251 C 
ATOM     29  H   UNL A   1      31.493  33.759  26.879  1.00  0.00     0.163 HD
ATOM     30  O   UNL A   1      32.480  35.343  28.386  1.00  0.00    -0.269 OA
BRANCH  28  31
ATOM     31  C   UNL A   1      34.174  33.808  28.886  1.00  0.00     0.039 A 
ATOM     32  C   UNL A   1      34.034  32.870  29.913  1.00  0.00     0.014 A 
ATOM     33  C   UNL A   1      35.436  34.342  28.605  1.00  0.00     0.014 A 
ATOM     34  C   UNL A   1      35.158  32.423  30.612  1.00  0.00     0.010 A 
ATOM     35  C   UNL A   1      36.567  33.867  29.279  1.00  0.00     0.010 A 
ATOM     36  C   UNL A   1      36.441  32.892  30.278  1.00  0.00    -0.014 A 
BRANCH  36  37
ATOM     37  C   UNL A   1      37.638  32.277  30.908  1.00  0.00     0.031 A 
ATOM     38  C   UNL A   1      38.101  32.672  32.280  1.00  0.00     0.074 A 
ATOM     39  C   UNL A   1      38.320  31.344  30.215  1.00  0.00     0.049 A 
ATOM     40  N   UNL A   1      39.074  32.165  32.998  1.00  0.00    -0.248 NA
ATOM     41  C   UNL A   1      37.392  33.783  32.930  1.00  0.00     0.031 C 
ATOM     42  C   UNL A   1      38.004  30.919  28.851  1.00  0.00     0.029 A 
ATOM     43  N   UNL A   1      39.403  30.576  30.560  1.00  0.00    -0.354 N 
ATOM     44  C   UNL A   1      39.089  32.886  34.183  1.00  0.00     0.074 A 
ATOM     45  C   UNL A   1      38.061  33.900  34.071  1.00  0.00     0.031 C 
ATOM     46  C   UNL A   1      38.842  29.937  28.491  1.00  0.00     0.029 A 
ATOM     47  C   UNL A   1      39.775  29.682  29.586  1.00  0.00     0.049 A 
ATOM     48  H   UNL A   1      39.870  30.658  31.423  1.00  0.00     0.167 HD
ATOM     49  C   UNL A   1      39.874  32.701  35.273  1.00  0.00     0.037 A 
ATOM     50  C   UNL A   1      40.748  28.753  29.575  1.00  0.00     0.037 A 
ATOM     51  C   UNL A   1      40.898  31.690  35.380  1.00  0.00     0.049 A 
ATOM     52  C   UNL A   1      41.606  28.572  30.796  1.00  0.00     0.074 A 
ATOM     53  C   UNL A   1      41.709  31.396  36.463  1.00  0.00     0.029 A 
ATOM     54  N   UNL A   1      41.261  30.817  34.365  1.00  0.00    -0.354 N 
ATOM     55  N   UNL A   1      41.558  29.205  31.942  1.00  0.00    -0.248 NA
ATOM     56  C   UNL A   1      42.648  27.538  30.724  1.00  0.00     0.031 C 
ATOM     57  C   UNL A   1      42.598  30.384  36.087  1.00  0.00     0.029 A 
ATOM     58  C   UNL A   1      42.302  30.002  34.788  1.00  0.00     0.049 A 
ATOM     59  H   UNL A   1      40.842  30.779  33.475  1.00  0.00     0.167 HD
ATOM     60  C   UNL A   1      42.550  28.642  32.731  1.00  0.00     0.074 A 
ATOM     61  C   UNL A   1      43.165  27.593  31.944  1.00  0.00     0.031 C 
ATOM     62  C   UNL A   1      42.920  28.972  33.994  1.00  0.00     0.037 A 
BRANCH  49  63
ATOM     63  C   UNL A   1      39.656  33.599  36.459  1.00  0.00     0.064 A 
ATOM     64  C   UNL A   1      40.377  34.795  36.593  1.00  0.00     0.173 A 
ATOM     65  C   UNL A   1      38.799  33.230  37.506  1.00  0.00     0.173 A 
ATOM     66  F   UNL A   1      41.217  35.192  35.625  1.00  0.00    -0.203 F 
ATOM     67  C   UNL A   1      40.259  35.580  37.739  1.00  0.00     0.198 A 
ATOM     68  C   UNL A   1      38.663  34.031  38.638  1.00  0.00     0.198 A 
ATOM     69  F   UNL A   1      38.083  32.098  37.427  1.00  0.00    -0.203 F 
ATOM     70  F   UNL A   1      40.986  36.698  37.860  1.00  0.00    -0.200 F 
ATOM     71  C   UNL A   1      39.400  35.198  38.758  1.00  0.00     0.200 A 
ATOM     72  F   UNL A   1      37.816  33.671  39.613  1.00  0.00    -0.200 F 
ATOM     73  F   UNL A   1      39.284  35.957  39.857  1.00  0.00    -0.200 F 
ENDBRANCH  49  63
BRANCH  50  74
ATOM     74  C   UNL A   1      40.924  27.891  28.377  1.00  0.00     0.064 A 
ATOM     75  C   UNL A   1      41.722  28.297  27.297  1.00  0.00     0.173 A 
ATOM     76  C   UNL A   1      40.267  26.657  28.276  1.00  0.00     0.173 A 
ATOM     77  F   UNL A   1      42.367  29.472  27.343  1.00  0.00    -0.203 F 
ATOM     78  C   UNL A   1      41.839  27.511  26.153  1.00  0.00     0.198 A 
ATOM     79  C   UNL A   1      40.409  25.858  27.143  1.00  0.00     0.198 A 
ATOM     80  F   UNL A   1      39.509  26.217  29.291  1.00  0.00    -0.203 F 
ATOM     81  F   UNL A   1      42.576  27.941  25.120  1.00  0.00    -0.200 F 
ATOM     82  C   UNL A   1      41.186  26.290  26.079  1.00  0.00     0.200 A 
ATOM     83  F   UNL A   1      39.797  24.667  27.086  1.00  0.00    -0.200 F 
ATOM     84  F   UNL A   1      41.308  25.529  24.983  1.00  0.00    -0.200 F 
ENDBRANCH  50  74
BRANCH  62  85
ATOM     85  C   UNL A   1      44.048  28.188  34.606  1.00  0.00     0.064 A 
ATOM     86  C   UNL A   1      45.374  28.630  34.486  1.00  0.00     0.173 A 
ATOM     87  C   UNL A   1      43.820  26.978  35.280  1.00  0.00     0.173 A 
ATOM     88  F   UNL A   1      45.651  29.776  33.845  1.00  0.00    -0.203 F 
ATOM     89  C   UNL A   1      46.429  27.891  35.016  1.00  0.00     0.198 A 
ATOM     90  C   UNL A   1      44.874  26.259  35.838  1.00  0.00     0.198 A 
ATOM     91  F   UNL A   1      42.570  26.516  35.434  1.00  0.00    -0.203 F 
ATOM     92  F   UNL A   1      47.689  28.321  34.866  1.00  0.00    -0.200 F 
ATOM     93  C   UNL A   1      46.177  26.711  35.699  1.00  0.00     0.200 A 
ATOM     94  F   UNL A   1      44.625  25.134  36.525  1.00  0.00    -0.200 F 
ATOM     95  F   UNL A   1      47.191  26.013  36.231  1.00  0.00    -0.200 F 
ENDBRANCH  62  85
ENDBRANCH  36  37
ENDBRANCH  28  31
ENDBRANCH  26  27
ENDBRANCH  25  26
ENDBRANCH   1  25
TORSDOF 15
ENDMDL
