MODEL 1
REMARK VINA RESULT:     -12.9      0.000      0.000
REMARK SMILES Cc1cscc1C(=O)N1C[C@@H](C(=O)NCCCNC(=O)c2ccc(-c3c4nc(c(-c5c(F)c(F)c(F)c(F)c5F)c5ccc([nH]5)c(-c5c(F)c(F)c(F)c(F)c5F)c5nc(c(-c6c(F)c(F)c(F)c(F)c6F)c6ccc3[nH]6)C=C5)C=C4)cc2)Oc2ccccc21
REMARK SMILES IDX 16 1 15 2 14 3 12 4 13 5 11 7 9 8 10 9 90 10 85 11 89 12
REMARK SMILES IDX 84 13 86 14 88 15 87 16 7 17 8 18 6 19 1 20 2 21 3 22 4 23
REMARK SMILES IDX 5 24 17 25 18 26 19 27 20 29 21 30 22 31 83 32 23 33 82 34
REMARK SMILES IDX 24 35 25 36 26 37 76 38 27 39 81 40 75 41 77 42 28 43 80 44
REMARK SMILES IDX 74 45 73 46 29 48 61 49 41 50 60 51 42 52 45 53 59 54 78 55
REMARK SMILES IDX 43 56 44 57 58 59 79 60 46 61 30 62 31 63 39 64 32 65 33 66
REMARK SMILES IDX 37 67 40 68 34 69 35 70 38 71 36 72 62 73 63 74 71 75 64 76
REMARK SMILES IDX 65 77 69 78 72 79 66 80 67 81 70 82 68 83 47 84 48 85 56 86
REMARK SMILES IDX 49 87 50 88 54 89 57 90 51 91 52 92 55 93 53 94
REMARK H PARENT 14 6 18 28 77 47 45 58
REMARK Flexibility Score: inf
ROOT
ATOM      1  C   UNL A   1      31.793  29.100  26.746  1.00  0.00     0.042 C 
ENDROOT
BRANCH   1   2
ATOM      2  C   UNL A   1      32.289  27.673  26.922  1.00  0.00     0.118 C 
BRANCH   2   3
ATOM      3  N   UNL A   1      31.291  26.670  26.611  1.00  0.00    -0.353 N 
ATOM      4  C   UNL A   1      31.418  25.324  26.465  1.00  0.00     0.262 C 
ATOM      5  O   UNL A   1      30.368  24.685  26.326  1.00  0.00    -0.271 OA
ATOM      6  H   UNL A   1      30.377  27.016  26.486  1.00  0.00     0.163 HD
BRANCH   4   7
ATOM      7  C   UNL A   1      32.782  24.590  26.410  1.00  0.00     0.281 C 
ATOM      8  N   UNL A   1      33.205  24.704  23.982  1.00  0.00    -0.301 N 
ATOM      9  C   UNL A   1      33.634  25.205  25.291  1.00  0.00     0.181 C 
ATOM     10  C   UNL A   1      32.804  23.336  23.953  1.00  0.00     0.086 A 
ATOM     11  C   UNL A   1      32.752  22.609  25.150  1.00  0.00     0.144 A 
ATOM     12  C   UNL A   1      32.519  22.667  22.756  1.00  0.00     0.030 A 
ATOM     13  O   UNL A   1      32.891  23.174  26.395  1.00  0.00    -0.477 OA
ATOM     14  C   UNL A   1      32.477  21.238  25.145  1.00  0.00     0.049 A 
ATOM     15  C   UNL A   1      32.201  21.306  22.755  1.00  0.00     0.002 A 
ATOM     16  C   UNL A   1      32.191  20.589  23.947  1.00  0.00     0.004 A 
BRANCH   8  17
ATOM     17  C   UNL A   1      33.030  25.546  22.887  1.00  0.00     0.259 C 
ATOM     18  O   UNL A   1      33.654  25.382  21.836  1.00  0.00    -0.269 OA
BRANCH  17  19
ATOM     19  C   UNL A   1      32.096  26.678  23.014  1.00  0.00     0.053 A 
ATOM     20  C   UNL A   1      33.651  28.801  22.752  1.00  0.00     0.046 C 
ATOM     21  C   UNL A   1      32.339  28.110  22.938  1.00  0.00    -0.028 A 
ATOM     22  C   UNL A   1      31.153  28.823  23.006  1.00  0.00     0.069 A 
ATOM     23  S   UNL A   1      29.776  27.831  23.126  1.00  0.00    -0.151 S 
ATOM     24  C   UNL A   1      30.733  26.425  23.091  1.00  0.00     0.079 A 
ENDBRANCH  17  19
ENDBRANCH   8  17
ENDBRANCH   4   7
ENDBRANCH   2   3
ENDBRANCH   1   2
BRANCH   1  25
ATOM     25  C   UNL A   1      32.780  30.051  26.084  1.00  0.00     0.118 C 
BRANCH  25  26
ATOM     26  N   UNL A   1      32.668  31.428  26.544  1.00  0.00    -0.352 N 
ATOM     27  C   UNL A   1      33.461  32.143  27.411  1.00  0.00     0.251 C 
ATOM     28  H   UNL A   1      31.904  31.927  26.175  1.00  0.00     0.163 HD
ATOM     29  O   UNL A   1      33.129  33.274  27.755  1.00  0.00    -0.269 OA
BRANCH  27  30
ATOM     30  C   UNL A   1      34.693  31.546  27.977  1.00  0.00     0.039 A 
ATOM     31  C   UNL A   1      35.822  32.355  28.140  1.00  0.00     0.014 A 
ATOM     32  C   UNL A   1      34.747  30.202  28.352  1.00  0.00     0.014 A 
ATOM     33  C   UNL A   1      36.963  31.845  28.765  1.00  0.00     0.010 A 
ATOM     34  C   UNL A   1      35.844  29.723  29.062  1.00  0.00     0.010 A 
ATOM     35  C   UNL A   1      36.965  30.538  29.278  1.00  0.00    -0.014 A 
BRANCH  35  36
ATOM     36  C   UNL A   1      38.125  29.994  30.032  1.00  0.00     0.031 A 
ATOM     37  C   UNL A   1      38.364  30.424  31.454  1.00  0.00     0.074 A 
ATOM     38  C   UNL A   1      39.013  29.190  29.415  1.00  0.00     0.049 A 
ATOM     39  N   UNL A   1      39.391  30.188  32.230  1.00  0.00    -0.248 NA
ATOM     40  C   UNL A   1      37.325  31.262  32.072  1.00  0.00     0.031 C 
ATOM     41  C   UNL A   1      38.929  28.740  28.025  1.00  0.00     0.029 A 
ATOM     42  N   UNL A   1      40.175  28.621  29.877  1.00  0.00    -0.354 N 
ATOM     43  C   UNL A   1      39.142  30.883  33.406  1.00  0.00     0.074 A 
ATOM     44  C   UNL A   1      37.885  31.578  33.230  1.00  0.00     0.031 C 
ATOM     45  C   UNL A   1      39.980  27.947  27.754  1.00  0.00     0.029 A 
ATOM     46  C   UNL A   1      40.830  27.863  28.938  1.00  0.00     0.049 A 
ATOM     47  H   UNL A   1      40.507  28.744  30.796  1.00  0.00     0.167 HD
ATOM     48  C   UNL A   1      39.884  30.925  34.538  1.00  0.00     0.037 A 
ATOM     49  C   UNL A   1      41.990  27.184  29.019  1.00  0.00     0.037 A 
ATOM     50  C   UNL A   1      41.100  30.184  34.739  1.00  0.00     0.049 A 
ATOM     51  C   UNL A   1      42.765  27.198  30.308  1.00  0.00     0.074 A 
ATOM     52  C   UNL A   1      41.886  30.106  35.875  1.00  0.00     0.029 A 
ATOM     53  N   UNL A   1      41.696  29.377  33.782  1.00  0.00    -0.354 N 
ATOM     54  N   UNL A   1      42.497  27.828  31.425  1.00  0.00    -0.248 NA
ATOM     55  C   UNL A   1      44.000  26.403  30.347  1.00  0.00     0.031 C 
ATOM     56  C   UNL A   1      42.970  29.264  35.600  1.00  0.00     0.029 A 
ATOM     57  C   UNL A   1      42.841  28.797  34.302  1.00  0.00     0.049 A 
ATOM     58  H   UNL A   1      41.356  29.237  32.869  1.00  0.00     0.167 HD
ATOM     59  C   UNL A   1      43.514  27.489  32.306  1.00  0.00     0.074 A 
ATOM     60  C   UNL A   1      44.401  26.588  31.598  1.00  0.00     0.031 C 
ATOM     61  C   UNL A   1      43.699  27.890  33.586  1.00  0.00     0.037 A 
BRANCH  48  62
ATOM     62  C   UNL A   1      39.390  31.795  35.655  1.00  0.00     0.064 A 
ATOM     63  C   UNL A   1      38.469  31.322  36.601  1.00  0.00     0.173 A 
ATOM     64  C   UNL A   1      39.865  33.108  35.796  1.00  0.00     0.173 A 
ATOM     65  F   UNL A   1      37.977  30.078  36.499  1.00  0.00    -0.203 F 
ATOM     66  C   UNL A   1      38.020  32.141  37.633  1.00  0.00     0.198 A 
ATOM     67  C   UNL A   1      39.432  33.915  36.845  1.00  0.00     0.198 A 
ATOM     68  F   UNL A   1      40.749  33.605  34.919  1.00  0.00    -0.203 F 
ATOM     69  F   UNL A   1      37.105  31.683  38.498  1.00  0.00    -0.200 F 
ATOM     70  C   UNL A   1      38.505  33.433  37.757  1.00  0.00     0.200 A 
ATOM     71  F   UNL A   1      39.909  35.162  36.969  1.00  0.00    -0.200 F 
ATOM     72  F   UNL A   1      38.073  34.219  38.754  1.00  0.00    -0.200 F 
ENDBRANCH  48  62
BRANCH  49  73
ATOM     73  C   UNL A   1      42.474  26.404  27.853  1.00  0.00     0.064 A 
ATOM     74  C   UNL A   1      42.008  25.103  27.622  1.00  0.00     0.173 A 
ATOM     75  C   UNL A   1      43.407  26.935  26.952  1.00  0.00     0.173 A 
ATOM     76  F   UNL A   1      41.131  24.545  28.471  1.00  0.00    -0.203 F 
ATOM     77  C   UNL A   1      42.468  24.355  26.540  1.00  0.00     0.198 A 
ATOM     78  C   UNL A   1      43.850  26.194  25.859  1.00  0.00     0.198 A 
ATOM     79  F   UNL A   1      43.879  28.178  27.129  1.00  0.00    -0.203 F 
ATOM     80  F   UNL A   1      42.034  23.099  26.365  1.00  0.00    -0.200 F 
ATOM     81  C   UNL A   1      43.386  24.903  25.658  1.00  0.00     0.200 A 
ATOM     82  F   UNL A   1      44.729  26.730  25.001  1.00  0.00    -0.200 F 
ATOM     83  F   UNL A   1      43.828  24.183  24.616  1.00  0.00    -0.200 F 
ENDBRANCH  49  73
BRANCH  61  84
ATOM     84  C   UNL A   1      44.880  27.328  34.317  1.00  0.00     0.064 A 
ATOM     85  C   UNL A   1      46.111  27.998  34.342  1.00  0.00     0.173 A 
ATOM     86  C   UNL A   1      44.763  26.130  35.038  1.00  0.00     0.173 A 
ATOM     87  F   UNL A   1      46.272  29.138  33.655  1.00  0.00    -0.203 F 
ATOM     88  C   UNL A   1      47.190  27.479  35.052  1.00  0.00     0.198 A 
ATOM     89  C   UNL A   1      45.838  25.625  35.762  1.00  0.00     0.198 A 
ATOM     90  F   UNL A   1      43.603  25.456  35.045  1.00  0.00    -0.203 F 
ATOM     91  F   UNL A   1      48.368  28.118  35.036  1.00  0.00    -0.200 F 
ATOM     92  C   UNL A   1      47.052  26.298  35.765  1.00  0.00     0.200 A 
ATOM     93  F   UNL A   1      45.702  24.488  36.457  1.00  0.00    -0.200 F 
ATOM     94  F   UNL A   1      48.090  25.804  36.452  1.00  0.00    -0.200 F 
ENDBRANCH  61  84
ENDBRANCH  35  36
ENDBRANCH  27  30
ENDBRANCH  25  26
ENDBRANCH   1  25
TORSDOF 12
ENDMDL
MODEL 2
REMARK VINA RESULT:     -12.9      3.947      8.615
REMARK SMILES Cc1cscc1C(=O)N1C[C@@H](C(=O)NCCCNC(=O)c2ccc(-c3c4nc(c(-c5c(F)c(F)c(F)c(F)c5F)c5ccc([nH]5)c(-c5c(F)c(F)c(F)c(F)c5F)c5nc(c(-c6c(F)c(F)c(F)c(F)c6F)c6ccc3[nH]6)C=C5)C=C4)cc2)Oc2ccccc21
REMARK SMILES IDX 16 1 15 2 14 3 12 4 13 5 11 7 9 8 10 9 90 10 85 11 89 12
REMARK SMILES IDX 84 13 86 14 88 15 87 16 7 17 8 18 6 19 1 20 2 21 3 22 4 23
REMARK SMILES IDX 5 24 17 25 18 26 19 27 20 29 21 30 22 31 83 32 23 33 82 34
REMARK SMILES IDX 24 35 25 36 26 37 76 38 27 39 81 40 75 41 77 42 28 43 80 44
REMARK SMILES IDX 74 45 73 46 29 48 61 49 41 50 60 51 42 52 45 53 59 54 78 55
REMARK SMILES IDX 43 56 44 57 58 59 79 60 46 61 30 62 31 63 39 64 32 65 33 66
REMARK SMILES IDX 37 67 40 68 34 69 35 70 38 71 36 72 62 73 63 74 71 75 64 76
REMARK SMILES IDX 65 77 69 78 72 79 66 80 67 81 70 82 68 83 47 84 48 85 56 86
REMARK SMILES IDX 49 87 50 88 54 89 57 90 51 91 52 92 55 93 53 94
REMARK H PARENT 14 6 18 28 77 47 45 58
REMARK Flexibility Score: inf
ROOT
ATOM      1  C   UNL A   1      34.763  23.445  26.374  1.00  0.00     0.042 C 
ENDROOT
BRANCH   1   2
ATOM      2  C   UNL A   1      33.640  24.425  26.074  1.00  0.00     0.118 C 
BRANCH   2   3
ATOM      3  N   UNL A   1      32.949  24.153  24.830  1.00  0.00    -0.353 N 
ATOM      4  C   UNL A   1      31.709  24.531  24.416  1.00  0.00     0.262 C 
ATOM      5  O   UNL A   1      31.418  24.265  23.244  1.00  0.00    -0.271 OA
ATOM      6  H   UNL A   1      33.454  23.610  24.183  1.00  0.00     0.163 HD
BRANCH   4   7
ATOM      7  C   UNL A   1      30.663  25.205  25.338  1.00  0.00     0.281 C 
ATOM      8  N   UNL A   1      30.298  27.294  24.078  1.00  0.00    -0.301 N 
ATOM      9  C   UNL A   1      29.690  26.020  24.476  1.00  0.00     0.181 C 
ATOM     10  C   UNL A   1      31.124  27.910  25.063  1.00  0.00     0.086 A 
ATOM     11  C   UNL A   1      31.375  27.240  26.268  1.00  0.00     0.144 A 
ATOM     12  C   UNL A   1      31.647  29.198  24.897  1.00  0.00     0.030 A 
ATOM     13  O   UNL A   1      31.022  25.933  26.504  1.00  0.00    -0.477 OA
ATOM     14  C   UNL A   1      32.083  27.863  27.300  1.00  0.00     0.049 A 
ATOM     15  C   UNL A   1      32.393  29.805  25.913  1.00  0.00     0.002 A 
ATOM     16  C   UNL A   1      32.600  29.142  27.119  1.00  0.00     0.004 A 
BRANCH   8  17
ATOM     17  C   UNL A   1      30.221  27.777  22.774  1.00  0.00     0.259 C 
ATOM     18  O   UNL A   1      30.886  27.285  21.859  1.00  0.00    -0.269 OA
BRANCH  17  19
ATOM     19  C   UNL A   1      29.344  28.929  22.503  1.00  0.00     0.053 A 
ATOM     20  C   UNL A   1      27.010  28.183  23.500  1.00  0.00     0.046 C 
ATOM     21  C   UNL A   1      27.942  29.140  22.830  1.00  0.00    -0.028 A 
ATOM     22  C   UNL A   1      27.535  30.418  22.484  1.00  0.00     0.069 A 
ATOM     23  S   UNL A   1      28.782  31.365  21.817  1.00  0.00    -0.151 S 
ATOM     24  C   UNL A   1      29.894  30.088  21.974  1.00  0.00     0.079 A 
ENDBRANCH  17  19
ENDBRANCH   8  17
ENDBRANCH   4   7
ENDBRANCH   2   3
ENDBRANCH   1   2
BRANCH   1  25
ATOM     25  C   UNL A   1      36.158  23.927  26.007  1.00  0.00     0.118 C 
BRANCH  25  26
ATOM     26  N   UNL A   1      37.153  22.865  25.950  1.00  0.00    -0.352 N 
ATOM     27  C   UNL A   1      38.488  22.880  26.278  1.00  0.00     0.251 C 
ATOM     28  H   UNL A   1      36.815  22.000  25.626  1.00  0.00     0.163 HD
ATOM     29  O   UNL A   1      39.186  21.894  26.053  1.00  0.00    -0.269 OA
BRANCH  27  30
ATOM     30  C   UNL A   1      39.112  24.091  26.860  1.00  0.00     0.039 A 
ATOM     31  C   UNL A   1      39.885  24.914  26.034  1.00  0.00     0.014 A 
ATOM     32  C   UNL A   1      38.940  24.427  28.203  1.00  0.00     0.014 A 
ATOM     33  C   UNL A   1      40.400  26.115  26.531  1.00  0.00     0.010 A 
ATOM     34  C   UNL A   1      39.367  25.668  28.670  1.00  0.00     0.010 A 
ATOM     35  C   UNL A   1      40.101  26.527  27.839  1.00  0.00    -0.014 A 
BRANCH  35  36
ATOM     36  C   UNL A   1      40.551  27.841  28.369  1.00  0.00     0.031 A 
ATOM     37  C   UNL A   1      42.000  28.055  28.711  1.00  0.00     0.074 A 
ATOM     38  C   UNL A   1      39.649  28.807  28.631  1.00  0.00     0.049 A 
ATOM     39  N   UNL A   1      42.567  29.064  29.322  1.00  0.00    -0.248 NA
ATOM     40  C   UNL A   1      42.929  26.973  28.352  1.00  0.00     0.031 C 
ATOM     41  C   UNL A   1      38.207  28.710  28.396  1.00  0.00     0.029 A 
ATOM     42  N   UNL A   1      39.812  30.060  29.169  1.00  0.00    -0.354 N 
ATOM     43  C   UNL A   1      43.905  28.718  29.458  1.00  0.00     0.074 A 
ATOM     44  C   UNL A   1      44.060  27.394  28.899  1.00  0.00     0.031 C 
ATOM     45  C   UNL A   1      37.622  29.861  28.766  1.00  0.00     0.029 A 
ATOM     46  C   UNL A   1      38.639  30.762  29.298  1.00  0.00     0.049 A 
ATOM     47  H   UNL A   1      40.688  30.421  29.437  1.00  0.00     0.167 HD
ATOM     48  C   UNL A   1      44.918  29.447  29.984  1.00  0.00     0.037 A 
ATOM     49  C   UNL A   1      38.409  31.992  29.798  1.00  0.00     0.037 A 
ATOM     50  C   UNL A   1      44.781  30.789  30.482  1.00  0.00     0.049 A 
ATOM     51  C   UNL A   1      39.561  32.804  30.322  1.00  0.00     0.074 A 
ATOM     52  C   UNL A   1      45.761  31.634  30.970  1.00  0.00     0.029 A 
ATOM     53  N   UNL A   1      43.584  31.488  30.536  1.00  0.00    -0.354 N 
ATOM     54  N   UNL A   1      40.828  32.479  30.408  1.00  0.00    -0.248 NA
ATOM     55  C   UNL A   1      39.252  34.153  30.813  1.00  0.00     0.031 C 
ATOM     56  C   UNL A   1      45.154  32.841  31.338  1.00  0.00     0.029 A 
ATOM     57  C   UNL A   1      43.802  32.755  31.050  1.00  0.00     0.049 A 
ATOM     58  H   UNL A   1      42.710  31.136  30.251  1.00  0.00     0.167 HD
ATOM     59  C   UNL A   1      41.469  33.589  30.940  1.00  0.00     0.074 A 
ATOM     60  C   UNL A   1      40.454  34.601  31.148  1.00  0.00     0.031 C 
ATOM     61  C   UNL A   1      42.781  33.753  31.232  1.00  0.00     0.037 A 
BRANCH  48  62
ATOM     62  C   UNL A   1      46.273  28.806  30.037  1.00  0.00     0.064 A 
ATOM     63  C   UNL A   1      46.692  28.068  31.154  1.00  0.00     0.173 A 
ATOM     64  C   UNL A   1      47.152  28.910  28.948  1.00  0.00     0.173 A 
ATOM     65  F   UNL A   1      45.892  27.953  32.224  1.00  0.00    -0.203 F 
ATOM     66  C   UNL A   1      47.953  27.479  31.189  1.00  0.00     0.198 A 
ATOM     67  C   UNL A   1      48.402  28.297  28.977  1.00  0.00     0.198 A 
ATOM     68  F   UNL A   1      46.796  29.602  27.856  1.00  0.00    -0.203 F 
ATOM     69  F   UNL A   1      48.350  26.817  32.285  1.00  0.00    -0.200 F 
ATOM     70  C   UNL A   1      48.804  27.590  30.100  1.00  0.00     0.200 A 
ATOM     71  F   UNL A   1      49.220  28.398  27.921  1.00  0.00    -0.200 F 
ATOM     72  F   UNL A   1      50.016  27.019  30.135  1.00  0.00    -0.200 F 
ENDBRANCH  48  62
BRANCH  49  73
ATOM     73  C   UNL A   1      37.032  32.545  29.796  1.00  0.00     0.064 A 
ATOM     74  C   UNL A   1      36.551  33.259  28.689  1.00  0.00     0.173 A 
ATOM     75  C   UNL A   1      36.172  32.377  30.890  1.00  0.00     0.173 A 
ATOM     76  F   UNL A   1      37.347  33.463  27.628  1.00  0.00    -0.203 F 
ATOM     77  C   UNL A   1      35.267  33.798  28.683  1.00  0.00     0.198 A 
ATOM     78  C   UNL A   1      34.881  32.898  30.874  1.00  0.00     0.198 A 
ATOM     79  F   UNL A   1      36.585  31.698  31.970  1.00  0.00    -0.203 F 
ATOM     80  F   UNL A   1      34.846  34.508  27.627  1.00  0.00    -0.200 F 
ATOM     81  C   UNL A   1      34.431  33.614  29.774  1.00  0.00     0.200 A 
ATOM     82  F   UNL A   1      34.071  32.710  31.925  1.00  0.00    -0.200 F 
ATOM     83  F   UNL A   1      33.195  34.131  29.767  1.00  0.00    -0.200 F 
ENDBRANCH  49  73
BRANCH  61  84
ATOM     84  C   UNL A   1      43.202  35.086  31.770  1.00  0.00     0.064 A 
ATOM     85  C   UNL A   1      43.656  36.107  30.923  1.00  0.00     0.173 A 
ATOM     86  C   UNL A   1      43.106  35.359  33.143  1.00  0.00     0.173 A 
ATOM     87  F   UNL A   1      43.778  35.885  29.606  1.00  0.00    -0.203 F 
ATOM     88  C   UNL A   1      44.015  37.351  31.435  1.00  0.00     0.198 A 
ATOM     89  C   UNL A   1      43.446  36.610  33.648  1.00  0.00     0.198 A 
ATOM     90  F   UNL A   1      42.674  34.414  33.992  1.00  0.00    -0.203 F 
ATOM     91  F   UNL A   1      44.478  38.302  30.613  1.00  0.00    -0.200 F 
ATOM     92  C   UNL A   1      43.904  37.603  32.795  1.00  0.00     0.200 A 
ATOM     93  F   UNL A   1      43.332  36.855  34.961  1.00  0.00    -0.200 F 
ATOM     94  F   UNL A   1      44.244  38.803  33.283  1.00  0.00    -0.200 F 
ENDBRANCH  61  84
ENDBRANCH  35  36
ENDBRANCH  27  30
ENDBRANCH  25  26
ENDBRANCH   1  25
TORSDOF 12
ENDMDL
MODEL 3
REMARK VINA RESULT:     -12.8      0.533      7.363
REMARK SMILES Cc1cscc1C(=O)N1C[C@@H](C(=O)NCCCNC(=O)c2ccc(-c3c4nc(c(-c5c(F)c(F)c(F)c(F)c5F)c5ccc([nH]5)c(-c5c(F)c(F)c(F)c(F)c5F)c5nc(c(-c6c(F)c(F)c(F)c(F)c6F)c6ccc3[nH]6)C=C5)C=C4)cc2)Oc2ccccc21
REMARK SMILES IDX 16 1 15 2 14 3 12 4 13 5 11 7 9 8 10 9 90 10 85 11 89 12
REMARK SMILES IDX 84 13 86 14 88 15 87 16 7 17 8 18 6 19 1 20 2 21 3 22 4 23
REMARK SMILES IDX 5 24 17 25 18 26 19 27 20 29 21 30 22 31 83 32 23 33 82 34
REMARK SMILES IDX 24 35 25 36 26 37 76 38 27 39 81 40 75 41 77 42 28 43 80 44
REMARK SMILES IDX 74 45 73 46 29 48 61 49 41 50 60 51 42 52 45 53 59 54 78 55
REMARK SMILES IDX 43 56 44 57 58 59 79 60 46 61 30 62 31 63 39 64 32 65 33 66
REMARK SMILES IDX 37 67 40 68 34 69 35 70 38 71 36 72 62 73 63 74 71 75 64 76
REMARK SMILES IDX 65 77 69 78 72 79 66 80 67 81 70 82 68 83 47 84 48 85 56 86
REMARK SMILES IDX 49 87 50 88 54 89 57 90 51 91 52 92 55 93 53 94
REMARK H PARENT 14 6 18 28 77 47 45 58
REMARK Flexibility Score: inf
ROOT
ATOM      1  C   UNL A   1      31.782  28.965  26.782  1.00  0.00     0.042 C 
ENDROOT
BRANCH   1   2
ATOM      2  C   UNL A   1      32.335  27.551  26.873  1.00  0.00     0.118 C 
BRANCH   2   3
ATOM      3  N   UNL A   1      31.347  26.524  26.614  1.00  0.00    -0.353 N 
ATOM      4  C   UNL A   1      31.493  25.176  26.501  1.00  0.00     0.262 C 
ATOM      5  O   UNL A   1      30.451  24.517  26.406  1.00  0.00    -0.271 OA
ATOM      6  H   UNL A   1      30.425  26.851  26.502  1.00  0.00     0.163 HD
BRANCH   4   7
ATOM      7  C   UNL A   1      32.867  24.463  26.432  1.00  0.00     0.281 C 
ATOM      8  N   UNL A   1      33.246  24.550  23.996  1.00  0.00    -0.301 N 
ATOM      9  C   UNL A   1      33.690  25.076  25.291  1.00  0.00     0.181 C 
ATOM     10  C   UNL A   1      32.867  23.176  23.993  1.00  0.00     0.086 A 
ATOM     11  C   UNL A   1      32.847  22.464  25.200  1.00  0.00     0.144 A 
ATOM     12  C   UNL A   1      32.572  22.486  22.810  1.00  0.00     0.030 A 
ATOM     13  O   UNL A   1      32.999  23.049  26.434  1.00  0.00    -0.477 OA
ATOM     14  C   UNL A   1      32.594  21.089  25.218  1.00  0.00     0.049 A 
ATOM     15  C   UNL A   1      32.275  21.120  22.833  1.00  0.00     0.002 A 
ATOM     16  C   UNL A   1      32.298  20.419  24.035  1.00  0.00     0.004 A 
BRANCH   8  17
ATOM     17  C   UNL A   1      33.038  25.374  22.892  1.00  0.00     0.259 C 
ATOM     18  O   UNL A   1      33.634  25.195  21.827  1.00  0.00    -0.269 OA
BRANCH  17  19
ATOM     19  C   UNL A   1      32.105  26.505  23.027  1.00  0.00     0.053 A 
ATOM     20  C   UNL A   1      33.660  28.630  22.779  1.00  0.00     0.046 C 
ATOM     21  C   UNL A   1      32.348  27.938  22.960  1.00  0.00    -0.028 A 
ATOM     22  C   UNL A   1      31.162  28.650  23.033  1.00  0.00     0.069 A 
ATOM     23  S   UNL A   1      29.784  27.657  23.147  1.00  0.00    -0.151 S 
ATOM     24  C   UNL A   1      30.741  26.252  23.103  1.00  0.00     0.079 A 
ENDBRANCH  17  19
ENDBRANCH   8  17
ENDBRANCH   4   7
ENDBRANCH   2   3
ENDBRANCH   1   2
BRANCH   1  25
ATOM     25  C   UNL A   1      32.692  29.973  26.097  1.00  0.00     0.118 C 
BRANCH  25  26
ATOM     26  N   UNL A   1      32.446  31.353  26.493  1.00  0.00    -0.352 N 
ATOM     27  C   UNL A   1      33.160  32.178  27.330  1.00  0.00     0.251 C 
ATOM     28  H   UNL A   1      31.641  31.758  26.099  1.00  0.00     0.163 HD
ATOM     29  O   UNL A   1      32.719  33.287  27.621  1.00  0.00    -0.269 OA
BRANCH  27  30
ATOM     30  C   UNL A   1      34.440  31.728  27.926  1.00  0.00     0.039 A 
ATOM     31  C   UNL A   1      35.508  32.628  27.991  1.00  0.00     0.014 A 
ATOM     32  C   UNL A   1      34.596  30.434  28.426  1.00  0.00     0.014 A 
ATOM     33  C   UNL A   1      36.691  32.263  28.639  1.00  0.00     0.010 A 
ATOM     34  C   UNL A   1      35.734  30.104  29.158  1.00  0.00     0.010 A 
ATOM     35  C   UNL A   1      36.794  31.015  29.274  1.00  0.00    -0.014 A 
BRANCH  35  36
ATOM     36  C   UNL A   1      38.000  30.631  30.054  1.00  0.00     0.031 A 
ATOM     37  C   UNL A   1      39.013  29.693  29.456  1.00  0.00     0.074 A 
ATOM     38  C   UNL A   1      38.140  31.046  31.328  1.00  0.00     0.049 A 
ATOM     39  N   UNL A   1      40.045  29.118  30.019  1.00  0.00    -0.248 NA
ATOM     40  C   UNL A   1      38.816  29.323  28.045  1.00  0.00     0.031 C 
ATOM     41  C   UNL A   1      37.205  31.913  32.047  1.00  0.00     0.029 A 
ATOM     42  N   UNL A   1      39.119  30.777  32.253  1.00  0.00    -0.354 N 
ATOM     43  C   UNL A   1      40.590  28.289  29.048  1.00  0.00     0.074 A 
ATOM     44  C   UNL A   1      39.757  28.407  27.872  1.00  0.00     0.031 C 
ATOM     45  C   UNL A   1      37.667  32.124  33.291  1.00  0.00     0.029 A 
ATOM     46  C   UNL A   1      38.908  31.378  33.470  1.00  0.00     0.049 A 
ATOM     47  H   UNL A   1      39.899  30.208  32.062  1.00  0.00     0.167 HD
ATOM     48  C   UNL A   1      41.697  27.512  29.123  1.00  0.00     0.037 A 
ATOM     49  C   UNL A   1      39.630  31.326  34.606  1.00  0.00     0.037 A 
ATOM     50  C   UNL A   1      42.564  27.442  30.268  1.00  0.00     0.049 A 
ATOM     51  C   UNL A   1      40.889  30.504  34.643  1.00  0.00     0.074 A 
ATOM     52  C   UNL A   1      43.747  26.739  30.415  1.00  0.00     0.029 A 
ATOM     53  N   UNL A   1      42.348  28.117  31.460  1.00  0.00    -0.354 N 
ATOM     54  N   UNL A   1      41.414  29.755  33.705  1.00  0.00    -0.248 NA
ATOM     55  C   UNL A   1      41.655  30.522  35.897  1.00  0.00     0.031 C 
ATOM     56  C   UNL A   1      44.238  26.974  31.704  1.00  0.00     0.029 A 
ATOM     57  C   UNL A   1      43.375  27.847  32.348  1.00  0.00     0.049 A 
ATOM     58  H   UNL A   1      41.578  28.702  31.647  1.00  0.00     0.167 HD
ATOM     59  C   UNL A   1      42.582  29.234  34.243  1.00  0.00     0.074 A 
ATOM     60  C   UNL A   1      42.695  29.758  35.589  1.00  0.00     0.031 C 
ATOM     61  C   UNL A   1      43.478  28.393  33.675  1.00  0.00     0.037 A 
BRANCH  48  62
ATOM     62  C   UNL A   1      42.040  26.682  27.922  1.00  0.00     0.064 A 
ATOM     63  C   UNL A   1      42.930  27.145  26.941  1.00  0.00     0.173 A 
ATOM     64  C   UNL A   1      41.495  25.399  27.764  1.00  0.00     0.173 A 
ATOM     65  F   UNL A   1      43.466  28.370  27.041  1.00  0.00    -0.203 F 
ATOM     66  C   UNL A   1      43.239  26.363  25.831  1.00  0.00     0.198 A 
ATOM     67  C   UNL A   1      41.827  24.611  26.666  1.00  0.00     0.198 A 
ATOM     68  F   UNL A   1      40.642  24.911  28.677  1.00  0.00    -0.203 F 
ATOM     69  F   UNL A   1      44.056  26.844  24.883  1.00  0.00    -0.200 F 
ATOM     70  C   UNL A   1      42.693  25.096  25.698  1.00  0.00     0.200 A 
ATOM     71  F   UNL A   1      41.304  23.383  26.542  1.00  0.00    -0.200 F 
ATOM     72  F   UNL A   1      42.995  24.344  24.630  1.00  0.00    -0.200 F 
ENDBRANCH  48  62
BRANCH  49  73
ATOM     73  C   UNL A   1      39.199  32.105  35.794  1.00  0.00     0.064 A 
ATOM     74  C   UNL A   1      39.703  33.392  36.025  1.00  0.00     0.173 A 
ATOM     75  C   UNL A   1      38.282  31.585  36.718  1.00  0.00     0.173 A 
ATOM     76  F   UNL A   1      40.600  33.921  35.179  1.00  0.00    -0.203 F 
ATOM     77  C   UNL A   1      39.319  34.125  37.145  1.00  0.00     0.198 A 
ATOM     78  C   UNL A   1      37.882  32.327  37.826  1.00  0.00     0.198 A 
ATOM     79  F   UNL A   1      37.768  30.359  36.537  1.00  0.00    -0.203 F 
ATOM     80  F   UNL A   1      39.846  35.337  37.362  1.00  0.00    -0.200 F 
ATOM     81  C   UNL A   1      38.406  33.593  38.043  1.00  0.00     0.200 A 
ATOM     82  F   UNL A   1      36.991  31.816  38.686  1.00  0.00    -0.200 F 
ATOM     83  F   UNL A   1      38.034  34.300  39.120  1.00  0.00    -0.200 F 
ENDBRANCH  49  73
BRANCH  61  84
ATOM     84  C   UNL A   1      44.679  28.019  34.489  1.00  0.00     0.064 A 
ATOM     85  C   UNL A   1      45.844  28.800  34.475  1.00  0.00     0.173 A 
ATOM     86  C   UNL A   1      44.647  26.893  35.325  1.00  0.00     0.173 A 
ATOM     87  F   UNL A   1      45.925  29.876  33.679  1.00  0.00    -0.203 F 
ATOM     88  C   UNL A   1      46.941  28.456  35.260  1.00  0.00     0.198 A 
ATOM     89  C   UNL A   1      45.737  26.565  36.123  1.00  0.00     0.198 A 
ATOM     90  F   UNL A   1      43.552  26.118  35.373  1.00  0.00    -0.203 F 
ATOM     91  F   UNL A   1      48.057  29.196  35.208  1.00  0.00    -0.200 F 
ATOM     92  C   UNL A   1      46.885  27.344  36.087  1.00  0.00     0.200 A 
ATOM     93  F   UNL A   1      45.680  25.495  36.927  1.00  0.00    -0.200 F 
ATOM     94  F   UNL A   1      47.940  27.020  36.846  1.00  0.00    -0.200 F 
ENDBRANCH  61  84
ENDBRANCH  35  36
ENDBRANCH  27  30
ENDBRANCH  25  26
ENDBRANCH   1  25
TORSDOF 12
ENDMDL
