MODEL 1
REMARK VINA RESULT:     -10.2      0.000      0.000
REMARK SMILES Cc1nnc(/[NH+]=C2/S/C(=C/c3cccc(O[C@@H](C)C(=O)NCCCNC(=O)c4ccc(-c5c6nc(c(-c7c(F)c(F)c(F)c(F)c7F)c7ccc([nH]7)c(-c7c(F)c(F)c(F)c(F)c7F)c7nc(c(-c8c(F)c(F)c(F)c(F)c8F)c8ccc5[nH]8)C=C7)C=C6)cc4)c3)C(=O)N2C)s1
REMARK SMILES IDX 22 1 21 2 19 3 20 4 17 6 18 7 16 8 15 9 11 10 12 11 91 12
REMARK SMILES IDX 13 13 14 14 10 15 6 16 7 17 8 19 94 20 9 21 92 22 95 23
REMARK SMILES IDX 93 24 5 25 1 26 2 27 3 28 96 29 4 30 23 31 24 32 25 33 26 34
REMARK SMILES IDX 27 36 28 37 29 38 90 39 30 40 89 41 31 42 32 43 33 44 83 45
REMARK SMILES IDX 34 46 88 47 82 48 84 49 35 50 87 51 81 52 80 53 36 55 68 56
REMARK SMILES IDX 48 57 67 58 49 59 52 60 66 61 85 62 50 63 51 64 65 66 86 67
REMARK SMILES IDX 53 68 37 69 38 70 46 71 39 72 40 73 44 74 47 75 41 76 42 77
REMARK SMILES IDX 45 78 43 79 69 80 70 81 78 82 71 83 72 84 76 85 79 86 73 87
REMARK SMILES IDX 74 88 77 89 75 90 54 91 55 92 63 93 56 94 57 95 61 96 64 97
REMARK SMILES IDX 58 98 59 99 62 100 60 101
REMARK H PARENT 21 5 6 18 25 35 84 54 52 65
REMARK Flexibility Score: inf
ROOT
ATOM      1  C   UNL A   1      43.460  23.528  24.905  1.00  0.00     0.118 C 
ENDROOT
BRANCH   1   2
ATOM      2  N   UNL A   1      42.280  22.751  25.212  1.00  0.00    -0.353 N 
ATOM      3  C   UNL A   1      41.434  22.766  26.276  1.00  0.00     0.260 C 
ATOM      4  O   UNL A   1      40.603  21.847  26.301  1.00  0.00    -0.271 OA
ATOM      5  H   UNL A   1      42.047  22.088  24.523  1.00  0.00     0.163 HD
BRANCH   3   6
ATOM      6  C   UNL A   1      41.403  23.872  27.373  1.00  0.00     0.258 C 
ATOM      7  C   UNL A   1      42.252  23.518  28.595  1.00  0.00     0.064 C 
BRANCH   6   8
ATOM      8  O   UNL A   1      40.250  24.678  27.596  1.00  0.00    -0.481 OA
BRANCH   8   9
ATOM      9  C   UNL A   1      40.219  26.032  27.514  1.00  0.00     0.121 A 
ATOM     10  C   UNL A   1      39.440  28.263  28.121  1.00  0.00    -0.021 A 
ATOM     11  C   UNL A   1      40.148  28.796  27.036  1.00  0.00     0.008 A 
ATOM     12  C   UNL A   1      39.562  26.888  28.389  1.00  0.00     0.054 A 
ATOM     13  C   UNL A   1      40.919  27.962  26.222  1.00  0.00     0.004 A 
ATOM     14  C   UNL A   1      40.933  26.584  26.451  1.00  0.00     0.046 A 
BRANCH  10  15
ATOM     15  C   UNL A   1      38.298  29.030  28.673  1.00  0.00     0.031 C 
ATOM     16  N   UNL A   1      37.146  30.695  33.132  1.00  0.00    -0.226 N 
ATOM     17  C   UNL A   1      37.752  30.729  31.993  1.00  0.00     0.271 C 
ATOM     18  H   UNL A   1      36.171  30.554  33.158  1.00  0.00     0.268 HD
ATOM     19  S   UNL A   1      36.831  30.242  30.571  1.00  0.00    -0.012 SA
ATOM     20  N   UNL A   1      39.024  31.060  31.600  1.00  0.00    -0.222 N 
ATOM     21  C   UNL A   1      38.276  29.921  29.676  1.00  0.00     0.100 C 
ATOM     22  C   UNL A   1      39.401  30.633  30.338  1.00  0.00     0.321 C 
ATOM     23  C   UNL A   1      39.957  31.884  32.342  1.00  0.00     0.252 C 
ATOM     24  O   UNL A   1      40.490  30.820  29.815  1.00  0.00    -0.250 OA
BRANCH  16  25
ATOM     25  C   UNL A   1      37.826  30.849  34.290  1.00  0.00     0.345 A 
ATOM     26  C   UNL A   1      39.169  32.526  37.495  1.00  0.00     0.083 C 
ATOM     27  C   UNL A   1      38.748  31.715  36.324  1.00  0.00     0.135 A 
ATOM     28  N   UNL A   1      39.118  30.474  36.099  1.00  0.00    -0.067 NA
ATOM     29  S   UNL A   1      37.694  32.355  35.132  1.00  0.00    -0.044 S 
ATOM     30  N   UNL A   1      38.546  29.963  34.952  1.00  0.00     0.023 NA
ENDBRANCH  16  25
ENDBRANCH  10  15
ENDBRANCH   8   9
ENDBRANCH   6   8
ENDBRANCH   3   6
ENDBRANCH   1   2
BRANCH   1  31
ATOM     31  C   UNL A   1      44.711  22.866  25.475  1.00  0.00     0.042 C 
BRANCH  31  32
ATOM     32  C   UNL A   1      45.704  23.845  26.082  1.00  0.00     0.118 C 
BRANCH  32  33
ATOM     33  N   UNL A   1      46.320  24.711  25.082  1.00  0.00    -0.352 N 
ATOM     34  C   UNL A   1      46.467  26.075  25.008  1.00  0.00     0.251 C 
ATOM     35  H   UNL A   1      46.703  24.227  24.315  1.00  0.00     0.163 HD
ATOM     36  O   UNL A   1      46.912  26.567  23.974  1.00  0.00    -0.269 OA
BRANCH  34  37
ATOM     37  C   UNL A   1      46.096  26.976  26.123  1.00  0.00     0.039 A 
ATOM     38  C   UNL A   1      44.741  27.278  26.317  1.00  0.00     0.014 A 
ATOM     39  C   UNL A   1      47.052  27.593  26.929  1.00  0.00     0.014 A 
ATOM     40  C   UNL A   1      44.351  28.153  27.336  1.00  0.00     0.010 A 
ATOM     41  C   UNL A   1      46.659  28.371  28.013  1.00  0.00     0.010 A 
ATOM     42  C   UNL A   1      45.307  28.686  28.212  1.00  0.00    -0.014 A 
BRANCH  42  43
ATOM     43  C   UNL A   1      44.943  29.629  29.301  1.00  0.00     0.031 A 
ATOM     44  C   UNL A   1      44.603  29.092  30.666  1.00  0.00     0.074 A 
ATOM     45  C   UNL A   1      44.837  30.947  29.045  1.00  0.00     0.049 A 
ATOM     46  N   UNL A   1      44.104  29.712  31.706  1.00  0.00    -0.248 NA
ATOM     47  C   UNL A   1      44.811  27.649  30.876  1.00  0.00     0.031 C 
ATOM     48  C   UNL A   1      45.102  31.585  27.756  1.00  0.00     0.029 A 
ATOM     49  N   UNL A   1      44.457  31.986  29.858  1.00  0.00    -0.354 N 
ATOM     50  C   UNL A   1      43.902  28.731  32.669  1.00  0.00     0.074 A 
ATOM     51  C   UNL A   1      44.281  27.468  32.075  1.00  0.00     0.031 C 
ATOM     52  C   UNL A   1      44.897  32.908  27.869  1.00  0.00     0.029 A 
ATOM     53  C   UNL A   1      44.442  33.204  29.224  1.00  0.00     0.049 A 
ATOM     54  H   UNL A   1      44.219  31.870  30.806  1.00  0.00     0.167 HD
ATOM     55  C   UNL A   1      43.463  28.874  33.942  1.00  0.00     0.037 A 
ATOM     56  C   UNL A   1      44.090  34.419  29.682  1.00  0.00     0.037 A 
ATOM     57  C   UNL A   1      43.142  30.141  34.543  1.00  0.00     0.049 A 
ATOM     58  C   UNL A   1      43.636  34.557  31.110  1.00  0.00     0.074 A 
ATOM     59  C   UNL A   1      42.750  30.408  35.843  1.00  0.00     0.029 A 
ATOM     60  N   UNL A   1      43.189  31.360  33.880  1.00  0.00    -0.354 N 
ATOM     61  N   UNL A   1      43.488  33.631  32.026  1.00  0.00    -0.248 NA
ATOM     62  C   UNL A   1      43.307  35.913  31.572  1.00  0.00     0.031 C 
ATOM     63  C   UNL A   1      42.525  31.784  35.957  1.00  0.00     0.029 A 
ATOM     64  C   UNL A   1      42.826  32.381  34.743  1.00  0.00     0.049 A 
ATOM     65  H   UNL A   1      43.445  31.480  32.938  1.00  0.00     0.167 HD
ATOM     66  C   UNL A   1      43.082  34.291  33.177  1.00  0.00     0.074 A 
ATOM     67  C   UNL A   1      43.018  35.699  32.848  1.00  0.00     0.031 C 
ATOM     68  C   UNL A   1      42.787  33.779  34.398  1.00  0.00     0.037 A 
BRANCH  55  69
ATOM     69  C   UNL A   1      43.312  27.629  34.772  1.00  0.00     0.064 A 
ATOM     70  C   UNL A   1      44.380  27.103  35.514  1.00  0.00     0.173 A 
ATOM     71  C   UNL A   1      42.077  26.967  34.844  1.00  0.00     0.173 A 
ATOM     72  F   UNL A   1      45.586  27.688  35.472  1.00  0.00    -0.203 F 
ATOM     73  C   UNL A   1      44.228  25.940  36.267  1.00  0.00     0.198 A 
ATOM     74  C   UNL A   1      41.919  25.825  35.625  1.00  0.00     0.198 A 
ATOM     75  F   UNL A   1      41.020  27.429  34.159  1.00  0.00    -0.203 F 
ATOM     76  F   UNL A   1      45.279  25.425  36.920  1.00  0.00    -0.200 F 
ATOM     77  C   UNL A   1      42.996  25.307  36.328  1.00  0.00     0.200 A 
ATOM     78  F   UNL A   1      40.724  25.221  35.693  1.00  0.00    -0.200 F 
ATOM     79  F   UNL A   1      42.850  24.192  37.057  1.00  0.00    -0.200 F 
ENDBRANCH  55  69
BRANCH  56  80
ATOM     80  C   UNL A   1      44.185  35.607  28.792  1.00  0.00     0.064 A 
ATOM     81  C   UNL A   1      43.084  36.018  28.028  1.00  0.00     0.173 A 
ATOM     82  C   UNL A   1      45.366  36.355  28.690  1.00  0.00     0.173 A 
ATOM     83  F   UNL A   1      41.938  35.324  28.078  1.00  0.00    -0.203 F 
ATOM     84  C   UNL A   1      43.168  37.120  27.178  1.00  0.00     0.198 A 
ATOM     85  C   UNL A   1      45.440  37.474  27.862  1.00  0.00     0.198 A 
ATOM     86  F   UNL A   1      46.446  36.009  29.407  1.00  0.00    -0.203 F 
ATOM     87  F   UNL A   1      42.114  37.463  26.426  1.00  0.00    -0.200 F 
ATOM     88  C   UNL A   1      44.344  37.850  27.101  1.00  0.00     0.200 A 
ATOM     89  F   UNL A   1      46.572  38.187  27.802  1.00  0.00    -0.200 F 
ATOM     90  F   UNL A   1      44.422  38.912  26.288  1.00  0.00    -0.200 F 
ENDBRANCH  56  80
BRANCH  68  91
ATOM     91  C   UNL A   1      42.421  34.752  35.479  1.00  0.00     0.064 A 
ATOM     92  C   UNL A   1      41.089  35.121  35.720  1.00  0.00     0.173 A 
ATOM     93  C   UNL A   1      43.415  35.292  36.309  1.00  0.00     0.173 A 
ATOM     94  F   UNL A   1      40.106  34.642  34.945  1.00  0.00    -0.203 F 
ATOM     95  C   UNL A   1      40.770  36.018  36.735  1.00  0.00     0.198 A 
ATOM     96  C   UNL A   1      43.088  36.165  37.342  1.00  0.00     0.198 A 
ATOM     97  F   UNL A   1      44.702  34.964  36.124  1.00  0.00    -0.203 F 
ATOM     98  F   UNL A   1      39.497  36.396  36.916  1.00  0.00    -0.200 F 
ATOM     99  C   UNL A   1      41.768  36.534  37.549  1.00  0.00     0.200 A 
ATOM    100  F   UNL A   1      44.053  36.651  38.136  1.00  0.00    -0.200 F 
ATOM    101  F   UNL A   1      41.458  37.393  38.530  1.00  0.00    -0.200 F 
ENDBRANCH  68  91
ENDBRANCH  42  43
ENDBRANCH  34  37
ENDBRANCH  32  33
ENDBRANCH  31  32
ENDBRANCH   1  31
TORSDOF 14
ENDMDL
MODEL 2
REMARK VINA RESULT:     -10.1      3.605      7.208
REMARK SMILES Cc1nnc(/[NH+]=C2/S/C(=C/c3cccc(O[C@@H](C)C(=O)NCCCNC(=O)c4ccc(-c5c6nc(c(-c7c(F)c(F)c(F)c(F)c7F)c7ccc([nH]7)c(-c7c(F)c(F)c(F)c(F)c7F)c7nc(c(-c8c(F)c(F)c(F)c(F)c8F)c8ccc5[nH]8)C=C7)C=C6)cc4)c3)C(=O)N2C)s1
REMARK SMILES IDX 22 1 21 2 19 3 20 4 17 6 18 7 16 8 15 9 11 10 12 11 91 12
REMARK SMILES IDX 13 13 14 14 10 15 6 16 7 17 8 19 94 20 9 21 92 22 95 23
REMARK SMILES IDX 93 24 5 25 1 26 2 27 3 28 96 29 4 30 23 31 24 32 25 33 26 34
REMARK SMILES IDX 27 36 28 37 29 38 90 39 30 40 89 41 31 42 32 43 33 44 83 45
REMARK SMILES IDX 34 46 88 47 82 48 84 49 35 50 87 51 81 52 80 53 36 55 68 56
REMARK SMILES IDX 48 57 67 58 49 59 52 60 66 61 85 62 50 63 51 64 65 66 86 67
REMARK SMILES IDX 53 68 37 69 38 70 46 71 39 72 40 73 44 74 47 75 41 76 42 77
REMARK SMILES IDX 45 78 43 79 69 80 70 81 78 82 71 83 72 84 76 85 79 86 73 87
REMARK SMILES IDX 74 88 77 89 75 90 54 91 55 92 63 93 56 94 57 95 61 96 64 97
REMARK SMILES IDX 58 98 59 99 62 100 60 101
REMARK H PARENT 21 5 6 18 25 35 84 54 52 65
REMARK Flexibility Score: inf
ROOT
ATOM      1  C   UNL A   1      42.735  22.835  25.906  1.00  0.00     0.118 C 
ENDROOT
BRANCH   1   2
ATOM      2  N   UNL A   1      43.662  23.135  26.974  1.00  0.00    -0.353 N 
ATOM      3  C   UNL A   1      44.832  23.827  26.993  1.00  0.00     0.260 C 
ATOM      4  O   UNL A   1      45.467  23.759  28.055  1.00  0.00    -0.271 OA
ATOM      5  H   UNL A   1      43.397  22.770  27.849  1.00  0.00     0.163 HD
BRANCH   3   6
ATOM      6  C   UNL A   1      45.354  24.724  25.831  1.00  0.00     0.258 C 
ATOM      7  C   UNL A   1      46.118  23.933  24.768  1.00  0.00     0.064 C 
BRANCH   6   8
ATOM      8  O   UNL A   1      45.754  26.075  26.045  1.00  0.00    -0.481 OA
BRANCH   8   9
ATOM      9  C   UNL A   1      44.917  27.143  26.054  1.00  0.00     0.121 A 
ATOM     10  C   UNL A   1      44.218  29.394  26.681  1.00  0.00    -0.021 A 
ATOM     11  C   UNL A   1      42.955  29.148  26.126  1.00  0.00     0.008 A 
ATOM     12  C   UNL A   1      45.209  28.404  26.556  1.00  0.00     0.054 A 
ATOM     13  C   UNL A   1      42.689  27.926  25.502  1.00  0.00     0.004 A 
ATOM     14  C   UNL A   1      43.661  26.924  25.489  1.00  0.00     0.046 A 
BRANCH  10  15
ATOM     15  C   UNL A   1      44.348  30.451  27.713  1.00  0.00     0.031 C 
ATOM     16  N   UNL A   1      46.936  34.596  28.036  1.00  0.00    -0.226 N 
ATOM     17  C   UNL A   1      45.943  33.866  27.655  1.00  0.00     0.271 C 
ATOM     18  H   UNL A   1      47.197  34.601  28.986  1.00  0.00     0.268 HD
ATOM     19  S   UNL A   1      45.293  32.712  28.818  1.00  0.00    -0.012 SA
ATOM     20  N   UNL A   1      45.236  33.756  26.484  1.00  0.00    -0.222 N 
ATOM     21  C   UNL A   1      44.575  31.765  27.561  1.00  0.00     0.100 C 
ATOM     22  C   UNL A   1      44.468  32.612  26.343  1.00  0.00     0.321 C 
ATOM     23  C   UNL A   1      45.152  34.759  25.442  1.00  0.00     0.252 C 
ATOM     24  O   UNL A   1      43.778  32.328  25.374  1.00  0.00    -0.250 OA
BRANCH  16  25
ATOM     25  C   UNL A   1      47.626  35.353  27.154  1.00  0.00     0.345 A 
ATOM     26  C   UNL A   1      50.138  36.274  24.373  1.00  0.00     0.083 C 
ATOM     27  C   UNL A   1      49.114  36.112  25.437  1.00  0.00     0.135 A 
ATOM     28  N   UNL A   1      48.384  37.089  25.930  1.00  0.00    -0.067 NA
ATOM     29  S   UNL A   1      48.783  34.578  26.127  1.00  0.00    -0.044 S 
ATOM     30  N   UNL A   1      47.494  36.638  26.884  1.00  0.00     0.023 NA
ENDBRANCH  16  25
ENDBRANCH  10  15
ENDBRANCH   8   9
ENDBRANCH   6   8
ENDBRANCH   3   6
ENDBRANCH   1   2
BRANCH   1  31
ATOM     31  C   UNL A   1      42.072  21.479  26.125  1.00  0.00     0.042 C 
BRANCH  31  32
ATOM     32  C   UNL A   1      40.844  21.531  27.021  1.00  0.00     0.118 C 
BRANCH  32  33
ATOM     33  N   UNL A   1      39.627  21.857  26.286  1.00  0.00    -0.352 N 
ATOM     34  C   UNL A   1      38.844  22.984  26.251  1.00  0.00     0.251 C 
ATOM     35  H   UNL A   1      39.306  21.131  25.703  1.00  0.00     0.163 HD
ATOM     36  O   UNL A   1      37.779  22.947  25.640  1.00  0.00    -0.269 OA
BRANCH  34  37
ATOM     37  C   UNL A   1      39.229  24.241  26.936  1.00  0.00     0.039 A 
ATOM     38  C   UNL A   1      39.949  25.203  26.214  1.00  0.00     0.014 A 
ATOM     39  C   UNL A   1      38.969  24.458  28.287  1.00  0.00     0.014 A 
ATOM     40  C   UNL A   1      40.363  26.387  26.834  1.00  0.00     0.010 A 
ATOM     41  C   UNL A   1      39.278  25.682  28.873  1.00  0.00     0.010 A 
ATOM     42  C   UNL A   1      40.005  26.649  28.164  1.00  0.00    -0.014 A 
BRANCH  42  43
ATOM     43  C   UNL A   1      40.432  27.885  28.869  1.00  0.00     0.031 A 
ATOM     44  C   UNL A   1      41.828  27.977  29.426  1.00  0.00     0.074 A 
ATOM     45  C   UNL A   1      39.551  28.881  29.079  1.00  0.00     0.049 A 
ATOM     46  N   UNL A   1      42.355  28.883  30.210  1.00  0.00    -0.248 NA
ATOM     47  C   UNL A   1      42.745  26.874  29.091  1.00  0.00     0.031 C 
ATOM     48  C   UNL A   1      38.161  28.895  28.623  1.00  0.00     0.029 A 
ATOM     49  N   UNL A   1      39.692  30.070  29.751  1.00  0.00    -0.354 N 
ATOM     50  C   UNL A   1      43.640  28.438  30.492  1.00  0.00     0.074 A 
ATOM     51  C   UNL A   1      43.798  27.157  29.841  1.00  0.00     0.031 C 
ATOM     52  C   UNL A   1      37.582  30.043  29.010  1.00  0.00     0.029 A 
ATOM     53  C   UNL A   1      38.545  30.825  29.780  1.00  0.00     0.049 A 
ATOM     54  H   UNL A   1      40.535  30.354  30.173  1.00  0.00     0.167 HD
ATOM     55  C   UNL A   1      44.610  29.053  31.210  1.00  0.00     0.037 A 
ATOM     56  C   UNL A   1      38.298  32.009  30.370  1.00  0.00     0.037 A 
ATOM     57  C   UNL A   1      44.464  30.353  31.808  1.00  0.00     0.049 A 
ATOM     58  C   UNL A   1      39.401  32.687  31.136  1.00  0.00     0.074 A 
ATOM     59  C   UNL A   1      45.401  31.097  32.502  1.00  0.00     0.029 A 
ATOM     60  N   UNL A   1      43.301  31.109  31.770  1.00  0.00    -0.354 N 
ATOM     61  N   UNL A   1      40.626  32.278  31.362  1.00  0.00    -0.248 NA
ATOM     62  C   UNL A   1      39.090  33.999  31.722  1.00  0.00     0.031 C 
ATOM     63  C   UNL A   1      44.795  32.289  32.914  1.00  0.00     0.029 A 
ATOM     64  C   UNL A   1      43.495  32.309  32.435  1.00  0.00     0.049 A 
ATOM     65  H   UNL A   1      42.462  30.834  31.334  1.00  0.00     0.167 HD
ATOM     66  C   UNL A   1      41.241  33.290  32.086  1.00  0.00     0.074 A 
ATOM     67  C   UNL A   1      40.257  34.340  32.251  1.00  0.00     0.031 C 
ATOM     68  C   UNL A   1      42.506  33.347  32.571  1.00  0.00     0.037 A 
BRANCH  55  69
ATOM     69  C   UNL A   1      45.917  28.329  31.382  1.00  0.00     0.064 A 
ATOM     70  C   UNL A   1      46.981  28.504  30.483  1.00  0.00     0.173 A 
ATOM     71  C   UNL A   1      46.116  27.467  32.471  1.00  0.00     0.173 A 
ATOM     72  F   UNL A   1      46.841  29.307  29.418  1.00  0.00    -0.203 F 
ATOM     73  C   UNL A   1      48.181  27.815  30.648  1.00  0.00     0.198 A 
ATOM     74  C   UNL A   1      47.329  26.807  32.652  1.00  0.00     0.198 A 
ATOM     75  F   UNL A   1      45.135  27.266  33.363  1.00  0.00    -0.203 F 
ATOM     76  F   UNL A   1      49.161  27.954  29.744  1.00  0.00    -0.200 F 
ATOM     77  C   UNL A   1      48.356  26.974  31.736  1.00  0.00     0.200 A 
ATOM     78  F   UNL A   1      47.501  26.003  33.710  1.00  0.00    -0.200 F 
ATOM     79  F   UNL A   1      49.513  26.316  31.896  1.00  0.00    -0.200 F 
ENDBRANCH  55  69
BRANCH  56  80
ATOM     80  C   UNL A   1      36.960  32.643  30.234  1.00  0.00     0.064 A 
ATOM     81  C   UNL A   1      36.006  32.530  31.254  1.00  0.00     0.173 A 
ATOM     82  C   UNL A   1      36.609  33.377  29.091  1.00  0.00     0.173 A 
ATOM     83  F   UNL A   1      36.288  31.822  32.358  1.00  0.00    -0.203 F 
ATOM     84  C   UNL A   1      34.743  33.106  31.129  1.00  0.00     0.198 A 
ATOM     85  C   UNL A   1      35.356  33.978  28.979  1.00  0.00     0.198 A 
ATOM     86  F   UNL A   1      37.489  33.525  28.090  1.00  0.00    -0.203 F 
ATOM     87  F   UNL A   1      33.836  32.943  32.100  1.00  0.00    -0.200 F 
ATOM     88  C   UNL A   1      34.422  33.835  29.994  1.00  0.00     0.200 A 
ATOM     89  F   UNL A   1      35.055  34.696  27.889  1.00  0.00    -0.200 F 
ATOM     90  F   UNL A   1      33.210  34.395  29.876  1.00  0.00    -0.200 F 
ENDBRANCH  56  80
BRANCH  68  91
ATOM     91  C   UNL A   1      42.912  34.605  33.280  1.00  0.00     0.064 A 
ATOM     92  C   UNL A   1      43.358  35.736  32.581  1.00  0.00     0.173 A 
ATOM     93  C   UNL A   1      42.816  34.690  34.677  1.00  0.00     0.173 A 
ATOM     94  F   UNL A   1      43.478  35.700  31.246  1.00  0.00    -0.203 F 
ATOM     95  C   UNL A   1      43.720  36.897  33.258  1.00  0.00     0.198 A 
ATOM     96  C   UNL A   1      43.151  35.862  35.348  1.00  0.00     0.198 A 
ATOM     97  F   UNL A   1      42.388  33.638  35.391  1.00  0.00    -0.203 F 
ATOM     98  F   UNL A   1      44.191  37.949  32.575  1.00  0.00    -0.200 F 
ATOM     99  C   UNL A   1      43.610  36.961  34.640  1.00  0.00     0.200 A 
ATOM    100  F   UNL A   1      43.030  35.926  36.682  1.00  0.00    -0.200 F 
ATOM    101  F   UNL A   1      43.955  38.082  35.290  1.00  0.00    -0.200 F 
ENDBRANCH  68  91
ENDBRANCH  42  43
ENDBRANCH  34  37
ENDBRANCH  32  33
ENDBRANCH  31  32
ENDBRANCH   1  31
TORSDOF 14
ENDMDL
MODEL 3
REMARK VINA RESULT:     -10.0      4.111     10.623
REMARK SMILES Cc1nnc(/[NH+]=C2/S/C(=C/c3cccc(O[C@@H](C)C(=O)NCCCNC(=O)c4ccc(-c5c6nc(c(-c7c(F)c(F)c(F)c(F)c7F)c7ccc([nH]7)c(-c7c(F)c(F)c(F)c(F)c7F)c7nc(c(-c8c(F)c(F)c(F)c(F)c8F)c8ccc5[nH]8)C=C7)C=C6)cc4)c3)C(=O)N2C)s1
REMARK SMILES IDX 22 1 21 2 19 3 20 4 17 6 18 7 16 8 15 9 11 10 12 11 91 12
REMARK SMILES IDX 13 13 14 14 10 15 6 16 7 17 8 19 94 20 9 21 92 22 95 23
REMARK SMILES IDX 93 24 5 25 1 26 2 27 3 28 96 29 4 30 23 31 24 32 25 33 26 34
REMARK SMILES IDX 27 36 28 37 29 38 90 39 30 40 89 41 31 42 32 43 33 44 83 45
REMARK SMILES IDX 34 46 88 47 82 48 84 49 35 50 87 51 81 52 80 53 36 55 68 56
REMARK SMILES IDX 48 57 67 58 49 59 52 60 66 61 85 62 50 63 51 64 65 66 86 67
REMARK SMILES IDX 53 68 37 69 38 70 46 71 39 72 40 73 44 74 47 75 41 76 42 77
REMARK SMILES IDX 45 78 43 79 69 80 70 81 78 82 71 83 72 84 76 85 79 86 73 87
REMARK SMILES IDX 74 88 77 89 75 90 54 91 55 92 63 93 56 94 57 95 61 96 64 97
REMARK SMILES IDX 58 98 59 99 62 100 60 101
REMARK H PARENT 21 5 6 18 25 35 84 54 52 65
REMARK Flexibility Score: inf
ROOT
ATOM      1  C   UNL A   1      34.503  33.182  31.051  1.00  0.00     0.118 C 
ENDROOT
BRANCH   1   2
ATOM      2  N   UNL A   1      35.719  32.431  31.275  1.00  0.00    -0.353 N 
ATOM      3  C   UNL A   1      37.005  32.824  31.471  1.00  0.00     0.260 C 
ATOM      4  O   UNL A   1      37.841  31.909  31.472  1.00  0.00    -0.271 OA
ATOM      5  H   UNL A   1      35.590  31.456  31.286  1.00  0.00     0.163 HD
BRANCH   3   6
ATOM      6  C   UNL A   1      37.454  34.288  31.761  1.00  0.00     0.258 C 
ATOM      7  C   UNL A   1      38.792  34.638  31.108  1.00  0.00     0.064 C 
BRANCH   6   8
ATOM      8  O   UNL A   1      37.141  34.941  32.989  1.00  0.00    -0.481 OA
BRANCH   8   9
ATOM      9  C   UNL A   1      37.509  34.505  34.219  1.00  0.00     0.121 A 
ATOM     10  C   UNL A   1      39.108  33.907  35.962  1.00  0.00    -0.021 A 
ATOM     11  C   UNL A   1      38.061  33.375  36.727  1.00  0.00     0.008 A 
ATOM     12  C   UNL A   1      38.793  34.544  34.748  1.00  0.00     0.054 A 
ATOM     13  C   UNL A   1      36.745  33.445  36.263  1.00  0.00     0.004 A 
ATOM     14  C   UNL A   1      36.479  33.988  35.005  1.00  0.00     0.046 A 
BRANCH  10  15
ATOM     15  C   UNL A   1      40.489  33.432  36.217  1.00  0.00     0.031 C 
ATOM     16  N   UNL A   1      42.531  29.012  36.740  1.00  0.00    -0.226 N 
ATOM     17  C   UNL A   1      42.060  30.009  36.070  1.00  0.00     0.271 C 
ATOM     18  H   UNL A   1      43.194  29.175  37.449  1.00  0.00     0.268 HD
ATOM     19  S   UNL A   1      42.432  31.628  36.658  1.00  0.00    -0.012 SA
ATOM     20  N   UNL A   1      41.279  30.118  34.947  1.00  0.00    -0.222 N 
ATOM     21  C   UNL A   1      41.093  32.308  35.801  1.00  0.00     0.100 C 
ATOM     22  C   UNL A   1      40.690  31.353  34.735  1.00  0.00     0.321 C 
ATOM     23  C   UNL A   1      41.097  29.099  33.933  1.00  0.00     0.252 C 
ATOM     24  O   UNL A   1      39.956  31.645  33.800  1.00  0.00    -0.250 OA
BRANCH  16  25
ATOM     25  C   UNL A   1      42.128  27.747  36.485  1.00  0.00     0.345 A 
ATOM     26  C   UNL A   1      42.260  24.091  35.256  1.00  0.00     0.083 C 
ATOM     27  C   UNL A   1      42.026  25.454  35.799  1.00  0.00     0.135 A 
ATOM     28  N   UNL A   1      40.911  25.852  36.372  1.00  0.00    -0.067 NA
ATOM     29  S   UNL A   1      43.243  26.660  35.731  1.00  0.00    -0.044 S 
ATOM     30  N   UNL A   1      40.992  27.159  36.809  1.00  0.00     0.023 NA
ENDBRANCH  16  25
ENDBRANCH  10  15
ENDBRANCH   8   9
ENDBRANCH   6   8
ENDBRANCH   3   6
ENDBRANCH   1   2
BRANCH   1  31
ATOM     31  C   UNL A   1      34.407  33.643  29.600  1.00  0.00     0.042 C 
BRANCH  31  32
ATOM     32  C   UNL A   1      35.205  32.788  28.628  1.00  0.00     0.118 C 
BRANCH  32  33
ATOM     33  N   UNL A   1      34.496  31.574  28.236  1.00  0.00    -0.352 N 
ATOM     34  C   UNL A   1      34.925  30.292  27.995  1.00  0.00     0.251 C 
ATOM     35  H   UNL A   1      33.526  31.698  28.122  1.00  0.00     0.163 HD
ATOM     36  O   UNL A   1      34.127  29.477  27.539  1.00  0.00    -0.269 OA
BRANCH  34  37
ATOM     37  C   UNL A   1      36.318  29.859  28.252  1.00  0.00     0.039 A 
ATOM     38  C   UNL A   1      36.624  29.288  29.495  1.00  0.00     0.014 A 
ATOM     39  C   UNL A   1      37.343  30.073  27.332  1.00  0.00     0.014 A 
ATOM     40  C   UNL A   1      37.935  28.899  29.791  1.00  0.00     0.010 A 
ATOM     41  C   UNL A   1      38.621  29.583  27.579  1.00  0.00     0.010 A 
ATOM     42  C   UNL A   1      38.941  29.017  28.822  1.00  0.00    -0.014 A 
BRANCH  42  43
ATOM     43  C   UNL A   1      40.349  28.629  29.093  1.00  0.00     0.031 A 
ATOM     44  C   UNL A   1      41.265  29.600  29.791  1.00  0.00     0.074 A 
ATOM     45  C   UNL A   1      40.824  27.453  28.644  1.00  0.00     0.049 A 
ATOM     46  N   UNL A   1      42.558  29.538  29.981  1.00  0.00    -0.248 NA
ATOM     47  C   UNL A   1      40.646  30.833  30.308  1.00  0.00     0.031 C 
ATOM     48  C   UNL A   1      40.049  26.444  27.922  1.00  0.00     0.029 A 
ATOM     49  N   UNL A   1      42.086  26.914  28.713  1.00  0.00    -0.354 N 
ATOM     50  C   UNL A   1      42.908  30.733  30.596  1.00  0.00     0.074 A 
ATOM     51  C   UNL A   1      41.703  31.525  30.701  1.00  0.00     0.031 C 
ATOM     52  C   UNL A   1      40.843  25.401  27.633  1.00  0.00     0.029 A 
ATOM     53  C   UNL A   1      42.194  25.687  28.107  1.00  0.00     0.049 A 
ATOM     54  H   UNL A   1      42.840  27.365  29.156  1.00  0.00     0.167 HD
ATOM     55  C   UNL A   1      44.121  31.125  31.055  1.00  0.00     0.037 A 
ATOM     56  C   UNL A   1      43.266  24.889  27.944  1.00  0.00     0.037 A 
ATOM     57  C   UNL A   1      45.303  30.307  30.997  1.00  0.00     0.049 A 
ATOM     58  C   UNL A   1      44.596  25.333  28.489  1.00  0.00     0.074 A 
ATOM     59  C   UNL A   1      46.568  30.579  31.488  1.00  0.00     0.029 A 
ATOM     60  N   UNL A   1      45.360  29.047  30.419  1.00  0.00    -0.354 N 
ATOM     61  N   UNL A   1      44.909  26.447  29.107  1.00  0.00    -0.248 NA
ATOM     62  C   UNL A   1      45.723  24.404  28.323  1.00  0.00     0.031 C 
ATOM     63  C   UNL A   1      47.399  29.498  31.176  1.00  0.00     0.029 A 
ATOM     64  C   UNL A   1      46.640  28.531  30.535  1.00  0.00     0.049 A 
ATOM     65  H   UNL A   1      44.602  28.587  29.992  1.00  0.00     0.167 HD
ATOM     66  C   UNL A   1      46.253  26.341  29.431  1.00  0.00     0.074 A 
ATOM     67  C   UNL A   1      46.696  25.047  28.952  1.00  0.00     0.031 C 
ATOM     68  C   UNL A   1      47.053  27.232  30.067  1.00  0.00     0.037 A 
BRANCH  55  69
ATOM     69  C   UNL A   1      44.227  32.495  31.664  1.00  0.00     0.064 A 
ATOM     70  C   UNL A   1      44.158  32.693  33.052  1.00  0.00     0.173 A 
ATOM     71  C   UNL A   1      44.423  33.623  30.852  1.00  0.00     0.173 A 
ATOM     72  F   UNL A   1      43.959  31.652  33.874  1.00  0.00    -0.203 F 
ATOM     73  C   UNL A   1      44.244  33.971  33.601  1.00  0.00     0.198 A 
ATOM     74  C   UNL A   1      44.544  34.895  31.407  1.00  0.00     0.198 A 
ATOM     75  F   UNL A   1      44.502  33.492  29.520  1.00  0.00    -0.203 F 
ATOM     76  F   UNL A   1      44.116  34.140  34.924  1.00  0.00    -0.200 F 
ATOM     77  C   UNL A   1      44.444  35.069  32.779  1.00  0.00     0.200 A 
ATOM     78  F   UNL A   1      44.750  35.954  30.612  1.00  0.00    -0.200 F 
ATOM     79  F   UNL A   1      44.532  36.297  33.309  1.00  0.00    -0.200 F 
ENDBRANCH  55  69
BRANCH  56  80
ATOM     80  C   UNL A   1      43.119  23.576  27.261  1.00  0.00     0.064 A 
ATOM     81  C   UNL A   1      43.572  23.398  25.947  1.00  0.00     0.173 A 
ATOM     82  C   UNL A   1      42.532  22.477  27.904  1.00  0.00     0.173 A 
ATOM     83  F   UNL A   1      44.123  24.425  25.284  1.00  0.00    -0.203 F 
ATOM     84  C   UNL A   1      43.424  22.176  25.293  1.00  0.00     0.198 A 
ATOM     85  C   UNL A   1      42.411  21.247  27.260  1.00  0.00     0.198 A 
ATOM     86  F   UNL A   1      42.091  22.592  29.166  1.00  0.00    -0.203 F 
ATOM     87  F   UNL A   1      43.825  22.047  24.021  1.00  0.00    -0.200 F 
ATOM     88  C   UNL A   1      42.849  21.100  25.952  1.00  0.00     0.200 A 
ATOM     89  F   UNL A   1      41.871  20.205  27.905  1.00  0.00    -0.200 F 
ATOM     90  F   UNL A   1      42.712  19.924  25.326  1.00  0.00    -0.200 F 
ENDBRANCH  56  80
BRANCH  68  91
ATOM     91  C   UNL A   1      48.471  26.818  30.328  1.00  0.00     0.064 A 
ATOM     92  C   UNL A   1      48.820  26.038  31.439  1.00  0.00     0.173 A 
ATOM     93  C   UNL A   1      49.487  27.178  29.429  1.00  0.00     0.173 A 
ATOM     94  F   UNL A   1      47.887  25.681  32.333  1.00  0.00    -0.203 F 
ATOM     95  C   UNL A   1      50.141  25.656  31.657  1.00  0.00     0.198 A 
ATOM     96  C   UNL A   1      50.801  26.769  29.634  1.00  0.00     0.198 A 
ATOM     97  F   UNL A   1      49.203  27.917  28.347  1.00  0.00    -0.203 F 
ATOM     98  F   UNL A   1      50.461  24.953  32.751  1.00  0.00    -0.200 F 
ATOM     99  C   UNL A   1      51.129  26.016  30.751  1.00  0.00     0.200 A 
ATOM    100  F   UNL A   1      51.752  27.105  28.750  1.00  0.00    -0.200 F 
ATOM    101  F   UNL A   1      52.399  25.643  30.960  1.00  0.00    -0.200 F 
ENDBRANCH  68  91
ENDBRANCH  42  43
ENDBRANCH  34  37
ENDBRANCH  32  33
ENDBRANCH  31  32
ENDBRANCH   1  31
TORSDOF 14
ENDMDL
