MODEL 1
REMARK VINA RESULT:     -11.3      0.000      0.000
REMARK SMILES COc1cnc(F)c(C(=O)NCCCNC(=O)c2ccc(-c3c4nc(c(-c5c(F)c(F)c(F)c(F)c5F)c5ccc([nH]5)c(-c5c(F)c(F)c(F)c(F)c5F)c5nc(c(-c6c(F)c(F)c(F)c(F)c6F)c6ccc3[nH]6)C=C5)C=C4)cc2)c1
REMARK SMILES IDX 13 1 12 2 11 3 9 4 10 5 8 7 3 8 4 9 81 10 5 11 6 12 7 13
REMARK SMILES IDX 2 14 1 15 14 16 15 17 16 18 17 20 18 21 19 22 80 23 20 24
REMARK SMILES IDX 79 25 21 26 22 27 23 28 73 29 24 30 78 31 72 32 74 33 25 34
REMARK SMILES IDX 77 35 71 36 70 37 26 39 58 40 38 41 57 42 39 43 42 44 56 45
REMARK SMILES IDX 75 46 40 47 41 48 55 50 76 51 43 52 27 53 28 54 36 55 29 56
REMARK SMILES IDX 30 57 34 58 37 59 31 60 32 61 35 62 33 63 59 64 60 65 68 66
REMARK SMILES IDX 61 67 62 68 66 69 69 70 63 71 64 72 67 73 65 74 44 75 45 76
REMARK SMILES IDX 53 77 46 78 47 79 51 80 54 81 48 82 49 83 52 84 50 85
REMARK H PARENT 11 6 15 19 74 38 42 49
REMARK Flexibility Score: inf
ROOT
ATOM      1  C   UNL A   1      32.799  27.851  25.831  1.00  0.00     0.042 C 
ENDROOT
BRANCH   1   2
ATOM      2  C   UNL A   1      31.398  27.607  25.269  1.00  0.00     0.118 C 
BRANCH   2   3
ATOM      3  N   UNL A   1      31.451  27.237  23.864  1.00  0.00    -0.352 N 
ATOM      4  C   UNL A   1      30.701  27.598  22.777  1.00  0.00     0.256 C 
ATOM      5  O   UNL A   1      31.025  27.114  21.690  1.00  0.00    -0.269 OA
ATOM      6  H   UNL A   1      32.169  26.598  23.652  1.00  0.00     0.163 HD
BRANCH   4   7
ATOM      7  C   UNL A   1      29.586  28.566  22.796  1.00  0.00     0.098 A 
ATOM      8  C   UNL A   1      28.820  30.782  22.199  1.00  0.00     0.138 A 
ATOM      9  C   UNL A   1      27.573  30.436  22.691  1.00  0.00     0.160 A 
ATOM     10  C   UNL A   1      29.846  29.848  22.287  1.00  0.00     0.066 A 
ATOM     11  N   UNL A   1      27.275  29.209  23.167  1.00  0.00    -0.224 NA
ATOM     12  C   UNL A   1      28.279  28.296  23.174  1.00  0.00     0.225 A 
ATOM     13  F   UNL A   1      27.909  27.058  23.522  1.00  0.00    -0.184 F 
BRANCH   8  14
ATOM     14  O   UNL A   1      28.996  32.030  21.678  1.00  0.00    -0.495 OA
ATOM     15  C   UNL A   1      27.911  32.396  20.821  1.00  0.00     0.278 C 
ENDBRANCH   8  14
ENDBRANCH   4   7
ENDBRANCH   2   3
ENDBRANCH   1   2
BRANCH   1  16
ATOM     16  C   UNL A   1      33.498  29.083  25.260  1.00  0.00     0.118 C 
BRANCH  16  17
ATOM     17  N   UNL A   1      32.996  30.319  25.837  1.00  0.00    -0.352 N 
ATOM     18  C   UNL A   1      33.422  31.027  26.933  1.00  0.00     0.251 C 
ATOM     19  H   UNL A   1      32.226  30.712  25.365  1.00  0.00     0.163 HD
ATOM     20  O   UNL A   1      32.721  31.940  27.361  1.00  0.00    -0.269 OA
BRANCH  18  21
ATOM     21  C   UNL A   1      34.703  30.715  27.611  1.00  0.00     0.039 A 
ATOM     22  C   UNL A   1      34.822  29.482  28.262  1.00  0.00     0.014 A 
ATOM     23  C   UNL A   1      35.746  31.641  27.694  1.00  0.00     0.014 A 
ATOM     24  C   UNL A   1      35.986  29.168  28.967  1.00  0.00     0.010 A 
ATOM     25  C   UNL A   1      36.934  31.303  28.346  1.00  0.00     0.010 A 
ATOM     26  C   UNL A   1      37.060  30.071  29.005  1.00  0.00    -0.014 A 
BRANCH  26  27
ATOM     27  C   UNL A   1      38.301  29.742  29.754  1.00  0.00     0.031 A 
ATOM     28  C   UNL A   1      38.531  30.305  31.130  1.00  0.00     0.074 A 
ATOM     29  C   UNL A   1      39.237  28.959  29.184  1.00  0.00     0.049 A 
ATOM     30  N   UNL A   1      39.557  30.147  31.929  1.00  0.00    -0.248 NA
ATOM     31  C   UNL A   1      37.478  31.178  31.672  1.00  0.00     0.031 C 
ATOM     32  C   UNL A   1      39.153  28.387  27.841  1.00  0.00     0.029 A 
ATOM     33  N   UNL A   1      40.442  28.513  29.663  1.00  0.00    -0.354 N 
ATOM     34  C   UNL A   1      39.279  30.909  33.057  1.00  0.00     0.074 A 
ATOM     35  C   UNL A   1      38.012  31.566  32.822  1.00  0.00     0.031 C 
ATOM     36  C   UNL A   1      40.250  27.648  27.611  1.00  0.00     0.029 A 
ATOM     37  C   UNL A   1      41.124  27.715  28.778  1.00  0.00     0.049 A 
ATOM     38  H   UNL A   1      40.786  28.743  30.557  1.00  0.00     0.167 HD
ATOM     39  C   UNL A   1      40.006  31.034  34.194  1.00  0.00     0.037 A 
ATOM     40  C   UNL A   1      42.319  27.105  28.895  1.00  0.00     0.037 A 
ATOM     41  C   UNL A   1      41.252  30.358  34.442  1.00  0.00     0.049 A 
ATOM     42  C   UNL A   1      43.097  27.246  30.175  1.00  0.00     0.074 A 
ATOM     43  C   UNL A   1      42.030  30.370  35.587  1.00  0.00     0.029 A 
ATOM     44  N   UNL A   1      41.904  29.543  33.527  1.00  0.00    -0.354 N 
ATOM     45  N   UNL A   1      42.794  27.918  31.259  1.00  0.00    -0.248 NA
ATOM     46  C   UNL A   1      44.382  26.536  30.249  1.00  0.00     0.031 C 
ATOM     47  C   UNL A   1      43.170  29.593  35.353  1.00  0.00     0.029 A 
ATOM     48  C   UNL A   1      43.082  29.064  34.075  1.00  0.00     0.049 A 
ATOM     49  H   UNL A   1      41.576  29.338  32.621  1.00  0.00     0.167 HD
ATOM     50  C   UNL A   1      43.835  27.696  32.148  1.00  0.00     0.074 A 
ATOM     51  C   UNL A   1      44.771  26.813  31.485  1.00  0.00     0.031 C 
ATOM     52  C   UNL A   1      44.004  28.185  33.402  1.00  0.00     0.037 A 
BRANCH  39  53
ATOM     53  C   UNL A   1      39.467  31.938  35.264  1.00  0.00     0.064 A 
ATOM     54  C   UNL A   1      38.604  31.460  36.262  1.00  0.00     0.173 A 
ATOM     55  C   UNL A   1      39.844  33.288  35.315  1.00  0.00     0.173 A 
ATOM     56  F   UNL A   1      38.204  30.179  36.252  1.00  0.00    -0.203 F 
ATOM     57  C   UNL A   1      38.116  32.307  37.254  1.00  0.00     0.198 A 
ATOM     58  C   UNL A   1      39.376  34.126  36.324  1.00  0.00     0.198 A 
ATOM     59  F   UNL A   1      40.673  33.794  34.389  1.00  0.00    -0.203 F 
ATOM     60  F   UNL A   1      37.256  31.838  38.170  1.00  0.00    -0.200 F 
ATOM     61  C   UNL A   1      38.507  33.637  37.288  1.00  0.00     0.200 A 
ATOM     62  F   UNL A   1      39.764  35.409  36.362  1.00  0.00    -0.200 F 
ATOM     63  F   UNL A   1      38.041  34.449  38.246  1.00  0.00    -0.200 F 
ENDBRANCH  39  53
BRANCH  40  64
ATOM     64  C   UNL A   1      42.838  26.276  27.778  1.00  0.00     0.064 A 
ATOM     65  C   UNL A   1      43.679  26.830  26.804  1.00  0.00     0.173 A 
ATOM     66  C   UNL A   1      42.505  24.920  27.662  1.00  0.00     0.173 A 
ATOM     67  F   UNL A   1      44.006  28.129  26.862  1.00  0.00    -0.203 F 
ATOM     68  C   UNL A   1      44.156  26.062  25.745  1.00  0.00     0.198 A 
ATOM     69  C   UNL A   1      43.004  24.145  26.615  1.00  0.00     0.198 A 
ATOM     70  F   UNL A   1      41.706  24.343  28.570  1.00  0.00    -0.203 F 
ATOM     71  F   UNL A   1      44.926  26.626  24.804  1.00  0.00    -0.200 F 
ATOM     72  C   UNL A   1      43.824  24.719  25.654  1.00  0.00     0.200 A 
ATOM     73  F   UNL A   1      42.688  22.846  26.537  1.00  0.00    -0.200 F 
ATOM     74  F   UNL A   1      44.285  23.979  24.637  1.00  0.00    -0.200 F 
ENDBRANCH  40  64
BRANCH  52  75
ATOM     75  C   UNL A   1      45.237  27.760  34.140  1.00  0.00     0.064 A 
ATOM     76  C   UNL A   1      46.433  28.488  34.051  1.00  0.00     0.173 A 
ATOM     77  C   UNL A   1      45.217  26.625  34.966  1.00  0.00     0.173 A 
ATOM     78  F   UNL A   1      46.506  29.570  33.263  1.00  0.00    -0.203 F 
ATOM     79  C   UNL A   1      47.571  28.081  34.741  1.00  0.00     0.198 A 
ATOM     80  C   UNL A   1      46.350  26.236  35.676  1.00  0.00     0.198 A 
ATOM     81  F   UNL A   1      44.096  25.898  35.089  1.00  0.00    -0.203 F 
ATOM     82  F   UNL A   1      48.716  28.765  34.604  1.00  0.00    -0.200 F 
ATOM     83  C   UNL A   1      47.528  26.959  35.557  1.00  0.00     0.200 A 
ATOM     84  F   UNL A   1      46.304  25.158  36.470  1.00  0.00    -0.200 F 
ATOM     85  F   UNL A   1      48.624  26.570  36.221  1.00  0.00    -0.200 F 
ENDBRANCH  52  75
ENDBRANCH  26  27
ENDBRANCH  18  21
ENDBRANCH  16  17
ENDBRANCH   1  16
TORSDOF 11
ENDMDL
MODEL 2
REMARK VINA RESULT:     -11.3      3.538      5.763
REMARK SMILES COc1cnc(F)c(C(=O)NCCCNC(=O)c2ccc(-c3c4nc(c(-c5c(F)c(F)c(F)c(F)c5F)c5ccc([nH]5)c(-c5c(F)c(F)c(F)c(F)c5F)c5nc(c(-c6c(F)c(F)c(F)c(F)c6F)c6ccc3[nH]6)C=C5)C=C4)cc2)c1
REMARK SMILES IDX 13 1 12 2 11 3 9 4 10 5 8 7 3 8 4 9 81 10 5 11 6 12 7 13
REMARK SMILES IDX 2 14 1 15 14 16 15 17 16 18 17 20 18 21 19 22 80 23 20 24
REMARK SMILES IDX 79 25 21 26 22 27 23 28 73 29 24 30 78 31 72 32 74 33 25 34
REMARK SMILES IDX 77 35 71 36 70 37 26 39 58 40 38 41 57 42 39 43 42 44 56 45
REMARK SMILES IDX 75 46 40 47 41 48 55 50 76 51 43 52 27 53 28 54 36 55 29 56
REMARK SMILES IDX 30 57 34 58 37 59 31 60 32 61 35 62 33 63 59 64 60 65 68 66
REMARK SMILES IDX 61 67 62 68 66 69 69 70 63 71 64 72 67 73 65 74 44 75 45 76
REMARK SMILES IDX 53 77 46 78 47 79 51 80 54 81 48 82 49 83 52 84 50 85
REMARK H PARENT 11 6 15 19 74 38 42 49
REMARK Flexibility Score: inf
ROOT
ATOM      1  C   UNL A   1      33.038  35.286  29.074  1.00  0.00     0.042 C 
ENDROOT
BRANCH   1   2
ATOM      2  C   UNL A   1      33.693  36.666  29.005  1.00  0.00     0.118 C 
BRANCH   2   3
ATOM      3  N   UNL A   1      33.303  37.492  30.136  1.00  0.00    -0.352 N 
ATOM      4  C   UNL A   1      33.273  37.268  31.485  1.00  0.00     0.256 C 
ATOM      5  O   UNL A   1      32.905  38.205  32.199  1.00  0.00    -0.269 OA
ATOM      6  H   UNL A   1      32.999  38.393  29.879  1.00  0.00     0.163 HD
BRANCH   4   7
ATOM      7  C   UNL A   1      33.707  36.024  32.152  1.00  0.00     0.098 A 
ATOM      8  C   UNL A   1      35.525  34.817  33.199  1.00  0.00     0.138 A 
ATOM      9  C   UNL A   1      34.631  33.798  33.475  1.00  0.00     0.160 A 
ATOM     10  C   UNL A   1      35.064  35.927  32.497  1.00  0.00     0.066 A 
ATOM     11  N   UNL A   1      33.314  33.861  33.182  1.00  0.00    -0.224 NA
ATOM     12  C   UNL A   1      32.882  34.987  32.559  1.00  0.00     0.225 A 
ATOM     13  F   UNL A   1      31.555  35.071  32.412  1.00  0.00    -0.184 F 
BRANCH   8  14
ATOM     14  O   UNL A   1      36.821  34.679  33.600  1.00  0.00    -0.495 OA
ATOM     15  C   UNL A   1      36.922  33.860  34.768  1.00  0.00     0.278 C 
ENDBRANCH   8  14
ENDBRANCH   4   7
ENDBRANCH   2   3
ENDBRANCH   1   2
BRANCH   1  16
ATOM     16  C   UNL A   1      34.015  34.120  28.936  1.00  0.00     0.118 C 
BRANCH  16  17
ATOM     17  N   UNL A   1      33.519  33.087  28.043  1.00  0.00    -0.352 N 
ATOM     18  C   UNL A   1      34.088  31.901  27.652  1.00  0.00     0.251 C 
ATOM     19  H   UNL A   1      32.631  33.267  27.656  1.00  0.00     0.163 HD
ATOM     20  O   UNL A   1      33.580  31.273  26.727  1.00  0.00    -0.269 OA
BRANCH  18  21
ATOM     21  C   UNL A   1      35.299  31.362  28.316  1.00  0.00     0.039 A 
ATOM     22  C   UNL A   1      36.493  32.082  28.196  1.00  0.00     0.014 A 
ATOM     23  C   UNL A   1      35.302  30.128  28.972  1.00  0.00     0.014 A 
ATOM     24  C   UNL A   1      37.674  31.584  28.752  1.00  0.00     0.010 A 
ATOM     25  C   UNL A   1      36.468  29.660  29.581  1.00  0.00     0.010 A 
ATOM     26  C   UNL A   1      37.670  30.373  29.462  1.00  0.00    -0.014 A 
BRANCH  26  27
ATOM     27  C   UNL A   1      38.923  29.839  30.055  1.00  0.00     0.031 A 
ATOM     28  C   UNL A   1      39.437  30.378  31.362  1.00  0.00     0.074 A 
ATOM     29  C   UNL A   1      39.618  28.887  29.402  1.00  0.00     0.049 A 
ATOM     30  N   UNL A   1      40.519  30.052  32.025  1.00  0.00    -0.248 NA
ATOM     31  C   UNL A   1      38.641  31.439  31.998  1.00  0.00     0.031 C 
ATOM     32  C   UNL A   1      39.249  28.312  28.109  1.00  0.00     0.029 A 
ATOM     33  N   UNL A   1      40.779  28.238  29.738  1.00  0.00    -0.354 N 
ATOM     34  C   UNL A   1      40.539  30.874  33.145  1.00  0.00     0.074 A 
ATOM     35  C   UNL A   1      39.389  31.746  33.049  1.00  0.00     0.031 C 
ATOM     36  C   UNL A   1      40.156  27.381  27.770  1.00  0.00     0.029 A 
ATOM     37  C   UNL A   1      41.180  27.311  28.808  1.00  0.00     0.049 A 
ATOM     38  H   UNL A   1      41.278  28.420  30.567  1.00  0.00     0.167 HD
ATOM     39  C   UNL A   1      41.426  30.888  34.169  1.00  0.00     0.037 A 
ATOM     40  C   UNL A   1      42.251  26.497  28.794  1.00  0.00     0.037 A 
ATOM     41  C   UNL A   1      42.554  30.001  34.281  1.00  0.00     0.049 A 
ATOM     42  C   UNL A   1      43.211  26.520  29.952  1.00  0.00     0.074 A 
ATOM     43  C   UNL A   1      43.472  29.894  35.312  1.00  0.00     0.029 A 
ATOM     44  N   UNL A   1      42.918  29.063  33.326  1.00  0.00    -0.354 N 
ATOM     45  N   UNL A   1      43.184  27.257  31.035  1.00  0.00    -0.248 NA
ATOM     46  C   UNL A   1      44.347  25.588  29.888  1.00  0.00     0.031 C 
ATOM     47  C   UNL A   1      44.412  28.918  34.965  1.00  0.00     0.029 A 
ATOM     48  C   UNL A   1      44.056  28.388  33.734  1.00  0.00     0.049 A 
ATOM     49  H   UNL A   1      42.437  28.902  32.481  1.00  0.00     0.167 HD
ATOM     50  C   UNL A   1      44.282  26.867  31.789  1.00  0.00     0.074 A 
ATOM     51  C   UNL A   1      44.946  25.815  31.048  1.00  0.00     0.031 C 
ATOM     52  C   UNL A   1      44.705  27.343  32.986  1.00  0.00     0.037 A 
BRANCH  39  53
ATOM     53  C   UNL A   1      41.208  31.896  35.259  1.00  0.00     0.064 A 
ATOM     54  C   UNL A   1      40.245  31.698  36.260  1.00  0.00     0.173 A 
ATOM     55  C   UNL A   1      41.994  33.056  35.326  1.00  0.00     0.173 A 
ATOM     56  F   UNL A   1      39.460  30.610  36.237  1.00  0.00    -0.203 F 
ATOM     57  C   UNL A   1      40.058  32.638  37.271  1.00  0.00     0.198 A 
ATOM     58  C   UNL A   1      41.823  33.980  36.353  1.00  0.00     0.198 A 
ATOM     59  F   UNL A   1      42.934  33.291  34.398  1.00  0.00    -0.203 F 
ATOM     60  F   UNL A   1      39.101  32.449  38.191  1.00  0.00    -0.200 F 
ATOM     61  C   UNL A   1      40.851  33.774  37.321  1.00  0.00     0.200 A 
ATOM     62  F   UNL A   1      42.598  35.073  36.406  1.00  0.00    -0.200 F 
ATOM     63  F   UNL A   1      40.673  34.675  38.296  1.00  0.00    -0.200 F 
ENDBRANCH  39  53
BRANCH  40  64
ATOM     64  C   UNL A   1      42.456  25.565  27.656  1.00  0.00     0.064 A 
ATOM     65  C   UNL A   1      41.711  24.382  27.553  1.00  0.00     0.173 A 
ATOM     66  C   UNL A   1      43.397  25.835  26.653  1.00  0.00     0.173 A 
ATOM     67  F   UNL A   1      40.816  24.071  28.502  1.00  0.00    -0.203 F 
ATOM     68  C   UNL A   1      41.910  23.496  26.498  1.00  0.00     0.198 A 
ATOM     69  C   UNL A   1      43.578  24.960  25.583  1.00  0.00     0.198 A 
ATOM     70  F   UNL A   1      44.132  26.955  26.705  1.00  0.00    -0.203 F 
ATOM     71  F   UNL A   1      41.214  22.353  26.445  1.00  0.00    -0.200 F 
ATOM     72  C   UNL A   1      42.839  23.788  25.510  1.00  0.00     0.200 A 
ATOM     73  F   UNL A   1      44.468  25.251  24.626  1.00  0.00    -0.200 F 
ATOM     74  F   UNL A   1      43.029  22.937  24.493  1.00  0.00    -0.200 F 
ENDBRANCH  40  64
BRANCH  52  75
ATOM     75  C   UNL A   1      45.933  26.714  33.574  1.00  0.00     0.064 A 
ATOM     76  C   UNL A   1      47.212  27.240  33.334  1.00  0.00     0.173 A 
ATOM     77  C   UNL A   1      45.829  25.590  34.406  1.00  0.00     0.173 A 
ATOM     78  F   UNL A   1      47.364  28.304  32.533  1.00  0.00    -0.203 F 
ATOM     79  C   UNL A   1      48.343  26.646  33.886  1.00  0.00     0.198 A 
ATOM     80  C   UNL A   1      46.961  25.014  34.977  1.00  0.00     0.198 A 
ATOM     81  F   UNL A   1      44.628  25.053  34.670  1.00  0.00    -0.203 F 
ATOM     82  F   UNL A   1      49.559  27.136  33.605  1.00  0.00    -0.200 F 
ATOM     83  C   UNL A   1      48.217  25.538  34.711  1.00  0.00     0.200 A 
ATOM     84  F   UNL A   1      46.836  23.949  35.782  1.00  0.00    -0.200 F 
ATOM     85  F   UNL A   1      49.307  24.968  35.241  1.00  0.00    -0.200 F 
ENDBRANCH  52  75
ENDBRANCH  26  27
ENDBRANCH  18  21
ENDBRANCH  16  17
ENDBRANCH   1  16
TORSDOF 11
ENDMDL
MODEL 3
REMARK VINA RESULT:     -11.2      5.344     10.318
REMARK SMILES COc1cnc(F)c(C(=O)NCCCNC(=O)c2ccc(-c3c4nc(c(-c5c(F)c(F)c(F)c(F)c5F)c5ccc([nH]5)c(-c5c(F)c(F)c(F)c(F)c5F)c5nc(c(-c6c(F)c(F)c(F)c(F)c6F)c6ccc3[nH]6)C=C5)C=C4)cc2)c1
REMARK SMILES IDX 13 1 12 2 11 3 9 4 10 5 8 7 3 8 4 9 81 10 5 11 6 12 7 13
REMARK SMILES IDX 2 14 1 15 14 16 15 17 16 18 17 20 18 21 19 22 80 23 20 24
REMARK SMILES IDX 79 25 21 26 22 27 23 28 73 29 24 30 78 31 72 32 74 33 25 34
REMARK SMILES IDX 77 35 71 36 70 37 26 39 58 40 38 41 57 42 39 43 42 44 56 45
REMARK SMILES IDX 75 46 40 47 41 48 55 50 76 51 43 52 27 53 28 54 36 55 29 56
REMARK SMILES IDX 30 57 34 58 37 59 31 60 32 61 35 62 33 63 59 64 60 65 68 66
REMARK SMILES IDX 61 67 62 68 66 69 69 70 63 71 64 72 67 73 65 74 44 75 45 76
REMARK SMILES IDX 53 77 46 78 47 79 51 80 54 81 48 82 49 83 52 84 50 85
REMARK H PARENT 11 6 15 19 74 38 42 49
REMARK Flexibility Score: inf
ROOT
ATOM      1  C   UNL A   1      38.469  19.503  25.006  1.00  0.00     0.042 C 
ENDROOT
BRANCH   1   2
ATOM      2  C   UNL A   1      37.371  20.566  24.936  1.00  0.00     0.118 C 
BRANCH   2   3
ATOM      3  N   UNL A   1      37.815  21.821  25.521  1.00  0.00    -0.352 N 
ATOM      4  C   UNL A   1      37.333  23.100  25.456  1.00  0.00     0.256 C 
ATOM      5  O   UNL A   1      37.939  23.959  26.102  1.00  0.00    -0.269 OA
ATOM      6  H   UNL A   1      38.625  21.733  26.073  1.00  0.00     0.163 HD
BRANCH   4   7
ATOM      7  C   UNL A   1      36.114  23.515  24.733  1.00  0.00     0.098 A 
ATOM      8  C   UNL A   1      34.062  24.795  24.793  1.00  0.00     0.138 A 
ATOM      9  C   UNL A   1      33.846  24.429  23.476  1.00  0.00     0.160 A 
ATOM     10  C   UNL A   1      35.191  24.302  25.438  1.00  0.00     0.066 A 
ATOM     11  N   UNL A   1      34.719  23.694  22.754  1.00  0.00    -0.224 NA
ATOM     12  C   UNL A   1      35.846  23.286  23.392  1.00  0.00     0.225 A 
ATOM     13  F   UNL A   1      36.745  22.682  22.607  1.00  0.00    -0.184 F 
BRANCH   8  14
ATOM     14  O   UNL A   1      33.147  25.597  25.409  1.00  0.00    -0.495 OA
ATOM     15  C   UNL A   1      33.442  26.981  25.201  1.00  0.00     0.278 C 
ENDBRANCH   8  14
ENDBRANCH   4   7
ENDBRANCH   2   3
ENDBRANCH   1   2
BRANCH   1  16
ATOM     16  C   UNL A   1      39.458  19.697  26.153  1.00  0.00     0.118 C 
BRANCH  16  17
ATOM     17  N   UNL A   1      40.669  18.915  25.976  1.00  0.00    -0.352 N 
ATOM     18  C   UNL A   1      41.982  19.310  25.918  1.00  0.00     0.251 C 
ATOM     19  H   UNL A   1      40.524  17.945  25.883  1.00  0.00     0.163 HD
ATOM     20  O   UNL A   1      42.832  18.500  25.557  1.00  0.00    -0.269 OA
BRANCH  18  21
ATOM     21  C   UNL A   1      42.398  20.687  26.276  1.00  0.00     0.039 A 
ATOM     22  C   UNL A   1      42.365  21.057  27.625  1.00  0.00     0.014 A 
ATOM     23  C   UNL A   1      42.729  21.640  25.309  1.00  0.00     0.014 A 
ATOM     24  C   UNL A   1      42.688  22.362  28.006  1.00  0.00     0.010 A 
ATOM     25  C   UNL A   1      43.113  22.927  25.694  1.00  0.00     0.010 A 
ATOM     26  C   UNL A   1      43.078  23.306  27.044  1.00  0.00    -0.014 A 
BRANCH  26  27
ATOM     27  C   UNL A   1      43.423  24.696  27.443  1.00  0.00     0.031 A 
ATOM     28  C   UNL A   1      44.859  25.142  27.482  1.00  0.00     0.074 A 
ATOM     29  C   UNL A   1      42.444  25.550  27.799  1.00  0.00     0.049 A 
ATOM     30  N   UNL A   1      45.356  26.306  27.822  1.00  0.00    -0.248 NA
ATOM     31  C   UNL A   1      45.873  24.143  27.112  1.00  0.00     0.031 C 
ATOM     32  C   UNL A   1      41.019  25.228  27.843  1.00  0.00     0.029 A 
ATOM     33  N   UNL A   1      42.503  26.863  28.192  1.00  0.00    -0.354 N 
ATOM     34  C   UNL A   1      46.735  26.173  27.720  1.00  0.00     0.074 A 
ATOM     35  C   UNL A   1      47.000  24.805  27.331  1.00  0.00     0.031 C 
ATOM     36  C   UNL A   1      40.335  26.320  28.222  1.00  0.00     0.029 A 
ATOM     37  C   UNL A   1      41.274  27.409  28.471  1.00  0.00     0.049 A 
ATOM     38  H   UNL A   1      43.346  27.367  28.269  1.00  0.00     0.167 HD
ATOM     39  C   UNL A   1      47.693  27.112  27.912  1.00  0.00     0.037 A 
ATOM     40  C   UNL A   1      40.942  28.648  28.879  1.00  0.00     0.037 A 
ATOM     41  C   UNL A   1      47.430  28.481  28.269  1.00  0.00     0.049 A 
ATOM     42  C   UNL A   1      42.024  29.677  29.069  1.00  0.00     0.074 A 
ATOM     43  C   UNL A   1      48.328  29.524  28.424  1.00  0.00     0.029 A 
ATOM     44  N   UNL A   1      46.170  29.002  28.526  1.00  0.00    -0.354 N 
ATOM     45  N   UNL A   1      43.319  29.557  28.906  1.00  0.00    -0.248 NA
ATOM     46  C   UNL A   1      41.594  31.018  29.492  1.00  0.00     0.031 C 
ATOM     47  C   UNL A   1      47.616  30.664  28.810  1.00  0.00     0.029 A 
ATOM     48  C   UNL A   1      46.269  30.343  28.857  1.00  0.00     0.049 A 
ATOM     49  H   UNL A   1      45.328  28.491  28.481  1.00  0.00     0.167 HD
ATOM     50  C   UNL A   1      43.855  30.805  29.186  1.00  0.00     0.074 A 
ATOM     51  C   UNL A   1      42.744  31.675  29.511  1.00  0.00     0.031 C 
ATOM     52  C   UNL A   1      45.154  31.195  29.178  1.00  0.00     0.037 A 
BRANCH  39  53
ATOM     53  C   UNL A   1      49.122  26.689  27.736  1.00  0.00     0.064 A 
ATOM     54  C   UNL A   1      49.704  26.583  26.464  1.00  0.00     0.173 A 
ATOM     55  C   UNL A   1      49.930  26.422  28.851  1.00  0.00     0.173 A 
ATOM     56  F   UNL A   1      48.972  26.817  25.365  1.00  0.00    -0.203 F 
ATOM     57  C   UNL A   1      51.034  26.197  26.314  1.00  0.00     0.198 A 
ATOM     58  C   UNL A   1      51.266  26.063  28.699  1.00  0.00     0.198 A 
ATOM     59  F   UNL A   1      49.425  26.516  30.091  1.00  0.00    -0.203 F 
ATOM     60  F   UNL A   1      51.555  26.058  25.087  1.00  0.00    -0.200 F 
ATOM     61  C   UNL A   1      51.816  25.943  27.431  1.00  0.00     0.200 A 
ATOM     62  F   UNL A   1      52.024  25.829  29.780  1.00  0.00    -0.200 F 
ATOM     63  F   UNL A   1      53.096  25.577  27.285  1.00  0.00    -0.200 F 
ENDBRANCH  39  53
BRANCH  40  64
ATOM     64  C   UNL A   1      39.517  28.995  29.105  1.00  0.00     0.064 A 
ATOM     65  C   UNL A   1      38.937  28.862  30.374  1.00  0.00     0.173 A 
ATOM     66  C   UNL A   1      38.707  29.464  28.061  1.00  0.00     0.173 A 
ATOM     67  F   UNL A   1      39.667  28.395  31.397  1.00  0.00    -0.203 F 
ATOM     68  C   UNL A   1      37.596  29.170  30.588  1.00  0.00     0.198 A 
ATOM     69  C   UNL A   1      37.371  29.796  28.282  1.00  0.00     0.198 A 
ATOM     70  F   UNL A   1      39.216  29.611  26.829  1.00  0.00    -0.203 F 
ATOM     71  F   UNL A   1      37.056  28.995  31.802  1.00  0.00    -0.200 F 
ATOM     72  C   UNL A   1      36.815  29.643  29.544  1.00  0.00     0.200 A 
ATOM     73  F   UNL A   1      36.623  30.262  27.273  1.00  0.00    -0.200 F 
ATOM     74  F   UNL A   1      35.526  29.942  29.750  1.00  0.00    -0.200 F 
ENDBRANCH  40  64
BRANCH  52  75
ATOM     75  C   UNL A   1      45.438  32.629  29.515  1.00  0.00     0.064 A 
ATOM     76  C   UNL A   1      45.727  33.029  30.828  1.00  0.00     0.173 A 
ATOM     77  C   UNL A   1      45.444  33.609  28.511  1.00  0.00     0.173 A 
ATOM     78  F   UNL A   1      45.717  32.132  31.825  1.00  0.00    -0.203 F 
ATOM     79  C   UNL A   1      45.988  34.364  31.127  1.00  0.00     0.198 A 
ATOM     80  C   UNL A   1      45.731  34.938  28.810  1.00  0.00     0.198 A 
ATOM     81  F   UNL A   1      45.179  33.275  27.239  1.00  0.00    -0.203 F 
ATOM     82  F   UNL A   1      46.216  34.732  32.396  1.00  0.00    -0.200 F 
ATOM     83  C   UNL A   1      45.995  35.316  30.118  1.00  0.00     0.200 A 
ATOM     84  F   UNL A   1      45.748  35.854  27.832  1.00  0.00    -0.200 F 
ATOM     85  F   UNL A   1      46.247  36.599  30.407  1.00  0.00    -0.200 F 
ENDBRANCH  52  75
ENDBRANCH  26  27
ENDBRANCH  18  21
ENDBRANCH  16  17
ENDBRANCH   1  16
TORSDOF 11
ENDMDL
