MODEL 1
REMARK VINA RESULT:     -12.7      0.000      0.000
REMARK SMILES Cc1n[nH]c(C(=O)N2CCCC[C@H]2CCC(=O)NCCCNC(=O)c2ccc(-c3c4nc(c(-c5c(F)c(F)c(F)c(F)c5F)c5ccc([nH]5)c(-c5c(F)c(F)c(F)c(F)c5F)c5nc(c(-c6c(F)c(F)c(F)c(F)c6F)c6ccc3[nH]6)C=C5)C=C4)cc2)n1
REMARK SMILES IDX 19 1 18 2 16 3 17 4 15 6 14 7 13 8 8 9 9 10 10 11 12 12
REMARK SMILES IDX 11 13 6 14 7 15 5 16 1 17 2 18 3 19 88 20 4 21 20 23 21 24
REMARK SMILES IDX 22 25 23 26 24 28 25 29 26 30 87 31 27 32 86 33 28 34 29 35
REMARK SMILES IDX 30 36 80 37 31 38 85 39 79 40 81 41 32 42 84 43 78 44 77 45
REMARK SMILES IDX 33 47 65 48 45 49 64 50 46 51 49 52 63 53 82 54 47 55 48 56
REMARK SMILES IDX 62 58 83 59 50 60 34 61 35 62 43 63 36 64 37 65 41 66 44 67
REMARK SMILES IDX 38 68 39 69 42 70 40 71 66 72 67 73 75 74 68 75 69 76 73 77
REMARK SMILES IDX 76 78 70 79 71 80 74 81 72 82 51 83 52 84 60 85 53 86 54 87
REMARK SMILES IDX 58 88 61 89 55 90 56 91 59 92 57 93
REMARK H PARENT 18 5 4 22 22 27 81 46 49 57
REMARK Flexibility Score: inf
ROOT
ATOM      1  C   UNL A   1      40.811  21.007  27.636  1.00  0.00     0.117 C 
ENDROOT
BRANCH   1   2
ATOM      2  N   UNL A   1      39.916  21.893  26.746  1.00  0.00    -0.356 N 
ATOM      3  C   UNL A   1      38.791  22.043  25.972  1.00  0.00     0.220 C 
ATOM      4  O   UNL A   1      38.426  23.241  26.016  1.00  0.00    -0.275 OA
ATOM      5  H   UNL A   1      40.364  22.769  26.721  1.00  0.00     0.163 HD
BRANCH   3   6
ATOM      6  C   UNL A   1      37.790  21.131  25.030  1.00  0.00     0.102 C 
BRANCH   6   7
ATOM      7  C   UNL A   1      36.270  20.487  25.199  1.00  0.00     0.035 C 
BRANCH   7   8
ATOM      8  C   UNL A   1      35.029  21.274  24.724  1.00  0.00     0.086 C 
ATOM      9  N   UNL A   1      34.090  20.786  25.642  1.00  0.00    -0.333 N 
ATOM     10  C   UNL A   1      34.324  21.506  26.962  1.00  0.00     0.120 C 
ATOM     11  C   UNL A   1      33.966  22.955  27.041  1.00  0.00     0.022 C 
ATOM     12  C   UNL A   1      34.864  22.843  24.680  1.00  0.00     0.025 C 
ATOM     13  C   UNL A   1      34.849  23.631  26.009  1.00  0.00     0.004 C 
BRANCH   9  14
ATOM     14  C   UNL A   1      33.087  19.973  25.040  1.00  0.00     0.291 C 
ATOM     15  O   UNL A   1      32.142  20.543  24.487  1.00  0.00    -0.265 OA
BRANCH  14  16
ATOM     16  C   UNL A   1      33.261  18.500  24.873  1.00  0.00     0.214 A 
ATOM     17  C   UNL A   1      32.415  15.110  25.595  1.00  0.00     0.092 C 
ATOM     18  C   UNL A   1      32.983  16.385  25.110  1.00  0.00     0.148 A 
ATOM     19  N   UNL A   1      33.631  16.464  23.951  1.00  0.00    -0.159 NA
ATOM     20  N   UNL A   1      32.769  17.599  25.723  1.00  0.00    -0.207 NA
ATOM     21  N   UNL A   1      33.806  17.788  23.832  1.00  0.00    -0.255 N 
ATOM     22  H   UNL A   1      34.276  18.208  23.076  1.00  0.00     0.192 HD
ENDBRANCH  14  16
ENDBRANCH   9  14
ENDBRANCH   7   8
ENDBRANCH   6   7
ENDBRANCH   3   6
ENDBRANCH   1   2
BRANCH   1  23
ATOM     23  C   UNL A   1      42.096  20.263  27.137  1.00  0.00     0.042 C 
BRANCH  23  24
ATOM     24  C   UNL A   1      42.140  19.799  25.687  1.00  0.00     0.118 C 
BRANCH  24  25
ATOM     25  N   UNL A   1      43.532  19.544  25.286  1.00  0.00    -0.352 N 
ATOM     26  C   UNL A   1      44.510  20.422  24.858  1.00  0.00     0.251 C 
ATOM     27  H   UNL A   1      43.811  18.601  25.329  1.00  0.00     0.163 HD
ATOM     28  O   UNL A   1      45.469  20.050  24.221  1.00  0.00    -0.269 OA
BRANCH  26  29
ATOM     29  C   UNL A   1      44.347  21.832  25.229  1.00  0.00     0.039 A 
ATOM     30  C   UNL A   1      43.447  22.662  24.568  1.00  0.00     0.014 A 
ATOM     31  C   UNL A   1      45.070  22.272  26.331  1.00  0.00     0.014 A 
ATOM     32  C   UNL A   1      43.247  23.934  25.082  1.00  0.00     0.010 A 
ATOM     33  C   UNL A   1      44.672  23.401  26.978  1.00  0.00     0.010 A 
ATOM     34  C   UNL A   1      43.851  24.283  26.306  1.00  0.00    -0.014 A 
BRANCH  34  35
ATOM     35  C   UNL A   1      43.583  25.561  26.935  1.00  0.00     0.031 A 
ATOM     36  C   UNL A   1      44.594  26.602  26.628  1.00  0.00     0.074 A 
ATOM     37  C   UNL A   1      42.476  25.796  27.673  1.00  0.00     0.049 A 
ATOM     38  N   UNL A   1      45.402  27.148  27.467  1.00  0.00    -0.248 NA
ATOM     39  C   UNL A   1      44.855  26.969  25.229  1.00  0.00     0.031 C 
ATOM     40  C   UNL A   1      41.279  24.962  27.867  1.00  0.00     0.029 A 
ATOM     41  N   UNL A   1      42.171  26.905  28.396  1.00  0.00    -0.354 N 
ATOM     42  C   UNL A   1      46.172  28.049  26.743  1.00  0.00     0.074 A 
ATOM     43  C   UNL A   1      45.846  27.854  25.356  1.00  0.00     0.031 C 
ATOM     44  C   UNL A   1      40.306  25.682  28.468  1.00  0.00     0.029 A 
ATOM     45  C   UNL A   1      40.869  26.952  28.877  1.00  0.00     0.049 A 
ATOM     46  H   UNL A   1      42.825  27.622  28.566  1.00  0.00     0.167 HD
ATOM     47  C   UNL A   1      46.887  29.000  27.396  1.00  0.00     0.037 A 
ATOM     48  C   UNL A   1      40.303  27.963  29.581  1.00  0.00     0.037 A 
ATOM     49  C   UNL A   1      47.112  28.614  28.767  1.00  0.00     0.049 A 
ATOM     50  C   UNL A   1      41.417  28.731  30.192  1.00  0.00     0.074 A 
ATOM     51  C   UNL A   1      47.773  27.551  29.353  1.00  0.00     0.029 A 
ATOM     52  N   UNL A   1      46.248  29.094  29.722  1.00  0.00    -0.354 N 
ATOM     53  N   UNL A   1      42.187  28.255  31.132  1.00  0.00    -0.248 NA
ATOM     54  C   UNL A   1      41.979  29.827  29.418  1.00  0.00     0.031 C 
ATOM     55  C   UNL A   1      46.930  27.143  30.428  1.00  0.00     0.029 A 
ATOM     56  C   UNL A   1      45.857  28.034  30.501  1.00  0.00     0.049 A 
ATOM     57  H   UNL A   1      45.961  30.030  29.828  1.00  0.00     0.167 HD
ATOM     58  C   UNL A   1      43.464  28.668  30.780  1.00  0.00     0.074 A 
ATOM     59  C   UNL A   1      43.264  29.699  29.763  1.00  0.00     0.031 C 
ATOM     60  C   UNL A   1      44.562  27.937  31.134  1.00  0.00     0.037 A 
BRANCH  47  61
ATOM     61  C   UNL A   1      47.032  30.411  26.909  1.00  0.00     0.064 A 
ATOM     62  C   UNL A   1      48.294  31.029  26.976  1.00  0.00     0.173 A 
ATOM     63  C   UNL A   1      45.931  31.270  26.704  1.00  0.00     0.173 A 
ATOM     64  F   UNL A   1      49.402  30.299  27.176  1.00  0.00    -0.203 F 
ATOM     65  C   UNL A   1      48.431  32.417  26.942  1.00  0.00     0.198 A 
ATOM     66  C   UNL A   1      46.078  32.652  26.627  1.00  0.00     0.198 A 
ATOM     67  F   UNL A   1      44.670  30.820  26.691  1.00  0.00    -0.203 F 
ATOM     68  F   UNL A   1      49.634  32.971  27.144  1.00  0.00    -0.200 F 
ATOM     69  C   UNL A   1      47.321  33.228  26.782  1.00  0.00     0.200 A 
ATOM     70  F   UNL A   1      44.990  33.424  26.492  1.00  0.00    -0.200 F 
ATOM     71  F   UNL A   1      47.442  34.561  26.824  1.00  0.00    -0.200 F 
ENDBRANCH  47  61
BRANCH  48  72
ATOM     72  C   UNL A   1      38.915  28.475  29.520  1.00  0.00     0.064 A 
ATOM     73  C   UNL A   1      38.155  28.643  30.689  1.00  0.00     0.173 A 
ATOM     74  C   UNL A   1      38.416  29.094  28.357  1.00  0.00     0.173 A 
ATOM     75  F   UNL A   1      38.576  28.115  31.849  1.00  0.00    -0.203 F 
ATOM     76  C   UNL A   1      36.992  29.421  30.705  1.00  0.00     0.198 A 
ATOM     77  C   UNL A   1      37.254  29.868  28.373  1.00  0.00     0.198 A 
ATOM     78  F   UNL A   1      39.100  29.043  27.204  1.00  0.00    -0.203 F 
ATOM     79  F   UNL A   1      36.334  29.615  31.857  1.00  0.00    -0.200 F 
ATOM     80  C   UNL A   1      36.552  30.045  29.551  1.00  0.00     0.200 A 
ATOM     81  F   UNL A   1      36.857  30.496  27.257  1.00  0.00    -0.200 F 
ATOM     82  F   UNL A   1      35.479  30.849  29.581  1.00  0.00    -0.200 F 
ENDBRANCH  48  72
BRANCH  60  83
ATOM     83  C   UNL A   1      44.371  26.811  32.115  1.00  0.00     0.064 A 
ATOM     84  C   UNL A   1      44.197  25.461  31.759  1.00  0.00     0.173 A 
ATOM     85  C   UNL A   1      44.517  27.098  33.479  1.00  0.00     0.173 A 
ATOM     86  F   UNL A   1      44.144  25.085  30.477  1.00  0.00    -0.203 F 
ATOM     87  C   UNL A   1      44.131  24.457  32.727  1.00  0.00     0.198 A 
ATOM     88  C   UNL A   1      44.489  26.091  34.440  1.00  0.00     0.198 A 
ATOM     89  F   UNL A   1      44.739  28.360  33.879  1.00  0.00    -0.203 F 
ATOM     90  F   UNL A   1      43.953  23.179  32.360  1.00  0.00    -0.200 F 
ATOM     91  C   UNL A   1      44.285  24.774  34.066  1.00  0.00     0.200 A 
ATOM     92  F   UNL A   1      44.689  26.398  35.729  1.00  0.00    -0.200 F 
ATOM     93  F   UNL A   1      44.263  23.807  34.993  1.00  0.00    -0.200 F 
ENDBRANCH  60  83
ENDBRANCH  34  35
ENDBRANCH  26  29
ENDBRANCH  24  25
ENDBRANCH  23  24
ENDBRANCH   1  23
TORSDOF 14
ENDMDL
MODEL 2
REMARK VINA RESULT:     -12.3      1.494      2.357
REMARK SMILES Cc1n[nH]c(C(=O)N2CCCC[C@H]2CCC(=O)NCCCNC(=O)c2ccc(-c3c4nc(c(-c5c(F)c(F)c(F)c(F)c5F)c5ccc([nH]5)c(-c5c(F)c(F)c(F)c(F)c5F)c5nc(c(-c6c(F)c(F)c(F)c(F)c6F)c6ccc3[nH]6)C=C5)C=C4)cc2)n1
REMARK SMILES IDX 19 1 18 2 16 3 17 4 15 6 14 7 13 8 8 9 9 10 10 11 12 12
REMARK SMILES IDX 11 13 6 14 7 15 5 16 1 17 2 18 3 19 88 20 4 21 20 23 21 24
REMARK SMILES IDX 22 25 23 26 24 28 25 29 26 30 87 31 27 32 86 33 28 34 29 35
REMARK SMILES IDX 30 36 80 37 31 38 85 39 79 40 81 41 32 42 84 43 78 44 77 45
REMARK SMILES IDX 33 47 65 48 45 49 64 50 46 51 49 52 63 53 82 54 47 55 48 56
REMARK SMILES IDX 62 58 83 59 50 60 34 61 35 62 43 63 36 64 37 65 41 66 44 67
REMARK SMILES IDX 38 68 39 69 42 70 40 71 66 72 67 73 75 74 68 75 69 76 73 77
REMARK SMILES IDX 76 78 70 79 71 80 74 81 72 82 51 83 52 84 60 85 53 86 54 87
REMARK SMILES IDX 58 88 61 89 55 90 56 91 59 92 57 93
REMARK H PARENT 18 5 4 22 22 27 81 46 49 57
REMARK Flexibility Score: inf
ROOT
ATOM      1  C   UNL A   1      40.805  20.476  27.039  1.00  0.00     0.117 C 
ENDROOT
BRANCH   1   2
ATOM      2  N   UNL A   1      39.931  21.628  26.500  1.00  0.00    -0.356 N 
ATOM      3  C   UNL A   1      38.773  22.056  25.897  1.00  0.00     0.220 C 
ATOM      4  O   UNL A   1      38.518  23.218  26.291  1.00  0.00    -0.275 OA
ATOM      5  H   UNL A   1      40.451  22.447  26.669  1.00  0.00     0.163 HD
BRANCH   3   6
ATOM      6  C   UNL A   1      37.634  21.503  24.840  1.00  0.00     0.102 C 
BRANCH   6   7
ATOM      7  C   UNL A   1      36.421  22.192  23.942  1.00  0.00     0.035 C 
BRANCH   7   8
ATOM      8  C   UNL A   1      35.278  22.966  24.635  1.00  0.00     0.086 C 
ATOM      9  N   UNL A   1      34.183  22.353  24.010  1.00  0.00    -0.333 N 
ATOM     10  C   UNL A   1      33.977  21.000  24.676  1.00  0.00     0.120 C 
ATOM     11  C   UNL A   1      33.460  20.983  26.078  1.00  0.00     0.022 C 
ATOM     12  C   UNL A   1      34.967  23.010  26.181  1.00  0.00     0.025 C 
ATOM     13  C   UNL A   1      34.513  21.716  26.890  1.00  0.00     0.004 C 
BRANCH   9  14
ATOM     14  C   UNL A   1      33.470  23.228  23.141  1.00  0.00     0.291 C 
ATOM     15  O   UNL A   1      33.860  23.321  21.974  1.00  0.00    -0.265 OA
BRANCH  14  16
ATOM     16  C   UNL A   1      32.169  23.844  23.536  1.00  0.00     0.214 A 
ATOM     17  C   UNL A   1      30.116  25.775  25.723  1.00  0.00     0.092 C 
ATOM     18  C   UNL A   1      30.701  24.942  24.652  1.00  0.00     0.148 A 
ATOM     19  N   UNL A   1      30.158  24.882  23.439  1.00  0.00    -0.159 NA
ATOM     20  N   UNL A   1      31.910  24.292  24.764  1.00  0.00    -0.207 NA
ATOM     21  N   UNL A   1      31.082  24.181  22.766  1.00  0.00    -0.255 N 
ATOM     22  H   UNL A   1      30.992  23.934  21.818  1.00  0.00     0.192 HD
ENDBRANCH  14  16
ENDBRANCH   9  14
ENDBRANCH   7   8
ENDBRANCH   6   7
ENDBRANCH   3   6
ENDBRANCH   1   2
BRANCH   1  23
ATOM     23  C   UNL A   1      41.771  19.613  26.159  1.00  0.00     0.042 C 
BRANCH  23  24
ATOM     24  C   UNL A   1      43.132  19.244  26.737  1.00  0.00     0.118 C 
BRANCH  24  25
ATOM     25  N   UNL A   1      44.120  19.129  25.652  1.00  0.00    -0.352 N 
ATOM     26  C   UNL A   1      44.566  20.077  24.752  1.00  0.00     0.251 C 
ATOM     27  H   UNL A   1      44.526  18.238  25.553  1.00  0.00     0.163 HD
ATOM     28  O   UNL A   1      45.086  19.769  23.704  1.00  0.00    -0.269 OA
BRANCH  26  29
ATOM     29  C   UNL A   1      44.401  21.485  25.130  1.00  0.00     0.039 A 
ATOM     30  C   UNL A   1      43.401  22.279  24.574  1.00  0.00     0.014 A 
ATOM     31  C   UNL A   1      45.233  21.960  26.137  1.00  0.00     0.014 A 
ATOM     32  C   UNL A   1      43.220  23.549  25.101  1.00  0.00     0.010 A 
ATOM     33  C   UNL A   1      44.876  23.082  26.819  1.00  0.00     0.010 A 
ATOM     34  C   UNL A   1      43.952  23.929  26.242  1.00  0.00    -0.014 A 
BRANCH  34  35
ATOM     35  C   UNL A   1      43.717  25.205  26.891  1.00  0.00     0.031 A 
ATOM     36  C   UNL A   1      44.757  26.222  26.603  1.00  0.00     0.074 A 
ATOM     37  C   UNL A   1      42.614  25.459  27.628  1.00  0.00     0.049 A 
ATOM     38  N   UNL A   1      45.577  26.732  27.453  1.00  0.00    -0.248 NA
ATOM     39  C   UNL A   1      45.034  26.603  25.210  1.00  0.00     0.031 C 
ATOM     40  C   UNL A   1      41.394  24.656  27.804  1.00  0.00     0.029 A 
ATOM     41  N   UNL A   1      42.337  26.564  28.366  1.00  0.00    -0.354 N 
ATOM     42  C   UNL A   1      46.374  27.622  26.746  1.00  0.00     0.074 A 
ATOM     43  C   UNL A   1      46.049  27.458  25.355  1.00  0.00     0.031 C 
ATOM     44  C   UNL A   1      40.438  25.393  28.413  1.00  0.00     0.029 A 
ATOM     45  C   UNL A   1      41.035  26.640  28.844  1.00  0.00     0.049 A 
ATOM     46  H   UNL A   1      43.010  27.260  28.550  1.00  0.00     0.167 HD
ATOM     47  C   UNL A   1      47.112  28.544  27.416  1.00  0.00     0.037 A 
ATOM     48  C   UNL A   1      40.494  27.656  29.561  1.00  0.00     0.037 A 
ATOM     49  C   UNL A   1      47.321  28.131  28.782  1.00  0.00     0.049 A 
ATOM     50  C   UNL A   1      41.626  28.384  30.188  1.00  0.00     0.074 A 
ATOM     51  C   UNL A   1      47.950  27.040  29.353  1.00  0.00     0.029 A 
ATOM     52  N   UNL A   1      46.468  28.620  29.741  1.00  0.00    -0.354 N 
ATOM     53  N   UNL A   1      42.378  27.871  31.123  1.00  0.00    -0.248 NA
ATOM     54  C   UNL A   1      42.221  29.475  29.433  1.00  0.00     0.031 C 
ATOM     55  C   UNL A   1      47.092  26.640  30.419  1.00  0.00     0.029 A 
ATOM     56  C   UNL A   1      46.044  27.558  30.502  1.00  0.00     0.049 A 
ATOM     57  H   UNL A   1      46.206  29.561  29.861  1.00  0.00     0.167 HD
ATOM     58  C   UNL A   1      43.668  28.254  30.782  1.00  0.00     0.074 A 
ATOM     59  C   UNL A   1      43.501  29.306  29.781  1.00  0.00     0.031 C 
ATOM     60  C   UNL A   1      44.744  27.488  31.129  1.00  0.00     0.037 A 
BRANCH  47  61
ATOM     61  C   UNL A   1      47.298  29.958  26.951  1.00  0.00     0.064 A 
ATOM     62  C   UNL A   1      48.577  30.540  27.035  1.00  0.00     0.173 A 
ATOM     63  C   UNL A   1      46.222  30.849  26.755  1.00  0.00     0.173 A 
ATOM     64  F   UNL A   1      49.663  29.777  27.229  1.00  0.00    -0.203 F 
ATOM     65  C   UNL A   1      48.751  31.924  27.022  1.00  0.00     0.198 A 
ATOM     66  C   UNL A   1      46.407  32.228  26.700  1.00  0.00     0.198 A 
ATOM     67  F   UNL A   1      44.950  30.434  26.728  1.00  0.00    -0.203 F 
ATOM     68  F   UNL A   1      49.968  32.442  27.239  1.00  0.00    -0.200 F 
ATOM     69  C   UNL A   1      47.665  32.767  26.869  1.00  0.00     0.200 A 
ATOM     70  F   UNL A   1      45.341  33.030  26.571  1.00  0.00    -0.200 F 
ATOM     71  F   UNL A   1      47.822  34.095  26.933  1.00  0.00    -0.200 F 
ENDBRANCH  47  61
BRANCH  48  72
ATOM     72  C   UNL A   1      39.120  28.207  29.503  1.00  0.00     0.064 A 
ATOM     73  C   UNL A   1      38.352  28.355  30.669  1.00  0.00     0.173 A 
ATOM     74  C   UNL A   1      38.652  28.879  28.357  1.00  0.00     0.173 A 
ATOM     75  F   UNL A   1      38.746  27.777  31.814  1.00  0.00    -0.203 F 
ATOM     76  C   UNL A   1      37.210  29.163  30.700  1.00  0.00     0.198 A 
ATOM     77  C   UNL A   1      37.511  29.683  28.387  1.00  0.00     0.198 A 
ATOM     78  F   UNL A   1      39.348  28.848  27.210  1.00  0.00    -0.203 F 
ATOM     79  F   UNL A   1      36.544  29.336  31.850  1.00  0.00    -0.200 F 
ATOM     80  C   UNL A   1      36.800  29.838  29.563  1.00  0.00     0.200 A 
ATOM     81  F   UNL A   1      37.144  30.359  27.289  1.00  0.00    -0.200 F 
ATOM     82  F   UNL A   1      35.749  30.669  29.609  1.00  0.00    -0.200 F 
ENDBRANCH  48  72
BRANCH  60  83
ATOM     83  C   UNL A   1      44.518  26.352  32.092  1.00  0.00     0.064 A 
ATOM     84  C   UNL A   1      44.294  25.016  31.714  1.00  0.00     0.173 A 
ATOM     85  C   UNL A   1      44.682  26.610  33.460  1.00  0.00     0.173 A 
ATOM     86  F   UNL A   1      44.221  24.664  30.426  1.00  0.00    -0.203 F 
ATOM     87  C   UNL A   1      44.198  23.999  32.665  1.00  0.00     0.198 A 
ATOM     88  C   UNL A   1      44.623  25.589  34.403  1.00  0.00     0.198 A 
ATOM     89  F   UNL A   1      44.950  27.857  33.879  1.00  0.00    -0.203 F 
ATOM     90  F   UNL A   1      43.971  22.734  32.277  1.00  0.00    -0.200 F 
ATOM     91  C   UNL A   1      44.370  24.286  34.008  1.00  0.00     0.200 A 
ATOM     92  F   UNL A   1      44.840  25.866  35.696  1.00  0.00    -0.200 F 
ATOM     93  F   UNL A   1      44.318  23.305  34.918  1.00  0.00    -0.200 F 
ENDBRANCH  60  83
ENDBRANCH  34  35
ENDBRANCH  26  29
ENDBRANCH  24  25
ENDBRANCH  23  24
ENDBRANCH   1  23
TORSDOF 14
ENDMDL
MODEL 3
REMARK VINA RESULT:     -12.2      3.017      8.553
REMARK SMILES Cc1n[nH]c(C(=O)N2CCCC[C@H]2CCC(=O)NCCCNC(=O)c2ccc(-c3c4nc(c(-c5c(F)c(F)c(F)c(F)c5F)c5ccc([nH]5)c(-c5c(F)c(F)c(F)c(F)c5F)c5nc(c(-c6c(F)c(F)c(F)c(F)c6F)c6ccc3[nH]6)C=C5)C=C4)cc2)n1
REMARK SMILES IDX 19 1 18 2 16 3 17 4 15 6 14 7 13 8 8 9 9 10 10 11 12 12
REMARK SMILES IDX 11 13 6 14 7 15 5 16 1 17 2 18 3 19 88 20 4 21 20 23 21 24
REMARK SMILES IDX 22 25 23 26 24 28 25 29 26 30 87 31 27 32 86 33 28 34 29 35
REMARK SMILES IDX 30 36 80 37 31 38 85 39 79 40 81 41 32 42 84 43 78 44 77 45
REMARK SMILES IDX 33 47 65 48 45 49 64 50 46 51 49 52 63 53 82 54 47 55 48 56
REMARK SMILES IDX 62 58 83 59 50 60 34 61 35 62 43 63 36 64 37 65 41 66 44 67
REMARK SMILES IDX 38 68 39 69 42 70 40 71 66 72 67 73 75 74 68 75 69 76 73 77
REMARK SMILES IDX 76 78 70 79 71 80 74 81 72 82 51 83 52 84 60 85 53 86 54 87
REMARK SMILES IDX 58 88 61 89 55 90 56 91 59 92 57 93
REMARK H PARENT 18 5 4 22 22 27 81 46 49 57
REMARK Flexibility Score: inf
ROOT
ATOM      1  C   UNL A   1      32.624  29.742  26.062  1.00  0.00     0.117 C 
ENDROOT
BRANCH   1   2
ATOM      2  N   UNL A   1      32.138  28.284  26.195  1.00  0.00    -0.356 N 
ATOM      3  C   UNL A   1      32.423  26.946  26.327  1.00  0.00     0.220 C 
ATOM      4  O   UNL A   1      31.479  26.390  26.937  1.00  0.00    -0.275 OA
ATOM      5  H   UNL A   1      31.155  28.336  26.174  1.00  0.00     0.163 HD
BRANCH   3   6
ATOM      6  C   UNL A   1      33.618  25.878  25.940  1.00  0.00     0.102 C 
BRANCH   6   7
ATOM      7  C   UNL A   1      33.680  24.271  25.528  1.00  0.00     0.035 C 
BRANCH   7   8
ATOM      8  C   UNL A   1      34.783  23.358  26.106  1.00  0.00     0.086 C 
ATOM      9  N   UNL A   1      34.573  22.224  25.309  1.00  0.00    -0.333 N 
ATOM     10  C   UNL A   1      35.197  22.501  23.949  1.00  0.00     0.120 C 
ATOM     11  C   UNL A   1      36.688  22.551  23.861  1.00  0.00     0.022 C 
ATOM     12  C   UNL A   1      36.336  23.639  26.115  1.00  0.00     0.025 C 
ATOM     13  C   UNL A   1      37.093  23.696  24.771  1.00  0.00     0.004 C 
BRANCH   9  14
ATOM     14  C   UNL A   1      34.073  21.108  26.040  1.00  0.00     0.291 C 
ATOM     15  O   UNL A   1      33.948  21.232  27.261  1.00  0.00    -0.265 OA
BRANCH  14  16
ATOM     16  C   UNL A   1      33.504  19.909  25.357  1.00  0.00     0.214 A 
ATOM     17  C   UNL A   1      33.817  16.819  23.602  1.00  0.00     0.092 C 
ATOM     18  C   UNL A   1      33.379  18.050  24.293  1.00  0.00     0.148 A 
ATOM     19  N   UNL A   1      32.174  18.147  24.847  1.00  0.00    -0.159 NA
ATOM     20  N   UNL A   1      34.209  19.119  24.548  1.00  0.00    -0.207 NA
ATOM     21  N   UNL A   1      32.270  19.319  25.492  1.00  0.00    -0.255 N 
ATOM     22  H   UNL A   1      31.533  19.716  26.010  1.00  0.00     0.192 HD
ENDBRANCH  14  16
ENDBRANCH   9  14
ENDBRANCH   7   8
ENDBRANCH   6   7
ENDBRANCH   3   6
ENDBRANCH   1   2
BRANCH   1  23
ATOM     23  C   UNL A   1      32.976  30.671  27.274  1.00  0.00     0.042 C 
BRANCH  23  24
ATOM     24  C   UNL A   1      34.446  30.944  27.565  1.00  0.00     0.118 C 
BRANCH  24  25
ATOM     25  N   UNL A   1      34.566  31.848  28.720  1.00  0.00    -0.352 N 
ATOM     26  C   UNL A   1      35.408  31.787  29.813  1.00  0.00     0.251 C 
ATOM     27  H   UNL A   1      33.950  32.616  28.713  1.00  0.00     0.163 HD
ATOM     28  O   UNL A   1      35.158  32.365  30.846  1.00  0.00    -0.269 OA
BRANCH  26  29
ATOM     29  C   UNL A   1      36.639  31.002  29.663  1.00  0.00     0.039 A 
ATOM     30  C   UNL A   1      37.888  31.612  29.578  1.00  0.00     0.014 A 
ATOM     31  C   UNL A   1      36.504  29.620  29.703  1.00  0.00     0.014 A 
ATOM     32  C   UNL A   1      39.006  30.792  29.594  1.00  0.00     0.010 A 
ATOM     33  C   UNL A   1      37.592  28.855  29.989  1.00  0.00     0.010 A 
ATOM     34  C   UNL A   1      38.843  29.413  29.824  1.00  0.00    -0.014 A 
BRANCH  34  35
ATOM     35  C   UNL A   1      39.990  28.535  29.957  1.00  0.00     0.031 A 
ATOM     36  C   UNL A   1      40.487  28.406  31.347  1.00  0.00     0.074 A 
ATOM     37  C   UNL A   1      40.507  27.845  28.916  1.00  0.00     0.049 A 
ATOM     38  N   UNL A   1      41.626  28.810  31.788  1.00  0.00    -0.248 NA
ATOM     39  C   UNL A   1      39.579  27.928  32.401  1.00  0.00     0.031 C 
ATOM     40  C   UNL A   1      39.990  27.675  27.549  1.00  0.00     0.029 A 
ATOM     41  N   UNL A   1      41.633  27.086  28.892  1.00  0.00    -0.354 N 
ATOM     42  C   UNL A   1      41.659  28.498  33.141  1.00  0.00     0.074 A 
ATOM     43  C   UNL A   1      40.348  28.018  33.489  1.00  0.00     0.031 C 
ATOM     44  C   UNL A   1      40.679  26.703  26.911  1.00  0.00     0.029 A 
ATOM     45  C   UNL A   1      41.801  26.322  27.744  1.00  0.00     0.049 A 
ATOM     46  H   UNL A   1      42.282  27.078  29.633  1.00  0.00     0.167 HD
ATOM     47  C   UNL A   1      42.842  28.507  33.806  1.00  0.00     0.037 A 
ATOM     48  C   UNL A   1      42.809  25.450  27.493  1.00  0.00     0.037 A 
ATOM     49  C   UNL A   1      43.811  29.315  33.106  1.00  0.00     0.049 A 
ATOM     50  C   UNL A   1      43.937  25.840  28.375  1.00  0.00     0.074 A 
ATOM     51  C   UNL A   1      43.856  30.655  32.769  1.00  0.00     0.029 A 
ATOM     52  N   UNL A   1      44.684  28.681  32.256  1.00  0.00    -0.354 N 
ATOM     53  N   UNL A   1      44.608  26.950  28.233  1.00  0.00    -0.248 NA
ATOM     54  C   UNL A   1      43.992  25.240  29.699  1.00  0.00     0.031 C 
ATOM     55  C   UNL A   1      44.362  30.679  31.436  1.00  0.00     0.029 A 
ATOM     56  C   UNL A   1      44.686  29.372  31.070  1.00  0.00     0.049 A 
ATOM     57  H   UNL A   1      45.214  27.876  32.461  1.00  0.00     0.167 HD
ATOM     58  C   UNL A   1      44.787  27.418  29.527  1.00  0.00     0.074 A 
ATOM     59  C   UNL A   1      44.458  26.285  30.390  1.00  0.00     0.031 C 
ATOM     60  C   UNL A   1      44.904  28.755  29.782  1.00  0.00     0.037 A 
BRANCH  47  61
ATOM     61  C   UNL A   1      43.219  27.494  34.846  1.00  0.00     0.064 A 
ATOM     62  C   UNL A   1      43.511  27.934  36.150  1.00  0.00     0.173 A 
ATOM     63  C   UNL A   1      43.628  26.182  34.527  1.00  0.00     0.173 A 
ATOM     64  F   UNL A   1      43.170  29.169  36.547  1.00  0.00    -0.203 F 
ATOM     65  C   UNL A   1      44.249  27.149  37.037  1.00  0.00     0.198 A 
ATOM     66  C   UNL A   1      44.327  25.387  35.431  1.00  0.00     0.198 A 
ATOM     67  F   UNL A   1      43.474  25.667  33.301  1.00  0.00    -0.203 F 
ATOM     68  F   UNL A   1      44.621  27.656  38.221  1.00  0.00    -0.200 F 
ATOM     69  C   UNL A   1      44.668  25.882  36.672  1.00  0.00     0.200 A 
ATOM     70  F   UNL A   1      44.742  24.170  35.054  1.00  0.00    -0.200 F 
ATOM     71  F   UNL A   1      45.440  25.159  37.494  1.00  0.00    -0.200 F 
ENDBRANCH  47  61
BRANCH  48  72
ATOM     72  C   UNL A   1      42.759  24.154  26.779  1.00  0.00     0.064 A 
ATOM     73  C   UNL A   1      43.361  24.001  25.518  1.00  0.00     0.173 A 
ATOM     74  C   UNL A   1      42.394  22.967  27.444  1.00  0.00     0.173 A 
ATOM     75  F   UNL A   1      43.771  25.079  24.832  1.00  0.00    -0.203 F 
ATOM     76  C   UNL A   1      43.622  22.738  24.976  1.00  0.00     0.198 A 
ATOM     77  C   UNL A   1      42.653  21.706  26.902  1.00  0.00     0.198 A 
ATOM     78  F   UNL A   1      41.869  23.005  28.678  1.00  0.00    -0.203 F 
ATOM     79  F   UNL A   1      44.262  22.634  23.803  1.00  0.00    -0.200 F 
ATOM     80  C   UNL A   1      43.282  21.592  25.675  1.00  0.00     0.200 A 
ATOM     81  F   UNL A   1      42.351  20.605  27.603  1.00  0.00    -0.200 F 
ATOM     82  F   UNL A   1      43.597  20.383  25.191  1.00  0.00    -0.200 F 
ENDBRANCH  48  72
BRANCH  60  83
ATOM     83  C   UNL A   1      45.077  29.682  28.608  1.00  0.00     0.064 A 
ATOM     84  C   UNL A   1      44.019  30.283  27.902  1.00  0.00     0.173 A 
ATOM     85  C   UNL A   1      46.377  30.090  28.280  1.00  0.00     0.173 A 
ATOM     86  F   UNL A   1      42.744  30.026  28.213  1.00  0.00    -0.203 F 
ATOM     87  C   UNL A   1      44.258  31.216  26.891  1.00  0.00     0.198 A 
ATOM     88  C   UNL A   1      46.612  31.047  27.298  1.00  0.00     0.198 A 
ATOM     89  F   UNL A   1      47.426  29.592  28.954  1.00  0.00    -0.203 F 
ATOM     90  F   UNL A   1      43.231  31.765  26.225  1.00  0.00    -0.200 F 
ATOM     91  C   UNL A   1      45.554  31.601  26.596  1.00  0.00     0.200 A 
ATOM     92  F   UNL A   1      47.865  31.453  27.052  1.00  0.00    -0.200 F 
ATOM     93  F   UNL A   1      45.784  32.526  25.653  1.00  0.00    -0.200 F 
ENDBRANCH  60  83
ENDBRANCH  34  35
ENDBRANCH  26  29
ENDBRANCH  24  25
ENDBRANCH  23  24
ENDBRANCH   1  23
TORSDOF 14
ENDMDL
