MODEL 1
REMARK VINA RESULT:     -13.4      0.000      0.000
REMARK SMILES Cc1c(Cc2ccccc2)c(=O)oc2cc(OCC(=O)N[C@H](C)C(=O)NCCCNC(=O)c3ccc(-c4c5nc(c(-c6c(F)c(F)c(F)c(F)c6F)c6ccc([nH]6)c(-c6c(F)c(F)c(F)c(F)c6F)c6nc(c(-c7c(F)c(F)c(F)c(F)c7F)c7ccc4[nH]7)C=C6)C=C5)cc3)ccc12
REMARK SMILES IDX 24 1 25 2 26 3 22 5 23 6 21 7 19 8 20 9 18 11 17 12 16 13
REMARK SMILES IDX 1 14 2 15 3 16 98 17 11 18 14 19 97 20 12 21 13 22 15 23
REMARK SMILES IDX 96 24 4 25 5 26 6 27 10 28 7 29 9 30 8 31 27 32 28 33 29 34
REMARK SMILES IDX 30 35 31 36 32 38 33 39 34 40 95 41 35 42 94 43 36 44 37 45
REMARK SMILES IDX 38 46 88 47 39 48 93 49 87 50 89 51 40 52 92 53 86 54 85 55
REMARK SMILES IDX 41 57 73 58 53 59 72 60 54 61 57 62 71 63 90 64 55 65 56 66
REMARK SMILES IDX 70 68 91 69 58 70 42 71 43 72 51 73 44 74 45 75 49 76 52 77
REMARK SMILES IDX 46 78 47 79 50 80 48 81 74 82 75 83 83 84 76 85 77 86 81 87
REMARK SMILES IDX 84 88 78 89 79 90 82 91 80 92 59 93 60 94 68 95 61 96 62 97
REMARK SMILES IDX 66 98 69 99 63 100 64 101 67 102 65 103
REMARK H PARENT 26 4 21 10 30 37 89 56 57 67
REMARK Flexibility Score: inf
ROOT
ATOM      1  C   UNL A   1      32.354  28.940  25.344  1.00  0.00     0.242 C 
ATOM      2  O   UNL A   1      32.470  27.816  25.847  1.00  0.00    -0.273 OA
ATOM      3  N   UNL A   1      31.601  29.832  26.038  1.00  0.00    -0.354 N 
ATOM      4  H   UNL A   1      31.229  29.484  26.880  1.00  0.00     0.163 HD
ENDROOT
BRANCH   1   5
ATOM      5  C   UNL A   1      32.902  29.206  23.920  1.00  0.00     0.168 C 
ATOM      6  C   UNL A   1      33.893  28.123  23.534  1.00  0.00     0.041 C 
BRANCH   5   7
ATOM      7  N   UNL A   1      31.929  29.641  22.907  1.00  0.00    -0.342 N 
ATOM      8  C   UNL A   1      30.850  29.118  22.275  1.00  0.00     0.258 C 
ATOM      9  O   UNL A   1      30.205  29.886  21.552  1.00  0.00    -0.271 OA
ATOM     10  H   UNL A   1      32.111  30.561  22.606  1.00  0.00     0.164 HD
BRANCH   8  11
ATOM     11  C   UNL A   1      30.370  27.675  22.468  1.00  0.00     0.329 C 
BRANCH  11  12
ATOM     12  O   UNL A   1      30.890  26.681  21.621  1.00  0.00    -0.484 OA
BRANCH  12  13
ATOM     13  C   UNL A   1      31.538  25.648  22.222  1.00  0.00     0.123 A 
ATOM     14  C   UNL A   1      35.354  22.483  23.589  1.00  0.00     0.046 C 
ATOM     15  C   UNL A   1      33.888  22.518  23.929  1.00  0.00    -0.029 A 
ATOM     16  C   UNL A   1      33.257  21.658  24.761  1.00  0.00     0.046 A 
ATOM     17  C   UNL A   1      33.104  23.581  23.290  1.00  0.00     0.021 A 
ATOM     18  C   UNL A   1      31.844  21.889  25.186  1.00  0.00     0.340 A 
ATOM     19  C   UNL A   1      31.837  23.855  23.782  1.00  0.00     0.142 A 
ATOM     20  C   UNL A   1      33.564  24.334  22.203  1.00  0.00     0.016 A 
ATOM     21  O   UNL A   1      31.250  21.117  25.931  1.00  0.00    -0.246 OA
ATOM     22  O   UNL A   1      31.254  23.074  24.786  1.00  0.00    -0.422 OA
ATOM     23  C   UNL A   1      31.060  24.893  23.285  1.00  0.00     0.094 A 
ATOM     24  C   UNL A   1      32.785  25.360  21.673  1.00  0.00     0.047 A 
BRANCH  16  25
ATOM     25  C   UNL A   1      33.893  20.442  25.393  1.00  0.00     0.079 C 
BRANCH  25  26
ATOM     26  C   UNL A   1      33.776  19.191  24.543  1.00  0.00    -0.043 A 
ATOM     27  C   UNL A   1      34.738  18.178  24.629  1.00  0.00     0.004 A 
ATOM     28  C   UNL A   1      32.719  19.027  23.634  1.00  0.00     0.004 A 
ATOM     29  C   UNL A   1      34.653  17.046  23.814  1.00  0.00     0.000 A 
ATOM     30  C   UNL A   1      32.624  17.890  22.832  1.00  0.00     0.000 A 
ATOM     31  C   UNL A   1      33.598  16.902  22.915  1.00  0.00     0.000 A 
ENDBRANCH  25  26
ENDBRANCH  16  25
ENDBRANCH  12  13
ENDBRANCH  11  12
ENDBRANCH   8  11
ENDBRANCH   5   7
ENDBRANCH   1   5
BRANCH   3  32
ATOM     32  C   UNL A   1      31.253  31.201  25.753  1.00  0.00     0.117 C 
BRANCH  32  33
ATOM     33  C   UNL A   1      31.317  32.088  26.993  1.00  0.00     0.042 C 
BRANCH  33  34
ATOM     34  C   UNL A   1      32.648  32.803  27.124  1.00  0.00     0.118 C 
BRANCH  34  35
ATOM     35  N   UNL A   1      32.465  34.185  27.561  1.00  0.00    -0.352 N 
ATOM     36  C   UNL A   1      33.025  34.879  28.601  1.00  0.00     0.251 C 
ATOM     37  H   UNL A   1      31.831  34.705  27.016  1.00  0.00     0.163 HD
ATOM     38  O   UNL A   1      32.547  35.957  28.934  1.00  0.00    -0.269 OA
BRANCH  36  39
ATOM     39  C   UNL A   1      34.189  34.331  29.326  1.00  0.00     0.039 A 
ATOM     40  C   UNL A   1      33.971  33.572  30.478  1.00  0.00     0.014 A 
ATOM     41  C   UNL A   1      35.490  34.586  28.891  1.00  0.00     0.014 A 
ATOM     42  C   UNL A   1      35.058  33.022  31.157  1.00  0.00     0.010 A 
ATOM     43  C   UNL A   1      36.560  33.943  29.496  1.00  0.00     0.010 A 
ATOM     44  C   UNL A   1      36.358  33.173  30.649  1.00  0.00    -0.014 A 
BRANCH  44  45
ATOM     45  C   UNL A   1      37.528  32.557  31.315  1.00  0.00     0.031 A 
ATOM     46  C   UNL A   1      38.255  31.421  30.648  1.00  0.00     0.074 A 
ATOM     47  C   UNL A   1      37.882  32.968  32.547  1.00  0.00     0.049 A 
ATOM     48  N   UNL A   1      39.238  30.687  31.103  1.00  0.00    -0.248 NA
ATOM     49  C   UNL A   1      37.791  31.032  29.305  1.00  0.00     0.031 C 
ATOM     50  C   UNL A   1      37.213  34.020  33.314  1.00  0.00     0.029 A 
ATOM     51  N   UNL A   1      38.885  32.539  33.379  1.00  0.00    -0.354 N 
ATOM     52  C   UNL A   1      39.491  29.742  30.116  1.00  0.00     0.074 A 
ATOM     53  C   UNL A   1      38.520  29.953  29.066  1.00  0.00     0.031 C 
ATOM     54  C   UNL A   1      37.839  34.173  34.490  1.00  0.00     0.029 A 
ATOM     55  C   UNL A   1      38.921  33.200  34.581  1.00  0.00     0.049 A 
ATOM     56  H   UNL A   1      39.518  31.826  33.136  1.00  0.00     0.167 HD
ATOM     57  C   UNL A   1      40.464  28.803  30.079  1.00  0.00     0.037 A 
ATOM     58  C   UNL A   1      39.732  33.029  35.643  1.00  0.00     0.037 A 
ATOM     59  C   UNL A   1      41.447  28.627  31.115  1.00  0.00     0.049 A 
ATOM     60  C   UNL A   1      40.809  31.981  35.572  1.00  0.00     0.074 A 
ATOM     61  C   UNL A   1      42.521  27.756  31.144  1.00  0.00     0.029 A 
ATOM     62  N   UNL A   1      41.472  29.335  32.307  1.00  0.00    -0.354 N 
ATOM     63  N   UNL A   1      41.090  31.147  34.601  1.00  0.00    -0.248 NA
ATOM     64  C   UNL A   1      41.688  31.856  36.742  1.00  0.00     0.031 C 
ATOM     65  C   UNL A   1      43.160  27.896  32.379  1.00  0.00     0.029 A 
ATOM     66  C   UNL A   1      42.526  28.901  33.092  1.00  0.00     0.049 A 
ATOM     67  H   UNL A   1      40.834  30.043  32.557  1.00  0.00     0.167 HD
ATOM     68  C   UNL A   1      42.194  30.420  35.028  1.00  0.00     0.074 A 
ATOM     69  C   UNL A   1      42.541  30.926  36.339  1.00  0.00     0.031 C 
ATOM     70  C   UNL A   1      42.860  29.425  34.393  1.00  0.00     0.037 A 
BRANCH  57  71
ATOM     71  C   UNL A   1      40.518  27.896  28.883  1.00  0.00     0.064 A 
ATOM     72  C   UNL A   1      39.789  26.697  28.829  1.00  0.00     0.173 A 
ATOM     73  C   UNL A   1      41.277  28.250  27.757  1.00  0.00     0.173 A 
ATOM     74  F   UNL A   1      39.058  26.304  29.883  1.00  0.00    -0.203 F 
ATOM     75  C   UNL A   1      39.839  25.876  27.705  1.00  0.00     0.198 A 
ATOM     76  C   UNL A   1      41.297  27.444  26.622  1.00  0.00     0.198 A 
ATOM     77  F   UNL A   1      41.992  29.386  27.753  1.00  0.00    -0.203 F 
ATOM     78  F   UNL A   1      39.175  24.713  27.698  1.00  0.00    -0.200 F 
ATOM     79  C   UNL A   1      40.585  26.255  26.599  1.00  0.00     0.200 A 
ATOM     80  F   UNL A   1      42.008  27.819  25.549  1.00  0.00    -0.200 F 
ATOM     81  F   UNL A   1      40.623  25.470  25.514  1.00  0.00    -0.200 F 
ENDBRANCH  57  71
BRANCH  58  82
ATOM     82  C   UNL A   1      39.567  33.880  36.851  1.00  0.00     0.064 A 
ATOM     83  C   UNL A   1      38.801  33.445  37.942  1.00  0.00     0.173 A 
ATOM     84  C   UNL A   1      40.161  35.148  36.939  1.00  0.00     0.173 A 
ATOM     85  F   UNL A   1      38.199  32.247  37.900  1.00  0.00    -0.203 F 
ATOM     86  C   UNL A   1      38.613  34.255  39.060  1.00  0.00     0.198 A 
ATOM     87  C   UNL A   1      40.000  35.943  38.070  1.00  0.00     0.198 A 
ATOM     88  F   UNL A   1      40.912  35.609  35.928  1.00  0.00    -0.203 F 
ATOM     89  F   UNL A   1      37.831  33.834  40.064  1.00  0.00    -0.200 F 
ATOM     90  C   UNL A   1      39.217  35.500  39.126  1.00  0.00     0.200 A 
ATOM     91  F   UNL A   1      40.601  37.138  38.138  1.00  0.00    -0.200 F 
ATOM     92  F   UNL A   1      39.037  36.278  40.202  1.00  0.00    -0.200 F 
ENDBRANCH  58  82
BRANCH  70  93
ATOM     93  C   UNL A   1      44.057  28.844  35.089  1.00  0.00     0.064 A 
ATOM     94  C   UNL A   1      43.952  27.731  35.935  1.00  0.00     0.173 A 
ATOM     95  C   UNL A   1      45.333  29.386  34.869  1.00  0.00     0.173 A 
ATOM     96  F   UNL A   1      42.754  27.186  36.189  1.00  0.00    -0.203 F 
ATOM     97  C   UNL A   1      45.078  27.200  36.559  1.00  0.00     0.198 A 
ATOM     98  C   UNL A   1      46.460  28.829  35.466  1.00  0.00     0.198 A 
ATOM     99  F   UNL A   1      45.489  30.445  34.061  1.00  0.00    -0.203 F 
ATOM    100  F   UNL A   1      44.947  26.170  37.406  1.00  0.00    -0.200 F 
ATOM    101  C   UNL A   1      46.331  27.743  36.317  1.00  0.00     0.200 A 
ATOM    102  F   UNL A   1      47.672  29.345  35.215  1.00  0.00    -0.200 F 
ATOM    103  F   UNL A   1      47.414  27.223  36.910  1.00  0.00    -0.200 F 
ENDBRANCH  70  93
ENDBRANCH  44  45
ENDBRANCH  36  39
ENDBRANCH  34  35
ENDBRANCH  33  34
ENDBRANCH  32  33
ENDBRANCH   3  32
TORSDOF 16
ENDMDL
MODEL 2
REMARK VINA RESULT:     -13.2      0.673      2.057
REMARK SMILES Cc1c(Cc2ccccc2)c(=O)oc2cc(OCC(=O)N[C@H](C)C(=O)NCCCNC(=O)c3ccc(-c4c5nc(c(-c6c(F)c(F)c(F)c(F)c6F)c6ccc([nH]6)c(-c6c(F)c(F)c(F)c(F)c6F)c6nc(c(-c7c(F)c(F)c(F)c(F)c7F)c7ccc4[nH]7)C=C6)C=C5)cc3)ccc12
REMARK SMILES IDX 24 1 25 2 26 3 22 5 23 6 21 7 19 8 20 9 18 11 17 12 16 13
REMARK SMILES IDX 1 14 2 15 3 16 98 17 11 18 14 19 97 20 12 21 13 22 15 23
REMARK SMILES IDX 96 24 4 25 5 26 6 27 10 28 7 29 9 30 8 31 27 32 28 33 29 34
REMARK SMILES IDX 30 35 31 36 32 38 33 39 34 40 95 41 35 42 94 43 36 44 37 45
REMARK SMILES IDX 38 46 88 47 39 48 93 49 87 50 89 51 40 52 92 53 86 54 85 55
REMARK SMILES IDX 41 57 73 58 53 59 72 60 54 61 57 62 71 63 90 64 55 65 56 66
REMARK SMILES IDX 70 68 91 69 58 70 42 71 43 72 51 73 44 74 45 75 49 76 52 77
REMARK SMILES IDX 46 78 47 79 50 80 48 81 74 82 75 83 83 84 76 85 77 86 81 87
REMARK SMILES IDX 84 88 78 89 79 90 82 91 80 92 59 93 60 94 68 95 61 96 62 97
REMARK SMILES IDX 66 98 69 99 63 100 64 101 67 102 65 103
REMARK H PARENT 26 4 21 10 30 37 89 56 57 67
REMARK Flexibility Score: inf
ROOT
ATOM      1  C   UNL A   1      32.414  28.908  25.592  1.00  0.00     0.242 C 
ATOM      2  O   UNL A   1      32.508  27.871  26.259  1.00  0.00    -0.273 OA
ATOM      3  N   UNL A   1      31.686  29.913  26.146  1.00  0.00    -0.354 N 
ATOM      4  H   UNL A   1      31.312  29.705  27.032  1.00  0.00     0.163 HD
ENDROOT
BRANCH   1   5
ATOM      5  C   UNL A   1      32.957  28.943  24.142  1.00  0.00     0.168 C 
ATOM      6  C   UNL A   1      33.842  27.735  23.890  1.00  0.00     0.041 C 
BRANCH   5   7
ATOM      7  N   UNL A   1      32.009  29.333  23.089  1.00  0.00    -0.342 N 
ATOM      8  C   UNL A   1      30.696  29.137  22.810  1.00  0.00     0.258 C 
ATOM      9  O   UNL A   1      30.234  29.766  21.851  1.00  0.00    -0.271 OA
ATOM     10  H   UNL A   1      32.444  29.885  22.400  1.00  0.00     0.164 HD
BRANCH   8  11
ATOM     11  C   UNL A   1      29.773  28.249  23.651  1.00  0.00     0.329 C 
BRANCH  11  12
ATOM     12  O   UNL A   1      29.536  26.934  23.217  1.00  0.00    -0.484 OA
BRANCH  12  13
ATOM     13  C   UNL A   1      30.445  25.996  23.592  1.00  0.00     0.123 A 
ATOM     14  C   UNL A   1      34.472  22.807  23.353  1.00  0.00     0.046 C 
ATOM     15  C   UNL A   1      33.454  23.084  24.427  1.00  0.00    -0.029 A 
ATOM     16  C   UNL A   1      33.433  22.510  25.651  1.00  0.00     0.046 A 
ATOM     17  C   UNL A   1      32.410  24.057  24.089  1.00  0.00     0.021 A 
ATOM     18  C   UNL A   1      32.500  22.990  26.715  1.00  0.00     0.340 A 
ATOM     19  C   UNL A   1      31.633  24.578  25.113  1.00  0.00     0.142 A 
ATOM     20  C   UNL A   1      32.150  24.489  22.782  1.00  0.00     0.016 A 
ATOM     21  O   UNL A   1      32.457  22.478  27.828  1.00  0.00    -0.246 OA
ATOM     22  O   UNL A   1      31.746  24.114  26.429  1.00  0.00    -0.422 OA
ATOM     23  C   UNL A   1      30.677  25.558  24.891  1.00  0.00     0.094 A 
ATOM     24  C   UNL A   1      31.173  25.451  22.537  1.00  0.00     0.047 A 
BRANCH  16  25
ATOM     25  C   UNL A   1      34.356  21.403  26.105  1.00  0.00     0.079 C 
BRANCH  25  26
ATOM     26  C   UNL A   1      34.092  20.078  25.415  1.00  0.00    -0.043 A 
ATOM     27  C   UNL A   1      32.786  19.592  25.280  1.00  0.00     0.004 A 
ATOM     28  C   UNL A   1      35.146  19.298  24.915  1.00  0.00     0.004 A 
ATOM     29  C   UNL A   1      32.548  18.351  24.684  1.00  0.00     0.000 A 
ATOM     30  C   UNL A   1      34.908  18.067  24.303  1.00  0.00     0.000 A 
ATOM     31  C   UNL A   1      33.608  17.589  24.196  1.00  0.00     0.000 A 
ENDBRANCH  25  26
ENDBRANCH  16  25
ENDBRANCH  12  13
ENDBRANCH  11  12
ENDBRANCH   8  11
ENDBRANCH   5   7
ENDBRANCH   1   5
BRANCH   3  32
ATOM     32  C   UNL A   1      31.368  31.231  25.658  1.00  0.00     0.117 C 
BRANCH  32  33
ATOM     33  C   UNL A   1      31.240  32.253  26.785  1.00  0.00     0.042 C 
BRANCH  33  34
ATOM     34  C   UNL A   1      32.575  32.869  27.161  1.00  0.00     0.118 C 
BRANCH  34  35
ATOM     35  N   UNL A   1      32.416  34.260  27.577  1.00  0.00    -0.352 N 
ATOM     36  C   UNL A   1      32.995  34.962  28.601  1.00  0.00     0.251 C 
ATOM     37  H   UNL A   1      31.785  34.780  27.030  1.00  0.00     0.163 HD
ATOM     38  O   UNL A   1      32.536  36.052  28.921  1.00  0.00    -0.269 OA
BRANCH  36  39
ATOM     39  C   UNL A   1      34.158  34.408  29.324  1.00  0.00     0.039 A 
ATOM     40  C   UNL A   1      33.942  33.702  30.510  1.00  0.00     0.014 A 
ATOM     41  C   UNL A   1      35.457  34.607  28.854  1.00  0.00     0.014 A 
ATOM     42  C   UNL A   1      35.026  33.147  31.189  1.00  0.00     0.010 A 
ATOM     43  C   UNL A   1      36.519  33.957  29.463  1.00  0.00     0.010 A 
ATOM     44  C   UNL A   1      36.319  33.239  30.649  1.00  0.00    -0.014 A 
BRANCH  44  45
ATOM     45  C   UNL A   1      37.484  32.614  31.317  1.00  0.00     0.031 A 
ATOM     46  C   UNL A   1      38.199  31.469  30.653  1.00  0.00     0.074 A 
ATOM     47  C   UNL A   1      37.844  33.027  32.547  1.00  0.00     0.049 A 
ATOM     48  N   UNL A   1      39.177  30.728  31.110  1.00  0.00    -0.248 NA
ATOM     49  C   UNL A   1      37.731  31.079  29.313  1.00  0.00     0.031 C 
ATOM     50  C   UNL A   1      37.184  34.088  33.310  1.00  0.00     0.029 A 
ATOM     51  N   UNL A   1      38.843  32.592  33.379  1.00  0.00    -0.354 N 
ATOM     52  C   UNL A   1      39.419  29.778  30.126  1.00  0.00     0.074 A 
ATOM     53  C   UNL A   1      38.450  29.993  29.077  1.00  0.00     0.031 C 
ATOM     54  C   UNL A   1      37.813  34.240  34.486  1.00  0.00     0.029 A 
ATOM     55  C   UNL A   1      38.887  33.258  34.579  1.00  0.00     0.049 A 
ATOM     56  H   UNL A   1      39.469  31.872  33.139  1.00  0.00     0.167 HD
ATOM     57  C   UNL A   1      40.384  28.829  30.092  1.00  0.00     0.037 A 
ATOM     58  C   UNL A   1      39.697  33.084  35.641  1.00  0.00     0.037 A 
ATOM     59  C   UNL A   1      41.366  28.648  31.128  1.00  0.00     0.049 A 
ATOM     60  C   UNL A   1      40.764  32.025  35.573  1.00  0.00     0.074 A 
ATOM     61  C   UNL A   1      42.432  27.768  31.159  1.00  0.00     0.029 A 
ATOM     62  N   UNL A   1      41.399  29.361  32.318  1.00  0.00    -0.354 N 
ATOM     63  N   UNL A   1      41.037  31.184  34.604  1.00  0.00    -0.248 NA
ATOM     64  C   UNL A   1      41.643  31.896  36.742  1.00  0.00     0.031 C 
ATOM     65  C   UNL A   1      43.074  27.906  32.393  1.00  0.00     0.029 A 
ATOM     66  C   UNL A   1      42.450  28.919  33.103  1.00  0.00     0.049 A 
ATOM     67  H   UNL A   1      40.768  30.075  32.566  1.00  0.00     0.167 HD
ATOM     68  C   UNL A   1      42.134  30.449  35.033  1.00  0.00     0.074 A 
ATOM     69  C   UNL A   1      42.487  30.957  36.342  1.00  0.00     0.031 C 
ATOM     70  C   UNL A   1      42.790  29.445  34.401  1.00  0.00     0.037 A 
BRANCH  57  71
ATOM     71  C   UNL A   1      40.428  27.917  28.900  1.00  0.00     0.064 A 
ATOM     72  C   UNL A   1      41.215  28.207  27.774  1.00  0.00     0.173 A 
ATOM     73  C   UNL A   1      39.704  26.715  28.899  1.00  0.00     0.173 A 
ATOM     74  F   UNL A   1      41.916  29.350  27.717  1.00  0.00    -0.203 F 
ATOM     75  C   UNL A   1      41.254  27.342  26.683  1.00  0.00     0.198 A 
ATOM     76  C   UNL A   1      39.774  25.836  27.821  1.00  0.00     0.198 A 
ATOM     77  F   UNL A   1      38.937  26.386  29.949  1.00  0.00    -0.203 F 
ATOM     78  F   UNL A   1      41.973  27.666  25.600  1.00  0.00    -0.200 F 
ATOM     79  C   UNL A   1      40.542  26.153  26.712  1.00  0.00     0.200 A 
ATOM     80  F   UNL A   1      39.096  24.681  27.857  1.00  0.00    -0.200 F 
ATOM     81  F   UNL A   1      40.591  25.316  25.667  1.00  0.00    -0.200 F 
ENDBRANCH  57  71
BRANCH  58  82
ATOM     82  C   UNL A   1      39.541  33.940  36.845  1.00  0.00     0.064 A 
ATOM     83  C   UNL A   1      40.162  35.195  36.926  1.00  0.00     0.173 A 
ATOM     84  C   UNL A   1      38.777  33.522  37.945  1.00  0.00     0.173 A 
ATOM     85  F   UNL A   1      40.917  35.633  35.907  1.00  0.00    -0.203 F 
ATOM     86  C   UNL A   1      40.048  35.984  38.068  1.00  0.00     0.198 A 
ATOM     87  C   UNL A   1      38.637  34.326  39.073  1.00  0.00     0.198 A 
ATOM     88  F   UNL A   1      38.153  32.335  37.917  1.00  0.00    -0.203 F 
ATOM     89  F   UNL A   1      40.698  37.154  38.138  1.00  0.00    -0.200 F 
ATOM     90  C   UNL A   1      39.282  35.552  39.139  1.00  0.00     0.200 A 
ATOM     91  F   UNL A   1      37.879  33.912  40.098  1.00  0.00    -0.200 F 
ATOM     92  F   UNL A   1      39.172  36.312  40.237  1.00  0.00    -0.200 F 
ENDBRANCH  58  82
BRANCH  70  93
ATOM     93  C   UNL A   1      43.983  28.857  35.098  1.00  0.00     0.064 A 
ATOM     94  C   UNL A   1      45.271  29.383  34.930  1.00  0.00     0.173 A 
ATOM     95  C   UNL A   1      43.824  27.776  35.980  1.00  0.00     0.173 A 
ATOM     96  F   UNL A   1      45.478  30.406  34.086  1.00  0.00    -0.203 F 
ATOM     97  C   UNL A   1      46.362  28.831  35.596  1.00  0.00     0.198 A 
ATOM     98  C   UNL A   1      44.911  27.251  36.673  1.00  0.00     0.198 A 
ATOM     99  F   UNL A   1      42.611  27.242  36.184  1.00  0.00    -0.203 F 
ATOM    100  F   UNL A   1      47.592  29.315  35.379  1.00  0.00    -0.200 F 
ATOM    101  C   UNL A   1      46.179  27.773  36.473  1.00  0.00     0.200 A 
ATOM    102  F   UNL A   1      44.728  26.240  37.534  1.00  0.00    -0.200 F 
ATOM    103  F   UNL A   1      47.228  27.249  37.123  1.00  0.00    -0.200 F 
ENDBRANCH  70  93
ENDBRANCH  44  45
ENDBRANCH  36  39
ENDBRANCH  34  35
ENDBRANCH  33  34
ENDBRANCH  32  33
ENDBRANCH   3  32
TORSDOF 16
ENDMDL
MODEL 3
REMARK VINA RESULT:     -13.2      5.273     11.462
REMARK SMILES Cc1c(Cc2ccccc2)c(=O)oc2cc(OCC(=O)N[C@H](C)C(=O)NCCCNC(=O)c3ccc(-c4c5nc(c(-c6c(F)c(F)c(F)c(F)c6F)c6ccc([nH]6)c(-c6c(F)c(F)c(F)c(F)c6F)c6nc(c(-c7c(F)c(F)c(F)c(F)c7F)c7ccc4[nH]7)C=C6)C=C5)cc3)ccc12
REMARK SMILES IDX 24 1 25 2 26 3 22 5 23 6 21 7 19 8 20 9 18 11 17 12 16 13
REMARK SMILES IDX 1 14 2 15 3 16 98 17 11 18 14 19 97 20 12 21 13 22 15 23
REMARK SMILES IDX 96 24 4 25 5 26 6 27 10 28 7 29 9 30 8 31 27 32 28 33 29 34
REMARK SMILES IDX 30 35 31 36 32 38 33 39 34 40 95 41 35 42 94 43 36 44 37 45
REMARK SMILES IDX 38 46 88 47 39 48 93 49 87 50 89 51 40 52 92 53 86 54 85 55
REMARK SMILES IDX 41 57 73 58 53 59 72 60 54 61 57 62 71 63 90 64 55 65 56 66
REMARK SMILES IDX 70 68 91 69 58 70 42 71 43 72 51 73 44 74 45 75 49 76 52 77
REMARK SMILES IDX 46 78 47 79 50 80 48 81 74 82 75 83 83 84 76 85 77 86 81 87
REMARK SMILES IDX 84 88 78 89 79 90 82 91 80 92 59 93 60 94 68 95 61 96 62 97
REMARK SMILES IDX 66 98 69 99 63 100 64 101 67 102 65 103
REMARK H PARENT 26 4 21 10 30 37 89 56 57 67
REMARK Flexibility Score: inf
ROOT
ATOM      1  C   UNL A   1      33.340  35.057  28.485  1.00  0.00     0.242 C 
ATOM      2  O   UNL A   1      32.244  34.713  28.026  1.00  0.00    -0.273 OA
ATOM      3  N   UNL A   1      34.355  34.165  28.340  1.00  0.00    -0.354 N 
ATOM      4  H   UNL A   1      34.106  33.335  27.874  1.00  0.00     0.163 HD
ENDROOT
BRANCH   1   5
ATOM      5  C   UNL A   1      33.452  36.352  29.325  1.00  0.00     0.168 C 
ATOM      6  C   UNL A   1      33.614  37.552  28.409  1.00  0.00     0.041 C 
BRANCH   5   7
ATOM      7  N   UNL A   1      32.541  36.479  30.470  1.00  0.00    -0.342 N 
ATOM      8  C   UNL A   1      32.457  35.994  31.734  1.00  0.00     0.258 C 
ATOM      9  O   UNL A   1      31.564  36.463  32.449  1.00  0.00    -0.271 OA
ATOM     10  H   UNL A   1      31.787  37.079  30.265  1.00  0.00     0.164 HD
BRANCH   8  11
ATOM     11  C   UNL A   1      33.437  34.970  32.316  1.00  0.00     0.329 C 
BRANCH  11  12
ATOM     12  O   UNL A   1      34.096  35.287  33.518  1.00  0.00    -0.484 OA
BRANCH  12  13
ATOM     13  C   UNL A   1      35.303  34.696  33.723  1.00  0.00     0.123 A 
ATOM     14  C   UNL A   1      40.316  33.660  33.239  1.00  0.00     0.046 C 
ATOM     15  C   UNL A   1      39.232  33.067  34.098  1.00  0.00    -0.029 A 
ATOM     16  C   UNL A   1      39.406  32.082  35.008  1.00  0.00     0.046 A 
ATOM     17  C   UNL A   1      37.887  33.622  33.911  1.00  0.00     0.021 A 
ATOM     18  C   UNL A   1      38.311  31.695  35.947  1.00  0.00     0.340 A 
ATOM     19  C   UNL A   1      36.917  33.343  34.862  1.00  0.00     0.142 A 
ATOM     20  C   UNL A   1      37.524  34.418  32.817  1.00  0.00     0.016 A 
ATOM     21  O   UNL A   1      38.444  30.797  36.773  1.00  0.00    -0.246 OA
ATOM     22  O   UNL A   1      37.160  32.462  35.922  1.00  0.00    -0.422 OA
ATOM     23  C   UNL A   1      35.642  33.889  34.802  1.00  0.00     0.094 A 
ATOM     24  C   UNL A   1      36.240  34.950  32.725  1.00  0.00     0.047 A 
BRANCH  16  25
ATOM     25  C   UNL A   1      40.694  31.324  35.228  1.00  0.00     0.079 C 
BRANCH  25  26
ATOM     26  C   UNL A   1      40.842  30.114  34.325  1.00  0.00    -0.043 A 
ATOM     27  C   UNL A   1      39.741  29.607  33.626  1.00  0.00     0.004 A 
ATOM     28  C   UNL A   1      42.076  29.459  34.186  1.00  0.00     0.004 A 
ATOM     29  C   UNL A   1      39.869  28.465  32.829  1.00  0.00     0.000 A 
ATOM     30  C   UNL A   1      42.209  28.330  33.377  1.00  0.00     0.000 A 
ATOM     31  C   UNL A   1      41.102  27.827  32.706  1.00  0.00     0.000 A 
ENDBRANCH  25  26
ENDBRANCH  16  25
ENDBRANCH  12  13
ENDBRANCH  11  12
ENDBRANCH   8  11
ENDBRANCH   5   7
ENDBRANCH   1   5
BRANCH   3  32
ATOM     32  C   UNL A   1      35.735  34.228  28.750  1.00  0.00     0.117 C 
BRANCH  32  33
ATOM     33  C   UNL A   1      36.181  32.968  29.488  1.00  0.00     0.042 C 
BRANCH  33  34
ATOM     34  C   UNL A   1      35.014  32.209  30.091  1.00  0.00     0.118 C 
BRANCH  34  35
ATOM     35  N   UNL A   1      34.403  31.315  29.110  1.00  0.00    -0.352 N 
ATOM     36  C   UNL A   1      34.958  30.372  28.286  1.00  0.00     0.251 C 
ATOM     37  H   UNL A   1      33.426  31.406  29.028  1.00  0.00     0.163 HD
ATOM     38  O   UNL A   1      34.294  29.907  27.368  1.00  0.00    -0.269 OA
BRANCH  36  39
ATOM     39  C   UNL A   1      36.351  29.926  28.491  1.00  0.00     0.039 A 
ATOM     40  C   UNL A   1      37.272  30.086  27.453  1.00  0.00     0.014 A 
ATOM     41  C   UNL A   1      36.744  29.327  29.688  1.00  0.00     0.014 A 
ATOM     42  C   UNL A   1      38.598  29.698  27.641  1.00  0.00     0.010 A 
ATOM     43  C   UNL A   1      38.083  29.050  29.917  1.00  0.00     0.010 A 
ATOM     44  C   UNL A   1      39.021  29.211  28.888  1.00  0.00    -0.014 A 
BRANCH  44  45
ATOM     45  C   UNL A   1      40.433  28.841  29.138  1.00  0.00     0.031 A 
ATOM     46  C   UNL A   1      41.355  29.823  29.807  1.00  0.00     0.074 A 
ATOM     47  C   UNL A   1      40.896  27.657  28.694  1.00  0.00     0.049 A 
ATOM     48  N   UNL A   1      42.641  29.730  30.031  1.00  0.00    -0.248 NA
ATOM     49  C   UNL A   1      40.763  31.097  30.250  1.00  0.00     0.031 C 
ATOM     50  C   UNL A   1      40.106  26.652  27.980  1.00  0.00     0.029 A 
ATOM     51  N   UNL A   1      42.150  27.105  28.764  1.00  0.00    -0.354 N 
ATOM     52  C   UNL A   1      43.009  30.935  30.616  1.00  0.00     0.074 A 
ATOM     53  C   UNL A   1      41.829  31.768  30.656  1.00  0.00     0.031 C 
ATOM     54  C   UNL A   1      40.886  25.597  27.702  1.00  0.00     0.029 A 
ATOM     55  C   UNL A   1      42.238  25.869  28.174  1.00  0.00     0.049 A 
ATOM     56  H   UNL A   1      42.912  27.553  29.196  1.00  0.00     0.167 HD
ATOM     57  C   UNL A   1      44.219  31.300  31.101  1.00  0.00     0.037 A 
ATOM     58  C   UNL A   1      43.299  25.053  28.022  1.00  0.00     0.037 A 
ATOM     59  C   UNL A   1      45.378  30.447  31.087  1.00  0.00     0.049 A 
ATOM     60  C   UNL A   1      44.630  25.482  28.575  1.00  0.00     0.074 A 
ATOM     61  C   UNL A   1      46.631  30.690  31.619  1.00  0.00     0.029 A 
ATOM     62  N   UNL A   1      45.424  29.188  30.508  1.00  0.00    -0.354 N 
ATOM     63  N   UNL A   1      44.950  26.591  29.199  1.00  0.00    -0.248 NA
ATOM     64  C   UNL A   1      45.748  24.543  28.412  1.00  0.00     0.031 C 
ATOM     65  C   UNL A   1      47.453  29.602  31.309  1.00  0.00     0.029 A 
ATOM     66  C   UNL A   1      46.694  28.653  30.643  1.00  0.00     0.049 A 
ATOM     67  H   UNL A   1      44.665  28.741  30.066  1.00  0.00     0.167 HD
ATOM     68  C   UNL A   1      46.293  26.471  29.529  1.00  0.00     0.074 A 
ATOM     69  C   UNL A   1      46.723  25.173  29.052  1.00  0.00     0.031 C 
ATOM     70  C   UNL A   1      47.098  27.353  30.168  1.00  0.00     0.037 A 
BRANCH  57  71
ATOM     71  C   UNL A   1      44.352  32.676  31.689  1.00  0.00     0.064 A 
ATOM     72  C   UNL A   1      44.699  33.787  30.904  1.00  0.00     0.173 A 
ATOM     73  C   UNL A   1      44.088  32.894  33.050  1.00  0.00     0.173 A 
ATOM     74  F   UNL A   1      44.975  33.632  29.600  1.00  0.00    -0.203 F 
ATOM     75  C   UNL A   1      44.803  35.057  31.464  1.00  0.00     0.198 A 
ATOM     76  C   UNL A   1      44.159  34.172  33.599  1.00  0.00     0.198 A 
ATOM     77  F   UNL A   1      43.750  31.869  33.847  1.00  0.00    -0.203 F 
ATOM     78  F   UNL A   1      45.185  36.092  30.705  1.00  0.00    -0.200 F 
ATOM     79  C   UNL A   1      44.523  35.251  32.808  1.00  0.00     0.200 A 
ATOM     80  F   UNL A   1      43.875  34.358  34.895  1.00  0.00    -0.200 F 
ATOM     81  F   UNL A   1      44.611  36.476  33.343  1.00  0.00    -0.200 F 
ENDBRANCH  57  71
BRANCH  58  82
ATOM     82  C   UNL A   1      43.140  23.746  27.332  1.00  0.00     0.064 A 
ATOM     83  C   UNL A   1      43.521  23.585  25.992  1.00  0.00     0.173 A 
ATOM     84  C   UNL A   1      42.596  22.633  27.991  1.00  0.00     0.173 A 
ATOM     85  F   UNL A   1      44.031  24.623  25.313  1.00  0.00    -0.203 F 
ATOM     86  C   UNL A   1      43.339  22.371  25.331  1.00  0.00     0.198 A 
ATOM     87  C   UNL A   1      42.445  21.412  27.339  1.00  0.00     0.198 A 
ATOM     88  F   UNL A   1      42.224  22.729  29.276  1.00  0.00    -0.203 F 
ATOM     89  F   UNL A   1      43.662  22.263  24.035  1.00  0.00    -0.200 F 
ATOM     90  C   UNL A   1      42.806  21.285  26.006  1.00  0.00     0.200 A 
ATOM     91  F   UNL A   1      41.947  20.359  28.001  1.00  0.00    -0.200 F 
ATOM     92  F   UNL A   1      42.632  20.118  25.371  1.00  0.00    -0.200 F 
ENDBRANCH  58  82
BRANCH  70  93
ATOM     93  C   UNL A   1      48.515  26.930  30.428  1.00  0.00     0.064 A 
ATOM     94  C   UNL A   1      48.883  26.261  31.604  1.00  0.00     0.173 A 
ATOM     95  C   UNL A   1      49.509  27.161  29.464  1.00  0.00     0.173 A 
ATOM     96  F   UNL A   1      47.974  26.031  32.563  1.00  0.00    -0.203 F 
ATOM     97  C   UNL A   1      50.201  25.865  31.818  1.00  0.00     0.198 A 
ATOM     98  C   UNL A   1      50.817  26.730  29.666  1.00  0.00     0.198 A 
ATOM     99  F   UNL A   1      49.208  27.787  28.317  1.00  0.00    -0.203 F 
ATOM    100  F   UNL A   1      50.541  25.276  32.973  1.00  0.00    -0.200 F 
ATOM    101  C   UNL A   1      51.163  26.091  30.846  1.00  0.00     0.200 A 
ATOM    102  F   UNL A   1      51.741  26.933  28.717  1.00  0.00    -0.200 F 
ATOM    103  F   UNL A   1      52.429  25.699  31.050  1.00  0.00    -0.200 F 
ENDBRANCH  70  93
ENDBRANCH  44  45
ENDBRANCH  36  39
ENDBRANCH  34  35
ENDBRANCH  33  34
ENDBRANCH  32  33
ENDBRANCH   3  32
TORSDOF 16
ENDMDL
