MODEL 1
REMARK VINA RESULT:     -10.5      0.000      0.000
REMARK SMILES Cc1ncnc(OCCC(=O)NCCCNC(=O)c2ccc(-c3c4nc(c(-c5c(F)c(F)c(F)c(F)c5F)c5ccc([nH]5)c(-c5c(F)c(F)c(F)c(F)c5F)c5nc(c(-c6c(F)c(F)c(F)c(F)c6F)c6ccc3[nH]6)C=C5)C=C4)cc2)c1C
REMARK SMILES IDX 13 1 12 2 10 3 11 4 9 6 8 7 7 8 6 9 1 10 2 11 3 12 82 13
REMARK SMILES IDX 4 14 83 15 5 16 14 17 15 18 16 19 17 20 18 22 19 23 20 24
REMARK SMILES IDX 81 25 21 26 80 27 22 28 23 29 24 30 74 31 25 32 79 33 73 34
REMARK SMILES IDX 75 35 26 36 78 37 72 38 71 39 27 41 59 42 39 43 58 44 40 45
REMARK SMILES IDX 43 46 57 47 76 48 41 49 42 50 56 52 77 53 44 54 28 55 29 56
REMARK SMILES IDX 37 57 30 58 31 59 35 60 38 61 32 62 33 63 36 64 34 65 60 66
REMARK SMILES IDX 61 67 69 68 62 69 63 70 67 71 70 72 64 73 65 74 68 75 66 76
REMARK SMILES IDX 45 77 46 78 54 79 47 80 48 81 52 82 55 83 49 84 50 85 53 86
REMARK SMILES IDX 51 87
REMARK H PARENT 12 5 16 21 75 40 43 51
REMARK Flexibility Score: inf
ROOT
ATOM      1  C   UNL A   1      33.802  35.181  29.651  1.00  0.00     0.117 C 
ENDROOT
BRANCH   1   2
ATOM      2  N   UNL A   1      32.679  35.340  30.556  1.00  0.00    -0.356 N 
ATOM      3  C   UNL A   1      32.566  36.113  31.672  1.00  0.00     0.223 C 
ATOM      4  O   UNL A   1      31.449  36.230  32.178  1.00  0.00    -0.275 OA
ATOM      5  H   UNL A   1      31.880  34.810  30.330  1.00  0.00     0.163 HD
BRANCH   3   6
ATOM      6  C   UNL A   1      33.772  36.841  32.224  1.00  0.00     0.141 C 
BRANCH   6   7
ATOM      7  C   UNL A   1      34.404  36.134  33.426  1.00  0.00     0.241 C 
BRANCH   7   8
ATOM      8  O   UNL A   1      35.720  35.610  33.242  1.00  0.00    -0.477 OA
BRANCH   8   9
ATOM      9  C   UNL A   1      35.958  34.273  33.176  1.00  0.00     0.219 A 
ATOM     10  C   UNL A   1      37.848  31.265  34.386  1.00  0.00     0.067 C 
ATOM     11  C   UNL A   1      36.949  32.190  33.616  1.00  0.00     0.047 A 
ATOM     12  N   UNL A   1      36.070  31.577  32.794  1.00  0.00    -0.241 NA
ATOM     13  C   UNL A   1      37.007  33.579  33.762  1.00  0.00     0.032 A 
ATOM     14  C   UNL A   1      35.218  32.372  32.144  1.00  0.00     0.226 A 
ATOM     15  C   UNL A   1      38.215  34.235  34.355  1.00  0.00     0.052 C 
ATOM     16  N   UNL A   1      35.074  33.680  32.348  1.00  0.00    -0.202 NA
ENDBRANCH   8   9
ENDBRANCH   7   8
ENDBRANCH   6   7
ENDBRANCH   3   6
ENDBRANCH   1   2
BRANCH   1  17
ATOM     17  C   UNL A   1      33.527  34.226  28.495  1.00  0.00     0.042 C 
BRANCH  17  18
ATOM     18  C   UNL A   1      34.370  32.951  28.511  1.00  0.00     0.118 C 
BRANCH  18  19
ATOM     19  N   UNL A   1      33.680  31.804  27.954  1.00  0.00    -0.352 N 
ATOM     20  C   UNL A   1      34.158  30.551  27.650  1.00  0.00     0.251 C 
ATOM     21  H   UNL A   1      32.723  31.944  27.763  1.00  0.00     0.163 HD
ATOM     22  O   UNL A   1      33.437  29.777  27.025  1.00  0.00    -0.269 OA
BRANCH  20  23
ATOM     23  C   UNL A   1      35.524  30.103  28.038  1.00  0.00     0.039 A 
ATOM     24  C   UNL A   1      35.718  29.668  29.355  1.00  0.00     0.014 A 
ATOM     25  C   UNL A   1      36.629  30.205  27.187  1.00  0.00     0.014 A 
ATOM     26  C   UNL A   1      36.996  29.323  29.810  1.00  0.00     0.010 A 
ATOM     27  C   UNL A   1      37.905  29.817  27.631  1.00  0.00     0.010 A 
ATOM     28  C   UNL A   1      38.107  29.389  28.953  1.00  0.00    -0.014 A 
BRANCH  28  29
ATOM     29  C   UNL A   1      39.462  29.026  29.462  1.00  0.00     0.031 A 
ATOM     30  C   UNL A   1      40.139  29.849  30.526  1.00  0.00     0.074 A 
ATOM     31  C   UNL A   1      40.091  27.931  28.993  1.00  0.00     0.049 A 
ATOM     32  N   UNL A   1      41.280  29.632  31.138  1.00  0.00    -0.248 NA
ATOM     33  C   UNL A   1      39.455  31.077  30.952  1.00  0.00     0.031 C 
ATOM     34  C   UNL A   1      39.575  27.047  27.950  1.00  0.00     0.029 A 
ATOM     35  N   UNL A   1      41.298  27.370  29.341  1.00  0.00    -0.354 N 
ATOM     36  C   UNL A   1      41.447  30.691  32.021  1.00  0.00     0.074 A 
ATOM     37  C   UNL A   1      40.314  31.574  31.832  1.00  0.00     0.031 C 
ATOM     38  C   UNL A   1      40.443  26.040  27.763  1.00  0.00     0.029 A 
ATOM     39  C   UNL A   1      41.587  26.216  28.656  1.00  0.00     0.049 A 
ATOM     40  H   UNL A   1      41.896  27.758  30.020  1.00  0.00     0.167 HD
ATOM     41  C   UNL A   1      42.439  30.902  32.921  1.00  0.00     0.037 A 
ATOM     42  C   UNL A   1      42.646  25.386  28.734  1.00  0.00     0.037 A 
ATOM     43  C   UNL A   1      43.561  30.025  33.136  1.00  0.00     0.049 A 
ATOM     44  C   UNL A   1      43.751  25.656  29.718  1.00  0.00     0.074 A 
ATOM     45  C   UNL A   1      44.562  30.128  34.088  1.00  0.00     0.029 A 
ATOM     46  N   UNL A   1      43.842  28.895  32.386  1.00  0.00    -0.354 N 
ATOM     47  N   UNL A   1      43.858  26.620  30.597  1.00  0.00    -0.248 NA
ATOM     48  C   UNL A   1      44.885  24.717  29.718  1.00  0.00     0.031 C 
ATOM     49  C   UNL A   1      45.477  29.090  33.881  1.00  0.00     0.029 A 
ATOM     50  C   UNL A   1      45.021  28.314  32.829  1.00  0.00     0.049 A 
ATOM     51  H   UNL A   1      43.287  28.556  31.647  1.00  0.00     0.167 HD
ATOM     52  C   UNL A   1      45.056  26.400  31.264  1.00  0.00     0.074 A 
ATOM     53  C   UNL A   1      45.640  25.203  30.696  1.00  0.00     0.031 C 
ATOM     54  C   UNL A   1      45.616  27.132  32.258  1.00  0.00     0.037 A 
BRANCH  41  55
ATOM     55  C   UNL A   1      42.358  32.143  33.760  1.00  0.00     0.064 A 
ATOM     56  C   UNL A   1      42.884  33.364  33.313  1.00  0.00     0.173 A 
ATOM     57  C   UNL A   1      41.696  32.124  34.996  1.00  0.00     0.173 A 
ATOM     58  F   UNL A   1      43.529  33.432  32.139  1.00  0.00    -0.203 F 
ATOM     59  C   UNL A   1      42.772  34.517  34.086  1.00  0.00     0.198 A 
ATOM     60  C   UNL A   1      41.564  33.284  35.755  1.00  0.00     0.198 A 
ATOM     61  F   UNL A   1      41.165  30.983  35.462  1.00  0.00    -0.203 F 
ATOM     62  F   UNL A   1      43.314  35.665  33.656  1.00  0.00    -0.200 F 
ATOM     63  C   UNL A   1      42.107  34.477  35.302  1.00  0.00     0.200 A 
ATOM     64  F   UNL A   1      40.909  33.248  36.923  1.00  0.00    -0.200 F 
ATOM     65  F   UNL A   1      41.992  35.590  36.041  1.00  0.00    -0.200 F 
ENDBRANCH  41  55
BRANCH  42  66
ATOM     66  C   UNL A   1      42.690  24.189  27.859  1.00  0.00     0.064 A 
ATOM     67  C   UNL A   1      42.300  22.933  28.341  1.00  0.00     0.173 A 
ATOM     68  C   UNL A   1      43.083  24.286  26.516  1.00  0.00     0.173 A 
ATOM     69  F   UNL A   1      41.941  22.791  29.626  1.00  0.00    -0.203 F 
ATOM     70  C   UNL A   1      42.296  21.816  27.510  1.00  0.00     0.198 A 
ATOM     71  C   UNL A   1      43.059  23.173  25.681  1.00  0.00     0.198 A 
ATOM     72  F   UNL A   1      43.467  25.468  26.013  1.00  0.00    -0.203 F 
ATOM     73  F   UNL A   1      41.936  20.622  27.997  1.00  0.00    -0.200 F 
ATOM     74  C   UNL A   1      42.666  21.938  26.177  1.00  0.00     0.200 A 
ATOM     75  F   UNL A   1      43.408  23.295  24.393  1.00  0.00    -0.200 F 
ATOM     76  F   UNL A   1      42.645  20.866  25.374  1.00  0.00    -0.200 F 
ENDBRANCH  42  66
BRANCH  54  77
ATOM     77  C   UNL A   1      46.936  26.675  32.807  1.00  0.00     0.064 A 
ATOM     78  C   UNL A   1      47.010  25.722  33.834  1.00  0.00     0.173 A 
ATOM     79  C   UNL A   1      48.141  27.139  32.256  1.00  0.00     0.173 A 
ATOM     80  F   UNL A   1      45.888  25.256  34.404  1.00  0.00    -0.203 F 
ATOM     81  C   UNL A   1      48.241  25.258  34.294  1.00  0.00     0.198 A 
ATOM     82  C   UNL A   1      49.368  26.656  32.703  1.00  0.00     0.198 A 
ATOM     83  F   UNL A   1      48.127  28.047  31.269  1.00  0.00    -0.203 F 
ATOM     84  F   UNL A   1      48.287  24.368  35.295  1.00  0.00    -0.200 F 
ATOM     85  C   UNL A   1      49.417  25.718  33.723  1.00  0.00     0.200 A 
ATOM     86  F   UNL A   1      50.504  27.093  32.141  1.00  0.00    -0.200 F 
ATOM     87  F   UNL A   1      50.599  25.259  34.157  1.00  0.00    -0.200 F 
ENDBRANCH  54  77
ENDBRANCH  28  29
ENDBRANCH  20  23
ENDBRANCH  18  19
ENDBRANCH  17  18
ENDBRANCH   1  17
TORSDOF 13
ENDMDL
MODEL 2
REMARK VINA RESULT:     -10.5      0.850      2.280
REMARK SMILES Cc1ncnc(OCCC(=O)NCCCNC(=O)c2ccc(-c3c4nc(c(-c5c(F)c(F)c(F)c(F)c5F)c5ccc([nH]5)c(-c5c(F)c(F)c(F)c(F)c5F)c5nc(c(-c6c(F)c(F)c(F)c(F)c6F)c6ccc3[nH]6)C=C5)C=C4)cc2)c1C
REMARK SMILES IDX 13 1 12 2 10 3 11 4 9 6 8 7 7 8 6 9 1 10 2 11 3 12 82 13
REMARK SMILES IDX 4 14 83 15 5 16 14 17 15 18 16 19 17 20 18 22 19 23 20 24
REMARK SMILES IDX 81 25 21 26 80 27 22 28 23 29 24 30 74 31 25 32 79 33 73 34
REMARK SMILES IDX 75 35 26 36 78 37 72 38 71 39 27 41 59 42 39 43 58 44 40 45
REMARK SMILES IDX 43 46 57 47 76 48 41 49 42 50 56 52 77 53 44 54 28 55 29 56
REMARK SMILES IDX 37 57 30 58 31 59 35 60 38 61 32 62 33 63 36 64 34 65 60 66
REMARK SMILES IDX 61 67 69 68 62 69 63 70 67 71 70 72 64 73 65 74 68 75 66 76
REMARK SMILES IDX 45 77 46 78 54 79 47 80 48 81 52 82 55 83 49 84 50 85 53 86
REMARK SMILES IDX 51 87
REMARK H PARENT 12 5 16 21 75 40 43 51
REMARK Flexibility Score: inf
ROOT
ATOM      1  C   UNL A   1      33.272  34.563  29.314  1.00  0.00     0.117 C 
ENDROOT
BRANCH   1   2
ATOM      2  N   UNL A   1      33.005  35.933  29.712  1.00  0.00    -0.356 N 
ATOM      3  C   UNL A   1      32.951  36.479  30.958  1.00  0.00     0.223 C 
ATOM      4  O   UNL A   1      32.892  37.707  31.044  1.00  0.00    -0.275 OA
ATOM      5  H   UNL A   1      32.838  36.560  28.972  1.00  0.00     0.163 HD
BRANCH   3   6
ATOM      6  C   UNL A   1      33.020  35.597  32.186  1.00  0.00     0.141 C 
BRANCH   6   7
ATOM      7  C   UNL A   1      34.239  35.885  33.066  1.00  0.00     0.241 C 
BRANCH   7   8
ATOM      8  O   UNL A   1      35.486  35.340  32.633  1.00  0.00    -0.477 OA
BRANCH   8   9
ATOM      9  C   UNL A   1      36.040  34.251  33.229  1.00  0.00     0.219 A 
ATOM     10  C   UNL A   1      37.021  30.632  33.072  1.00  0.00     0.067 C 
ATOM     11  C   UNL A   1      36.744  32.032  33.540  1.00  0.00     0.047 A 
ATOM     12  N   UNL A   1      37.290  32.352  34.734  1.00  0.00    -0.241 NA
ATOM     13  C   UNL A   1      35.998  32.938  32.781  1.00  0.00     0.032 A 
ATOM     14  C   UNL A   1      37.110  33.609  35.145  1.00  0.00     0.226 A 
ATOM     15  C   UNL A   1      35.098  32.458  31.686  1.00  0.00     0.052 C 
ATOM     16  N   UNL A   1      36.574  34.590  34.420  1.00  0.00    -0.202 NA
ENDBRANCH   8   9
ENDBRANCH   7   8
ENDBRANCH   6   7
ENDBRANCH   3   6
ENDBRANCH   1   2
BRANCH   1  17
ATOM     17  C   UNL A   1      34.188  34.446  28.101  1.00  0.00     0.042 C 
BRANCH  17  18
ATOM     18  C   UNL A   1      34.965  33.132  28.018  1.00  0.00     0.118 C 
BRANCH  18  19
ATOM     19  N   UNL A   1      34.109  31.972  27.866  1.00  0.00    -0.352 N 
ATOM     20  C   UNL A   1      34.434  30.636  27.831  1.00  0.00     0.251 C 
ATOM     21  H   UNL A   1      33.148  32.171  27.773  1.00  0.00     0.163 HD
ATOM     22  O   UNL A   1      33.566  29.824  27.522  1.00  0.00    -0.269 OA
BRANCH  20  23
ATOM     23  C   UNL A   1      35.803  30.141  28.138  1.00  0.00     0.039 A 
ATOM     24  C   UNL A   1      36.062  29.708  29.444  1.00  0.00     0.014 A 
ATOM     25  C   UNL A   1      36.858  30.197  27.220  1.00  0.00     0.014 A 
ATOM     26  C   UNL A   1      37.353  29.319  29.823  1.00  0.00     0.010 A 
ATOM     27  C   UNL A   1      38.144  29.765  27.588  1.00  0.00     0.010 A 
ATOM     28  C   UNL A   1      38.410  29.337  28.899  1.00  0.00    -0.014 A 
BRANCH  28  29
ATOM     29  C   UNL A   1      39.780  28.928  29.327  1.00  0.00     0.031 A 
ATOM     30  C   UNL A   1      40.554  29.736  30.336  1.00  0.00     0.074 A 
ATOM     31  C   UNL A   1      40.336  27.804  28.834  1.00  0.00     0.049 A 
ATOM     32  N   UNL A   1      41.722  29.482  30.878  1.00  0.00    -0.248 NA
ATOM     33  C   UNL A   1      39.945  30.994  30.786  1.00  0.00     0.031 C 
ATOM     34  C   UNL A   1      39.722  26.930  27.838  1.00  0.00     0.029 A 
ATOM     35  N   UNL A   1      41.540  27.201  29.114  1.00  0.00    -0.354 N 
ATOM     36  C   UNL A   1      41.985  30.544  31.733  1.00  0.00     0.074 A 
ATOM     37  C   UNL A   1      40.876  31.467  31.604  1.00  0.00     0.031 C 
ATOM     38  C   UNL A   1      40.537  25.887  27.611  1.00  0.00     0.029 A 
ATOM     39  C   UNL A   1      41.742  26.029  28.428  1.00  0.00     0.049 A 
ATOM     40  H   UNL A   1      42.194  27.573  29.748  1.00  0.00     0.167 HD
ATOM     41  C   UNL A   1      43.039  30.726  32.566  1.00  0.00     0.037 A 
ATOM     42  C   UNL A   1      42.771  25.160  28.451  1.00  0.00     0.037 A 
ATOM     43  C   UNL A   1      44.138  29.809  32.723  1.00  0.00     0.049 A 
ATOM     44  C   UNL A   1      43.946  25.397  29.360  1.00  0.00     0.074 A 
ATOM     45  C   UNL A   1      45.201  29.883  33.609  1.00  0.00     0.029 A 
ATOM     46  N   UNL A   1      44.328  28.660  31.972  1.00  0.00    -0.354 N 
ATOM     47  N   UNL A   1      44.144  26.366  30.218  1.00  0.00    -0.248 NA
ATOM     48  C   UNL A   1      45.041  24.415  29.302  1.00  0.00     0.031 C 
ATOM     49  C   UNL A   1      46.060  28.808  33.359  1.00  0.00     0.029 A 
ATOM     50  C   UNL A   1      45.510  28.039  32.348  1.00  0.00     0.049 A 
ATOM     51  H   UNL A   1      43.714  28.334  31.274  1.00  0.00     0.167 HD
ATOM     52  C   UNL A   1      45.373  26.107  30.810  1.00  0.00     0.074 A 
ATOM     53  C   UNL A   1      45.873  24.883  30.224  1.00  0.00     0.031 C 
ATOM     54  C   UNL A   1      46.021  26.828  31.757  1.00  0.00     0.037 A 
BRANCH  41  55
ATOM     55  C   UNL A   1      43.059  31.979  33.392  1.00  0.00     0.064 A 
ATOM     56  C   UNL A   1      42.456  32.031  34.657  1.00  0.00     0.173 A 
ATOM     57  C   UNL A   1      43.739  33.118  32.939  1.00  0.00     0.173 A 
ATOM     58  F   UNL A   1      41.791  30.968  35.133  1.00  0.00    -0.203 F 
ATOM     59  C   UNL A   1      42.512  33.189  35.428  1.00  0.00     0.198 A 
ATOM     60  C   UNL A   1      43.814  34.266  33.723  1.00  0.00     0.198 A 
ATOM     61  F   UNL A   1      44.343  33.114  31.740  1.00  0.00    -0.203 F 
ATOM     62  F   UNL A   1      41.897  33.229  36.619  1.00  0.00    -0.200 F 
ATOM     63  C   UNL A   1      43.196  34.302  34.964  1.00  0.00     0.200 A 
ATOM     64  F   UNL A   1      44.487  35.336  33.279  1.00  0.00    -0.200 F 
ATOM     65  F   UNL A   1      43.256  35.413  35.711  1.00  0.00    -0.200 F 
ENDBRANCH  41  55
BRANCH  42  66
ATOM     66  C   UNL A   1      42.714  23.952  27.591  1.00  0.00     0.064 A 
ATOM     67  C   UNL A   1      43.089  24.011  26.243  1.00  0.00     0.173 A 
ATOM     68  C   UNL A   1      42.322  22.709  28.112  1.00  0.00     0.173 A 
ATOM     69  F   UNL A   1      43.447  25.184  25.699  1.00  0.00    -0.203 F 
ATOM     70  C   UNL A   1      43.080  22.870  25.446  1.00  0.00     0.198 A 
ATOM     71  C   UNL A   1      42.333  21.565  27.319  1.00  0.00     0.198 A 
ATOM     72  F   UNL A   1      41.952  22.607  29.397  1.00  0.00    -0.203 F 
ATOM     73  F   UNL A   1      43.426  22.954  24.155  1.00  0.00    -0.200 F 
ATOM     74  C   UNL A   1      42.711  21.646  25.987  1.00  0.00     0.200 A 
ATOM     75  F   UNL A   1      41.985  20.383  27.845  1.00  0.00    -0.200 F 
ATOM     76  F   UNL A   1      42.720  20.545  25.223  1.00  0.00    -0.200 F 
ENDBRANCH  42  66
BRANCH  54  77
ATOM     77  C   UNL A   1      47.355  26.326  32.229  1.00  0.00     0.064 A 
ATOM     78  C   UNL A   1      48.553  26.831  31.703  1.00  0.00     0.173 A 
ATOM     79  C   UNL A   1      47.441  25.382  33.265  1.00  0.00     0.173 A 
ATOM     80  F   UNL A   1      48.528  27.724  30.702  1.00  0.00    -0.203 F 
ATOM     81  C   UNL A   1      49.787  26.403  32.190  1.00  0.00     0.198 A 
ATOM     82  C   UNL A   1      48.675  24.975  33.765  1.00  0.00     0.198 A 
ATOM     83  F   UNL A   1      46.325  24.871  33.806  1.00  0.00    -0.203 F 
ATOM     84  F   UNL A   1      50.919  26.880  31.653  1.00  0.00    -0.200 F 
ATOM     85  C   UNL A   1      49.847  25.484  33.226  1.00  0.00     0.200 A 
ATOM     86  F   UNL A   1      48.730  24.095  34.775  1.00  0.00    -0.200 F 
ATOM     87  F   UNL A   1      51.034  25.085  33.703  1.00  0.00    -0.200 F 
ENDBRANCH  54  77
ENDBRANCH  28  29
ENDBRANCH  20  23
ENDBRANCH  18  19
ENDBRANCH  17  18
ENDBRANCH   1  17
TORSDOF 13
ENDMDL
MODEL 3
REMARK VINA RESULT:     -10.4      1.166      7.628
REMARK SMILES Cc1ncnc(OCCC(=O)NCCCNC(=O)c2ccc(-c3c4nc(c(-c5c(F)c(F)c(F)c(F)c5F)c5ccc([nH]5)c(-c5c(F)c(F)c(F)c(F)c5F)c5nc(c(-c6c(F)c(F)c(F)c(F)c6F)c6ccc3[nH]6)C=C5)C=C4)cc2)c1C
REMARK SMILES IDX 13 1 12 2 10 3 11 4 9 6 8 7 7 8 6 9 1 10 2 11 3 12 82 13
REMARK SMILES IDX 4 14 83 15 5 16 14 17 15 18 16 19 17 20 18 22 19 23 20 24
REMARK SMILES IDX 81 25 21 26 80 27 22 28 23 29 24 30 74 31 25 32 79 33 73 34
REMARK SMILES IDX 75 35 26 36 78 37 72 38 71 39 27 41 59 42 39 43 58 44 40 45
REMARK SMILES IDX 43 46 57 47 76 48 41 49 42 50 56 52 77 53 44 54 28 55 29 56
REMARK SMILES IDX 37 57 30 58 31 59 35 60 38 61 32 62 33 63 36 64 34 65 60 66
REMARK SMILES IDX 61 67 69 68 62 69 63 70 67 71 70 72 64 73 65 74 68 75 66 76
REMARK SMILES IDX 45 77 46 78 54 79 47 80 48 81 52 82 55 83 49 84 50 85 53 86
REMARK SMILES IDX 51 87
REMARK H PARENT 12 5 16 21 75 40 43 51
REMARK Flexibility Score: inf
ROOT
ATOM      1  C   UNL A   1      33.297  34.443  29.315  1.00  0.00     0.117 C 
ENDROOT
BRANCH   1   2
ATOM      2  N   UNL A   1      33.019  35.816  29.694  1.00  0.00    -0.356 N 
ATOM      3  C   UNL A   1      32.975  36.383  30.931  1.00  0.00     0.223 C 
ATOM      4  O   UNL A   1      32.903  37.611  30.997  1.00  0.00    -0.275 OA
ATOM      5  H   UNL A   1      32.836  36.429  28.945  1.00  0.00     0.163 HD
BRANCH   3   6
ATOM      6  C   UNL A   1      33.069  35.522  32.172  1.00  0.00     0.141 C 
BRANCH   6   7
ATOM      7  C   UNL A   1      34.263  35.876  33.061  1.00  0.00     0.241 C 
BRANCH   7   8
ATOM      8  O   UNL A   1      35.530  35.337  32.679  1.00  0.00    -0.477 OA
BRANCH   8   9
ATOM      9  C   UNL A   1      36.062  34.248  33.293  1.00  0.00     0.219 A 
ATOM     10  C   UNL A   1      37.101  30.644  33.150  1.00  0.00     0.067 C 
ATOM     11  C   UNL A   1      36.777  32.035  33.619  1.00  0.00     0.047 A 
ATOM     12  N   UNL A   1      37.246  32.346  34.846  1.00  0.00    -0.241 NA
ATOM     13  C   UNL A   1      36.066  32.941  32.827  1.00  0.00     0.032 A 
ATOM     14  C   UNL A   1      37.025  33.595  35.261  1.00  0.00     0.226 A 
ATOM     15  C   UNL A   1      35.239  32.463  31.675  1.00  0.00     0.052 C 
ATOM     16  N   UNL A   1      36.519  34.578  34.518  1.00  0.00    -0.202 NA
ENDBRANCH   8   9
ENDBRANCH   7   8
ENDBRANCH   6   7
ENDBRANCH   3   6
ENDBRANCH   1   2
BRANCH   1  17
ATOM     17  C   UNL A   1      34.219  34.315  28.107  1.00  0.00     0.042 C 
BRANCH  17  18
ATOM     18  C   UNL A   1      35.025  33.017  28.060  1.00  0.00     0.118 C 
BRANCH  18  19
ATOM     19  N   UNL A   1      34.200  31.842  27.855  1.00  0.00    -0.352 N 
ATOM     20  C   UNL A   1      34.557  30.515  27.797  1.00  0.00     0.251 C 
ATOM     21  H   UNL A   1      33.238  32.021  27.738  1.00  0.00     0.163 HD
ATOM     22  O   UNL A   1      33.717  29.691  27.443  1.00  0.00    -0.269 OA
BRANCH  20  23
ATOM     23  C   UNL A   1      35.928  30.043  28.132  1.00  0.00     0.039 A 
ATOM     24  C   UNL A   1      36.169  29.618  29.444  1.00  0.00     0.014 A 
ATOM     25  C   UNL A   1      36.999  30.113  27.234  1.00  0.00     0.014 A 
ATOM     26  C   UNL A   1      37.459  29.252  29.849  1.00  0.00     0.010 A 
ATOM     27  C   UNL A   1      38.284  29.703  27.628  1.00  0.00     0.010 A 
ATOM     28  C   UNL A   1      38.533  29.285  28.945  1.00  0.00    -0.014 A 
BRANCH  28  29
ATOM     29  C   UNL A   1      39.900  28.899  29.401  1.00  0.00     0.031 A 
ATOM     30  C   UNL A   1      40.556  27.634  28.912  1.00  0.00     0.074 A 
ATOM     31  C   UNL A   1      40.584  29.699  30.242  1.00  0.00     0.049 A 
ATOM     32  N   UNL A   1      41.769  27.188  29.145  1.00  0.00    -0.248 NA
ATOM     33  C   UNL A   1      39.746  26.753  28.061  1.00  0.00     0.031 C 
ATOM     34  C   UNL A   1      40.077  30.943  30.817  1.00  0.00     0.029 A 
ATOM     35  N   UNL A   1      41.858  29.589  30.750  1.00  0.00    -0.354 N 
ATOM     36  C   UNL A   1      41.867  25.979  28.469  1.00  0.00     0.074 A 
ATOM     37  C   UNL A   1      40.577  25.739  27.855  1.00  0.00     0.031 C 
ATOM     38  C   UNL A   1      41.038  31.496  31.575  1.00  0.00     0.029 A 
ATOM     39  C   UNL A   1      42.222  30.638  31.558  1.00  0.00     0.049 A 
ATOM     40  H   UNL A   1      42.453  28.830  30.551  1.00  0.00     0.167 HD
ATOM     41  C   UNL A   1      42.936  25.154  28.351  1.00  0.00     0.037 A 
ATOM     42  C   UNL A   1      43.374  30.890  32.210  1.00  0.00     0.037 A 
ATOM     43  C   UNL A   1      44.230  25.387  28.937  1.00  0.00     0.049 A 
ATOM     44  C   UNL A   1      44.537  29.945  32.090  1.00  0.00     0.074 A 
ATOM     45  C   UNL A   1      45.388  24.639  28.791  1.00  0.00     0.029 A 
ATOM     46  N   UNL A   1      44.540  26.434  29.789  1.00  0.00    -0.354 N 
ATOM     47  N   UNL A   1      44.639  28.845  31.387  1.00  0.00    -0.248 NA
ATOM     48  C   UNL A   1      45.748  30.279  32.858  1.00  0.00     0.031 C 
ATOM     49  C   UNL A   1      46.382  25.204  29.596  1.00  0.00     0.029 A 
ATOM     50  C   UNL A   1      45.859  26.330  30.208  1.00  0.00     0.049 A 
ATOM     51  H   UNL A   1      43.916  27.147  30.058  1.00  0.00     0.167 HD
ATOM     52  C   UNL A   1      45.922  28.364  31.612  1.00  0.00     0.074 A 
ATOM     53  C   UNL A   1      46.569  29.296  32.511  1.00  0.00     0.031 C 
ATOM     54  C   UNL A   1      46.504  27.246  31.114  1.00  0.00     0.037 A 
BRANCH  41  55
ATOM     55  C   UNL A   1      42.756  23.902  27.543  1.00  0.00     0.064 A 
ATOM     56  C   UNL A   1      43.130  23.844  26.192  1.00  0.00     0.173 A 
ATOM     57  C   UNL A   1      42.262  22.734  28.141  1.00  0.00     0.173 A 
ATOM     58  F   UNL A   1      43.605  24.935  25.574  1.00  0.00    -0.203 F 
ATOM     59  C   UNL A   1      42.991  22.666  25.462  1.00  0.00     0.198 A 
ATOM     60  C   UNL A   1      42.148  21.551  27.415  1.00  0.00     0.198 A 
ATOM     61  F   UNL A   1      41.903  22.736  29.434  1.00  0.00    -0.203 F 
ATOM     62  F   UNL A   1      43.320  22.642  24.163  1.00  0.00    -0.200 F 
ATOM     63  C   UNL A   1      42.507  21.520  26.075  1.00  0.00     0.200 A 
ATOM     64  F   UNL A   1      41.693  20.442  28.012  1.00  0.00    -0.200 F 
ATOM     65  F   UNL A   1      42.382  20.385  25.375  1.00  0.00    -0.200 F 
ENDBRANCH  41  55
BRANCH  42  66
ATOM     66  C   UNL A   1      43.487  32.128  33.021  1.00  0.00     0.064 A 
ATOM     67  C   UNL A   1      43.889  33.335  32.435  1.00  0.00     0.173 A 
ATOM     68  C   UNL A   1      43.157  32.135  34.384  1.00  0.00     0.173 A 
ATOM     69  F   UNL A   1      44.238  33.367  31.140  1.00  0.00    -0.203 F 
ATOM     70  C   UNL A   1      43.952  34.508  33.182  1.00  0.00     0.198 A 
ATOM     71  C   UNL A   1      43.200  33.312  35.125  1.00  0.00     0.198 A 
ATOM     72  F   UNL A   1      42.769  31.001  34.986  1.00  0.00    -0.203 F 
ATOM     73  F   UNL A   1      44.356  35.647  32.605  1.00  0.00    -0.200 F 
ATOM     74  C   UNL A   1      43.599  34.498  34.525  1.00  0.00     0.200 A 
ATOM     75  F   UNL A   1      42.850  33.302  36.418  1.00  0.00    -0.200 F 
ATOM     76  F   UNL A   1      43.642  35.631  35.238  1.00  0.00    -0.200 F 
ENDBRANCH  42  66
BRANCH  54  77
ATOM     77  C   UNL A   1      47.916  26.948  31.525  1.00  0.00     0.064 A 
ATOM     78  C   UNL A   1      48.200  26.075  32.586  1.00  0.00     0.173 A 
ATOM     79  C   UNL A   1      48.999  27.484  30.810  1.00  0.00     0.173 A 
ATOM     80  F   UNL A   1      47.201  25.547  33.311  1.00  0.00    -0.203 F 
ATOM     81  C   UNL A   1      49.515  25.757  32.921  1.00  0.00     0.198 A 
ATOM     82  C   UNL A   1      50.311  27.145  31.133  1.00  0.00     0.198 A 
ATOM     83  F   UNL A   1      48.784  28.320  29.784  1.00  0.00    -0.203 F 
ATOM     84  F   UNL A   1      49.761  24.941  33.956  1.00  0.00    -0.200 F 
ATOM     85  C   UNL A   1      50.568  26.284  32.190  1.00  0.00     0.200 A 
ATOM     86  F   UNL A   1      51.327  27.646  30.417  1.00  0.00    -0.200 F 
ATOM     87  F   UNL A   1      51.831  25.964  32.504  1.00  0.00    -0.200 F 
ENDBRANCH  54  77
ENDBRANCH  28  29
ENDBRANCH  20  23
ENDBRANCH  18  19
ENDBRANCH  17  18
ENDBRANCH   1  17
TORSDOF 13
ENDMDL
