MODEL 1
REMARK VINA RESULT:     -13.3      0.000      0.000
REMARK SMILES Cc1cc(S(=O)(=O)Nc2ccc(Cl)cc2F)ccc1OCC(=O)NCCCNC(=O)c1ccc(-c2c3nc(c(-c4c(F)c(F)c(F)c(F)c4F)c4ccc([nH]4)c(-c4c(F)c(F)c(F)c(F)c4F)c4nc(c(-c5c(F)c(F)c(F)c(F)c5F)c5ccc2[nH]5)C=C4)C=C3)cc1
REMARK SMILES IDX 22 1 23 2 24 3 21 5 20 6 19 7 1 8 2 9 3 10 4 11 18 12 17 13
REMARK SMILES IDX 5 14 6 15 7 16 8 17 9 19 10 20 15 21 11 22 14 23 16 24 12 25
REMARK SMILES IDX 13 26 25 27 26 28 27 29 28 30 29 31 30 33 31 34 32 35 93 36
REMARK SMILES IDX 33 37 92 38 34 39 35 40 36 41 86 42 37 43 91 44 85 45 87 46
REMARK SMILES IDX 38 47 90 48 84 49 83 50 39 52 71 53 51 54 70 55 52 56 55 57
REMARK SMILES IDX 69 58 88 59 53 60 54 61 68 63 89 64 56 65 40 66 41 67 49 68
REMARK SMILES IDX 42 69 43 70 47 71 50 72 44 73 45 74 48 75 46 76 72 77 73 78
REMARK SMILES IDX 81 79 74 80 75 81 79 82 82 83 76 84 77 85 80 86 78 87 57 88
REMARK SMILES IDX 58 89 66 90 59 91 60 92 64 93 67 94 61 95 62 96 65 97 63 98
REMARK H PARENT 24 4 8 18 28 32 87 51 55 62
REMARK Flexibility Score: inf
ROOT
ATOM      1  C   UNL A   1      32.930  28.877  23.901  1.00  0.00     0.257 C 
ATOM      2  O   UNL A   1      33.984  28.535  23.363  1.00  0.00    -0.271 OA
ATOM      3  N   UNL A   1      33.001  29.681  25.006  1.00  0.00    -0.353 N 
ATOM      4  H   UNL A   1      33.909  29.862  25.340  1.00  0.00     0.163 HD
ENDROOT
BRANCH   1   5
ATOM      5  C   UNL A   1      31.566  28.463  23.341  1.00  0.00     0.329 C 
BRANCH   5   6
ATOM      6  O   UNL A   1      30.705  27.759  24.209  1.00  0.00    -0.484 OA
BRANCH   6   7
ATOM      7  C   UNL A   1      31.021  26.537  24.727  1.00  0.00     0.123 A 
ATOM      8  C   UNL A   1      31.874  27.134  27.099  1.00  0.00     0.048 C 
ATOM      9  C   UNL A   1      31.600  26.199  25.956  1.00  0.00    -0.008 A 
ATOM     10  C   UNL A   1      31.970  24.849  26.169  1.00  0.00     0.029 A 
ATOM     11  C   UNL A   1      31.739  23.847  25.217  1.00  0.00     0.088 A 
ATOM     12  C   UNL A   1      30.770  25.512  23.795  1.00  0.00     0.048 A 
ATOM     13  C   UNL A   1      31.058  24.171  24.058  1.00  0.00     0.026 A 
BRANCH  11  14
ATOM     14  S   UNL A   1      32.459  22.255  25.553  1.00  0.00     0.262 S 
ATOM     15  O   UNL A   1      33.118  22.338  26.835  1.00  0.00    -0.201 OA
ATOM     16  O   UNL A   1      31.390  21.295  25.334  1.00  0.00    -0.201 OA
BRANCH  14  17
ATOM     17  N   UNL A   1      33.608  21.830  24.408  1.00  0.00    -0.277 N 
ATOM     18  H   UNL A   1      33.283  21.634  23.499  1.00  0.00     0.180 HD
BRANCH  17  19
ATOM     19  C   UNL A   1      35.008  21.727  24.630  1.00  0.00     0.085 A 
ATOM     20  C   UNL A   1      35.686  22.946  24.756  1.00  0.00     0.031 A 
ATOM     21  C   UNL A   1      35.717  20.535  24.807  1.00  0.00     0.148 A 
ATOM     22  C   UNL A   1      37.020  22.975  25.164  1.00  0.00     0.023 A 
ATOM     23  C   UNL A   1      37.050  20.556  25.219  1.00  0.00     0.062 A 
ATOM     24  F   UNL A   1      35.109  19.349  24.677  1.00  0.00    -0.205 F 
ATOM     25  C   UNL A   1      37.689  21.779  25.417  1.00  0.00     0.044 A 
ATOM     26  Cl  UNL A   1      39.301  21.824  26.010  1.00  0.00    -0.084 Cl
ENDBRANCH  17  19
ENDBRANCH  14  17
ENDBRANCH  11  14
ENDBRANCH   6   7
ENDBRANCH   5   6
ENDBRANCH   1   5
BRANCH   3  27
ATOM     27  C   UNL A   1      31.924  30.307  25.757  1.00  0.00     0.117 C 
BRANCH  27  28
ATOM     28  C   UNL A   1      32.418  31.072  26.976  1.00  0.00     0.042 C 
BRANCH  28  29
ATOM     29  C   UNL A   1      33.790  30.640  27.472  1.00  0.00     0.118 C 
BRANCH  29  30
ATOM     30  N   UNL A   1      34.369  31.526  28.475  1.00  0.00    -0.352 N 
ATOM     31  C   UNL A   1      35.527  31.367  29.223  1.00  0.00     0.251 C 
ATOM     32  H   UNL A   1      33.868  32.356  28.644  1.00  0.00     0.163 HD
ATOM     33  O   UNL A   1      35.863  32.209  30.028  1.00  0.00    -0.269 OA
BRANCH  31  34
ATOM     34  C   UNL A   1      36.411  30.207  28.937  1.00  0.00     0.039 A 
ATOM     35  C   UNL A   1      36.727  29.345  29.994  1.00  0.00     0.014 A 
ATOM     36  C   UNL A   1      37.059  30.083  27.711  1.00  0.00     0.014 A 
ATOM     37  C   UNL A   1      37.856  28.535  29.898  1.00  0.00     0.010 A 
ATOM     38  C   UNL A   1      38.231  29.356  27.648  1.00  0.00     0.010 A 
ATOM     39  C   UNL A   1      38.665  28.637  28.765  1.00  0.00    -0.014 A 
BRANCH  39  40
ATOM     40  C   UNL A   1      40.039  28.152  28.728  1.00  0.00     0.031 A 
ATOM     41  C   UNL A   1      40.354  26.770  28.321  1.00  0.00     0.074 A 
ATOM     42  C   UNL A   1      41.042  29.021  28.985  1.00  0.00     0.049 A 
ATOM     43  N   UNL A   1      41.398  26.119  28.718  1.00  0.00    -0.248 NA
ATOM     44  C   UNL A   1      39.493  25.998  27.437  1.00  0.00     0.031 C 
ATOM     45  C   UNL A   1      42.470  28.821  28.749  1.00  0.00     0.029 A 
ATOM     46  N   UNL A   1      40.973  30.230  29.699  1.00  0.00    -0.354 N 
ATOM     47  C   UNL A   1      41.502  24.988  27.939  1.00  0.00     0.074 A 
ATOM     48  C   UNL A   1      40.253  24.921  27.212  1.00  0.00     0.031 C 
ATOM     49  C   UNL A   1      43.158  29.661  29.538  1.00  0.00     0.029 A 
ATOM     50  C   UNL A   1      42.197  30.322  30.403  1.00  0.00     0.049 A 
ATOM     51  H   UNL A   1      40.230  30.875  29.708  1.00  0.00     0.167 HD
ATOM     52  C   UNL A   1      42.692  24.319  27.879  1.00  0.00     0.037 A 
ATOM     53  C   UNL A   1      42.240  30.324  31.766  1.00  0.00     0.037 A 
ATOM     54  C   UNL A   1      43.698  24.945  28.734  1.00  0.00     0.049 A 
ATOM     55  C   UNL A   1      43.069  29.210  32.356  1.00  0.00     0.074 A 
ATOM     56  C   UNL A   1      44.726  25.831  28.456  1.00  0.00     0.029 A 
ATOM     57  N   UNL A   1      43.546  24.937  30.116  1.00  0.00    -0.354 N 
ATOM     58  N   UNL A   1      43.383  28.125  31.710  1.00  0.00    -0.248 NA
ATOM     59  C   UNL A   1      43.556  29.205  33.733  1.00  0.00     0.031 C 
ATOM     60  C   UNL A   1      45.173  26.387  29.677  1.00  0.00     0.029 A 
ATOM     61  C   UNL A   1      44.423  25.833  30.699  1.00  0.00     0.049 A 
ATOM     62  H   UNL A   1      42.907  24.374  30.608  1.00  0.00     0.167 HD
ATOM     63  C   UNL A   1      44.059  27.276  32.548  1.00  0.00     0.074 A 
ATOM     64  C   UNL A   1      44.162  28.006  33.796  1.00  0.00     0.031 C 
ATOM     65  C   UNL A   1      44.454  26.036  32.138  1.00  0.00     0.037 A 
BRANCH  52  66
ATOM     66  C   UNL A   1      43.031  23.315  26.794  1.00  0.00     0.064 A 
ATOM     67  C   UNL A   1      42.761  21.938  26.963  1.00  0.00     0.173 A 
ATOM     68  C   UNL A   1      43.680  23.639  25.590  1.00  0.00     0.173 A 
ATOM     69  F   UNL A   1      42.023  21.485  27.983  1.00  0.00    -0.203 F 
ATOM     70  C   UNL A   1      43.241  20.963  26.084  1.00  0.00     0.198 A 
ATOM     71  C   UNL A   1      44.208  22.664  24.736  1.00  0.00     0.198 A 
ATOM     72  F   UNL A   1      43.777  24.910  25.177  1.00  0.00    -0.203 F 
ATOM     73  F   UNL A   1      42.968  19.671  26.311  1.00  0.00    -0.200 F 
ATOM     74  C   UNL A   1      44.005  21.323  24.995  1.00  0.00     0.200 A 
ATOM     75  F   UNL A   1      44.917  23.035  23.661  1.00  0.00    -0.200 F 
ATOM     76  F   UNL A   1      44.512  20.388  24.181  1.00  0.00    -0.200 F 
ENDBRANCH  52  66
BRANCH  53  77
ATOM     77  C   UNL A   1      41.017  30.885  32.396  1.00  0.00     0.064 A 
ATOM     78  C   UNL A   1      40.800  32.275  32.327  1.00  0.00     0.173 A 
ATOM     79  C   UNL A   1      39.922  30.075  32.720  1.00  0.00     0.173 A 
ATOM     80  F   UNL A   1      41.815  33.097  32.015  1.00  0.00    -0.203 F 
ATOM     81  C   UNL A   1      39.524  32.817  32.461  1.00  0.00     0.198 A 
ATOM     82  C   UNL A   1      38.648  30.624  32.870  1.00  0.00     0.198 A 
ATOM     83  F   UNL A   1      40.059  28.742  32.782  1.00  0.00    -0.203 F 
ATOM     84  F   UNL A   1      39.333  34.131  32.273  1.00  0.00    -0.200 F 
ATOM     85  C   UNL A   1      38.445  31.987  32.707  1.00  0.00     0.200 A 
ATOM     86  F   UNL A   1      37.596  29.818  33.078  1.00  0.00    -0.200 F 
ATOM     87  F   UNL A   1      37.204  32.493  32.744  1.00  0.00    -0.200 F 
ENDBRANCH  53  77
BRANCH  65  88
ATOM     88  C   UNL A   1      44.999  24.940  33.021  1.00  0.00     0.064 A 
ATOM     89  C   UNL A   1      44.300  23.763  33.329  1.00  0.00     0.173 A 
ATOM     90  C   UNL A   1      46.340  24.992  33.475  1.00  0.00     0.173 A 
ATOM     91  F   UNL A   1      43.066  23.541  32.857  1.00  0.00    -0.203 F 
ATOM     92  C   UNL A   1      44.874  22.740  34.089  1.00  0.00     0.198 A 
ATOM     93  C   UNL A   1      46.928  23.944  34.184  1.00  0.00     0.198 A 
ATOM     94  F   UNL A   1      47.126  26.047  33.221  1.00  0.00    -0.203 F 
ATOM     95  F   UNL A   1      44.151  21.653  34.391  1.00  0.00    -0.200 F 
ATOM     96  C   UNL A   1      46.190  22.825  34.506  1.00  0.00     0.200 A 
ATOM     97  F   UNL A   1      48.220  24.021  34.535  1.00  0.00    -0.200 F 
ATOM     98  F   UNL A   1      46.749  21.822  35.195  1.00  0.00    -0.200 F 
ENDBRANCH  65  88
ENDBRANCH  39  40
ENDBRANCH  31  34
ENDBRANCH  29  30
ENDBRANCH  28  29
ENDBRANCH  27  28
ENDBRANCH   3  27
TORSDOF 15
ENDMDL
MODEL 2
REMARK VINA RESULT:     -13.3      1.544      2.193
REMARK SMILES Cc1cc(S(=O)(=O)Nc2ccc(Cl)cc2F)ccc1OCC(=O)NCCCNC(=O)c1ccc(-c2c3nc(c(-c4c(F)c(F)c(F)c(F)c4F)c4ccc([nH]4)c(-c4c(F)c(F)c(F)c(F)c4F)c4nc(c(-c5c(F)c(F)c(F)c(F)c5F)c5ccc2[nH]5)C=C4)C=C3)cc1
REMARK SMILES IDX 22 1 23 2 24 3 21 5 20 6 19 7 1 8 2 9 3 10 4 11 18 12 17 13
REMARK SMILES IDX 5 14 6 15 7 16 8 17 9 19 10 20 15 21 11 22 14 23 16 24 12 25
REMARK SMILES IDX 13 26 25 27 26 28 27 29 28 30 29 31 30 33 31 34 32 35 93 36
REMARK SMILES IDX 33 37 92 38 34 39 35 40 36 41 86 42 37 43 91 44 85 45 87 46
REMARK SMILES IDX 38 47 90 48 84 49 83 50 39 52 71 53 51 54 70 55 52 56 55 57
REMARK SMILES IDX 69 58 88 59 53 60 54 61 68 63 89 64 56 65 40 66 41 67 49 68
REMARK SMILES IDX 42 69 43 70 47 71 50 72 44 73 45 74 48 75 46 76 72 77 73 78
REMARK SMILES IDX 81 79 74 80 75 81 79 82 82 83 76 84 77 85 80 86 78 87 57 88
REMARK SMILES IDX 58 89 66 90 59 91 60 92 64 93 67 94 61 95 62 96 65 97 63 98
REMARK H PARENT 24 4 8 18 28 32 87 51 55 62
REMARK Flexibility Score: inf
ROOT
ATOM      1  C   UNL A   1      32.371  28.887  23.659  1.00  0.00     0.257 C 
ATOM      2  O   UNL A   1      33.099  29.025  22.675  1.00  0.00    -0.271 OA
ATOM      3  N   UNL A   1      32.642  29.635  24.773  1.00  0.00    -0.353 N 
ATOM      4  H   UNL A   1      33.461  30.178  24.728  1.00  0.00     0.163 HD
ENDROOT
BRANCH   1   5
ATOM      5  C   UNL A   1      31.166  27.943  23.644  1.00  0.00     0.329 C 
BRANCH   5   6
ATOM      6  O   UNL A   1      31.342  26.670  24.228  1.00  0.00    -0.484 OA
BRANCH   6   7
ATOM      7  C   UNL A   1      32.539  26.013  24.212  1.00  0.00     0.123 A 
ATOM      8  C   UNL A   1      32.808  25.397  21.710  1.00  0.00     0.048 C 
ATOM      9  C   UNL A   1      33.203  25.372  23.159  1.00  0.00    -0.008 A 
ATOM     10  C   UNL A   1      34.366  24.624  23.463  1.00  0.00     0.029 A 
ATOM     11  C   UNL A   1      34.887  24.541  24.761  1.00  0.00     0.088 A 
ATOM     12  C   UNL A   1      33.094  25.942  25.504  1.00  0.00     0.048 A 
ATOM     13  C   UNL A   1      34.292  25.275  25.770  1.00  0.00     0.026 A 
BRANCH  11  14
ATOM     14  S   UNL A   1      36.221  23.387  25.005  1.00  0.00     0.262 S 
ATOM     15  O   UNL A   1      36.612  22.895  23.705  1.00  0.00    -0.201 OA
ATOM     16  O   UNL A   1      37.179  24.080  25.851  1.00  0.00    -0.201 OA
BRANCH  14  17
ATOM     17  N   UNL A   1      35.754  22.074  25.937  1.00  0.00    -0.277 N 
ATOM     18  H   UNL A   1      36.058  22.057  26.873  1.00  0.00     0.180 HD
BRANCH  17  19
ATOM     19  C   UNL A   1      34.955  20.983  25.497  1.00  0.00     0.085 A 
ATOM     20  C   UNL A   1      33.573  21.210  25.501  1.00  0.00     0.031 A 
ATOM     21  C   UNL A   1      35.442  19.769  25.003  1.00  0.00     0.148 A 
ATOM     22  C   UNL A   1      32.704  20.290  24.915  1.00  0.00     0.023 A 
ATOM     23  C   UNL A   1      34.578  18.846  24.411  1.00  0.00     0.062 A 
ATOM     24  F   UNL A   1      36.755  19.506  24.999  1.00  0.00    -0.205 F 
ATOM     25  C   UNL A   1      33.214  19.122  24.352  1.00  0.00     0.044 A 
ATOM     26  Cl  UNL A   1      32.149  18.039  23.548  1.00  0.00    -0.084 Cl
ENDBRANCH  17  19
ENDBRANCH  14  17
ENDBRANCH  11  14
ENDBRANCH   6   7
ENDBRANCH   5   6
ENDBRANCH   1   5
BRANCH   3  27
ATOM     27  C   UNL A   1      31.889  29.741  26.012  1.00  0.00     0.117 C 
BRANCH  27  28
ATOM     28  C   UNL A   1      32.408  30.840  26.928  1.00  0.00     0.042 C 
BRANCH  28  29
ATOM     29  C   UNL A   1      33.895  30.746  27.238  1.00  0.00     0.118 C 
BRANCH  29  30
ATOM     30  N   UNL A   1      34.315  31.529  28.394  1.00  0.00    -0.352 N 
ATOM     31  C   UNL A   1      35.361  31.299  29.277  1.00  0.00     0.251 C 
ATOM     32  H   UNL A   1      33.781  32.337  28.573  1.00  0.00     0.163 HD
ATOM     33  O   UNL A   1      35.568  32.058  30.199  1.00  0.00    -0.269 OA
BRANCH  31  34
ATOM     34  C   UNL A   1      36.295  30.177  29.004  1.00  0.00     0.039 A 
ATOM     35  C   UNL A   1      36.640  29.335  30.069  1.00  0.00     0.014 A 
ATOM     36  C   UNL A   1      36.956  30.072  27.784  1.00  0.00     0.014 A 
ATOM     37  C   UNL A   1      37.803  28.573  29.985  1.00  0.00     0.010 A 
ATOM     38  C   UNL A   1      38.158  29.395  27.733  1.00  0.00     0.010 A 
ATOM     39  C   UNL A   1      38.614  28.702  28.857  1.00  0.00    -0.014 A 
BRANCH  39  40
ATOM     40  C   UNL A   1      40.008  28.276  28.832  1.00  0.00     0.031 A 
ATOM     41  C   UNL A   1      40.387  26.916  28.406  1.00  0.00     0.074 A 
ATOM     42  C   UNL A   1      40.970  29.181  29.119  1.00  0.00     0.049 A 
ATOM     43  N   UNL A   1      41.451  26.302  28.807  1.00  0.00    -0.248 NA
ATOM     44  C   UNL A   1      39.571  26.124  27.496  1.00  0.00     0.031 C 
ATOM     45  C   UNL A   1      42.408  29.045  28.901  1.00  0.00     0.029 A 
ATOM     46  N   UNL A   1      40.839  30.373  29.854  1.00  0.00    -0.354 N 
ATOM     47  C   UNL A   1      41.614  25.191  28.010  1.00  0.00     0.074 A 
ATOM     48  C   UNL A   1      40.379  25.084  27.263  1.00  0.00     0.031 C 
ATOM     49  C   UNL A   1      43.049  29.899  29.715  1.00  0.00     0.029 A 
ATOM     50  C   UNL A   1      42.048  30.503  30.577  1.00  0.00     0.049 A 
ATOM     51  H   UNL A   1      40.070  30.986  29.862  1.00  0.00     0.167 HD
ATOM     52  C   UNL A   1      42.831  24.573  27.956  1.00  0.00     0.037 A 
ATOM     53  C   UNL A   1      42.072  30.483  31.940  1.00  0.00     0.037 A 
ATOM     54  C   UNL A   1      43.798  25.224  28.836  1.00  0.00     0.049 A 
ATOM     55  C   UNL A   1      42.938  29.393  32.522  1.00  0.00     0.074 A 
ATOM     56  C   UNL A   1      44.792  26.158  28.590  1.00  0.00     0.029 A 
ATOM     57  N   UNL A   1      43.627  25.186  30.215  1.00  0.00    -0.354 N 
ATOM     58  N   UNL A   1      43.308  28.334  31.863  1.00  0.00    -0.248 NA
ATOM     59  C   UNL A   1      43.406  29.384  33.907  1.00  0.00     0.031 C 
ATOM     60  C   UNL A   1      45.198  26.710  29.826  1.00  0.00     0.029 A 
ATOM     61  C   UNL A   1      44.457  26.107  30.827  1.00  0.00     0.049 A 
ATOM     62  H   UNL A   1      43.005  24.588  30.688  1.00  0.00     0.167 HD
ATOM     63  C   UNL A   1      44.006  27.499  32.695  1.00  0.00     0.074 A 
ATOM     64  C   UNL A   1      44.061  28.210  33.958  1.00  0.00     0.031 C 
ATOM     65  C   UNL A   1      44.459  26.284  32.270  1.00  0.00     0.037 A 
BRANCH  52  66
ATOM     66  C   UNL A   1      43.228  23.604  26.859  1.00  0.00     0.064 A 
ATOM     67  C   UNL A   1      42.883  22.235  26.933  1.00  0.00     0.173 A 
ATOM     68  C   UNL A   1      44.002  23.950  25.737  1.00  0.00     0.173 A 
ATOM     69  F   UNL A   1      42.031  21.773  27.856  1.00  0.00    -0.203 F 
ATOM     70  C   UNL A   1      43.400  21.280  26.055  1.00  0.00     0.198 A 
ATOM     71  C   UNL A   1      44.565  22.991  24.889  1.00  0.00     0.198 A 
ATOM     72  F   UNL A   1      44.194  25.232  25.399  1.00  0.00    -0.203 F 
ATOM     73  F   UNL A   1      43.051  19.993  26.191  1.00  0.00    -0.200 F 
ATOM     74  C   UNL A   1      44.280  21.651  25.060  1.00  0.00     0.200 A 
ATOM     75  F   UNL A   1      45.390  23.375  23.904  1.00  0.00    -0.200 F 
ATOM     76  F   UNL A   1      44.820  20.730  24.252  1.00  0.00    -0.200 F 
ENDBRANCH  52  66
BRANCH  53  77
ATOM     77  C   UNL A   1      40.818  30.980  32.562  1.00  0.00     0.064 A 
ATOM     78  C   UNL A   1      40.540  32.360  32.507  1.00  0.00     0.173 A 
ATOM     79  C   UNL A   1      39.756  30.118  32.861  1.00  0.00     0.173 A 
ATOM     80  F   UNL A   1      41.522  33.230  32.219  1.00  0.00    -0.203 F 
ATOM     81  C   UNL A   1      39.240  32.843  32.632  1.00  0.00     0.198 A 
ATOM     82  C   UNL A   1      38.457  30.608  33.002  1.00  0.00     0.198 A 
ATOM     83  F   UNL A   1      39.952  28.792  32.908  1.00  0.00    -0.203 F 
ATOM     84  F   UNL A   1      38.993  34.150  32.458  1.00  0.00    -0.200 F 
ATOM     85  C   UNL A   1      38.196  31.963  32.853  1.00  0.00     0.200 A 
ATOM     86  F   UNL A   1      37.440  29.753  33.186  1.00  0.00    -0.200 F 
ATOM     87  F   UNL A   1      36.934  32.413  32.881  1.00  0.00    -0.200 F 
ENDBRANCH  53  77
BRANCH  65  88
ATOM     88  C   UNL A   1      45.037  25.197  33.141  1.00  0.00     0.064 A 
ATOM     89  C   UNL A   1      46.410  24.920  33.240  1.00  0.00     0.173 A 
ATOM     90  C   UNL A   1      44.204  24.478  34.033  1.00  0.00     0.173 A 
ATOM     91  F   UNL A   1      47.314  25.615  32.535  1.00  0.00    -0.203 F 
ATOM     92  C   UNL A   1      46.908  23.953  34.118  1.00  0.00     0.198 A 
ATOM     93  C   UNL A   1      44.710  23.556  34.948  1.00  0.00     0.198 A 
ATOM     94  F   UNL A   1      42.877  24.671  34.062  1.00  0.00    -0.203 F 
ATOM     95  F   UNL A   1      48.223  23.696  34.145  1.00  0.00    -0.200 F 
ATOM     96  C   UNL A   1      46.061  23.280  34.979  1.00  0.00     0.200 A 
ATOM     97  F   UNL A   1      43.881  22.952  35.811  1.00  0.00    -0.200 F 
ATOM     98  F   UNL A   1      46.548  22.387  35.850  1.00  0.00    -0.200 F 
ENDBRANCH  65  88
ENDBRANCH  39  40
ENDBRANCH  31  34
ENDBRANCH  29  30
ENDBRANCH  28  29
ENDBRANCH  27  28
ENDBRANCH   3  27
TORSDOF 15
ENDMDL
MODEL 3
REMARK VINA RESULT:     -12.9      1.754      2.575
REMARK SMILES Cc1cc(S(=O)(=O)Nc2ccc(Cl)cc2F)ccc1OCC(=O)NCCCNC(=O)c1ccc(-c2c3nc(c(-c4c(F)c(F)c(F)c(F)c4F)c4ccc([nH]4)c(-c4c(F)c(F)c(F)c(F)c4F)c4nc(c(-c5c(F)c(F)c(F)c(F)c5F)c5ccc2[nH]5)C=C4)C=C3)cc1
REMARK SMILES IDX 22 1 23 2 24 3 21 5 20 6 19 7 1 8 2 9 3 10 4 11 18 12 17 13
REMARK SMILES IDX 5 14 6 15 7 16 8 17 9 19 10 20 15 21 11 22 14 23 16 24 12 25
REMARK SMILES IDX 13 26 25 27 26 28 27 29 28 30 29 31 30 33 31 34 32 35 93 36
REMARK SMILES IDX 33 37 92 38 34 39 35 40 36 41 86 42 37 43 91 44 85 45 87 46
REMARK SMILES IDX 38 47 90 48 84 49 83 50 39 52 71 53 51 54 70 55 52 56 55 57
REMARK SMILES IDX 69 58 88 59 53 60 54 61 68 63 89 64 56 65 40 66 41 67 49 68
REMARK SMILES IDX 42 69 43 70 47 71 50 72 44 73 45 74 48 75 46 76 72 77 73 78
REMARK SMILES IDX 81 79 74 80 75 81 79 82 82 83 76 84 77 85 80 86 78 87 57 88
REMARK SMILES IDX 58 89 66 90 59 91 60 92 64 93 67 94 61 95 62 96 65 97 63 98
REMARK H PARENT 24 4 8 18 28 32 87 51 55 62
REMARK Flexibility Score: inf
ROOT
ATOM      1  C   UNL A   1      33.073  28.642  24.447  1.00  0.00     0.257 C 
ATOM      2  O   UNL A   1      34.044  28.462  23.710  1.00  0.00    -0.271 OA
ATOM      3  N   UNL A   1      32.853  29.904  24.929  1.00  0.00    -0.353 N 
ATOM      4  H   UNL A   1      33.547  30.566  24.710  1.00  0.00     0.163 HD
ENDROOT
BRANCH   1   5
ATOM      5  C   UNL A   1      32.101  27.510  24.791  1.00  0.00     0.329 C 
BRANCH   5   6
ATOM      6  O   UNL A   1      32.086  26.395  23.926  1.00  0.00    -0.484 OA
BRANCH   6   7
ATOM      7  C   UNL A   1      32.494  25.153  24.320  1.00  0.00     0.123 A 
ATOM      8  C   UNL A   1      30.647  24.461  25.999  1.00  0.00     0.048 C 
ATOM      9  C   UNL A   1      31.949  24.283  25.272  1.00  0.00    -0.008 A 
ATOM     10  C   UNL A   1      32.677  23.113  25.598  1.00  0.00     0.029 A 
ATOM     11  C   UNL A   1      33.888  22.784  24.975  1.00  0.00     0.088 A 
ATOM     12  C   UNL A   1      33.696  24.790  23.683  1.00  0.00     0.048 A 
ATOM     13  C   UNL A   1      34.354  23.588  23.951  1.00  0.00     0.026 A 
BRANCH  11  14
ATOM     14  S   UNL A   1      34.776  21.399  25.655  1.00  0.00     0.262 S 
ATOM     15  O   UNL A   1      36.101  21.860  25.999  1.00  0.00    -0.201 OA
ATOM     16  O   UNL A   1      33.901  20.844  26.674  1.00  0.00    -0.201 OA
BRANCH  14  17
ATOM     17  N   UNL A   1      34.933  20.148  24.549  1.00  0.00    -0.277 N 
ATOM     18  H   UNL A   1      35.559  20.286  23.803  1.00  0.00     0.180 HD
BRANCH  17  19
ATOM     19  C   UNL A   1      34.243  18.906  24.594  1.00  0.00     0.085 A 
ATOM     20  C   UNL A   1      35.058  17.768  24.641  1.00  0.00     0.031 A 
ATOM     21  C   UNL A   1      32.855  18.750  24.672  1.00  0.00     0.148 A 
ATOM     22  C   UNL A   1      34.504  16.510  24.880  1.00  0.00     0.023 A 
ATOM     23  C   UNL A   1      32.294  17.496  24.914  1.00  0.00     0.062 A 
ATOM     24  F   UNL A   1      32.041  19.812  24.611  1.00  0.00    -0.205 F 
ATOM     25  C   UNL A   1      33.125  16.384  25.038  1.00  0.00     0.044 A 
ATOM     26  Cl  UNL A   1      32.458  14.848  25.424  1.00  0.00    -0.084 Cl
ENDBRANCH  17  19
ENDBRANCH  14  17
ENDBRANCH  11  14
ENDBRANCH   6   7
ENDBRANCH   5   6
ENDBRANCH   1   5
BRANCH   3  27
ATOM     27  C   UNL A   1      31.738  30.403  25.718  1.00  0.00     0.117 C 
BRANCH  27  28
ATOM     28  C   UNL A   1      32.167  30.940  27.076  1.00  0.00     0.042 C 
BRANCH  28  29
ATOM     29  C   UNL A   1      33.635  30.713  27.404  1.00  0.00     0.118 C 
BRANCH  29  30
ATOM     30  N   UNL A   1      34.171  31.623  28.409  1.00  0.00    -0.352 N 
ATOM     31  C   UNL A   1      35.314  31.499  29.186  1.00  0.00     0.251 C 
ATOM     32  H   UNL A   1      33.647  32.444  28.557  1.00  0.00     0.163 HD
ATOM     33  O   UNL A   1      35.612  32.357  29.988  1.00  0.00    -0.269 OA
BRANCH  31  34
ATOM     34  C   UNL A   1      36.230  30.356  28.934  1.00  0.00     0.039 A 
ATOM     35  C   UNL A   1      36.597  29.556  30.023  1.00  0.00     0.014 A 
ATOM     36  C   UNL A   1      36.856  30.195  27.701  1.00  0.00     0.014 A 
ATOM     37  C   UNL A   1      37.751  28.780  29.938  1.00  0.00     0.010 A 
ATOM     38  C   UNL A   1      38.050  29.504  27.645  1.00  0.00     0.010 A 
ATOM     39  C   UNL A   1      38.531  28.854  28.784  1.00  0.00    -0.014 A 
BRANCH  39  40
ATOM     40  C   UNL A   1      39.920  28.413  28.738  1.00  0.00     0.031 A 
ATOM     41  C   UNL A   1      40.274  27.027  28.377  1.00  0.00     0.074 A 
ATOM     42  C   UNL A   1      40.899  29.323  28.942  1.00  0.00     0.049 A 
ATOM     43  N   UNL A   1      41.345  26.426  28.777  1.00  0.00    -0.248 NA
ATOM     44  C   UNL A   1      39.422  26.194  27.540  1.00  0.00     0.031 C 
ATOM     45  C   UNL A   1      42.327  29.160  28.686  1.00  0.00     0.029 A 
ATOM     46  N   UNL A   1      40.802  30.555  29.612  1.00  0.00    -0.354 N 
ATOM     47  C   UNL A   1      41.473  25.270  28.040  1.00  0.00     0.074 A 
ATOM     48  C   UNL A   1      40.213  25.135  27.341  1.00  0.00     0.031 C 
ATOM     49  C   UNL A   1      43.002  30.052  29.429  1.00  0.00     0.029 A 
ATOM     50  C   UNL A   1      42.035  30.714  30.288  1.00  0.00     0.049 A 
ATOM     51  H   UNL A   1      40.038  31.176  29.611  1.00  0.00     0.167 HD
ATOM     52  C   UNL A   1      42.683  24.639  27.981  1.00  0.00     0.037 A 
ATOM     53  C   UNL A   1      42.103  30.770  31.648  1.00  0.00     0.037 A 
ATOM     54  C   UNL A   1      43.683  25.328  28.792  1.00  0.00     0.049 A 
ATOM     55  C   UNL A   1      42.979  29.706  32.263  1.00  0.00     0.074 A 
ATOM     56  C   UNL A   1      44.676  26.237  28.461  1.00  0.00     0.029 A 
ATOM     57  N   UNL A   1      43.557  25.369  30.176  1.00  0.00    -0.354 N 
ATOM     58  N   UNL A   1      43.318  28.608  31.652  1.00  0.00    -0.248 NA
ATOM     59  C   UNL A   1      43.491  29.770  33.630  1.00  0.00     0.031 C 
ATOM     60  C   UNL A   1      45.127  26.853  29.651  1.00  0.00     0.029 A 
ATOM     61  C   UNL A   1      44.414  26.315  30.707  1.00  0.00     0.049 A 
ATOM     62  H   UNL A   1      42.946  24.805  30.701  1.00  0.00     0.167 HD
ATOM     63  C   UNL A   1      44.036  27.814  32.508  1.00  0.00     0.074 A 
ATOM     64  C   UNL A   1      44.139  28.594  33.726  1.00  0.00     0.031 C 
ATOM     65  C   UNL A   1      44.465  26.572  32.138  1.00  0.00     0.037 A 
BRANCH  52  66
ATOM     66  C   UNL A   1      43.035  23.605  26.928  1.00  0.00     0.064 A 
ATOM     67  C   UNL A   1      42.726  22.239  27.113  1.00  0.00     0.173 A 
ATOM     68  C   UNL A   1      43.734  23.889  25.742  1.00  0.00     0.173 A 
ATOM     69  F   UNL A   1      41.940  21.824  28.115  1.00  0.00    -0.203 F 
ATOM     70  C   UNL A   1      43.211  21.236  26.270  1.00  0.00     0.198 A 
ATOM     71  C   UNL A   1      44.267  22.886  24.926  1.00  0.00     0.198 A 
ATOM     72  F   UNL A   1      43.877  25.149  25.309  1.00  0.00    -0.203 F 
ATOM     73  F   UNL A   1      42.899  19.955  26.512  1.00  0.00    -0.200 F 
ATOM     74  C   UNL A   1      44.022  21.556  25.202  1.00  0.00     0.200 A 
ATOM     75  F   UNL A   1      45.023  23.218  23.870  1.00  0.00    -0.200 F 
ATOM     76  F   UNL A   1      44.534  20.592  24.425  1.00  0.00    -0.200 F 
ENDBRANCH  52  66
BRANCH  53  77
ATOM     77  C   UNL A   1      40.874  31.314  32.281  1.00  0.00     0.064 A 
ATOM     78  C   UNL A   1      39.911  30.410  32.770  1.00  0.00     0.173 A 
ATOM     79  C   UNL A   1      40.806  32.638  32.731  1.00  0.00     0.173 A 
ATOM     80  F   UNL A   1      39.935  29.127  32.374  1.00  0.00    -0.203 F 
ATOM     81  C   UNL A   1      38.997  30.785  33.751  1.00  0.00     0.198 A 
ATOM     82  C   UNL A   1      39.877  33.015  33.702  1.00  0.00     0.198 A 
ATOM     83  F   UNL A   1      41.706  33.542  32.318  1.00  0.00    -0.203 F 
ATOM     84  F   UNL A   1      38.172  29.870  34.281  1.00  0.00    -0.200 F 
ATOM     85  C   UNL A   1      38.999  32.081  34.235  1.00  0.00     0.200 A 
ATOM     86  F   UNL A   1      39.898  34.262  34.195  1.00  0.00    -0.200 F 
ATOM     87  F   UNL A   1      38.185  32.422  35.244  1.00  0.00    -0.200 F 
ENDBRANCH  53  77
BRANCH  65  88
ATOM     88  C   UNL A   1      45.063  25.530  33.049  1.00  0.00     0.064 A 
ATOM     89  C   UNL A   1      46.429  25.213  33.085  1.00  0.00     0.173 A 
ATOM     90  C   UNL A   1      44.265  24.907  34.040  1.00  0.00     0.173 A 
ATOM     91  F   UNL A   1      47.309  25.823  32.279  1.00  0.00    -0.203 F 
ATOM     92  C   UNL A   1      46.951  24.293  34.000  1.00  0.00     0.198 A 
ATOM     93  C   UNL A   1      44.798  24.034  34.988  1.00  0.00     0.198 A 
ATOM     94  F   UNL A   1      42.949  25.149  34.134  1.00  0.00    -0.203 F 
ATOM     95  F   UNL A   1      48.256  23.993  33.967  1.00  0.00    -0.200 F 
ATOM     96  C   UNL A   1      46.139  23.714  34.958  1.00  0.00     0.200 A 
ATOM     97  F   UNL A   1      44.007  23.523  35.941  1.00  0.00    -0.200 F 
ATOM     98  F   UNL A   1      46.652  22.868  35.861  1.00  0.00    -0.200 F 
ENDBRANCH  65  88
ENDBRANCH  39  40
ENDBRANCH  31  34
ENDBRANCH  29  30
ENDBRANCH  28  29
ENDBRANCH  27  28
ENDBRANCH   3  27
TORSDOF 15
ENDMDL
