MODEL 1
REMARK VINA RESULT:     -11.3      0.000      0.000
REMARK SMILES CCCCCC(=O)N1CCC[C@H](C(=O)NCCCNC(=O)c2ccc(-c3c4nc(c(-c5c(F)c(F)c(F)c(F)c5F)c5ccc([nH]5)c(-c5c(F)c(F)c(F)c(F)c5F)c5nc(c(-c6c(F)c(F)c(F)c(F)c6F)c6ccc3[nH]6)C=C5)C=C4)cc2)C1
REMARK SMILES IDX 13 1 14 2 15 3 12 5 8 6 9 7 85 8 10 9 11 10 6 11 7 12 5 13
REMARK SMILES IDX 4 14 3 15 2 16 1 17 16 18 17 19 18 20 19 21 20 22 21 24
REMARK SMILES IDX 22 25 23 26 84 27 24 28 83 29 25 30 26 31 27 32 77 33 28 34
REMARK SMILES IDX 82 35 76 36 78 37 29 38 81 39 75 40 74 41 30 43 62 44 42 45
REMARK SMILES IDX 61 46 43 47 46 48 60 49 79 50 44 51 45 52 59 54 80 55 47 56
REMARK SMILES IDX 31 57 32 58 40 59 33 60 34 61 38 62 41 63 35 64 36 65 39 66
REMARK SMILES IDX 37 67 63 68 64 69 72 70 65 71 66 72 70 73 73 74 67 75 68 76
REMARK SMILES IDX 71 77 69 78 48 79 49 80 57 81 50 82 51 83 55 84 58 85 52 86
REMARK SMILES IDX 53 87 56 88 54 89
REMARK H PARENT 15 4 19 23 78 42 46 53
REMARK Flexibility Score: inf
ROOT
ATOM      1  C   UNL A   1      30.264  25.600  25.902  1.00  0.00     0.224 C 
ATOM      2  O   UNL A   1      29.891  24.693  26.653  1.00  0.00    -0.275 OA
ATOM      3  N   UNL A   1      30.946  26.617  26.482  1.00  0.00    -0.356 N 
ATOM      4  H   UNL A   1      31.053  26.533  27.456  1.00  0.00     0.163 HD
ENDROOT
BRANCH   1   5
ATOM      5  C   UNL A   1      29.927  25.532  24.408  1.00  0.00     0.098 C 
ATOM      6  N   UNL A   1      31.832  25.669  22.734  1.00  0.00    -0.342 N 
ATOM      7  C   UNL A   1      31.171  26.795  22.070  1.00  0.00     0.119 C 
ATOM      8  C   UNL A   1      30.972  24.818  23.544  1.00  0.00     0.132 C 
ATOM      9  C   UNL A   1      30.356  27.650  23.030  1.00  0.00     0.022 C 
ATOM     10  C   UNL A   1      29.361  26.827  23.832  1.00  0.00     0.017 C 
BRANCH   6  11
ATOM     11  C   UNL A   1      33.196  25.523  22.557  1.00  0.00     0.222 C 
ATOM     12  O   UNL A   1      33.806  26.345  21.855  1.00  0.00    -0.275 OA
BRANCH  11  13
ATOM     13  C   UNL A   1      34.043  24.378  23.123  1.00  0.00     0.100 C 
BRANCH  13  14
ATOM     14  C   UNL A   1      34.800  24.300  24.444  1.00  0.00     0.010 C 
BRANCH  14  15
ATOM     15  C   UNL A   1      34.030  24.241  25.770  1.00  0.00     0.000 C 
BRANCH  15  16
ATOM     16  C   UNL A   1      33.282  22.947  26.082  1.00  0.00    -0.003 C 
ATOM     17  C   UNL A   1      33.315  22.609  27.562  1.00  0.00     0.004 C 
ENDBRANCH  15  16
ENDBRANCH  14  15
ENDBRANCH  13  14
ENDBRANCH  11  13
ENDBRANCH   6  11
ENDBRANCH   1   5
BRANCH   3  18
ATOM     18  C   UNL A   1      31.543  27.805  25.916  1.00  0.00     0.117 C 
BRANCH  18  19
ATOM     19  C   UNL A   1      33.032  27.650  25.679  1.00  0.00     0.042 C 
BRANCH  19  20
ATOM     20  C   UNL A   1      33.672  28.947  25.238  1.00  0.00     0.118 C 
BRANCH  20  21
ATOM     21  N   UNL A   1      32.985  30.118  25.780  1.00  0.00    -0.352 N 
ATOM     22  C   UNL A   1      33.329  30.928  26.840  1.00  0.00     0.251 C 
ATOM     23  H   UNL A   1      32.151  30.365  25.319  1.00  0.00     0.163 HD
ATOM     24  O   UNL A   1      32.560  31.784  27.247  1.00  0.00    -0.269 OA
BRANCH  22  25
ATOM     25  C   UNL A   1      34.635  30.727  27.500  1.00  0.00     0.039 A 
ATOM     26  C   UNL A   1      35.517  31.804  27.628  1.00  0.00     0.014 A 
ATOM     27  C   UNL A   1      34.959  29.483  28.037  1.00  0.00     0.014 A 
ATOM     28  C   UNL A   1      36.689  31.647  28.372  1.00  0.00     0.010 A 
ATOM     29  C   UNL A   1      36.047  29.369  28.884  1.00  0.00     0.010 A 
ATOM     30  C   UNL A   1      36.939  30.441  29.041  1.00  0.00    -0.014 A 
BRANCH  30  31
ATOM     31  C   UNL A   1      38.155  30.209  29.858  1.00  0.00     0.031 A 
ATOM     32  C   UNL A   1      39.230  29.312  29.309  1.00  0.00     0.074 A 
ATOM     33  C   UNL A   1      38.239  30.684  31.114  1.00  0.00     0.049 A 
ATOM     34  N   UNL A   1      40.254  28.769  29.913  1.00  0.00    -0.248 NA
ATOM     35  C   UNL A   1      39.091  28.919  27.896  1.00  0.00     0.031 C 
ATOM     36  C   UNL A   1      37.248  31.534  31.774  1.00  0.00     0.029 A 
ATOM     37  N   UNL A   1      39.207  30.499  32.070  1.00  0.00    -0.354 N 
ATOM     38  C   UNL A   1      40.836  27.926  28.975  1.00  0.00     0.074 A 
ATOM     39  C   UNL A   1      40.017  27.981  27.785  1.00  0.00     0.031 C 
ATOM     40  C   UNL A   1      37.674  31.825  33.013  1.00  0.00     0.029 A 
ATOM     41  C   UNL A   1      38.940  31.140  33.255  1.00  0.00     0.049 A 
ATOM     42  H   UNL A   1      40.014  29.957  31.920  1.00  0.00     0.167 HD
ATOM     43  C   UNL A   1      41.968  27.193  29.085  1.00  0.00     0.037 A 
ATOM     44  C   UNL A   1      39.642  31.162  34.404  1.00  0.00     0.037 A 
ATOM     45  C   UNL A   1      42.815  27.211  30.246  1.00  0.00     0.049 A 
ATOM     46  C   UNL A   1      40.919  30.371  34.495  1.00  0.00     0.074 A 
ATOM     47  C   UNL A   1      44.030  26.579  30.439  1.00  0.00     0.029 A 
ATOM     48  N   UNL A   1      42.538  27.918  31.407  1.00  0.00    -0.354 N 
ATOM     49  N   UNL A   1      41.486  29.609  33.593  1.00  0.00    -0.248 NA
ATOM     50  C   UNL A   1      41.652  30.444  35.766  1.00  0.00     0.031 C 
ATOM     51  C   UNL A   1      44.472  26.878  31.732  1.00  0.00     0.029 A 
ATOM     52  C   UNL A   1      43.555  27.731  32.327  1.00  0.00     0.049 A 
ATOM     53  H   UNL A   1      41.737  28.469  31.555  1.00  0.00     0.167 HD
ATOM     54  C   UNL A   1      42.661  29.144  34.168  1.00  0.00     0.074 A 
ATOM     55  C   UNL A   1      42.722  29.706  35.502  1.00  0.00     0.031 C 
ATOM     56  C   UNL A   1      43.606  28.331  33.637  1.00  0.00     0.037 A 
BRANCH  43  57
ATOM     57  C   UNL A   1      42.342  26.323  27.920  1.00  0.00     0.064 A 
ATOM     58  C   UNL A   1      43.260  26.743  26.944  1.00  0.00     0.173 A 
ATOM     59  C   UNL A   1      41.755  25.058  27.763  1.00  0.00     0.173 A 
ATOM     60  F   UNL A   1      43.840  27.949  27.038  1.00  0.00    -0.203 F 
ATOM     61  C   UNL A   1      43.531  25.956  25.828  1.00  0.00     0.198 A 
ATOM     62  C   UNL A   1      42.058  24.257  26.665  1.00  0.00     0.198 A 
ATOM     63  F   UNL A   1      40.876  24.602  28.668  1.00  0.00    -0.203 F 
ATOM     64  F   UNL A   1      44.347  26.418  24.869  1.00  0.00    -0.200 F 
ATOM     65  C   UNL A   1      42.934  24.713  25.691  1.00  0.00     0.200 A 
ATOM     66  F   UNL A   1      41.491  23.050  26.540  1.00  0.00    -0.200 F 
ATOM     67  F   UNL A   1      43.191  23.961  24.611  1.00  0.00    -0.200 F 
ENDBRANCH  43  57
BRANCH  44  68
ATOM     68  C   UNL A   1      39.180  32.010  35.533  1.00  0.00     0.064 A 
ATOM     69  C   UNL A   1      38.365  31.468  36.537  1.00  0.00     0.173 A 
ATOM     70  C   UNL A   1      39.559  33.354  35.654  1.00  0.00     0.173 A 
ATOM     71  F   UNL A   1      37.963  30.192  36.455  1.00  0.00    -0.203 F 
ATOM     72  C   UNL A   1      37.939  32.241  37.615  1.00  0.00     0.198 A 
ATOM     73  C   UNL A   1      39.151  34.120  36.744  1.00  0.00     0.198 A 
ATOM     74  F   UNL A   1      40.343  33.918  34.723  1.00  0.00    -0.203 F 
ATOM     75  F   UNL A   1      37.136  31.705  38.544  1.00  0.00    -0.200 F 
ATOM     76  C   UNL A   1      38.338  33.564  37.720  1.00  0.00     0.200 A 
ATOM     77  F   UNL A   1      39.548  35.395  36.851  1.00  0.00    -0.200 F 
ATOM     78  F   UNL A   1      37.936  34.305  38.763  1.00  0.00    -0.200 F 
ENDBRANCH  44  68
BRANCH  56  79
ATOM     79  C   UNL A   1      44.823  28.050  34.466  1.00  0.00     0.064 A 
ATOM     80  C   UNL A   1      44.869  26.979  35.369  1.00  0.00     0.173 A 
ATOM     81  C   UNL A   1      45.985  28.815  34.286  1.00  0.00     0.173 A 
ATOM     82  F   UNL A   1      43.778  26.229  35.582  1.00  0.00    -0.203 F 
ATOM     83  C   UNL A   1      46.035  26.691  36.072  1.00  0.00     0.198 A 
ATOM     84  C   UNL A   1      47.156  28.508  34.971  1.00  0.00     0.198 A 
ATOM     85  F   UNL A   1      45.990  29.845  33.427  1.00  0.00    -0.203 F 
ATOM     86  F   UNL A   1      46.053  25.681  36.951  1.00  0.00    -0.200 F 
ATOM     87  C   UNL A   1      47.180  27.448  35.865  1.00  0.00     0.200 A 
ATOM     88  F   UNL A   1      48.264  29.231  34.759  1.00  0.00    -0.200 F 
ATOM     89  F   UNL A   1      48.307  27.156  36.528  1.00  0.00    -0.200 F 
ENDBRANCH  56  79
ENDBRANCH  30  31
ENDBRANCH  22  25
ENDBRANCH  20  21
ENDBRANCH  19  20
ENDBRANCH  18  19
ENDBRANCH   3  18
TORSDOF 15
ENDMDL
MODEL 2
REMARK VINA RESULT:     -11.2      0.661      2.925
REMARK SMILES CCCCCC(=O)N1CCC[C@H](C(=O)NCCCNC(=O)c2ccc(-c3c4nc(c(-c5c(F)c(F)c(F)c(F)c5F)c5ccc([nH]5)c(-c5c(F)c(F)c(F)c(F)c5F)c5nc(c(-c6c(F)c(F)c(F)c(F)c6F)c6ccc3[nH]6)C=C5)C=C4)cc2)C1
REMARK SMILES IDX 13 1 14 2 15 3 12 5 8 6 9 7 85 8 10 9 11 10 6 11 7 12 5 13
REMARK SMILES IDX 4 14 3 15 2 16 1 17 16 18 17 19 18 20 19 21 20 22 21 24
REMARK SMILES IDX 22 25 23 26 84 27 24 28 83 29 25 30 26 31 27 32 77 33 28 34
REMARK SMILES IDX 82 35 76 36 78 37 29 38 81 39 75 40 74 41 30 43 62 44 42 45
REMARK SMILES IDX 61 46 43 47 46 48 60 49 79 50 44 51 45 52 59 54 80 55 47 56
REMARK SMILES IDX 31 57 32 58 40 59 33 60 34 61 38 62 41 63 35 64 36 65 39 66
REMARK SMILES IDX 37 67 63 68 64 69 72 70 65 71 66 72 70 73 73 74 67 75 68 76
REMARK SMILES IDX 71 77 69 78 48 79 49 80 57 81 50 82 51 83 55 84 58 85 52 86
REMARK SMILES IDX 53 87 56 88 54 89
REMARK H PARENT 15 4 19 23 78 42 46 53
REMARK Flexibility Score: inf
ROOT
ATOM      1  C   UNL A   1      33.533  25.491  22.783  1.00  0.00     0.224 C 
ATOM      2  O   UNL A   1      33.640  25.794  21.589  1.00  0.00    -0.275 OA
ATOM      3  N   UNL A   1      33.808  26.471  23.678  1.00  0.00    -0.356 N 
ATOM      4  H   UNL A   1      34.088  27.324  23.275  1.00  0.00     0.163 HD
ENDROOT
BRANCH   1   5
ATOM      5  C   UNL A   1      33.127  24.064  23.167  1.00  0.00     0.098 C 
ATOM      6  N   UNL A   1      31.600  23.743  25.171  1.00  0.00    -0.342 N 
ATOM      7  C   UNL A   1      32.576  22.829  25.771  1.00  0.00     0.119 C 
ATOM      8  C   UNL A   1      31.708  23.928  23.731  1.00  0.00     0.132 C 
ATOM      9  C   UNL A   1      34.012  23.174  25.402  1.00  0.00     0.022 C 
ATOM     10  C   UNL A   1      34.212  23.278  23.898  1.00  0.00     0.017 C 
BRANCH   6  11
ATOM     11  C   UNL A   1      30.688  24.358  26.010  1.00  0.00     0.222 C 
ATOM     12  O   UNL A   1      30.306  23.761  27.028  1.00  0.00    -0.275 OA
BRANCH  11  13
ATOM     13  C   UNL A   1      30.049  25.730  25.766  1.00  0.00     0.100 C 
BRANCH  13  14
ATOM     14  C   UNL A   1      29.276  26.231  24.551  1.00  0.00     0.010 C 
BRANCH  14  15
ATOM     15  C   UNL A   1      29.994  27.040  23.463  1.00  0.00     0.000 C 
BRANCH  15  16
ATOM     16  C   UNL A   1      30.073  28.553  23.658  1.00  0.00    -0.003 C 
ATOM     17  C   UNL A   1      30.126  29.299  22.337  1.00  0.00     0.004 C 
ENDBRANCH  15  16
ENDBRANCH  14  15
ENDBRANCH  13  14
ENDBRANCH  11  13
ENDBRANCH   6  11
ENDBRANCH   1   5
BRANCH   3  18
ATOM     18  C   UNL A   1      33.760  26.479  25.122  1.00  0.00     0.117 C 
BRANCH  18  19
ATOM     19  C   UNL A   1      32.993  27.666  25.671  1.00  0.00     0.042 C 
BRANCH  19  20
ATOM     20  C   UNL A   1      33.575  28.980  25.201  1.00  0.00     0.118 C 
BRANCH  20  21
ATOM     21  N   UNL A   1      32.886  30.132  25.777  1.00  0.00    -0.352 N 
ATOM     22  C   UNL A   1      33.236  30.921  26.851  1.00  0.00     0.251 C 
ATOM     23  H   UNL A   1      32.043  30.381  25.333  1.00  0.00     0.163 HD
ATOM     24  O   UNL A   1      32.465  31.761  27.287  1.00  0.00    -0.269 OA
BRANCH  22  25
ATOM     25  C   UNL A   1      34.553  30.718  27.489  1.00  0.00     0.039 A 
ATOM     26  C   UNL A   1      35.434  31.796  27.612  1.00  0.00     0.014 A 
ATOM     27  C   UNL A   1      34.887  29.470  28.011  1.00  0.00     0.014 A 
ATOM     28  C   UNL A   1      36.618  31.636  28.337  1.00  0.00     0.010 A 
ATOM     29  C   UNL A   1      35.988  29.352  28.840  1.00  0.00     0.010 A 
ATOM     30  C   UNL A   1      36.880  30.425  28.992  1.00  0.00    -0.014 A 
BRANCH  30  31
ATOM     31  C   UNL A   1      38.109  30.189  29.788  1.00  0.00     0.031 A 
ATOM     32  C   UNL A   1      39.173  29.290  29.221  1.00  0.00     0.074 A 
ATOM     33  C   UNL A   1      38.216  30.663  31.043  1.00  0.00     0.049 A 
ATOM     34  N   UNL A   1      40.205  28.744  29.807  1.00  0.00    -0.248 NA
ATOM     35  C   UNL A   1      39.009  28.899  27.810  1.00  0.00     0.031 C 
ATOM     36  C   UNL A   1      37.238  31.515  31.720  1.00  0.00     0.029 A 
ATOM     37  N   UNL A   1      39.199  30.474  31.983  1.00  0.00    -0.354 N 
ATOM     38  C   UNL A   1      40.769  27.900  28.859  1.00  0.00     0.074 A 
ATOM     39  C   UNL A   1      39.930  27.958  27.683  1.00  0.00     0.031 C 
ATOM     40  C   UNL A   1      37.686  31.805  32.952  1.00  0.00     0.029 A 
ATOM     41  C   UNL A   1      38.954  31.115  33.172  1.00  0.00     0.049 A 
ATOM     42  H   UNL A   1      40.003  29.931  31.819  1.00  0.00     0.167 HD
ATOM     43  C   UNL A   1      41.901  27.164  28.950  1.00  0.00     0.037 A 
ATOM     44  C   UNL A   1      39.675  31.135  34.309  1.00  0.00     0.037 A 
ATOM     45  C   UNL A   1      42.768  27.178  30.096  1.00  0.00     0.049 A 
ATOM     46  C   UNL A   1      40.951  30.341  34.379  1.00  0.00     0.074 A 
ATOM     47  C   UNL A   1      43.984  26.544  30.268  1.00  0.00     0.029 A 
ATOM     48  N   UNL A   1      42.511  27.885  31.262  1.00  0.00    -0.354 N 
ATOM     49  N   UNL A   1      41.501  29.578  33.466  1.00  0.00    -0.248 NA
ATOM     50  C   UNL A   1      41.706  30.411  35.637  1.00  0.00     0.031 C 
ATOM     51  C   UNL A   1      44.448  26.841  31.554  1.00  0.00     0.029 A 
ATOM     52  C   UNL A   1      43.544  27.696  32.165  1.00  0.00     0.049 A 
ATOM     53  H   UNL A   1      41.714  28.439  31.424  1.00  0.00     0.167 HD
ATOM     54  C   UNL A   1      42.685  29.109  34.021  1.00  0.00     0.074 A 
ATOM     55  C   UNL A   1      42.769  29.671  35.354  1.00  0.00     0.031 C 
ATOM     56  C   UNL A   1      43.618  28.294  33.474  1.00  0.00     0.037 A 
BRANCH  43  57
ATOM     57  C   UNL A   1      42.253  26.293  27.778  1.00  0.00     0.064 A 
ATOM     58  C   UNL A   1      41.687  25.020  27.603  1.00  0.00     0.173 A 
ATOM     59  C   UNL A   1      43.188  26.729  26.827  1.00  0.00     0.173 A 
ATOM     60  F   UNL A   1      40.797  24.549  28.489  1.00  0.00    -0.203 F 
ATOM     61  C   UNL A   1      42.087  24.195  26.555  1.00  0.00     0.198 A 
ATOM     62  C   UNL A   1      43.557  25.916  25.758  1.00  0.00     0.198 A 
ATOM     63  F   UNL A   1      43.756  27.939  26.940  1.00  0.00    -0.203 F 
ATOM     64  F   UNL A   1      41.594  22.952  26.459  1.00  0.00    -0.200 F 
ATOM     65  C   UNL A   1      43.019  24.644  25.632  1.00  0.00     0.200 A 
ATOM     66  F   UNL A   1      44.448  26.356  24.859  1.00  0.00    -0.200 F 
ATOM     67  F   UNL A   1      43.408  23.845  24.629  1.00  0.00    -0.200 F 
ENDBRANCH  43  57
BRANCH  44  68
ATOM     68  C   UNL A   1      39.235  31.983  35.446  1.00  0.00     0.064 A 
ATOM     69  C   UNL A   1      39.594  33.338  35.499  1.00  0.00     0.173 A 
ATOM     70  C   UNL A   1      38.430  31.480  36.478  1.00  0.00     0.173 A 
ATOM     71  F   UNL A   1      40.376  33.859  34.544  1.00  0.00    -0.203 F 
ATOM     72  C   UNL A   1      39.173  34.154  36.547  1.00  0.00     0.198 A 
ATOM     73  C   UNL A   1      37.992  32.304  37.514  1.00  0.00     0.198 A 
ATOM     74  F   UNL A   1      38.054  30.193  36.470  1.00  0.00    -0.203 F 
ATOM     75  F   UNL A   1      39.557  35.438  36.587  1.00  0.00    -0.200 F 
ATOM     76  C   UNL A   1      38.367  33.638  37.549  1.00  0.00     0.200 A 
ATOM     77  F   UNL A   1      37.201  31.806  38.474  1.00  0.00    -0.200 F 
ATOM     78  F   UNL A   1      37.954  34.427  38.551  1.00  0.00    -0.200 F 
ENDBRANCH  44  68
BRANCH  56  79
ATOM     79  C   UNL A   1      44.848  28.009  34.282  1.00  0.00     0.064 A 
ATOM     80  C   UNL A   1      44.958  26.862  35.079  1.00  0.00     0.173 A 
ATOM     81  C   UNL A   1      45.962  28.857  34.185  1.00  0.00     0.173 A 
ATOM     82  F   UNL A   1      43.914  26.031  35.212  1.00  0.00    -0.203 F 
ATOM     83  C   UNL A   1      46.138  26.579  35.761  1.00  0.00     0.198 A 
ATOM     84  C   UNL A   1      47.148  28.557  34.847  1.00  0.00     0.198 A 
ATOM     85  F   UNL A   1      45.906  29.963  33.428  1.00  0.00    -0.203 F 
ATOM     86  F   UNL A   1      46.215  25.493  36.541  1.00  0.00    -0.200 F 
ATOM     87  C   UNL A   1      47.235  27.420  35.636  1.00  0.00     0.200 A 
ATOM     88  F   UNL A   1      48.211  29.363  34.714  1.00  0.00    -0.200 F 
ATOM     89  F   UNL A   1      48.376  27.135  36.277  1.00  0.00    -0.200 F 
ENDBRANCH  56  79
ENDBRANCH  30  31
ENDBRANCH  22  25
ENDBRANCH  20  21
ENDBRANCH  19  20
ENDBRANCH  18  19
ENDBRANCH   3  18
TORSDOF 15
ENDMDL
MODEL 3
REMARK VINA RESULT:     -11.1      0.685      2.706
REMARK SMILES CCCCCC(=O)N1CCC[C@H](C(=O)NCCCNC(=O)c2ccc(-c3c4nc(c(-c5c(F)c(F)c(F)c(F)c5F)c5ccc([nH]5)c(-c5c(F)c(F)c(F)c(F)c5F)c5nc(c(-c6c(F)c(F)c(F)c(F)c6F)c6ccc3[nH]6)C=C5)C=C4)cc2)C1
REMARK SMILES IDX 13 1 14 2 15 3 12 5 8 6 9 7 85 8 10 9 11 10 6 11 7 12 5 13
REMARK SMILES IDX 4 14 3 15 2 16 1 17 16 18 17 19 18 20 19 21 20 22 21 24
REMARK SMILES IDX 22 25 23 26 84 27 24 28 83 29 25 30 26 31 27 32 77 33 28 34
REMARK SMILES IDX 82 35 76 36 78 37 29 38 81 39 75 40 74 41 30 43 62 44 42 45
REMARK SMILES IDX 61 46 43 47 46 48 60 49 79 50 44 51 45 52 59 54 80 55 47 56
REMARK SMILES IDX 31 57 32 58 40 59 33 60 34 61 38 62 41 63 35 64 36 65 39 66
REMARK SMILES IDX 37 67 63 68 64 69 72 70 65 71 66 72 70 73 73 74 67 75 68 76
REMARK SMILES IDX 71 77 69 78 48 79 49 80 57 81 50 82 51 83 55 84 58 85 52 86
REMARK SMILES IDX 53 87 56 88 54 89
REMARK H PARENT 15 4 19 23 78 42 46 53
REMARK Flexibility Score: inf
ROOT
ATOM      1  C   UNL A   1      33.865  25.193  23.228  1.00  0.00     0.224 C 
ATOM      2  O   UNL A   1      33.960  25.363  22.008  1.00  0.00    -0.275 OA
ATOM      3  N   UNL A   1      34.018  26.296  24.002  1.00  0.00    -0.356 N 
ATOM      4  H   UNL A   1      34.213  27.121  23.502  1.00  0.00     0.163 HD
ENDROOT
BRANCH   1   5
ATOM      5  C   UNL A   1      33.606  23.786  23.777  1.00  0.00     0.098 C 
ATOM      6  N   UNL A   1      31.960  23.522  25.693  1.00  0.00    -0.342 N 
ATOM      7  C   UNL A   1      32.985  22.833  26.482  1.00  0.00     0.119 C 
ATOM      8  C   UNL A   1      32.172  23.533  24.253  1.00  0.00     0.132 C 
ATOM      9  C   UNL A   1      34.394  23.318  26.172  1.00  0.00     0.022 C 
ATOM     10  C   UNL A   1      34.712  23.254  24.686  1.00  0.00     0.017 C 
BRANCH   6  11
ATOM     11  C   UNL A   1      30.909  24.111  26.372  1.00  0.00     0.222 C 
ATOM     12  O   UNL A   1      30.323  23.467  27.256  1.00  0.00    -0.275 OA
BRANCH  11  13
ATOM     13  C   UNL A   1      30.350  25.511  26.091  1.00  0.00     0.100 C 
BRANCH  13  14
ATOM     14  C   UNL A   1      29.539  26.004  24.898  1.00  0.00     0.010 C 
BRANCH  14  15
ATOM     15  C   UNL A   1      30.236  26.731  23.741  1.00  0.00     0.000 C 
BRANCH  15  16
ATOM     16  C   UNL A   1      30.168  28.257  23.735  1.00  0.00    -0.003 C 
ATOM     17  C   UNL A   1      30.599  28.844  22.404  1.00  0.00     0.004 C 
ENDBRANCH  15  16
ENDBRANCH  14  15
ENDBRANCH  13  14
ENDBRANCH  11  13
ENDBRANCH   6  11
ENDBRANCH   1   5
BRANCH   3  18
ATOM     18  C   UNL A   1      33.945  26.467  25.434  1.00  0.00     0.117 C 
BRANCH  18  19
ATOM     19  C   UNL A   1      33.109  27.668  25.833  1.00  0.00     0.042 C 
BRANCH  19  20
ATOM     20  C   UNL A   1      33.658  28.954  25.257  1.00  0.00     0.118 C 
BRANCH  20  21
ATOM     21  N   UNL A   1      32.985  30.135  25.793  1.00  0.00    -0.352 N 
ATOM     22  C   UNL A   1      33.340  30.948  26.847  1.00  0.00     0.251 C 
ATOM     23  H   UNL A   1      32.152  30.387  25.333  1.00  0.00     0.163 HD
ATOM     24  O   UNL A   1      32.581  31.815  27.251  1.00  0.00    -0.269 OA
BRANCH  22  25
ATOM     25  C   UNL A   1      34.646  30.739  27.504  1.00  0.00     0.039 A 
ATOM     26  C   UNL A   1      35.547  31.802  27.605  1.00  0.00     0.014 A 
ATOM     27  C   UNL A   1      34.950  29.501  28.068  1.00  0.00     0.014 A 
ATOM     28  C   UNL A   1      36.721  31.641  28.346  1.00  0.00     0.010 A 
ATOM     29  C   UNL A   1      36.040  29.386  28.911  1.00  0.00     0.010 A 
ATOM     30  C   UNL A   1      36.952  30.445  29.040  1.00  0.00    -0.014 A 
BRANCH  30  31
ATOM     31  C   UNL A   1      38.168  30.209  29.856  1.00  0.00     0.031 A 
ATOM     32  C   UNL A   1      39.237  29.304  29.308  1.00  0.00     0.074 A 
ATOM     33  C   UNL A   1      38.258  30.690  31.110  1.00  0.00     0.049 A 
ATOM     34  N   UNL A   1      40.259  28.758  29.913  1.00  0.00    -0.248 NA
ATOM     35  C   UNL A   1      39.093  28.906  27.897  1.00  0.00     0.031 C 
ATOM     36  C   UNL A   1      37.273  31.548  31.767  1.00  0.00     0.029 A 
ATOM     37  N   UNL A   1      39.226  30.502  32.065  1.00  0.00    -0.354 N 
ATOM     38  C   UNL A   1      40.834  27.907  28.977  1.00  0.00     0.074 A 
ATOM     39  C   UNL A   1      40.013  27.962  27.789  1.00  0.00     0.031 C 
ATOM     40  C   UNL A   1      37.703  31.842  33.005  1.00  0.00     0.029 A 
ATOM     41  C   UNL A   1      38.966  31.150  33.247  1.00  0.00     0.049 A 
ATOM     42  H   UNL A   1      40.030  29.955  31.916  1.00  0.00     0.167 HD
ATOM     43  C   UNL A   1      41.962  27.168  29.089  1.00  0.00     0.037 A 
ATOM     44  C   UNL A   1      39.670  31.173  34.394  1.00  0.00     0.037 A 
ATOM     45  C   UNL A   1      42.812  27.185  30.247  1.00  0.00     0.049 A 
ATOM     46  C   UNL A   1      40.942  30.375  34.487  1.00  0.00     0.074 A 
ATOM     47  C   UNL A   1      44.023  26.547  30.441  1.00  0.00     0.029 A 
ATOM     48  N   UNL A   1      42.540  27.898  31.407  1.00  0.00    -0.354 N 
ATOM     49  N   UNL A   1      41.503  29.606  33.587  1.00  0.00    -0.248 NA
ATOM     50  C   UNL A   1      41.678  30.449  35.756  1.00  0.00     0.031 C 
ATOM     51  C   UNL A   1      44.469  26.849  31.732  1.00  0.00     0.029 A 
ATOM     52  C   UNL A   1      43.558  27.710  32.325  1.00  0.00     0.049 A 
ATOM     53  H   UNL A   1      41.743  28.456  31.554  1.00  0.00     0.167 HD
ATOM     54  C   UNL A   1      42.676  29.136  34.161  1.00  0.00     0.074 A 
ATOM     55  C   UNL A   1      42.743  29.704  35.493  1.00  0.00     0.031 C 
ATOM     56  C   UNL A   1      43.616  28.315  33.632  1.00  0.00     0.037 A 
BRANCH  43  57
ATOM     57  C   UNL A   1      42.328  26.290  27.926  1.00  0.00     0.064 A 
ATOM     58  C   UNL A   1      43.255  26.696  26.953  1.00  0.00     0.173 A 
ATOM     59  C   UNL A   1      41.725  25.033  27.770  1.00  0.00     0.173 A 
ATOM     60  F   UNL A   1      43.851  27.894  27.047  1.00  0.00    -0.203 F 
ATOM     61  C   UNL A   1      43.520  25.903  25.840  1.00  0.00     0.198 A 
ATOM     62  C   UNL A   1      42.022  24.225  26.674  1.00  0.00     0.198 A 
ATOM     63  F   UNL A   1      40.837  24.590  28.672  1.00  0.00    -0.203 F 
ATOM     64  F   UNL A   1      44.345  26.352  24.883  1.00  0.00    -0.200 F 
ATOM     65  C   UNL A   1      42.906  24.668  25.703  1.00  0.00     0.200 A 
ATOM     66  F   UNL A   1      41.438  23.026  26.550  1.00  0.00    -0.200 F 
ATOM     67  F   UNL A   1      43.157  23.910  24.626  1.00  0.00    -0.200 F 
ENDBRANCH  43  57
BRANCH  44  68
ATOM     68  C   UNL A   1      39.215  32.029  35.520  1.00  0.00     0.064 A 
ATOM     69  C   UNL A   1      38.429  31.487  36.548  1.00  0.00     0.173 A 
ATOM     70  C   UNL A   1      39.574  33.381  35.616  1.00  0.00     0.173 A 
ATOM     71  F   UNL A   1      38.047  30.204  36.490  1.00  0.00    -0.203 F 
ATOM     72  C   UNL A   1      38.011  32.268  37.623  1.00  0.00     0.198 A 
ATOM     73  C   UNL A   1      39.173  34.155  36.704  1.00  0.00     0.198 A 
ATOM     74  F   UNL A   1      40.330  33.945  34.663  1.00  0.00    -0.203 F 
ATOM     75  F   UNL A   1      37.234  31.732  38.574  1.00  0.00    -0.200 F 
ATOM     76  C   UNL A   1      38.389  33.599  37.703  1.00  0.00     0.200 A 
ATOM     77  F   UNL A   1      39.551  35.438  36.786  1.00  0.00    -0.200 F 
ATOM     78  F   UNL A   1      37.994  34.347  38.743  1.00  0.00    -0.200 F 
ENDBRANCH  44  68
BRANCH  56  79
ATOM     79  C   UNL A   1      44.832  28.030  34.460  1.00  0.00     0.064 A 
ATOM     80  C   UNL A   1      45.951  28.873  34.442  1.00  0.00     0.173 A 
ATOM     81  C   UNL A   1      44.837  26.943  35.347  1.00  0.00     0.173 A 
ATOM     82  F   UNL A   1      45.996  29.917  33.600  1.00  0.00    -0.203 F 
ATOM     83  C   UNL A   1      47.039  28.631  35.276  1.00  0.00     0.198 A 
ATOM     84  C   UNL A   1      45.915  26.719  36.198  1.00  0.00     0.198 A 
ATOM     85  F   UNL A   1      43.785  26.113  35.405  1.00  0.00    -0.203 F 
ATOM     86  F   UNL A   1      48.111  29.432  35.225  1.00  0.00    -0.200 F 
ATOM     87  C   UNL A   1      47.015  27.562  36.160  1.00  0.00     0.200 A 
ATOM     88  F   UNL A   1      45.884  25.694  37.061  1.00  0.00    -0.200 F 
ATOM     89  F   UNL A   1      48.055  27.343  36.976  1.00  0.00    -0.200 F 
ENDBRANCH  56  79
ENDBRANCH  30  31
ENDBRANCH  22  25
ENDBRANCH  20  21
ENDBRANCH  19  20
ENDBRANCH  18  19
ENDBRANCH   3  18
TORSDOF 15
ENDMDL
