MODEL 1
REMARK VINA RESULT:     -13.2      0.000      0.000
REMARK SMILES O=C(NCCCNC(=O)c1ccc(-c2c3nc(c(-c4c(F)c(F)c(F)c(F)c4F)c4ccc([nH]4)c(-c4c(F)c(F)c(F)c(F)c4F)c4nc(c(-c5c(F)c(F)c(F)c(F)c5F)c5ccc2[nH]5)C=C4)C=C3)cc1)C1=Cc2cc(Cl)ccc2O[C@@H]1C(F)(F)F
REMARK SMILES IDX 5 1 4 2 3 3 1 4 2 5 73 7 74 8 83 9 75 10 82 11 76 12 81 13
REMARK SMILES IDX 77 14 80 15 78 16 79 17 84 18 85 19 86 20 87 21 6 22 7 23
REMARK SMILES IDX 8 24 9 26 10 27 11 28 72 29 12 30 71 31 13 32 14 33 15 34
REMARK SMILES IDX 65 35 16 36 70 37 64 38 66 39 17 40 69 41 63 42 62 43 18 45
REMARK SMILES IDX 50 46 30 47 49 48 31 49 34 50 48 51 67 52 32 53 33 54 47 56
REMARK SMILES IDX 68 57 35 58 19 59 20 60 28 61 21 62 22 63 26 64 29 65 23 66
REMARK SMILES IDX 24 67 27 68 25 69 51 70 52 71 60 72 53 73 54 74 58 75 61 76
REMARK SMILES IDX 55 77 56 78 59 79 57 80 36 81 37 82 45 83 38 84 39 85 43 86
REMARK SMILES IDX 46 87 40 88 41 89 44 90 42 91
REMARK H PARENT 3 6 7 25 66 44 34 55
REMARK Flexibility Score: inf
ROOT
ATOM      1  C   UNL A   1      31.772  28.053  27.098  1.00  0.00     0.042 C 
ENDROOT
BRANCH   1   2
ATOM      2  C   UNL A   1      31.100  27.167  26.056  1.00  0.00     0.118 C 
BRANCH   2   3
ATOM      3  N   UNL A   1      31.085  25.752  26.436  1.00  0.00    -0.352 N 
ATOM      4  O   UNL A   1      31.944  23.675  26.745  1.00  0.00    -0.270 OA
ATOM      5  C   UNL A   1      32.001  24.758  26.183  1.00  0.00     0.251 C 
ATOM      6  H   UNL A   1      30.297  25.468  26.953  1.00  0.00     0.163 HD
BRANCH   5   7
ATOM      7  C   UNL A   1      33.084  25.081  25.240  1.00  0.00     0.067 C 
ATOM      8  C   UNL A   1      34.315  25.162  25.760  1.00  0.00     0.025 C 
ATOM      9  C   UNL A   1      32.811  24.876  23.783  1.00  0.00     0.314 C 
ATOM     10  C   UNL A   1      35.323  24.435  24.985  1.00  0.00     0.019 A 
ATOM     11  O   UNL A   1      33.746  23.956  23.165  1.00  0.00    -0.475 OA
ATOM     12  C   UNL A   1      36.498  24.066  25.646  1.00  0.00     0.032 A 
ATOM     13  C   UNL A   1      34.946  23.766  23.805  1.00  0.00     0.128 A 
ATOM     14  C   UNL A   1      37.225  22.966  25.192  1.00  0.00     0.041 A 
ATOM     15  C   UNL A   1      35.707  22.697  23.333  1.00  0.00     0.048 A 
ATOM     16  Cl  UNL A   1      38.544  22.384  26.130  1.00  0.00    -0.084 Cl
ATOM     17  C   UNL A   1      36.827  22.274  24.049  1.00  0.00     0.024 A 
BRANCH   9  18
ATOM     18  C   UNL A   1      32.776  26.209  23.020  1.00  0.00     0.429 C 
ATOM     19  F   UNL A   1      33.323  26.077  21.787  1.00  0.00    -0.167 F 
ATOM     20  F   UNL A   1      31.512  26.656  22.839  1.00  0.00    -0.167 F 
ATOM     21  F   UNL A   1      33.463  27.185  23.660  1.00  0.00    -0.167 F 
ENDBRANCH   9  18
ENDBRANCH   5   7
ENDBRANCH   2   3
ENDBRANCH   1   2
BRANCH   1  22
ATOM     22  C   UNL A   1      32.755  29.035  26.472  1.00  0.00     0.118 C 
BRANCH  22  23
ATOM     23  N   UNL A   1      32.441  30.439  26.719  1.00  0.00    -0.352 N 
ATOM     24  C   UNL A   1      33.217  31.439  27.277  1.00  0.00     0.251 C 
ATOM     25  H   UNL A   1      31.537  30.718  26.446  1.00  0.00     0.163 HD
ATOM     26  O   UNL A   1      32.748  32.550  27.469  1.00  0.00    -0.269 OA
BRANCH  24  27
ATOM     27  C   UNL A   1      34.608  31.139  27.690  1.00  0.00     0.039 A 
ATOM     28  C   UNL A   1      35.521  32.187  27.840  1.00  0.00     0.014 A 
ATOM     29  C   UNL A   1      34.983  29.837  28.009  1.00  0.00     0.014 A 
ATOM     30  C   UNL A   1      36.762  31.944  28.440  1.00  0.00     0.010 A 
ATOM     31  C   UNL A   1      36.157  29.622  28.718  1.00  0.00     0.010 A 
ATOM     32  C   UNL A   1      37.056  30.674  28.956  1.00  0.00    -0.014 A 
BRANCH  32  33
ATOM     33  C   UNL A   1      38.278  30.386  29.757  1.00  0.00     0.031 A 
ATOM     34  C   UNL A   1      39.314  29.442  29.206  1.00  0.00     0.074 A 
ATOM     35  C   UNL A   1      38.391  30.839  31.022  1.00  0.00     0.049 A 
ATOM     36  N   UNL A   1      40.290  28.825  29.819  1.00  0.00    -0.248 NA
ATOM     37  C   UNL A   1      39.187  29.099  27.781  1.00  0.00     0.031 C 
ATOM     38  C   UNL A   1      37.444  31.726  31.700  1.00  0.00     0.029 A 
ATOM     39  N   UNL A   1      39.348  30.591  31.976  1.00  0.00    -0.354 N 
ATOM     40  C   UNL A   1      40.849  27.976  28.872  1.00  0.00     0.074 A 
ATOM     41  C   UNL A   1      40.070  28.120  27.662  1.00  0.00     0.031 C 
ATOM     42  C   UNL A   1      37.883  31.974  32.945  1.00  0.00     0.029 A 
ATOM     43  C   UNL A   1      39.107  31.215  33.177  1.00  0.00     0.049 A 
ATOM     44  H   UNL A   1      40.133  30.019  31.815  1.00  0.00     0.167 HD
ATOM     45  C   UNL A   1      41.928  27.166  28.992  1.00  0.00     0.037 A 
ATOM     46  C   UNL A   1      39.788  31.166  34.338  1.00  0.00     0.037 A 
ATOM     47  C   UNL A   1      42.744  27.086  30.173  1.00  0.00     0.049 A 
ATOM     48  C   UNL A   1      41.009  30.292  34.438  1.00  0.00     0.074 A 
ATOM     49  C   UNL A   1      43.900  26.354  30.379  1.00  0.00     0.029 A 
ATOM     50  N   UNL A   1      42.500  27.787  31.345  1.00  0.00    -0.354 N 
ATOM     51  N   UNL A   1      41.541  29.509  33.531  1.00  0.00    -0.248 NA
ATOM     52  C   UNL A   1      41.721  30.290  35.723  1.00  0.00     0.031 C 
ATOM     53  C   UNL A   1      44.343  26.594  31.683  1.00  0.00     0.029 A 
ATOM     54  C   UNL A   1      43.484  27.505  32.277  1.00  0.00     0.049 A 
ATOM     55  H   UNL A   1      41.739  28.394  31.493  1.00  0.00     0.167 HD
ATOM     56  C   UNL A   1      42.666  28.952  34.122  1.00  0.00     0.074 A 
ATOM     57  C   UNL A   1      42.742  29.487  35.465  1.00  0.00     0.031 C 
ATOM     58  C   UNL A   1      43.558  28.075  33.598  1.00  0.00     0.037 A 
BRANCH  45  59
ATOM     59  C   UNL A   1      42.288  26.316  27.807  1.00  0.00     0.064 A 
ATOM     60  C   UNL A   1      41.718  25.049  27.608  1.00  0.00     0.173 A 
ATOM     61  C   UNL A   1      43.217  26.773  26.860  1.00  0.00     0.173 A 
ATOM     62  F   UNL A   1      40.835  24.560  28.492  1.00  0.00    -0.203 F 
ATOM     63  C   UNL A   1      42.099  24.252  26.533  1.00  0.00     0.198 A 
ATOM     64  C   UNL A   1      43.570  25.987  25.765  1.00  0.00     0.198 A 
ATOM     65  F   UNL A   1      43.787  27.979  26.996  1.00  0.00    -0.203 F 
ATOM     66  F   UNL A   1      41.595  23.017  26.405  1.00  0.00    -0.200 F 
ATOM     67  C   UNL A   1      43.021  24.723  25.609  1.00  0.00     0.200 A 
ATOM     68  F   UNL A   1      44.450  26.449  24.866  1.00  0.00    -0.200 F 
ATOM     69  F   UNL A   1      43.389  23.953  24.576  1.00  0.00    -0.200 F 
ENDBRANCH  45  59
BRANCH  46  70
ATOM     70  C   UNL A   1      39.354  31.997  35.491  1.00  0.00     0.064 A 
ATOM     71  C   UNL A   1      39.774  33.330  35.600  1.00  0.00     0.173 A 
ATOM     72  C   UNL A   1      38.518  31.493  36.497  1.00  0.00     0.173 A 
ATOM     73  F   UNL A   1      40.592  33.851  34.673  1.00  0.00    -0.203 F 
ATOM     74  C   UNL A   1      39.389  34.122  36.680  1.00  0.00     0.198 A 
ATOM     75  C   UNL A   1      38.113  32.293  37.564  1.00  0.00     0.198 A 
ATOM     76  F   UNL A   1      38.084  30.225  36.436  1.00  0.00    -0.203 F 
ATOM     77  F   UNL A   1      39.839  35.381  36.779  1.00  0.00    -0.200 F 
ATOM     78  C   UNL A   1      38.554  33.605  37.658  1.00  0.00     0.200 A 
ATOM     79  F   UNL A   1      37.297  31.794  38.501  1.00  0.00    -0.200 F 
ATOM     80  F   UNL A   1      38.181  34.367  38.694  1.00  0.00    -0.200 F 
ENDBRANCH  46  70
BRANCH  58  81
ATOM     81  C   UNL A   1      44.727  27.688  34.451  1.00  0.00     0.064 A 
ATOM     82  C   UNL A   1      45.909  28.441  34.467  1.00  0.00     0.173 A 
ATOM     83  C   UNL A   1      44.635  26.583  35.312  1.00  0.00     0.173 A 
ATOM     84  F   UNL A   1      46.049  29.495  33.650  1.00  0.00    -0.203 F 
ATOM     85  C   UNL A   1      46.964  28.094  35.306  1.00  0.00     0.198 A 
ATOM     86  C   UNL A   1      45.683  26.254  36.167  1.00  0.00     0.198 A 
ATOM     87  F   UNL A   1      43.521  25.836  35.336  1.00  0.00    -0.203 F 
ATOM     88  F   UNL A   1      48.098  28.807  35.284  1.00  0.00    -0.200 F 
ATOM     89  C   UNL A   1      46.847  27.007  36.161  1.00  0.00     0.200 A 
ATOM     90  F   UNL A   1      45.562  25.212  37.000  1.00  0.00    -0.200 F 
ATOM     91  F   UNL A   1      47.858  26.683  36.977  1.00  0.00    -0.200 F 
ENDBRANCH  58  81
ENDBRANCH  32  33
ENDBRANCH  24  27
ENDBRANCH  22  23
ENDBRANCH   1  22
TORSDOF 11
ENDMDL
MODEL 2
REMARK VINA RESULT:     -13.2      0.139      1.148
REMARK SMILES O=C(NCCCNC(=O)c1ccc(-c2c3nc(c(-c4c(F)c(F)c(F)c(F)c4F)c4ccc([nH]4)c(-c4c(F)c(F)c(F)c(F)c4F)c4nc(c(-c5c(F)c(F)c(F)c(F)c5F)c5ccc2[nH]5)C=C4)C=C3)cc1)C1=Cc2cc(Cl)ccc2O[C@@H]1C(F)(F)F
REMARK SMILES IDX 5 1 4 2 3 3 1 4 2 5 73 7 74 8 83 9 75 10 82 11 76 12 81 13
REMARK SMILES IDX 77 14 80 15 78 16 79 17 84 18 85 19 86 20 87 21 6 22 7 23
REMARK SMILES IDX 8 24 9 26 10 27 11 28 72 29 12 30 71 31 13 32 14 33 15 34
REMARK SMILES IDX 65 35 16 36 70 37 64 38 66 39 17 40 69 41 63 42 62 43 18 45
REMARK SMILES IDX 50 46 30 47 49 48 31 49 34 50 48 51 67 52 32 53 33 54 47 56
REMARK SMILES IDX 68 57 35 58 19 59 20 60 28 61 21 62 22 63 26 64 29 65 23 66
REMARK SMILES IDX 24 67 27 68 25 69 51 70 52 71 60 72 53 73 54 74 58 75 61 76
REMARK SMILES IDX 55 77 56 78 59 79 57 80 36 81 37 82 45 83 38 84 39 85 43 86
REMARK SMILES IDX 46 87 40 88 41 89 44 90 42 91
REMARK H PARENT 3 6 7 25 66 44 34 55
REMARK Flexibility Score: inf
ROOT
ATOM      1  C   UNL A   1      31.769  27.938  27.180  1.00  0.00     0.042 C 
ENDROOT
BRANCH   1   2
ATOM      2  C   UNL A   1      31.015  27.091  26.160  1.00  0.00     0.118 C 
BRANCH   2   3
ATOM      3  N   UNL A   1      31.008  25.665  26.498  1.00  0.00    -0.352 N 
ATOM      4  O   UNL A   1      31.871  23.580  26.729  1.00  0.00    -0.270 OA
ATOM      5  C   UNL A   1      31.917  24.680  26.198  1.00  0.00     0.251 C 
ATOM      6  H   UNL A   1      30.230  25.367  27.023  1.00  0.00     0.163 HD
BRANCH   5   7
ATOM      7  C   UNL A   1      32.982  25.030  25.242  1.00  0.00     0.067 C 
ATOM      8  C   UNL A   1      34.215  25.146  25.750  1.00  0.00     0.025 C 
ATOM      9  C   UNL A   1      32.699  24.815  23.789  1.00  0.00     0.314 C 
ATOM     10  C   UNL A   1      35.234  24.445  24.965  1.00  0.00     0.019 A 
ATOM     11  O   UNL A   1      33.652  23.920  23.163  1.00  0.00    -0.475 OA
ATOM     12  C   UNL A   1      36.426  24.110  25.614  1.00  0.00     0.032 A 
ATOM     13  C   UNL A   1      34.863  23.764  23.790  1.00  0.00     0.128 A 
ATOM     14  C   UNL A   1      37.178  23.031  25.154  1.00  0.00     0.041 A 
ATOM     15  C   UNL A   1      35.649  22.716  23.312  1.00  0.00     0.048 A 
ATOM     16  Cl  UNL A   1      38.523  22.487  26.080  1.00  0.00    -0.084 Cl
ATOM     17  C   UNL A   1      36.788  22.325  24.017  1.00  0.00     0.024 A 
BRANCH   9  18
ATOM     18  C   UNL A   1      32.619  26.145  23.024  1.00  0.00     0.429 C 
ATOM     19  F   UNL A   1      33.173  26.031  21.793  1.00  0.00    -0.167 F 
ATOM     20  F   UNL A   1      31.340  26.548  22.840  1.00  0.00    -0.167 F 
ATOM     21  F   UNL A   1      33.270  27.146  23.665  1.00  0.00    -0.167 F 
ENDBRANCH   9  18
ENDBRANCH   5   7
ENDBRANCH   2   3
ENDBRANCH   1   2
BRANCH   1  22
ATOM     22  C   UNL A   1      32.750  28.899  26.518  1.00  0.00     0.118 C 
BRANCH  22  23
ATOM     23  N   UNL A   1      32.425  30.310  26.703  1.00  0.00    -0.352 N 
ATOM     24  C   UNL A   1      33.193  31.339  27.219  1.00  0.00     0.251 C 
ATOM     25  H   UNL A   1      31.520  30.570  26.416  1.00  0.00     0.163 HD
ATOM     26  O   UNL A   1      32.716  32.454  27.362  1.00  0.00    -0.269 OA
BRANCH  24  27
ATOM     27  C   UNL A   1      34.585  31.066  27.648  1.00  0.00     0.039 A 
ATOM     28  C   UNL A   1      35.476  32.132  27.802  1.00  0.00     0.014 A 
ATOM     29  C   UNL A   1      34.981  29.773  27.977  1.00  0.00     0.014 A 
ATOM     30  C   UNL A   1      36.715  31.915  28.416  1.00  0.00     0.010 A 
ATOM     31  C   UNL A   1      36.150  29.583  28.699  1.00  0.00     0.010 A 
ATOM     32  C   UNL A   1      37.028  30.652  28.942  1.00  0.00    -0.014 A 
BRANCH  32  33
ATOM     33  C   UNL A   1      38.246  30.391  29.757  1.00  0.00     0.031 A 
ATOM     34  C   UNL A   1      39.309  29.472  29.217  1.00  0.00     0.074 A 
ATOM     35  C   UNL A   1      38.334  30.845  31.024  1.00  0.00     0.049 A 
ATOM     36  N   UNL A   1      40.292  28.876  29.841  1.00  0.00    -0.248 NA
ATOM     37  C   UNL A   1      39.207  29.128  27.790  1.00  0.00     0.031 C 
ATOM     38  C   UNL A   1      37.359  31.710  31.692  1.00  0.00     0.029 A 
ATOM     39  N   UNL A   1      39.285  30.617  31.989  1.00  0.00    -0.354 N 
ATOM     40  C   UNL A   1      40.882  28.042  28.899  1.00  0.00     0.074 A 
ATOM     41  C   UNL A   1      40.114  28.171  27.680  1.00  0.00     0.031 C 
ATOM     42  C   UNL A   1      37.777  31.965  32.942  1.00  0.00     0.029 A 
ATOM     43  C   UNL A   1      39.016  31.233  33.187  1.00  0.00     0.049 A 
ATOM     44  H   UNL A   1      40.085  30.064  31.836  1.00  0.00     0.167 HD
ATOM     45  C   UNL A   1      41.977  27.257  29.032  1.00  0.00     0.037 A 
ATOM     46  C   UNL A   1      39.684  31.198  34.356  1.00  0.00     0.037 A 
ATOM     47  C   UNL A   1      42.781  27.194  30.222  1.00  0.00     0.049 A 
ATOM     48  C   UNL A   1      40.922  30.352  34.470  1.00  0.00     0.074 A 
ATOM     49  C   UNL A   1      43.950  26.487  30.440  1.00  0.00     0.029 A 
ATOM     50  N   UNL A   1      42.507  27.887  31.392  1.00  0.00    -0.354 N 
ATOM     51  N   UNL A   1      41.483  29.583  33.568  1.00  0.00    -0.248 NA
ATOM     52  C   UNL A   1      41.619  30.365  35.764  1.00  0.00     0.031 C 
ATOM     53  C   UNL A   1      44.372  26.735  31.751  1.00  0.00     0.029 A 
ATOM     54  C   UNL A   1      43.486  27.625  32.335  1.00  0.00     0.049 A 
ATOM     55  H   UNL A   1      41.731  28.476  31.532  1.00  0.00     0.167 HD
ATOM     56  C   UNL A   1      42.614  29.050  34.172  1.00  0.00     0.074 A 
ATOM     57  C   UNL A   1      42.661  29.585  35.517  1.00  0.00     0.031 C 
ATOM     58  C   UNL A   1      43.531  28.195  33.658  1.00  0.00     0.037 A 
BRANCH  45  59
ATOM     59  C   UNL A   1      42.371  26.417  27.850  1.00  0.00     0.064 A 
ATOM     60  C   UNL A   1      43.310  26.864  26.908  1.00  0.00     0.173 A 
ATOM     61  C   UNL A   1      41.800  25.149  27.656  1.00  0.00     0.173 A 
ATOM     62  F   UNL A   1      43.875  28.073  27.040  1.00  0.00    -0.203 F 
ATOM     63  C   UNL A   1      43.628  26.096  25.791  1.00  0.00     0.198 A 
ATOM     64  C   UNL A   1      42.146  24.369  26.556  1.00  0.00     0.198 A 
ATOM     65  F   UNL A   1      40.902  24.669  28.529  1.00  0.00    -0.203 F 
ATOM     66  F   UNL A   1      44.472  26.576  24.868  1.00  0.00    -0.200 F 
ATOM     67  C   UNL A   1      43.050  24.847  25.618  1.00  0.00     0.200 A 
ATOM     68  F   UNL A   1      41.598  23.156  26.397  1.00  0.00    -0.200 F 
ATOM     69  F   UNL A   1      43.354  24.110  24.541  1.00  0.00    -0.200 F 
ENDBRANCH  45  59
BRANCH  46  70
ATOM     70  C   UNL A   1      39.217  32.018  35.505  1.00  0.00     0.064 A 
ATOM     71  C   UNL A   1      39.616  33.357  35.628  1.00  0.00     0.173 A 
ATOM     72  C   UNL A   1      38.371  31.497  36.494  1.00  0.00     0.173 A 
ATOM     73  F   UNL A   1      40.442  33.894  34.718  1.00  0.00    -0.203 F 
ATOM     74  C   UNL A   1      39.200  34.137  36.704  1.00  0.00     0.198 A 
ATOM     75  C   UNL A   1      37.936  32.286  37.557  1.00  0.00     0.198 A 
ATOM     76  F   UNL A   1      37.957  30.223  36.420  1.00  0.00    -0.203 F 
ATOM     77  F   UNL A   1      39.629  35.402  36.817  1.00  0.00    -0.200 F 
ATOM     78  C   UNL A   1      38.356  33.604  37.665  1.00  0.00     0.200 A 
ATOM     79  F   UNL A   1      37.110  31.770  38.478  1.00  0.00    -0.200 F 
ATOM     80  F   UNL A   1      37.953  34.355  38.698  1.00  0.00    -0.200 F 
ENDBRANCH  46  70
BRANCH  58  81
ATOM     81  C   UNL A   1      44.699  27.833  34.524  1.00  0.00     0.064 A 
ATOM     82  C   UNL A   1      45.863  28.613  34.555  1.00  0.00     0.173 A 
ATOM     83  C   UNL A   1      44.622  26.725  35.381  1.00  0.00     0.173 A 
ATOM     84  F   UNL A   1      45.988  29.673  33.742  1.00  0.00    -0.203 F 
ATOM     85  C   UNL A   1      46.915  28.289  35.407  1.00  0.00     0.198 A 
ATOM     86  C   UNL A   1      45.667  26.418  36.248  1.00  0.00     0.198 A 
ATOM     87  F   UNL A   1      43.525  25.952  35.390  1.00  0.00    -0.203 F 
ATOM     88  F   UNL A   1      48.033  29.029  35.400  1.00  0.00    -0.200 F 
ATOM     89  C   UNL A   1      46.813  27.198  36.258  1.00  0.00     0.200 A 
ATOM     90  F   UNL A   1      45.560  25.372  37.078  1.00  0.00    -0.200 F 
ATOM     91  F   UNL A   1      47.822  26.896  37.086  1.00  0.00    -0.200 F 
ENDBRANCH  58  81
ENDBRANCH  32  33
ENDBRANCH  24  27
ENDBRANCH  22  23
ENDBRANCH   1  22
TORSDOF 11
ENDMDL
MODEL 3
REMARK VINA RESULT:     -13.0      3.119      7.889
REMARK SMILES O=C(NCCCNC(=O)c1ccc(-c2c3nc(c(-c4c(F)c(F)c(F)c(F)c4F)c4ccc([nH]4)c(-c4c(F)c(F)c(F)c(F)c4F)c4nc(c(-c5c(F)c(F)c(F)c(F)c5F)c5ccc2[nH]5)C=C4)C=C3)cc1)C1=Cc2cc(Cl)ccc2O[C@@H]1C(F)(F)F
REMARK SMILES IDX 5 1 4 2 3 3 1 4 2 5 73 7 74 8 83 9 75 10 82 11 76 12 81 13
REMARK SMILES IDX 77 14 80 15 78 16 79 17 84 18 85 19 86 20 87 21 6 22 7 23
REMARK SMILES IDX 8 24 9 26 10 27 11 28 72 29 12 30 71 31 13 32 14 33 15 34
REMARK SMILES IDX 65 35 16 36 70 37 64 38 66 39 17 40 69 41 63 42 62 43 18 45
REMARK SMILES IDX 50 46 30 47 49 48 31 49 34 50 48 51 67 52 32 53 33 54 47 56
REMARK SMILES IDX 68 57 35 58 19 59 20 60 28 61 21 62 22 63 26 64 29 65 23 66
REMARK SMILES IDX 24 67 27 68 25 69 51 70 52 71 60 72 53 73 54 74 58 75 61 76
REMARK SMILES IDX 55 77 56 78 59 79 57 80 36 81 37 82 45 83 38 84 39 85 43 86
REMARK SMILES IDX 46 87 40 88 41 89 44 90 42 91
REMARK H PARENT 3 6 7 25 66 44 34 55
REMARK Flexibility Score: inf
ROOT
ATOM      1  C   UNL A   1      32.174  28.206  27.534  1.00  0.00     0.042 C 
ENDROOT
BRANCH   1   2
ATOM      2  C   UNL A   1      31.536  27.436  26.383  1.00  0.00     0.118 C 
BRANCH   2   3
ATOM      3  N   UNL A   1      31.374  26.009  26.672  1.00  0.00    -0.352 N 
ATOM      4  O   UNL A   1      32.000  23.833  26.809  1.00  0.00    -0.270 OA
ATOM      5  C   UNL A   1      32.159  24.939  26.315  1.00  0.00     0.251 C 
ATOM      6  H   UNL A   1      30.579  25.781  27.205  1.00  0.00     0.163 HD
BRANCH   5   7
ATOM      7  C   UNL A   1      33.236  25.202  25.345  1.00  0.00     0.067 C 
ATOM      8  C   UNL A   1      34.480  25.223  25.837  1.00  0.00     0.025 C 
ATOM      9  C   UNL A   1      32.919  25.005  23.896  1.00  0.00     0.314 C 
ATOM     10  C   UNL A   1      35.432  24.442  25.043  1.00  0.00     0.019 A 
ATOM     11  O   UNL A   1      33.791  24.035  23.262  1.00  0.00    -0.475 OA
ATOM     12  C   UNL A   1      36.602  24.016  25.678  1.00  0.00     0.032 A 
ATOM     13  C   UNL A   1      34.994  23.788  23.875  1.00  0.00     0.128 A 
ATOM     14  C   UNL A   1      37.262  22.880  25.215  1.00  0.00     0.041 A 
ATOM     15  C   UNL A   1      35.689  22.679  23.392  1.00  0.00     0.048 A 
ATOM     16  Cl  UNL A   1      38.571  22.235  26.126  1.00  0.00    -0.084 Cl
ATOM     17  C   UNL A   1      36.803  22.203  24.085  1.00  0.00     0.024 A 
BRANCH   9  18
ATOM     18  C   UNL A   1      32.934  26.334  23.127  1.00  0.00     0.429 C 
ATOM     19  F   UNL A   1      31.674  26.785  22.911  1.00  0.00    -0.167 F 
ATOM     20  F   UNL A   1      33.583  27.307  23.809  1.00  0.00    -0.167 F 
ATOM     21  F   UNL A   1      33.531  26.222  21.917  1.00  0.00    -0.167 F 
ENDBRANCH   9  18
ENDBRANCH   5   7
ENDBRANCH   2   3
ENDBRANCH   1   2
BRANCH   1  22
ATOM     22  C   UNL A   1      33.478  28.881  27.124  1.00  0.00     0.118 C 
BRANCH  22  23
ATOM     23  N   UNL A   1      33.645  30.232  27.653  1.00  0.00    -0.352 N 
ATOM     24  C   UNL A   1      34.744  30.822  28.253  1.00  0.00     0.251 C 
ATOM     25  H   UNL A   1      32.856  30.813  27.568  1.00  0.00     0.163 HD
ATOM     26  O   UNL A   1      34.669  31.955  28.700  1.00  0.00    -0.269 OA
BRANCH  24  27
ATOM     27  C   UNL A   1      35.999  30.048  28.398  1.00  0.00     0.039 A 
ATOM     28  C   UNL A   1      36.951  30.087  27.374  1.00  0.00     0.014 A 
ATOM     29  C   UNL A   1      36.270  29.356  29.575  1.00  0.00     0.014 A 
ATOM     30  C   UNL A   1      38.224  29.548  27.592  1.00  0.00     0.010 A 
ATOM     31  C   UNL A   1      37.567  28.939  29.836  1.00  0.00     0.010 A 
ATOM     32  C   UNL A   1      38.566  29.041  28.854  1.00  0.00    -0.014 A 
BRANCH  32  33
ATOM     33  C   UNL A   1      39.947  28.613  29.211  1.00  0.00     0.031 A 
ATOM     34  C   UNL A   1      40.842  29.564  29.959  1.00  0.00     0.074 A 
ATOM     35  C   UNL A   1      40.448  27.452  28.742  1.00  0.00     0.049 A 
ATOM     36  N   UNL A   1      42.140  29.536  30.122  1.00  0.00    -0.248 NA
ATOM     37  C   UNL A   1      40.189  30.745  30.547  1.00  0.00     0.031 C 
ATOM     38  C   UNL A   1      39.709  26.452  27.969  1.00  0.00     0.029 A 
ATOM     39  N   UNL A   1      41.715  26.927  28.829  1.00  0.00    -0.354 N 
ATOM     40  C   UNL A   1      42.461  30.721  30.773  1.00  0.00     0.074 A 
ATOM     41  C   UNL A   1      41.231  31.467  30.926  1.00  0.00     0.031 C 
ATOM     42  C   UNL A   1      40.523  25.423  27.681  1.00  0.00     0.029 A 
ATOM     43  C   UNL A   1      41.857  25.717  28.193  1.00  0.00     0.049 A 
ATOM     44  H   UNL A   1      42.452  27.376  29.303  1.00  0.00     0.167 HD
ATOM     45  C   UNL A   1      43.668  31.139  31.222  1.00  0.00     0.037 A 
ATOM     46  C   UNL A   1      42.945  24.940  28.028  1.00  0.00     0.037 A 
ATOM     47  C   UNL A   1      44.872  30.359  31.136  1.00  0.00     0.049 A 
ATOM     48  C   UNL A   1      44.269  25.405  28.572  1.00  0.00     0.074 A 
ATOM     49  C   UNL A   1      46.133  30.656  31.621  1.00  0.00     0.029 A 
ATOM     50  N   UNL A   1      44.956  29.108  30.541  1.00  0.00    -0.354 N 
ATOM     51  N   UNL A   1      44.559  26.517  29.203  1.00  0.00    -0.248 NA
ATOM     52  C   UNL A   1      45.418  24.510  28.377  1.00  0.00     0.031 C 
ATOM     53  C   UNL A   1      46.986  29.594  31.300  1.00  0.00     0.029 A 
ATOM     54  C   UNL A   1      46.247  28.621  30.648  1.00  0.00     0.049 A 
ATOM     55  H   UNL A   1      44.209  28.638  30.105  1.00  0.00     0.167 HD
ATOM     56  C   UNL A   1      45.910  26.440  29.511  1.00  0.00     0.074 A 
ATOM     57  C   UNL A   1      46.383  25.170  28.999  1.00  0.00     0.031 C 
ATOM     58  C   UNL A   1      46.689  27.339  30.160  1.00  0.00     0.037 A 
BRANCH  45  59
ATOM     59  C   UNL A   1      43.734  32.499  31.858  1.00  0.00     0.064 A 
ATOM     60  C   UNL A   1      43.584  32.674  33.242  1.00  0.00     0.173 A 
ATOM     61  C   UNL A   1      43.947  33.643  31.072  1.00  0.00     0.173 A 
ATOM     62  F   UNL A   1      43.364  31.615  34.036  1.00  0.00    -0.203 F 
ATOM     63  C   UNL A   1      43.597  33.944  33.811  1.00  0.00     0.198 A 
ATOM     64  C   UNL A   1      43.995  34.909  31.649  1.00  0.00     0.198 A 
ATOM     65  F   UNL A   1      44.104  33.533  29.745  1.00  0.00    -0.203 F 
ATOM     66  F   UNL A   1      43.379  34.090  35.125  1.00  0.00    -0.200 F 
ATOM     67  C   UNL A   1      43.808  35.060  33.015  1.00  0.00     0.200 A 
ATOM     68  F   UNL A   1      44.212  35.986  30.882  1.00  0.00    -0.200 F 
ATOM     69  F   UNL A   1      43.817  36.283  33.563  1.00  0.00    -0.200 F 
ENDBRANCH  45  59
BRANCH  46  70
ATOM     70  C   UNL A   1      42.824  23.624  27.349  1.00  0.00     0.064 A 
ATOM     71  C   UNL A   1      43.237  23.474  26.018  1.00  0.00     0.173 A 
ATOM     72  C   UNL A   1      42.304  22.497  28.001  1.00  0.00     0.173 A 
ATOM     73  F   UNL A   1      43.721  24.529  25.345  1.00  0.00    -0.203 F 
ATOM     74  C   UNL A   1      43.120  22.251  25.359  1.00  0.00     0.198 A 
ATOM     75  C   UNL A   1      42.210  21.269  27.349  1.00  0.00     0.198 A 
ATOM     76  F   UNL A   1      41.899  22.587  29.277  1.00  0.00    -0.203 F 
ATOM     77  F   UNL A   1      43.486  22.147  24.074  1.00  0.00    -0.200 F 
ATOM     78  C   UNL A   1      42.612  21.149  26.027  1.00  0.00     0.200 A 
ATOM     79  F   UNL A   1      41.729  20.202  28.001  1.00  0.00    -0.200 F 
ATOM     80  F   UNL A   1      42.502  19.972  25.395  1.00  0.00    -0.200 F 
ENDBRANCH  46  70
BRANCH  58  81
ATOM     81  C   UNL A   1      48.116  26.960  30.413  1.00  0.00     0.064 A 
ATOM     82  C   UNL A   1      48.484  26.158  31.502  1.00  0.00     0.173 A 
ATOM     83  C   UNL A   1      49.119  27.355  29.514  1.00  0.00     0.173 A 
ATOM     84  F   UNL A   1      47.562  25.770  32.396  1.00  0.00    -0.203 F 
ATOM     85  C   UNL A   1      49.809  25.773  31.689  1.00  0.00     0.198 A 
ATOM     86  C   UNL A   1      50.438  26.948  29.691  1.00  0.00     0.198 A 
ATOM     87  F   UNL A   1      48.814  28.118  28.453  1.00  0.00    -0.203 F 
ATOM     88  F   UNL A   1      50.145  25.033  32.754  1.00  0.00    -0.200 F 
ATOM     89  C   UNL A   1      50.783  26.161  30.779  1.00  0.00     0.200 A 
ATOM     90  F   UNL A   1      51.374  27.314  28.805  1.00  0.00    -0.200 F 
ATOM     91  F   UNL A   1      52.054  25.779  30.954  1.00  0.00    -0.200 F 
ENDBRANCH  58  81
ENDBRANCH  32  33
ENDBRANCH  24  27
ENDBRANCH  22  23
ENDBRANCH   1  22
TORSDOF 11
ENDMDL
