MODEL 1
REMARK VINA RESULT:     -10.8      0.000      0.000
REMARK SMILES O=C(CSC(=S)N1CCCC1)NCCCNC(=O)c1ccc(-c2c3nc(c(-c4c(F)c(F)c(F)c(F)c4F)c4ccc([nH]4)c(-c4c(F)c(F)c(F)c(F)c4F)c4nc(c(-c5c(F)c(F)c(F)c(F)c5F)c5ccc2[nH]5)C=C4)C=C3)cc1
REMARK SMILES IDX 13 1 12 2 1 3 2 4 3 6 4 7 5 8 6 9 7 10 8 11 11 12 9 13 10 14
REMARK SMILES IDX 14 15 15 16 16 17 17 18 18 20 19 21 20 22 81 23 21 24 80 25
REMARK SMILES IDX 22 26 23 27 24 28 74 29 25 30 79 31 73 32 75 33 26 34 78 35
REMARK SMILES IDX 72 36 71 37 27 39 59 40 39 41 58 42 40 43 43 44 57 45 76 46
REMARK SMILES IDX 41 47 42 48 56 50 77 51 44 52 28 53 29 54 37 55 30 56 31 57
REMARK SMILES IDX 35 58 38 59 32 60 33 61 36 62 34 63 60 64 61 65 69 66 62 67
REMARK SMILES IDX 63 68 67 69 70 70 64 71 65 72 68 73 66 74 45 75 46 76 54 77
REMARK SMILES IDX 47 78 48 79 52 80 55 81 49 82 50 83 53 84 51 85
REMARK H PARENT 12 5 16 19 75 38 43 49
REMARK Flexibility Score: inf
ROOT
ATOM      1  C   UNL A   1      31.713  30.423  26.433  1.00  0.00     0.117 C 
ENDROOT
BRANCH   1   2
ATOM      2  N   UNL A   1      32.212  30.036  25.128  1.00  0.00    -0.355 N 
ATOM      3  O   UNL A   1      34.052  28.943  25.930  1.00  0.00    -0.274 OA
ATOM      4  C   UNL A   1      33.313  29.218  24.986  1.00  0.00     0.230 C 
ATOM      5  H   UNL A   1      31.753  30.365  24.322  1.00  0.00     0.163 HD
BRANCH   4   6
ATOM      6  C   UNL A   1      33.629  28.737  23.576  1.00  0.00     0.177 C 
BRANCH   6   7
ATOM      7  S   UNL A   1      32.311  27.816  22.749  1.00  0.00    -0.087 SA
BRANCH   7   8
ATOM      8  C   UNL A   1      31.766  26.580  23.888  1.00  0.00     0.136 C 
ATOM      9  S   UNL A   1      30.188  26.367  24.415  1.00  0.00    -0.053 S 
BRANCH   8  10
ATOM     10  N   UNL A   1      32.788  25.708  24.249  1.00  0.00    -0.358 N 
ATOM     11  C   UNL A   1      33.240  25.407  25.604  1.00  0.00     0.118 C 
ATOM     12  C   UNL A   1      33.553  24.918  23.285  1.00  0.00     0.118 C 
ATOM     13  C   UNL A   1      34.684  24.985  25.417  1.00  0.00     0.023 C 
ATOM     14  C   UNL A   1      34.660  24.240  24.088  1.00  0.00     0.023 C 
ENDBRANCH   8  10
ENDBRANCH   7   8
ENDBRANCH   6   7
ENDBRANCH   4   6
ENDBRANCH   1   2
BRANCH   1  15
ATOM     15  C   UNL A   1      31.523  31.927  26.586  1.00  0.00     0.042 C 
BRANCH  15  16
ATOM     16  C   UNL A   1      32.666  32.635  27.305  1.00  0.00     0.118 C 
BRANCH  16  17
ATOM     17  N   UNL A   1      32.377  34.030  27.620  1.00  0.00    -0.352 N 
ATOM     18  C   UNL A   1      32.976  34.883  28.515  1.00  0.00     0.251 C 
ATOM     19  H   UNL A   1      31.632  34.424  27.109  1.00  0.00     0.163 HD
ATOM     20  O   UNL A   1      32.497  35.997  28.713  1.00  0.00    -0.269 OA
BRANCH  18  21
ATOM     21  C   UNL A   1      34.177  34.461  29.268  1.00  0.00     0.039 A 
ATOM     22  C   UNL A   1      34.015  33.902  30.540  1.00  0.00     0.014 A 
ATOM     23  C   UNL A   1      35.457  34.615  28.731  1.00  0.00     0.014 A 
ATOM     24  C   UNL A   1      35.126  33.412  31.231  1.00  0.00     0.010 A 
ATOM     25  C   UNL A   1      36.553  34.062  29.387  1.00  0.00     0.010 A 
ATOM     26  C   UNL A   1      36.398  33.442  30.638  1.00  0.00    -0.014 A 
BRANCH  26  27
ATOM     27  C   UNL A   1      37.580  32.813  31.283  1.00  0.00     0.031 A 
ATOM     28  C   UNL A   1      38.271  31.653  30.625  1.00  0.00     0.074 A 
ATOM     29  C   UNL A   1      37.964  33.217  32.510  1.00  0.00     0.049 A 
ATOM     30  N   UNL A   1      39.210  30.870  31.094  1.00  0.00    -0.248 NA
ATOM     31  C   UNL A   1      37.826  31.310  29.265  1.00  0.00     0.031 C 
ATOM     32  C   UNL A   1      37.357  34.311  33.269  1.00  0.00     0.029 A 
ATOM     33  N   UNL A   1      38.944  32.738  33.346  1.00  0.00    -0.354 N 
ATOM     34  C   UNL A   1      39.451  29.931  30.100  1.00  0.00     0.074 A 
ATOM     35  C   UNL A   1      38.532  30.215  29.018  1.00  0.00     0.031 C 
ATOM     36  C   UNL A   1      37.979  34.423  34.454  1.00  0.00     0.029 A 
ATOM     37  C   UNL A   1      38.995  33.379  34.560  1.00  0.00     0.049 A 
ATOM     38  H   UNL A   1      39.550  32.002  33.099  1.00  0.00     0.167 HD
ATOM     39  C   UNL A   1      40.367  28.934  30.085  1.00  0.00     0.037 A 
ATOM     40  C   UNL A   1      39.756  33.140  35.645  1.00  0.00     0.037 A 
ATOM     41  C   UNL A   1      41.294  28.670  31.154  1.00  0.00     0.049 A 
ATOM     42  C   UNL A   1      40.750  32.009  35.612  1.00  0.00     0.074 A 
ATOM     43  C   UNL A   1      42.295  27.716  31.210  1.00  0.00     0.029 A 
ATOM     44  N   UNL A   1      41.333  29.360  32.356  1.00  0.00    -0.354 N 
ATOM     45  N   UNL A   1      41.007  31.162  34.646  1.00  0.00    -0.248 NA
ATOM     46  C   UNL A   1      41.561  31.803  36.820  1.00  0.00     0.031 C 
ATOM     47  C   UNL A   1      42.907  27.796  32.465  1.00  0.00     0.029 A 
ATOM     48  C   UNL A   1      42.326  28.839  33.169  1.00  0.00     0.049 A 
ATOM     49  H   UNL A   1      40.741  30.110  32.598  1.00  0.00     0.167 HD
ATOM     50  C   UNL A   1      42.031  30.349  35.113  1.00  0.00     0.074 A 
ATOM     51  C   UNL A   1      42.353  30.807  36.449  1.00  0.00     0.031 C 
ATOM     52  C   UNL A   1      42.653  29.320  34.488  1.00  0.00     0.037 A 
BRANCH  39  53
ATOM     53  C   UNL A   1      40.411  28.047  28.875  1.00  0.00     0.064 A 
ATOM     54  C   UNL A   1      39.689  26.845  28.815  1.00  0.00     0.173 A 
ATOM     55  C   UNL A   1      41.150  28.424  27.743  1.00  0.00     0.173 A 
ATOM     56  F   UNL A   1      38.974  26.434  29.873  1.00  0.00    -0.203 F 
ATOM     57  C   UNL A   1      39.729  26.040  27.680  1.00  0.00     0.198 A 
ATOM     58  C   UNL A   1      41.162  27.633  26.597  1.00  0.00     0.198 A 
ATOM     59  F   UNL A   1      41.853  29.567  27.743  1.00  0.00    -0.203 F 
ATOM     60  F   UNL A   1      39.072  24.872  27.665  1.00  0.00    -0.200 F 
ATOM     61  C   UNL A   1      40.459  26.437  26.570  1.00  0.00     0.200 A 
ATOM     62  F   UNL A   1      41.856  28.025  25.520  1.00  0.00    -0.200 F 
ATOM     63  F   UNL A   1      40.489  25.665  25.474  1.00  0.00    -0.200 F 
ENDBRANCH  39  53
BRANCH  40  64
ATOM     64  C   UNL A   1      39.617  33.995  36.853  1.00  0.00     0.064 A 
ATOM     65  C   UNL A   1      38.813  33.592  37.928  1.00  0.00     0.173 A 
ATOM     66  C   UNL A   1      40.274  35.230  36.956  1.00  0.00     0.173 A 
ATOM     67  F   UNL A   1      38.147  32.429  37.868  1.00  0.00    -0.203 F 
ATOM     68  C   UNL A   1      38.656  34.401  39.052  1.00  0.00     0.198 A 
ATOM     69  C   UNL A   1      40.139  36.023  38.093  1.00  0.00     0.198 A 
ATOM     70  F   UNL A   1      41.056  35.660  35.955  1.00  0.00    -0.203 F 
ATOM     71  F   UNL A   1      37.844  34.012  40.045  1.00  0.00    -0.200 F 
ATOM     72  C   UNL A   1      39.324  35.612  39.136  1.00  0.00     0.200 A 
ATOM     73  F   UNL A   1      40.797  37.188  38.177  1.00  0.00    -0.200 F 
ATOM     74  F   UNL A   1      39.175  36.388  40.220  1.00  0.00    -0.200 F 
ENDBRANCH  40  64
BRANCH  52  75
ATOM     75  C   UNL A   1      43.785  28.649  35.209  1.00  0.00     0.064 A 
ATOM     76  C   UNL A   1      45.111  29.080  35.068  1.00  0.00     0.173 A 
ATOM     77  C   UNL A   1      43.525  27.601  36.107  1.00  0.00     0.173 A 
ATOM     78  F   UNL A   1      45.413  30.068  34.212  1.00  0.00    -0.203 F 
ATOM     79  C   UNL A   1      46.138  28.477  35.790  1.00  0.00     0.198 A 
ATOM     80  C   UNL A   1      44.550  27.021  36.848  1.00  0.00     0.198 A 
ATOM     81  F   UNL A   1      42.272  27.156  36.282  1.00  0.00    -0.203 F 
ATOM     82  F   UNL A   1      47.404  28.880  35.614  1.00  0.00    -0.200 F 
ATOM     83  C   UNL A   1      45.856  27.456  36.686  1.00  0.00     0.200 A 
ATOM     84  F   UNL A   1      44.272  26.046  37.724  1.00  0.00    -0.200 F 
ATOM     85  F   UNL A   1      46.844  26.890  37.392  1.00  0.00    -0.200 F 
ENDBRANCH  52  75
ENDBRANCH  26  27
ENDBRANCH  18  21
ENDBRANCH  16  17
ENDBRANCH  15  16
ENDBRANCH   1  15
TORSDOF 13
ENDMDL
MODEL 2
REMARK VINA RESULT:     -10.7      0.941      2.481
REMARK SMILES O=C(CSC(=S)N1CCCC1)NCCCNC(=O)c1ccc(-c2c3nc(c(-c4c(F)c(F)c(F)c(F)c4F)c4ccc([nH]4)c(-c4c(F)c(F)c(F)c(F)c4F)c4nc(c(-c5c(F)c(F)c(F)c(F)c5F)c5ccc2[nH]5)C=C4)C=C3)cc1
REMARK SMILES IDX 13 1 12 2 1 3 2 4 3 6 4 7 5 8 6 9 7 10 8 11 11 12 9 13 10 14
REMARK SMILES IDX 14 15 15 16 16 17 17 18 18 20 19 21 20 22 81 23 21 24 80 25
REMARK SMILES IDX 22 26 23 27 24 28 74 29 25 30 79 31 73 32 75 33 26 34 78 35
REMARK SMILES IDX 72 36 71 37 27 39 59 40 39 41 58 42 40 43 43 44 57 45 76 46
REMARK SMILES IDX 41 47 42 48 56 50 77 51 44 52 28 53 29 54 37 55 30 56 31 57
REMARK SMILES IDX 35 58 38 59 32 60 33 61 36 62 34 63 60 64 61 65 69 66 62 67
REMARK SMILES IDX 63 68 67 69 70 70 64 71 65 72 68 73 66 74 45 75 46 76 54 77
REMARK SMILES IDX 47 78 48 79 52 80 55 81 49 82 50 83 53 84 51 85
REMARK H PARENT 12 5 16 19 75 38 43 49
REMARK Flexibility Score: inf
ROOT
ATOM      1  C   UNL A   1      31.765  30.276  26.782  1.00  0.00     0.117 C 
ENDROOT
BRANCH   1   2
ATOM      2  N   UNL A   1      32.281  29.708  25.553  1.00  0.00    -0.355 N 
ATOM      3  O   UNL A   1      34.372  29.300  26.380  1.00  0.00    -0.274 OA
ATOM      4  C   UNL A   1      33.543  29.157  25.482  1.00  0.00     0.230 C 
ATOM      5  H   UNL A   1      31.716  29.714  24.747  1.00  0.00     0.163 HD
BRANCH   4   6
ATOM      6  C   UNL A   1      33.902  28.434  24.191  1.00  0.00     0.177 C 
BRANCH   6   7
ATOM      7  S   UNL A   1      33.467  26.679  24.131  1.00  0.00    -0.087 SA
BRANCH   7   8
ATOM      8  C   UNL A   1      32.293  26.495  22.823  1.00  0.00     0.136 C 
ATOM      9  S   UNL A   1      32.563  25.687  21.377  1.00  0.00    -0.053 S 
BRANCH   8  10
ATOM     10  N   UNL A   1      31.048  27.018  23.154  1.00  0.00    -0.358 N 
ATOM     11  C   UNL A   1      30.111  26.485  24.138  1.00  0.00     0.118 C 
ATOM     12  C   UNL A   1      30.502  28.239  22.561  1.00  0.00     0.118 C 
ATOM     13  C   UNL A   1      28.760  26.972  23.651  1.00  0.00     0.023 C 
ATOM     14  C   UNL A   1      29.071  28.350  23.080  1.00  0.00     0.023 C 
ENDBRANCH   8  10
ENDBRANCH   7   8
ENDBRANCH   6   7
ENDBRANCH   4   6
ENDBRANCH   1   2
BRANCH   1  15
ATOM     15  C   UNL A   1      31.579  31.787  26.720  1.00  0.00     0.042 C 
BRANCH  15  16
ATOM     16  C   UNL A   1      32.777  32.588  27.217  1.00  0.00     0.118 C 
BRANCH  16  17
ATOM     17  N   UNL A   1      32.443  33.957  27.594  1.00  0.00    -0.352 N 
ATOM     18  C   UNL A   1      33.010  34.787  28.531  1.00  0.00     0.251 C 
ATOM     19  H   UNL A   1      31.688  34.351  27.097  1.00  0.00     0.163 HD
ATOM     20  O   UNL A   1      32.495  35.875  28.776  1.00  0.00    -0.269 OA
BRANCH  18  21
ATOM     21  C   UNL A   1      34.220  34.369  29.271  1.00  0.00     0.039 A 
ATOM     22  C   UNL A   1      34.069  33.719  30.501  1.00  0.00     0.014 A 
ATOM     23  C   UNL A   1      35.498  34.614  28.763  1.00  0.00     0.014 A 
ATOM     24  C   UNL A   1      35.193  33.233  31.173  1.00  0.00     0.010 A 
ATOM     25  C   UNL A   1      36.610  34.067  29.398  1.00  0.00     0.010 A 
ATOM     26  C   UNL A   1      36.469  33.359  30.602  1.00  0.00    -0.014 A 
BRANCH  26  27
ATOM     27  C   UNL A   1      37.670  32.740  31.220  1.00  0.00     0.031 A 
ATOM     28  C   UNL A   1      38.339  31.567  30.563  1.00  0.00     0.074 A 
ATOM     29  C   UNL A   1      38.094  33.168  32.427  1.00  0.00     0.049 A 
ATOM     30  N   UNL A   1      39.291  30.792  31.017  1.00  0.00    -0.248 NA
ATOM     31  C   UNL A   1      37.850  31.198  29.225  1.00  0.00     0.031 C 
ATOM     32  C   UNL A   1      37.513  34.277  33.183  1.00  0.00     0.029 A 
ATOM     33  N   UNL A   1      39.100  32.703  33.240  1.00  0.00    -0.354 N 
ATOM     34  C   UNL A   1      39.499  29.833  30.035  1.00  0.00     0.074 A 
ATOM     35  C   UNL A   1      38.547  30.097  28.977  1.00  0.00     0.031 C 
ATOM     36  C   UNL A   1      38.173  34.411  34.345  1.00  0.00     0.029 A 
ATOM     37  C   UNL A   1      39.191  33.368  34.439  1.00  0.00     0.049 A 
ATOM     38  H   UNL A   1      39.697  31.962  32.988  1.00  0.00     0.167 HD
ATOM     39  C   UNL A   1      40.414  28.835  30.010  1.00  0.00     0.037 A 
ATOM     40  C   UNL A   1      39.986  33.148  35.503  1.00  0.00     0.037 A 
ATOM     41  C   UNL A   1      41.375  28.590  31.053  1.00  0.00     0.049 A 
ATOM     42  C   UNL A   1      40.977  32.016  35.461  1.00  0.00     0.074 A 
ATOM     43  C   UNL A   1      42.376  27.636  31.095  1.00  0.00     0.029 A 
ATOM     44  N   UNL A   1      41.452  29.303  32.240  1.00  0.00    -0.354 N 
ATOM     45  N   UNL A   1      41.202  31.149  34.504  1.00  0.00    -0.248 NA
ATOM     46  C   UNL A   1      41.827  31.832  36.646  1.00  0.00     0.031 C 
ATOM     47  C   UNL A   1      43.028  27.739  32.328  1.00  0.00     0.029 A 
ATOM     48  C   UNL A   1      42.471  28.796  33.030  1.00  0.00     0.049 A 
ATOM     49  H   UNL A   1      40.869  30.058  32.485  1.00  0.00     0.167 HD
ATOM     50  C   UNL A   1      42.240  30.344  34.953  1.00  0.00     0.074 A 
ATOM     51  C   UNL A   1      42.605  30.827  36.268  1.00  0.00     0.031 C 
ATOM     52  C   UNL A   1      42.840  29.302  34.329  1.00  0.00     0.037 A 
BRANCH  39  53
ATOM     53  C   UNL A   1      40.418  27.924  28.816  1.00  0.00     0.064 A 
ATOM     54  C   UNL A   1      41.168  28.217  27.667  1.00  0.00     0.173 A 
ATOM     55  C   UNL A   1      39.697  26.719  28.838  1.00  0.00     0.173 A 
ATOM     56  F   UNL A   1      41.867  29.360  27.592  1.00  0.00    -0.203 F 
ATOM     57  C   UNL A   1      41.173  27.355  26.574  1.00  0.00     0.198 A 
ATOM     58  C   UNL A   1      39.730  25.844  27.755  1.00  0.00     0.198 A 
ATOM     59  F   UNL A   1      38.969  26.385  29.914  1.00  0.00    -0.203 F 
ATOM     60  F   UNL A   1      41.857  27.682  25.468  1.00  0.00    -0.200 F 
ATOM     61  C   UNL A   1      40.461  26.166  26.621  1.00  0.00     0.200 A 
ATOM     62  F   UNL A   1      39.054  24.689  27.809  1.00  0.00    -0.200 F 
ATOM     63  F   UNL A   1      40.474  25.333  25.571  1.00  0.00    -0.200 F 
ENDBRANCH  39  53
BRANCH  40  64
ATOM     64  C   UNL A   1      39.887  34.027  36.698  1.00  0.00     0.064 A 
ATOM     65  C   UNL A   1      40.657  35.194  36.797  1.00  0.00     0.173 A 
ATOM     66  C   UNL A   1      39.030  33.718  37.765  1.00  0.00     0.173 A 
ATOM     67  F   UNL A   1      41.508  35.520  35.812  1.00  0.00    -0.203 F 
ATOM     68  C   UNL A   1      40.590  36.008  37.926  1.00  0.00     0.198 A 
ATOM     69  C   UNL A   1      38.942  34.549  38.880  1.00  0.00     0.198 A 
ATOM     70  F   UNL A   1      38.270  32.614  37.719  1.00  0.00    -0.203 F 
ATOM     71  F   UNL A   1      41.373  37.092  38.014  1.00  0.00    -0.200 F 
ATOM     72  C   UNL A   1      39.728  35.688  38.963  1.00  0.00     0.200 A 
ATOM     73  F   UNL A   1      38.098  34.244  39.876  1.00  0.00    -0.200 F 
ATOM     74  F   UNL A   1      39.661  36.474  40.048  1.00  0.00    -0.200 F 
ENDBRANCH  40  64
BRANCH  52  75
ATOM     75  C   UNL A   1      43.994  28.643  35.025  1.00  0.00     0.064 A 
ATOM     76  C   UNL A   1      43.820  27.530  35.858  1.00  0.00     0.173 A 
ATOM     77  C   UNL A   1      45.305  29.095  34.798  1.00  0.00     0.173 A 
ATOM     78  F   UNL A   1      42.587  27.068  36.118  1.00  0.00    -0.203 F 
ATOM     79  C   UNL A   1      44.913  26.901  36.449  1.00  0.00     0.198 A 
ATOM     80  C   UNL A   1      46.396  28.447  35.366  1.00  0.00     0.198 A 
ATOM     81  F   UNL A   1      45.526  30.154  34.004  1.00  0.00    -0.203 F 
ATOM     82  F   UNL A   1      44.720  25.860  37.271  1.00  0.00    -0.200 F 
ATOM     83  C   UNL A   1      46.199  27.353  36.195  1.00  0.00     0.200 A 
ATOM     84  F   UNL A   1      47.639  28.876  35.107  1.00  0.00    -0.200 F 
ATOM     85  F   UNL A   1      47.250  26.735  36.752  1.00  0.00    -0.200 F 
ENDBRANCH  52  75
ENDBRANCH  26  27
ENDBRANCH  18  21
ENDBRANCH  16  17
ENDBRANCH  15  16
ENDBRANCH   1  15
TORSDOF 13
ENDMDL
MODEL 3
REMARK VINA RESULT:     -10.6      3.793      9.903
REMARK SMILES O=C(CSC(=S)N1CCCC1)NCCCNC(=O)c1ccc(-c2c3nc(c(-c4c(F)c(F)c(F)c(F)c4F)c4ccc([nH]4)c(-c4c(F)c(F)c(F)c(F)c4F)c4nc(c(-c5c(F)c(F)c(F)c(F)c5F)c5ccc2[nH]5)C=C4)C=C3)cc1
REMARK SMILES IDX 13 1 12 2 1 3 2 4 3 6 4 7 5 8 6 9 7 10 8 11 11 12 9 13 10 14
REMARK SMILES IDX 14 15 15 16 16 17 17 18 18 20 19 21 20 22 81 23 21 24 80 25
REMARK SMILES IDX 22 26 23 27 24 28 74 29 25 30 79 31 73 32 75 33 26 34 78 35
REMARK SMILES IDX 72 36 71 37 27 39 59 40 39 41 58 42 40 43 43 44 57 45 76 46
REMARK SMILES IDX 41 47 42 48 56 50 77 51 44 52 28 53 29 54 37 55 30 56 31 57
REMARK SMILES IDX 35 58 38 59 32 60 33 61 36 62 34 63 60 64 61 65 69 66 62 67
REMARK SMILES IDX 63 68 67 69 70 70 64 71 65 72 68 73 66 74 45 75 46 76 54 77
REMARK SMILES IDX 47 78 48 79 52 80 55 81 49 82 50 83 53 84 51 85
REMARK H PARENT 12 5 16 19 75 38 43 49
REMARK Flexibility Score: inf
ROOT
ATOM      1  C   UNL A   1      33.590  35.059  29.325  1.00  0.00     0.117 C 
ENDROOT
BRANCH   1   2
ATOM      2  N   UNL A   1      34.242  35.277  30.601  1.00  0.00    -0.355 N 
ATOM      3  O   UNL A   1      32.304  35.347  31.810  1.00  0.00    -0.274 OA
ATOM      4  C   UNL A   1      33.533  35.300  31.783  1.00  0.00     0.230 C 
ATOM      5  H   UNL A   1      35.216  35.412  30.624  1.00  0.00     0.163 HD
BRANCH   4   6
ATOM      6  C   UNL A   1      34.348  35.357  33.067  1.00  0.00     0.177 C 
BRANCH   6   7
ATOM      7  S   UNL A   1      36.093  34.912  32.907  1.00  0.00    -0.087 SA
BRANCH   7   8
ATOM      8  C   UNL A   1      36.189  33.160  33.114  1.00  0.00     0.136 C 
ATOM      9  S   UNL A   1      35.538  32.017  32.072  1.00  0.00    -0.053 S 
BRANCH   8  10
ATOM     10  N   UNL A   1      36.964  32.800  34.212  1.00  0.00    -0.358 N 
ATOM     11  C   UNL A   1      37.102  33.540  35.463  1.00  0.00     0.118 C 
ATOM     12  C   UNL A   1      37.749  31.567  34.277  1.00  0.00     0.118 C 
ATOM     13  C   UNL A   1      38.462  33.120  35.982  1.00  0.00     0.023 C 
ATOM     14  C   UNL A   1      38.557  31.657  35.568  1.00  0.00     0.023 C 
ENDBRANCH   8  10
ENDBRANCH   7   8
ENDBRANCH   6   7
ENDBRANCH   4   6
ENDBRANCH   1   2
BRANCH   1  15
ATOM     15  C   UNL A   1      34.548  34.633  28.219  1.00  0.00     0.042 C 
BRANCH  15  16
ATOM     16  C   UNL A   1      35.096  33.218  28.373  1.00  0.00     0.118 C 
BRANCH  16  17
ATOM     17  N   UNL A   1      34.203  32.191  27.848  1.00  0.00    -0.352 N 
ATOM     18  C   UNL A   1      34.409  30.846  27.656  1.00  0.00     0.251 C 
ATOM     19  H   UNL A   1      33.309  32.513  27.588  1.00  0.00     0.163 HD
ATOM     20  O   UNL A   1      33.556  30.173  27.085  1.00  0.00    -0.269 OA
BRANCH  18  21
ATOM     21  C   UNL A   1      35.664  30.206  28.106  1.00  0.00     0.039 A 
ATOM     22  C   UNL A   1      36.760  30.184  27.237  1.00  0.00     0.014 A 
ATOM     23  C   UNL A   1      35.765  29.627  29.373  1.00  0.00     0.014 A 
ATOM     24  C   UNL A   1      37.983  29.667  27.673  1.00  0.00     0.010 A 
ATOM     25  C   UNL A   1      37.001  29.179  29.831  1.00  0.00     0.010 A 
ATOM     26  C   UNL A   1      38.126  29.207  28.992  1.00  0.00    -0.014 A 
BRANCH  26  27
ATOM     27  C   UNL A   1      39.441  28.774  29.533  1.00  0.00     0.031 A 
ATOM     28  C   UNL A   1      40.193  29.657  30.488  1.00  0.00     0.074 A 
ATOM     29  C   UNL A   1      40.007  27.636  29.081  1.00  0.00     0.049 A 
ATOM     30  N   UNL A   1      41.414  29.536  30.945  1.00  0.00    -0.248 NA
ATOM     31  C   UNL A   1      39.484  30.852  30.973  1.00  0.00     0.031 C 
ATOM     32  C   UNL A   1      39.395  26.707  28.131  1.00  0.00     0.029 A 
ATOM     33  N   UNL A   1      41.235  27.080  29.344  1.00  0.00    -0.354 N 
ATOM     34  C   UNL A   1      41.627  30.647  31.750  1.00  0.00     0.074 A 
ATOM     35  C   UNL A   1      40.426  31.453  31.687  1.00  0.00     0.031 C 
ATOM     36  C   UNL A   1      40.246  25.695  27.895  1.00  0.00     0.029 A 
ATOM     37  C   UNL A   1      41.482  25.928  28.637  1.00  0.00     0.049 A 
ATOM     38  H   UNL A   1      41.879  27.471  29.979  1.00  0.00     0.167 HD
ATOM     39  C   UNL A   1      42.719  30.958  32.488  1.00  0.00     0.037 A 
ATOM     40  C   UNL A   1      42.585  25.159  28.574  1.00  0.00     0.037 A 
ATOM     41  C   UNL A   1      43.903  30.142  32.566  1.00  0.00     0.049 A 
ATOM     42  C   UNL A   1      43.796  25.540  29.384  1.00  0.00     0.074 A 
ATOM     43  C   UNL A   1      45.040  30.346  33.327  1.00  0.00     0.029 A 
ATOM     44  N   UNL A   1      44.103  28.969  31.855  1.00  0.00    -0.354 N 
ATOM     45  N   UNL A   1      43.967  26.564  30.184  1.00  0.00    -0.248 NA
ATOM     46  C   UNL A   1      44.966  24.657  29.285  1.00  0.00     0.031 C 
ATOM     47  C   UNL A   1      45.949  29.322  33.040  1.00  0.00     0.029 A 
ATOM     48  C   UNL A   1      45.353  28.449  32.144  1.00  0.00     0.049 A 
ATOM     49  H   UNL A   1      43.452  28.565  31.236  1.00  0.00     0.167 HD
ATOM     50  C   UNL A   1      45.244  26.428  30.711  1.00  0.00     0.074 A 
ATOM     51  C   UNL A   1      45.805  25.220  30.143  1.00  0.00     0.031 C 
ATOM     52  C   UNL A   1      45.891  27.231  31.590  1.00  0.00     0.037 A 
BRANCH  39  53
ATOM     53  C   UNL A   1      42.690  32.239  33.270  1.00  0.00     0.064 A 
ATOM     54  C   UNL A   1      42.257  32.280  34.604  1.00  0.00     0.173 A 
ATOM     55  C   UNL A   1      43.142  33.436  32.692  1.00  0.00     0.173 A 
ATOM     56  F   UNL A   1      41.807  31.166  35.201  1.00  0.00    -0.203 F 
ATOM     57  C   UNL A   1      42.250  33.474  35.320  1.00  0.00     0.198 A 
ATOM     58  C   UNL A   1      43.164  34.622  33.421  1.00  0.00     0.198 A 
ATOM     59  F   UNL A   1      43.575  33.454  31.422  1.00  0.00    -0.203 F 
ATOM     60  F   UNL A   1      41.784  33.496  36.577  1.00  0.00    -0.200 F 
ATOM     61  C   UNL A   1      42.710  34.642  34.731  1.00  0.00     0.200 A 
ATOM     62  F   UNL A   1      43.623  35.747  32.855  1.00  0.00    -0.200 F 
ATOM     63  F   UNL A   1      42.710  35.789  35.425  1.00  0.00    -0.200 F 
ENDBRANCH  39  53
BRANCH  40  64
ATOM     64  C   UNL A   1      42.595  23.943  27.718  1.00  0.00     0.064 A 
ATOM     65  C   UNL A   1      42.257  22.690  28.248  1.00  0.00     0.173 A 
ATOM     66  C   UNL A   1      42.948  24.004  26.363  1.00  0.00     0.173 A 
ATOM     67  F   UNL A   1      41.933  22.577  29.545  1.00  0.00    -0.203 F 
ATOM     68  C   UNL A   1      42.290  21.542  27.460  1.00  0.00     0.198 A 
ATOM     69  C   UNL A   1      42.953  22.860  25.568  1.00  0.00     0.198 A 
ATOM     70  F   UNL A   1      43.279  25.179  25.807  1.00  0.00    -0.203 F 
ATOM     71  F   UNL A   1      42.007  20.351  28.004  1.00  0.00    -0.200 F 
ATOM     72  C   UNL A   1      42.632  21.629  26.119  1.00  0.00     0.200 A 
ATOM     73  F   UNL A   1      43.271  22.949  24.269  1.00  0.00    -0.200 F 
ATOM     74  F   UNL A   1      42.660  20.524  25.360  1.00  0.00    -0.200 F 
ENDBRANCH  40  64
BRANCH  52  75
ATOM     75  C   UNL A   1      47.256  26.807  32.046  1.00  0.00     0.064 A 
ATOM     76  C   UNL A   1      47.437  25.891  33.091  1.00  0.00     0.173 A 
ATOM     77  C   UNL A   1      48.399  27.276  31.377  1.00  0.00     0.173 A 
ATOM     78  F   UNL A   1      46.379  25.425  33.771  1.00  0.00    -0.203 F 
ATOM     79  C   UNL A   1      48.713  25.470  33.459  1.00  0.00     0.198 A 
ATOM     80  C   UNL A   1      49.669  26.831  31.729  1.00  0.00     0.198 A 
ATOM     81  F   UNL A   1      48.279  28.149  30.366  1.00  0.00    -0.203 F 
ATOM     82  F   UNL A   1      48.866  24.621  34.485  1.00  0.00    -0.200 F 
ATOM     83  C   UNL A   1      49.825  25.932  32.772  1.00  0.00     0.200 A 
ATOM     84  F   UNL A   1      50.741  27.266  31.053  1.00  0.00    -0.200 F 
ATOM     85  F   UNL A   1      51.050  25.511  33.118  1.00  0.00    -0.200 F 
ENDBRANCH  52  75
ENDBRANCH  26  27
ENDBRANCH  18  21
ENDBRANCH  16  17
ENDBRANCH  15  16
ENDBRANCH   1  15
TORSDOF 13
ENDMDL
