MODEL 1
REMARK VINA RESULT:     -12.7      0.000      0.000
REMARK SMILES O=C(NCCCNC(=O)c1cnccc1-c1cccc(C(F)(F)F)c1)c1ccc(-c2c3nc(c(-c4c(F)c(F)c(F)c(F)c4F)c4ccc([nH]4)c(-c4c(F)c(F)c(F)c(F)c4F)c4nc(c(-c5c(F)c(F)c(F)c(F)c5F)c5ccc2[nH]5)C=C4)C=C3)cc1
REMARK SMILES IDX 5 1 4 2 3 3 1 4 2 5 26 7 27 8 88 9 28 10 87 11 29 12 30 13
REMARK SMILES IDX 31 14 81 15 32 16 86 17 80 18 82 19 33 20 85 21 79 22 78 23
REMARK SMILES IDX 34 25 66 26 46 27 65 28 47 29 50 30 64 31 83 32 48 33 49 34
REMARK SMILES IDX 63 36 84 37 51 38 35 39 36 40 44 41 37 42 38 43 42 44 45 45
REMARK SMILES IDX 39 46 40 47 43 48 41 49 67 50 68 51 76 52 69 53 70 54 74 55
REMARK SMILES IDX 77 56 71 57 72 58 75 59 73 60 52 61 53 62 61 63 54 64 55 65
REMARK SMILES IDX 59 66 62 67 56 68 57 69 60 70 58 71 6 72 7 73 8 74 9 76
REMARK SMILES IDX 10 77 11 78 15 79 12 80 14 81 13 82 16 83 17 84 25 85 18 86
REMARK SMILES IDX 20 87 19 88 21 89 22 90 23 91 24 92
REMARK H PARENT 3 6 82 24 50 35 7 75
REMARK Flexibility Score: inf
ROOT
ATOM      1  C   UNL A   1      31.505  31.696  26.546  1.00  0.00     0.042 C 
ENDROOT
BRANCH   1   2
ATOM      2  C   UNL A   1      32.765  32.453  26.937  1.00  0.00     0.118 C 
BRANCH   2   3
ATOM      3  N   UNL A   1      32.503  33.795  27.446  1.00  0.00    -0.352 N 
ATOM      4  O   UNL A   1      32.580  35.561  28.845  1.00  0.00    -0.269 OA
ATOM      5  C   UNL A   1      33.071  34.493  28.485  1.00  0.00     0.251 C 
ATOM      6  H   UNL A   1      31.799  34.284  26.962  1.00  0.00     0.163 HD
BRANCH   5   7
ATOM      7  C   UNL A   1      34.247  33.951  29.201  1.00  0.00     0.039 A 
ATOM      8  C   UNL A   1      35.525  34.444  28.951  1.00  0.00     0.014 A 
ATOM      9  C   UNL A   1      34.069  32.935  30.146  1.00  0.00     0.014 A 
ATOM     10  C   UNL A   1      36.632  33.784  29.463  1.00  0.00     0.010 A 
ATOM     11  C   UNL A   1      35.182  32.360  30.769  1.00  0.00     0.010 A 
ATOM     12  C   UNL A   1      36.477  32.749  30.397  1.00  0.00    -0.014 A 
BRANCH  12  13
ATOM     13  C   UNL A   1      37.690  32.145  31.003  1.00  0.00     0.031 A 
ATOM     14  C   UNL A   1      38.137  32.507  32.391  1.00  0.00     0.074 A 
ATOM     15  C   UNL A   1      38.365  31.216  30.295  1.00  0.00     0.049 A 
ATOM     16  N   UNL A   1      39.160  32.053  33.072  1.00  0.00    -0.248 NA
ATOM     17  C   UNL A   1      37.344  33.517  33.108  1.00  0.00     0.031 C 
ATOM     18  C   UNL A   1      38.031  30.795  28.932  1.00  0.00     0.029 A 
ATOM     19  N   UNL A   1      39.445  30.439  30.627  1.00  0.00    -0.354 N 
ATOM     20  C   UNL A   1      39.151  32.740  34.279  1.00  0.00     0.074 A 
ATOM     21  C   UNL A   1      38.032  33.656  34.234  1.00  0.00     0.031 C 
ATOM     22  C   UNL A   1      38.845  29.795  28.568  1.00  0.00     0.029 A 
ATOM     23  C   UNL A   1      39.807  29.558  29.638  1.00  0.00     0.049 A 
ATOM     24  H   UNL A   1      39.914  30.507  31.488  1.00  0.00     0.167 HD
ATOM     25  C   UNL A   1      40.000  32.611  35.328  1.00  0.00     0.037 A 
ATOM     26  C   UNL A   1      40.815  28.670  29.585  1.00  0.00     0.037 A 
ATOM     27  C   UNL A   1      41.093  31.673  35.376  1.00  0.00     0.049 A 
ATOM     28  C   UNL A   1      41.736  28.549  30.761  1.00  0.00     0.074 A 
ATOM     29  C   UNL A   1      41.982  31.436  36.411  1.00  0.00     0.029 A 
ATOM     30  N   UNL A   1      41.447  30.818  34.342  1.00  0.00    -0.354 N 
ATOM     31  N   UNL A   1      41.703  29.189  31.904  1.00  0.00    -0.248 NA
ATOM     32  C   UNL A   1      42.842  27.591  30.637  1.00  0.00     0.031 C 
ATOM     33  C   UNL A   1      42.899  30.468  35.987  1.00  0.00     0.029 A 
ATOM     34  C   UNL A   1      42.555  30.068  34.705  1.00  0.00     0.049 A 
ATOM     35  H   UNL A   1      40.980  30.753  33.478  1.00  0.00     0.167 HD
ATOM     36  C   UNL A   1      42.776  28.711  32.638  1.00  0.00     0.074 A 
ATOM     37  C   UNL A   1      43.426  27.705  31.822  1.00  0.00     0.031 C 
ATOM     38  C   UNL A   1      43.191  29.077  33.875  1.00  0.00     0.037 A 
BRANCH  25  39
ATOM     39  C   UNL A   1      39.796  33.518  36.507  1.00  0.00     0.064 A 
ATOM     40  C   UNL A   1      40.416  34.774  36.592  1.00  0.00     0.173 A 
ATOM     41  C   UNL A   1      38.929  33.144  37.546  1.00  0.00     0.173 A 
ATOM     42  F   UNL A   1      41.262  35.174  35.631  1.00  0.00    -0.203 F 
ATOM     43  C   UNL A   1      40.191  35.611  37.682  1.00  0.00     0.198 A 
ATOM     44  C   UNL A   1      38.687  33.995  38.622  1.00  0.00     0.198 A 
ATOM     45  F   UNL A   1      38.307  31.956  37.512  1.00  0.00    -0.203 F 
ATOM     46  F   UNL A   1      40.825  36.790  37.760  1.00  0.00    -0.200 F 
ATOM     47  C   UNL A   1      39.323  35.225  38.692  1.00  0.00     0.200 A 
ATOM     48  F   UNL A   1      37.839  33.624  39.590  1.00  0.00    -0.200 F 
ATOM     49  F   UNL A   1      39.103  36.035  39.736  1.00  0.00    -0.200 F 
ENDBRANCH  25  39
BRANCH  26  50
ATOM     50  C   UNL A   1      41.000  27.845  28.364  1.00  0.00     0.064 A 
ATOM     51  C   UNL A   1      41.793  28.293  27.300  1.00  0.00     0.173 A 
ATOM     52  C   UNL A   1      40.416  26.573  28.255  1.00  0.00     0.173 A 
ATOM     53  F   UNL A   1      42.358  29.509  27.352  1.00  0.00    -0.203 F 
ATOM     54  C   UNL A   1      41.990  27.504  26.169  1.00  0.00     0.198 A 
ATOM     55  C   UNL A   1      40.639  25.772  27.138  1.00  0.00     0.198 A 
ATOM     56  F   UNL A   1      39.656  26.096  29.251  1.00  0.00    -0.203 F 
ATOM     57  F   UNL A   1      42.726  27.969  25.151  1.00  0.00    -0.200 F 
ATOM     58  C   UNL A   1      41.420  26.241  26.093  1.00  0.00     0.200 A 
ATOM     59  F   UNL A   1      40.103  24.546  27.078  1.00  0.00    -0.200 F 
ATOM     60  F   UNL A   1      41.623  25.476  25.012  1.00  0.00    -0.200 F 
ENDBRANCH  26  50
BRANCH  38  61
ATOM     61  C   UNL A   1      44.399  28.375  34.419  1.00  0.00     0.064 A 
ATOM     62  C   UNL A   1      45.688  28.899  34.247  1.00  0.00     0.173 A 
ATOM     63  C   UNL A   1      44.262  27.177  35.135  1.00  0.00     0.173 A 
ATOM     64  F   UNL A   1      45.869  30.033  33.553  1.00  0.00    -0.203 F 
ATOM     65  C   UNL A   1      46.802  28.235  34.753  1.00  0.00     0.198 A 
ATOM     66  C   UNL A   1      45.376  26.529  35.662  1.00  0.00     0.198 A 
ATOM     67  F   UNL A   1      43.049  26.638  35.328  1.00  0.00    -0.203 F 
ATOM     68  F   UNL A   1      48.029  28.728  34.537  1.00  0.00    -0.200 F 
ATOM     69  C   UNL A   1      46.643  27.055  35.465  1.00  0.00     0.200 A 
ATOM     70  F   UNL A   1      45.222  25.394  36.357  1.00  0.00    -0.200 F 
ATOM     71  F   UNL A   1      47.717  26.417  35.953  1.00  0.00    -0.200 F 
ENDBRANCH  38  61
ENDBRANCH  12  13
ENDBRANCH   5   7
ENDBRANCH   2   3
ENDBRANCH   1   2
BRANCH   1  72
ATOM     72  C   UNL A   1      31.782  30.405  25.801  1.00  0.00     0.118 C 
BRANCH  72  73
ATOM     73  N   UNL A   1      31.324  29.225  26.511  1.00  0.00    -0.352 N 
ATOM     74  C   UNL A   1      31.410  27.907  26.147  1.00  0.00     0.253 C 
ATOM     75  H   UNL A   1      30.890  29.395  27.378  1.00  0.00     0.163 HD
ATOM     76  O   UNL A   1      30.952  27.041  26.887  1.00  0.00    -0.269 OA
BRANCH  74  77
ATOM     77  C   UNL A   1      32.004  27.511  24.859  1.00  0.00     0.065 A 
ATOM     78  C   UNL A   1      33.315  27.047  24.924  1.00  0.00     0.125 A 
ATOM     79  C   UNL A   1      31.363  27.593  23.608  1.00  0.00    -0.003 A 
ATOM     80  N   UNL A   1      34.015  26.611  23.853  1.00  0.00    -0.264 NA
ATOM     81  C   UNL A   1      32.095  27.149  22.493  1.00  0.00     0.029 A 
ATOM     82  C   UNL A   1      33.388  26.674  22.662  1.00  0.00     0.111 A 
BRANCH  79  83
ATOM     83  C   UNL A   1      29.980  28.082  23.427  1.00  0.00    -0.017 A 
ATOM     84  C   UNL A   1      28.892  27.194  23.540  1.00  0.00     0.009 A 
ATOM     85  C   UNL A   1      29.698  29.445  23.228  1.00  0.00     0.021 A 
ATOM     86  C   UNL A   1      27.576  27.655  23.516  1.00  0.00     0.001 A 
ATOM     87  C   UNL A   1      28.375  29.923  23.204  1.00  0.00     0.056 A 
ATOM     88  C   UNL A   1      27.319  29.014  23.360  1.00  0.00     0.013 A 
BRANCH  87  89
ATOM     89  C   UNL A   1      28.079  31.396  23.055  1.00  0.00     0.416 C 
ATOM     90  F   UNL A   1      27.009  31.790  23.800  1.00  0.00    -0.166 F 
ATOM     91  F   UNL A   1      29.124  32.173  23.458  1.00  0.00    -0.166 F 
ATOM     92  F   UNL A   1      27.806  31.774  21.776  1.00  0.00    -0.166 F 
ENDBRANCH  87  89
ENDBRANCH  79  83
ENDBRANCH  74  77
ENDBRANCH  72  73
ENDBRANCH   1  72
TORSDOF 12
ENDMDL
MODEL 2
REMARK VINA RESULT:     -12.6      6.143     11.447
REMARK SMILES O=C(NCCCNC(=O)c1cnccc1-c1cccc(C(F)(F)F)c1)c1ccc(-c2c3nc(c(-c4c(F)c(F)c(F)c(F)c4F)c4ccc([nH]4)c(-c4c(F)c(F)c(F)c(F)c4F)c4nc(c(-c5c(F)c(F)c(F)c(F)c5F)c5ccc2[nH]5)C=C4)C=C3)cc1
REMARK SMILES IDX 5 1 4 2 3 3 1 4 2 5 26 7 27 8 88 9 28 10 87 11 29 12 30 13
REMARK SMILES IDX 31 14 81 15 32 16 86 17 80 18 82 19 33 20 85 21 79 22 78 23
REMARK SMILES IDX 34 25 66 26 46 27 65 28 47 29 50 30 64 31 83 32 48 33 49 34
REMARK SMILES IDX 63 36 84 37 51 38 35 39 36 40 44 41 37 42 38 43 42 44 45 45
REMARK SMILES IDX 39 46 40 47 43 48 41 49 67 50 68 51 76 52 69 53 70 54 74 55
REMARK SMILES IDX 77 56 71 57 72 58 75 59 73 60 52 61 53 62 61 63 54 64 55 65
REMARK SMILES IDX 59 66 62 67 56 68 57 69 60 70 58 71 6 72 7 73 8 74 9 76
REMARK SMILES IDX 10 77 11 78 15 79 12 80 14 81 13 82 16 83 17 84 25 85 18 86
REMARK SMILES IDX 20 87 19 88 21 89 22 90 23 91 24 92
REMARK H PARENT 3 6 82 24 50 35 7 75
REMARK Flexibility Score: inf
ROOT
ATOM      1  C   UNL A   1      37.774  19.805  25.003  1.00  0.00     0.042 C 
ENDROOT
BRANCH   1   2
ATOM      2  C   UNL A   1      39.002  20.342  25.721  1.00  0.00     0.118 C 
BRANCH   2   3
ATOM      3  N   UNL A   1      40.060  19.350  25.883  1.00  0.00    -0.352 N 
ATOM      4  O   UNL A   1      42.148  18.520  26.064  1.00  0.00    -0.269 OA
ATOM      5  C   UNL A   1      41.405  19.497  26.126  1.00  0.00     0.251 C 
ATOM      6  H   UNL A   1      39.759  18.416  25.805  1.00  0.00     0.163 HD
BRANCH   5   7
ATOM      7  C   UNL A   1      41.974  20.829  26.424  1.00  0.00     0.039 A 
ATOM      8  C   UNL A   1      42.251  21.211  27.735  1.00  0.00     0.014 A 
ATOM      9  C   UNL A   1      42.243  21.714  25.375  1.00  0.00     0.014 A 
ATOM     10  C   UNL A   1      42.575  22.530  28.017  1.00  0.00     0.010 A 
ATOM     11  C   UNL A   1      42.705  23.005  25.651  1.00  0.00     0.010 A 
ATOM     12  C   UNL A   1      42.830  23.439  26.979  1.00  0.00    -0.014 A 
BRANCH  12  13
ATOM     13  C   UNL A   1      43.282  24.810  27.325  1.00  0.00     0.031 A 
ATOM     14  C   UNL A   1      44.673  25.280  27.008  1.00  0.00     0.074 A 
ATOM     15  C   UNL A   1      42.395  25.653  27.892  1.00  0.00     0.049 A 
ATOM     16  N   UNL A   1      45.216  26.453  27.223  1.00  0.00    -0.248 NA
ATOM     17  C   UNL A   1      45.581  24.310  26.376  1.00  0.00     0.031 C 
ATOM     18  C   UNL A   1      41.021  25.302  28.258  1.00  0.00     0.029 A 
ATOM     19  N   UNL A   1      42.500  26.977  28.230  1.00  0.00    -0.354 N 
ATOM     20  C   UNL A   1      46.530  26.353  26.785  1.00  0.00     0.074 A 
ATOM     21  C   UNL A   1      46.712  25.000  26.306  1.00  0.00     0.031 C 
ATOM     22  C   UNL A   1      40.392  26.395  28.710  1.00  0.00     0.029 A 
ATOM     23  C   UNL A   1      41.339  27.503  28.739  1.00  0.00     0.049 A 
ATOM     24  H   UNL A   1      43.326  27.499  28.121  1.00  0.00     0.167 HD
ATOM     25  C   UNL A   1      47.491  27.309  26.781  1.00  0.00     0.037 A 
ATOM     26  C   UNL A   1      41.066  28.737  29.201  1.00  0.00     0.037 A 
ATOM     27  C   UNL A   1      47.292  28.663  27.231  1.00  0.00     0.049 A 
ATOM     28  C   UNL A   1      42.149  29.773  29.183  1.00  0.00     0.074 A 
ATOM     29  C   UNL A   1      48.190  29.716  27.226  1.00  0.00     0.029 A 
ATOM     30  N   UNL A   1      46.109  29.151  27.769  1.00  0.00    -0.354 N 
ATOM     31  N   UNL A   1      43.381  29.670  28.745  1.00  0.00    -0.248 NA
ATOM     32  C   UNL A   1      41.811  31.091  29.731  1.00  0.00     0.031 C 
ATOM     33  C   UNL A   1      47.564  30.829  27.800  1.00  0.00     0.029 A 
ATOM     34  C   UNL A   1      46.261  30.483  28.120  1.00  0.00     0.049 A 
ATOM     35  H   UNL A   1      45.283  28.627  27.884  1.00  0.00     0.167 HD
ATOM     36  C   UNL A   1      43.964  30.909  28.960  1.00  0.00     0.074 A 
ATOM     37  C   UNL A   1      42.942  31.756  29.541  1.00  0.00     0.031 C 
ATOM     38  C   UNL A   1      45.234  31.306  28.705  1.00  0.00     0.037 A 
BRANCH  25  39
ATOM     39  C   UNL A   1      48.858  26.923  26.292  1.00  0.00     0.064 A 
ATOM     40  C   UNL A   1      49.837  26.411  27.157  1.00  0.00     0.173 A 
ATOM     41  C   UNL A   1      49.175  27.021  24.929  1.00  0.00     0.173 A 
ATOM     42  F   UNL A   1      49.589  26.308  28.471  1.00  0.00    -0.203 F 
ATOM     43  C   UNL A   1      51.090  26.034  26.678  1.00  0.00     0.198 A 
ATOM     44  C   UNL A   1      50.419  26.618  24.449  1.00  0.00     0.198 A 
ATOM     45  F   UNL A   1      48.274  27.498  24.057  1.00  0.00    -0.203 F 
ATOM     46  F   UNL A   1      52.022  25.585  27.529  1.00  0.00    -0.200 F 
ATOM     47  C   UNL A   1      51.377  26.131  25.325  1.00  0.00     0.200 A 
ATOM     48  F   UNL A   1      50.691  26.702  23.139  1.00  0.00    -0.200 F 
ATOM     49  F   UNL A   1      52.580  25.760  24.865  1.00  0.00    -0.200 F 
ENDBRANCH  25  39
BRANCH  26  50
ATOM     50  C   UNL A   1      39.711  29.038  29.729  1.00  0.00     0.064 A 
ATOM     51  C   UNL A   1      38.693  29.501  28.886  1.00  0.00     0.173 A 
ATOM     52  C   UNL A   1      39.398  28.831  31.081  1.00  0.00     0.173 A 
ATOM     53  F   UNL A   1      38.949  29.730  27.589  1.00  0.00    -0.203 F 
ATOM     54  C   UNL A   1      37.414  29.753  29.378  1.00  0.00     0.198 A 
ATOM     55  C   UNL A   1      38.112  29.053  31.565  1.00  0.00     0.198 A 
ATOM     56  F   UNL A   1      40.337  28.379  31.925  1.00  0.00    -0.203 F 
ATOM     57  F   UNL A   1      36.465  30.228  28.558  1.00  0.00    -0.200 F 
ATOM     58  C   UNL A   1      37.123  29.521  30.714  1.00  0.00     0.200 A 
ATOM     59  F   UNL A   1      37.831  28.808  32.851  1.00  0.00    -0.200 F 
ATOM     60  F   UNL A   1      35.888  29.749  31.183  1.00  0.00    -0.200 F 
ENDBRANCH  26  50
BRANCH  38  61
ATOM     61  C   UNL A   1      45.580  32.724  29.047  1.00  0.00     0.064 A 
ATOM     62  C   UNL A   1      46.129  33.063  30.291  1.00  0.00     0.173 A 
ATOM     63  C   UNL A   1      45.378  33.750  28.112  1.00  0.00     0.173 A 
ATOM     64  F   UNL A   1      46.322  32.118  31.224  1.00  0.00    -0.203 F 
ATOM     65  C   UNL A   1      46.441  34.385  30.598  1.00  0.00     0.198 A 
ATOM     66  C   UNL A   1      45.716  35.066  28.412  1.00  0.00     0.198 A 
ATOM     67  F   UNL A   1      44.858  33.475  26.906  1.00  0.00    -0.203 F 
ATOM     68  F   UNL A   1      46.921  34.694  31.811  1.00  0.00    -0.200 F 
ATOM     69  C   UNL A   1      46.241  35.383  29.656  1.00  0.00     0.200 A 
ATOM     70  F   UNL A   1      45.531  36.029  27.499  1.00  0.00    -0.200 F 
ATOM     71  F   UNL A   1      46.544  36.655  29.952  1.00  0.00    -0.200 F 
ENDBRANCH  38  61
ENDBRANCH  12  13
ENDBRANCH   5   7
ENDBRANCH   2   3
ENDBRANCH   1   2
BRANCH   1  72
ATOM     72  C   UNL A   1      36.543  20.672  25.182  1.00  0.00     0.118 C 
BRANCH  72  73
ATOM     73  N   UNL A   1      36.283  21.540  24.048  1.00  0.00    -0.352 N 
ATOM     74  C   UNL A   1      35.251  22.417  23.847  1.00  0.00     0.253 C 
ATOM     75  H   UNL A   1      36.943  21.491  23.318  1.00  0.00     0.163 HD
ATOM     76  O   UNL A   1      35.199  23.066  22.806  1.00  0.00    -0.269 OA
BRANCH  74  77
ATOM     77  C   UNL A   1      34.175  22.566  24.840  1.00  0.00     0.065 A 
ATOM     78  C   UNL A   1      34.315  23.640  25.716  1.00  0.00     0.125 A 
ATOM     79  C   UNL A   1      33.066  21.709  24.974  1.00  0.00    -0.003 A 
ATOM     80  N   UNL A   1      33.415  23.954  26.674  1.00  0.00    -0.264 NA
ATOM     81  C   UNL A   1      32.136  22.030  25.977  1.00  0.00     0.029 A 
ATOM     82  C   UNL A   1      32.346  23.141  26.783  1.00  0.00     0.111 A 
BRANCH  79  83
ATOM     83  C   UNL A   1      32.830  20.535  24.106  1.00  0.00    -0.017 A 
ATOM     84  C   UNL A   1      32.157  20.686  22.877  1.00  0.00     0.009 A 
ATOM     85  C   UNL A   1      33.337  19.264  24.427  1.00  0.00     0.021 A 
ATOM     86  C   UNL A   1      32.049  19.624  21.978  1.00  0.00     0.001 A 
ATOM     87  C   UNL A   1      33.235  18.187  23.529  1.00  0.00     0.056 A 
ATOM     88  C   UNL A   1      32.594  18.384  22.297  1.00  0.00     0.013 A 
BRANCH  87  89
ATOM     89  C   UNL A   1      33.839  16.841  23.850  1.00  0.00     0.416 C 
ATOM     90  F   UNL A   1      34.816  16.920  24.795  1.00  0.00    -0.166 F 
ATOM     91  F   UNL A   1      32.914  15.968  24.339  1.00  0.00    -0.166 F 
ATOM     92  F   UNL A   1      34.403  16.223  22.777  1.00  0.00    -0.166 F 
ENDBRANCH  87  89
ENDBRANCH  79  83
ENDBRANCH  74  77
ENDBRANCH  72  73
ENDBRANCH   1  72
TORSDOF 12
ENDMDL
MODEL 3
REMARK VINA RESULT:     -12.6      1.351      2.024
REMARK SMILES O=C(NCCCNC(=O)c1cnccc1-c1cccc(C(F)(F)F)c1)c1ccc(-c2c3nc(c(-c4c(F)c(F)c(F)c(F)c4F)c4ccc([nH]4)c(-c4c(F)c(F)c(F)c(F)c4F)c4nc(c(-c5c(F)c(F)c(F)c(F)c5F)c5ccc2[nH]5)C=C4)C=C3)cc1
REMARK SMILES IDX 5 1 4 2 3 3 1 4 2 5 26 7 27 8 88 9 28 10 87 11 29 12 30 13
REMARK SMILES IDX 31 14 81 15 32 16 86 17 80 18 82 19 33 20 85 21 79 22 78 23
REMARK SMILES IDX 34 25 66 26 46 27 65 28 47 29 50 30 64 31 83 32 48 33 49 34
REMARK SMILES IDX 63 36 84 37 51 38 35 39 36 40 44 41 37 42 38 43 42 44 45 45
REMARK SMILES IDX 39 46 40 47 43 48 41 49 67 50 68 51 76 52 69 53 70 54 74 55
REMARK SMILES IDX 77 56 71 57 72 58 75 59 73 60 52 61 53 62 61 63 54 64 55 65
REMARK SMILES IDX 59 66 62 67 56 68 57 69 60 70 58 71 6 72 7 73 8 74 9 76
REMARK SMILES IDX 10 77 11 78 15 79 12 80 14 81 13 82 16 83 17 84 25 85 18 86
REMARK SMILES IDX 20 87 19 88 21 89 22 90 23 91 24 92
REMARK H PARENT 3 6 82 24 50 35 7 75
REMARK Flexibility Score: inf
ROOT
ATOM      1  C   UNL A   1      31.571  29.394  26.651  1.00  0.00     0.042 C 
ENDROOT
BRANCH   1   2
ATOM      2  C   UNL A   1      32.690  30.281  26.129  1.00  0.00     0.118 C 
BRANCH   2   3
ATOM      3  N   UNL A   1      32.534  31.687  26.490  1.00  0.00    -0.352 N 
ATOM      4  O   UNL A   1      32.842  33.606  27.629  1.00  0.00    -0.269 OA
ATOM      5  C   UNL A   1      33.252  32.482  27.351  1.00  0.00     0.251 C 
ATOM      6  H   UNL A   1      31.787  32.143  26.039  1.00  0.00     0.163 HD
BRANCH   5   7
ATOM      7  C   UNL A   1      34.494  31.981  27.977  1.00  0.00     0.039 A 
ATOM      8  C   UNL A   1      34.587  30.666  28.430  1.00  0.00     0.014 A 
ATOM      9  C   UNL A   1      35.593  32.837  28.109  1.00  0.00     0.014 A 
ATOM     10  C   UNL A   1      35.669  30.277  29.205  1.00  0.00     0.010 A 
ATOM     11  C   UNL A   1      36.744  32.398  28.772  1.00  0.00     0.010 A 
ATOM     12  C   UNL A   1      36.773  31.128  29.368  1.00  0.00    -0.014 A 
BRANCH  12  13
ATOM     13  C   UNL A   1      37.956  30.629  30.112  1.00  0.00     0.031 A 
ATOM     14  C   UNL A   1      38.192  30.998  31.549  1.00  0.00     0.074 A 
ATOM     15  C   UNL A   1      38.800  29.787  29.482  1.00  0.00     0.049 A 
ATOM     16  N   UNL A   1      39.162  30.628  32.347  1.00  0.00    -0.248 NA
ATOM     17  C   UNL A   1      37.221  31.909  32.175  1.00  0.00     0.031 C 
ATOM     18  C   UNL A   1      38.680  29.368  28.084  1.00  0.00     0.029 A 
ATOM     19  N   UNL A   1      39.903  29.109  29.936  1.00  0.00    -0.354 N 
ATOM     20  C   UNL A   1      38.938  31.281  33.551  1.00  0.00     0.074 A 
ATOM     21  C   UNL A   1      37.748  32.086  33.379  1.00  0.00     0.031 C 
ATOM     22  C   UNL A   1      39.627  28.461  27.811  1.00  0.00     0.029 A 
ATOM     23  C   UNL A   1      40.468  28.291  28.989  1.00  0.00     0.049 A 
ATOM     24  H   UNL A   1      40.254  29.201  30.850  1.00  0.00     0.167 HD
ATOM     25  C   UNL A   1      39.660  31.208  34.697  1.00  0.00     0.037 A 
ATOM     26  C   UNL A   1      41.558  27.506  29.051  1.00  0.00     0.037 A 
ATOM     27  C   UNL A   1      40.826  30.379  34.869  1.00  0.00     0.049 A 
ATOM     28  C   UNL A   1      42.335  27.445  30.331  1.00  0.00     0.074 A 
ATOM     29  C   UNL A   1      41.601  30.203  36.003  1.00  0.00     0.029 A 
ATOM     30  N   UNL A   1      41.387  29.587  33.877  1.00  0.00    -0.354 N 
ATOM     31  N   UNL A   1      42.099  28.051  31.469  1.00  0.00    -0.248 NA
ATOM     32  C   UNL A   1      43.536  26.600  30.335  1.00  0.00     0.031 C 
ATOM     33  C   UNL A   1      42.653  29.338  35.685  1.00  0.00     0.029 A 
ATOM     34  C   UNL A   1      42.510  28.939  34.366  1.00  0.00     0.049 A 
ATOM     35  H   UNL A   1      41.038  29.499  32.960  1.00  0.00     0.167 HD
ATOM     36  C   UNL A   1      43.116  27.660  32.325  1.00  0.00     0.074 A 
ATOM     37  C   UNL A   1      43.956  26.742  31.584  1.00  0.00     0.031 C 
ATOM     38  C   UNL A   1      43.338  28.034  33.609  1.00  0.00     0.037 A 
BRANCH  25  39
ATOM     39  C   UNL A   1      39.225  32.063  35.852  1.00  0.00     0.064 A 
ATOM     40  C   UNL A   1      38.324  31.596  36.821  1.00  0.00     0.173 A 
ATOM     41  C   UNL A   1      39.757  33.351  36.018  1.00  0.00     0.173 A 
ATOM     42  F   UNL A   1      37.779  30.377  36.703  1.00  0.00    -0.203 F 
ATOM     43  C   UNL A   1      37.955  32.396  37.901  1.00  0.00     0.198 A 
ATOM     44  C   UNL A   1      39.405  34.138  37.112  1.00  0.00     0.198 A 
ATOM     45  F   UNL A   1      40.627  33.844  35.124  1.00  0.00    -0.203 F 
ATOM     46  F   UNL A   1      37.063  31.944  38.792  1.00  0.00    -0.200 F 
ATOM     47  C   UNL A   1      38.501  33.663  38.049  1.00  0.00     0.200 A 
ATOM     48  F   UNL A   1      39.943  35.357  37.260  1.00  0.00    -0.200 F 
ATOM     49  F   UNL A   1      38.150  34.427  39.092  1.00  0.00    -0.200 F 
ENDBRANCH  25  39
BRANCH  26  50
ATOM     50  C   UNL A   1      41.971  26.732  27.853  1.00  0.00     0.064 A 
ATOM     51  C   UNL A   1      42.926  27.236  26.960  1.00  0.00     0.173 A 
ATOM     52  C   UNL A   1      41.447  25.455  27.599  1.00  0.00     0.173 A 
ATOM     53  F   UNL A   1      43.443  28.459  27.152  1.00  0.00    -0.203 F 
ATOM     54  C   UNL A   1      43.334  26.495  25.853  1.00  0.00     0.198 A 
ATOM     55  C   UNL A   1      41.879  24.703  26.510  1.00  0.00     0.198 A 
ATOM     56  F   UNL A   1      40.538  24.926  28.431  1.00  0.00    -0.203 F 
ATOM     57  F   UNL A   1      44.224  27.012  24.995  1.00  0.00    -0.200 F 
ATOM     58  C   UNL A   1      42.818  25.226  25.635  1.00  0.00     0.200 A 
ATOM     59  F   UNL A   1      41.392  23.470  26.316  1.00  0.00    -0.200 F 
ATOM     60  F   UNL A   1      43.223  24.507  24.579  1.00  0.00    -0.200 F 
ENDBRANCH  26  50
BRANCH  38  61
ATOM     61  C   UNL A   1      44.533  27.438  34.290  1.00  0.00     0.064 A 
ATOM     62  C   UNL A   1      45.773  28.092  34.294  1.00  0.00     0.173 A 
ATOM     63  C   UNL A   1      44.430  26.211  34.961  1.00  0.00     0.173 A 
ATOM     64  F   UNL A   1      45.923  29.259  33.650  1.00  0.00    -0.203 F 
ATOM     65  C   UNL A   1      46.876  27.525  34.927  1.00  0.00     0.198 A 
ATOM     66  C   UNL A   1      45.528  25.660  35.614  1.00  0.00     0.198 A 
ATOM     67  F   UNL A   1      43.263  25.549  34.987  1.00  0.00    -0.203 F 
ATOM     68  F   UNL A   1      48.065  28.144  34.879  1.00  0.00    -0.200 F 
ATOM     69  C   UNL A   1      46.751  26.314  35.591  1.00  0.00     0.200 A 
ATOM     70  F   UNL A   1      45.405  24.495  36.263  1.00  0.00    -0.200 F 
ATOM     71  F   UNL A   1      47.814  25.771  36.201  1.00  0.00    -0.200 F 
ENDBRANCH  38  61
ENDBRANCH  12  13
ENDBRANCH   5   7
ENDBRANCH   2   3
ENDBRANCH   1   2
BRANCH   1  72
ATOM     72  C   UNL A   1      32.042  28.021  27.087  1.00  0.00     0.118 C 
BRANCH  72  73
ATOM     73  N   UNL A   1      31.025  26.994  26.945  1.00  0.00    -0.352 N 
ATOM     74  C   UNL A   1      30.770  26.169  25.882  1.00  0.00     0.253 C 
ATOM     75  H   UNL A   1      30.435  26.873  27.723  1.00  0.00     0.163 HD
ATOM     76  O   UNL A   1      29.850  25.359  25.949  1.00  0.00    -0.269 OA
BRANCH  74  77
ATOM     77  C   UNL A   1      31.554  26.265  24.639  1.00  0.00     0.065 A 
ATOM     78  C   UNL A   1      32.769  25.586  24.646  1.00  0.00     0.125 A 
ATOM     79  C   UNL A   1      31.179  26.994  23.495  1.00  0.00    -0.003 A 
ATOM     80  N   UNL A   1      33.611  25.534  23.589  1.00  0.00    -0.264 NA
ATOM     81  C   UNL A   1      32.058  26.948  22.400  1.00  0.00     0.029 A 
ATOM     82  C   UNL A   1      33.235  26.217  22.491  1.00  0.00     0.111 A 
BRANCH  79  83
ATOM     83  C   UNL A   1      29.918  27.758  23.388  1.00  0.00    -0.017 A 
ATOM     84  C   UNL A   1      28.677  27.094  23.454  1.00  0.00     0.009 A 
ATOM     85  C   UNL A   1      29.909  29.162  23.309  1.00  0.00     0.021 A 
ATOM     86  C   UNL A   1      27.477  27.805  23.500  1.00  0.00     0.001 A 
ATOM     87  C   UNL A   1      28.706  29.890  23.356  1.00  0.00     0.056 A 
ATOM     88  C   UNL A   1      27.492  29.196  23.462  1.00  0.00     0.013 A 
BRANCH  87  89
ATOM     89  C   UNL A   1      28.705  31.400  23.336  1.00  0.00     0.416 C 
ATOM     90  F   UNL A   1      29.502  31.935  24.302  1.00  0.00    -0.166 F 
ATOM     91  F   UNL A   1      29.163  31.897  22.153  1.00  0.00    -0.166 F 
ATOM     92  F   UNL A   1      27.473  31.949  23.518  1.00  0.00    -0.166 F 
ENDBRANCH  87  89
ENDBRANCH  79  83
ENDBRANCH  74  77
ENDBRANCH  72  73
ENDBRANCH   1  72
TORSDOF 12
ENDMDL
