MODEL 1
REMARK VINA RESULT:     -12.1      0.000      0.000
REMARK SMILES CCOC(=O)c1c(NC(=O)[C@@H]2[C@@H]3CC[C@@H](C3)[C@@H]2C(=O)NCCCNC(=O)c2ccc(-c3c4nc(c(-c5c(F)c(F)c(F)c(F)c5F)c5ccc([nH]5)c(-c5c(F)c(F)c(F)c(F)c5F)c5nc(c(-c6c(F)c(F)c(F)c(F)c6F)c6ccc3[nH]6)C=C5)C=C4)cc2)sc2c1CCCC2
REMARK SMILES IDX 18 1 19 2 20 3 17 5 11 6 12 7 13 8 16 9 15 10 14 11 9 12
REMARK SMILES IDX 8 13 10 15 7 16 6 17 92 18 90 19 91 20 93 21 96 22 94 23
REMARK SMILES IDX 95 24 4 25 5 26 3 27 2 28 1 29 21 30 22 31 23 32 24 33 25 34
REMARK SMILES IDX 26 36 27 37 28 38 89 39 29 40 88 41 30 42 31 43 32 44 82 45
REMARK SMILES IDX 33 46 87 47 81 48 83 49 34 50 86 51 80 52 79 53 35 55 67 56
REMARK SMILES IDX 47 57 66 58 48 59 51 60 65 61 84 62 49 63 50 64 64 66 85 67
REMARK SMILES IDX 52 68 36 69 37 70 45 71 38 72 39 73 43 74 46 75 40 76 41 77
REMARK SMILES IDX 44 78 42 79 68 80 69 81 77 82 70 83 71 84 75 85 78 86 72 87
REMARK SMILES IDX 73 88 76 89 74 90 53 91 54 92 62 93 55 94 56 95 60 96 63 97
REMARK SMILES IDX 57 98 58 99 61 100 59 101
REMARK H PARENT 20 4 8 14 24 35 83 54 51 65
REMARK Flexibility Score: inf
ROOT
ATOM      1  C   UNL A   1      33.540  24.284  26.050  1.00  0.00     0.224 C 
ATOM      2  O   UNL A   1      33.354  23.346  26.828  1.00  0.00    -0.275 OA
ATOM      3  N   UNL A   1      32.800  25.393  26.303  1.00  0.00    -0.356 N 
ATOM      4  H   UNL A   1      32.162  25.282  27.043  1.00  0.00     0.163 HD
ENDROOT
BRANCH   1   5
ATOM      5  C   UNL A   1      34.646  24.278  24.999  1.00  0.00     0.094 C 
ATOM      6  C   UNL A   1      34.662  23.314  23.799  1.00  0.00     0.094 C 
ATOM      7  C   UNL A   1      36.023  22.579  23.929  1.00  0.00     0.002 C 
ATOM      8  C   UNL A   1      36.111  21.693  25.182  1.00  0.00     0.005 C 
ATOM      9  C   UNL A   1      36.912  23.756  24.340  1.00  0.00     0.009 C 
ATOM     10  C   UNL A   1      36.076  24.059  25.593  1.00  0.00     0.002 C 
ATOM     11  C   UNL A   1      36.204  22.709  26.321  1.00  0.00     0.005 C 
BRANCH   6  12
ATOM     12  C   UNL A   1      33.509  22.404  23.497  1.00  0.00     0.229 C 
ATOM     13  N   UNL A   1      32.371  22.846  22.884  1.00  0.00    -0.317 N 
ATOM     14  H   UNL A   1      31.862  22.117  22.459  1.00  0.00     0.170 HD
ATOM     15  O   UNL A   1      33.551  21.204  23.783  1.00  0.00    -0.274 OA
BRANCH  13  16
ATOM     16  C   UNL A   1      31.770  24.080  22.722  1.00  0.00     0.110 A 
ATOM     17  C   UNL A   1      32.007  25.350  22.209  1.00  0.00     0.098 A 
ATOM     18  C   UNL A   1      31.017  26.296  22.705  1.00  0.00    -0.017 A 
ATOM     19  S   UNL A   1      30.233  24.005  23.508  1.00  0.00    -0.122 S 
ATOM     20  C   UNL A   1      30.046  25.683  23.467  1.00  0.00     0.011 A 
ATOM     21  C   UNL A   1      30.963  27.771  22.409  1.00  0.00     0.038 C 
ATOM     22  C   UNL A   1      28.932  26.385  24.179  1.00  0.00     0.047 C 
ATOM     23  C   UNL A   1      30.029  28.524  23.367  1.00  0.00     0.005 C 
ATOM     24  C   UNL A   1      28.706  27.778  23.578  1.00  0.00     0.006 C 
BRANCH  17  25
ATOM     25  C   UNL A   1      33.046  25.771  21.283  1.00  0.00     0.341 C 
ATOM     26  O   UNL A   1      32.999  25.552  20.078  1.00  0.00    -0.246 OA
BRANCH  25  27
ATOM     27  O   UNL A   1      34.032  26.471  21.916  1.00  0.00    -0.462 OA
BRANCH  27  28
ATOM     28  C   UNL A   1      34.096  27.886  21.668  1.00  0.00     0.230 C 
ATOM     29  C   UNL A   1      34.357  28.626  22.967  1.00  0.00     0.049 C 
ENDBRANCH  27  28
ENDBRANCH  25  27
ENDBRANCH  17  25
ENDBRANCH  13  16
ENDBRANCH   6  12
ENDBRANCH   1   5
BRANCH   3  30
ATOM     30  C   UNL A   1      32.766  26.708  25.698  1.00  0.00     0.117 C 
BRANCH  30  31
ATOM     31  C   UNL A   1      33.772  27.640  26.366  1.00  0.00     0.042 C 
BRANCH  31  32
ATOM     32  C   UNL A   1      33.240  28.383  27.584  1.00  0.00     0.118 C 
BRANCH  32  33
ATOM     33  N   UNL A   1      33.349  29.825  27.439  1.00  0.00    -0.352 N 
ATOM     34  C   UNL A   1      34.360  30.693  27.771  1.00  0.00     0.251 C 
ATOM     35  H   UNL A   1      32.562  30.254  27.031  1.00  0.00     0.163 HD
ATOM     36  O   UNL A   1      34.127  31.901  27.751  1.00  0.00    -0.269 OA
BRANCH  34  37
ATOM     37  C   UNL A   1      35.714  30.226  28.171  1.00  0.00     0.039 A 
ATOM     38  C   UNL A   1      35.897  29.761  29.480  1.00  0.00     0.014 A 
ATOM     39  C   UNL A   1      36.822  30.308  27.326  1.00  0.00     0.014 A 
ATOM     40  C   UNL A   1      37.161  29.344  29.917  1.00  0.00     0.010 A 
ATOM     41  C   UNL A   1      38.057  29.798  27.726  1.00  0.00     0.010 A 
ATOM     42  C   UNL A   1      38.251  29.329  29.034  1.00  0.00    -0.014 A 
BRANCH  42  43
ATOM     43  C   UNL A   1      39.607  28.887  29.464  1.00  0.00     0.031 A 
ATOM     44  C   UNL A   1      40.427  29.753  30.386  1.00  0.00     0.074 A 
ATOM     45  C   UNL A   1      40.134  27.743  28.985  1.00  0.00     0.049 A 
ATOM     46  N   UNL A   1      41.671  29.614  30.773  1.00  0.00    -0.248 NA
ATOM     47  C   UNL A   1      39.767  30.955  30.922  1.00  0.00     0.031 C 
ATOM     48  C   UNL A   1      39.468  26.822  28.063  1.00  0.00     0.029 A 
ATOM     49  N   UNL A   1      41.362  27.166  29.199  1.00  0.00    -0.354 N 
ATOM     50  C   UNL A   1      41.951  30.724  31.561  1.00  0.00     0.074 A 
ATOM     51  C   UNL A   1      40.762  31.549  31.565  1.00  0.00     0.031 C 
ATOM     52  C   UNL A   1      40.285  25.788  27.807  1.00  0.00     0.029 A 
ATOM     53  C   UNL A   1      41.548  25.992  28.510  1.00  0.00     0.049 A 
ATOM     54  H   UNL A   1      42.045  27.556  29.791  1.00  0.00     0.167 HD
ATOM     55  C   UNL A   1      43.086  31.021  32.238  1.00  0.00     0.037 A 
ATOM     56  C   UNL A   1      42.620  25.178  28.441  1.00  0.00     0.037 A 
ATOM     57  C   UNL A   1      44.252  30.179  32.281  1.00  0.00     0.049 A 
ATOM     58  C   UNL A   1      43.864  25.523  29.214  1.00  0.00     0.074 A 
ATOM     59  C   UNL A   1      45.427  30.367  32.986  1.00  0.00     0.029 A 
ATOM     60  N   UNL A   1      44.384  28.981  31.594  1.00  0.00    -0.354 N 
ATOM     61  N   UNL A   1      44.100  26.554  29.988  1.00  0.00    -0.248 NA
ATOM     62  C   UNL A   1      44.992  24.585  29.108  1.00  0.00     0.031 C 
ATOM     63  C   UNL A   1      46.284  29.297  32.704  1.00  0.00     0.029 A 
ATOM     64  C   UNL A   1      45.626  28.424  31.855  1.00  0.00     0.049 A 
ATOM     65  H   UNL A   1      43.698  28.586  31.010  1.00  0.00     0.167 HD
ATOM     66  C   UNL A   1      45.385  26.376  30.481  1.00  0.00     0.074 A 
ATOM     67  C   UNL A   1      45.877  25.132  29.929  1.00  0.00     0.031 C 
ATOM     68  C   UNL A   1      46.094  27.174  31.316  1.00  0.00     0.037 A 
BRANCH  55  69
ATOM     69  C   UNL A   1      43.121  32.313  33.002  1.00  0.00     0.064 A 
ATOM     70  C   UNL A   1      42.722  32.384  34.345  1.00  0.00     0.173 A 
ATOM     71  C   UNL A   1      43.596  33.486  32.396  1.00  0.00     0.173 A 
ATOM     72  F   UNL A   1      42.251  31.293  34.967  1.00  0.00    -0.203 F 
ATOM     73  C   UNL A   1      42.770  33.587  35.044  1.00  0.00     0.198 A 
ATOM     74  C   UNL A   1      43.670  34.681  33.107  1.00  0.00     0.198 A 
ATOM     75  F   UNL A   1      43.998  33.472  31.116  1.00  0.00    -0.203 F 
ATOM     76  F   UNL A   1      42.337  33.640  36.312  1.00  0.00    -0.200 F 
ATOM     77  C   UNL A   1      43.249  34.733  34.427  1.00  0.00     0.200 A 
ATOM     78  F   UNL A   1      44.146  35.785  32.514  1.00  0.00    -0.200 F 
ATOM     79  F   UNL A   1      43.301  35.888  35.105  1.00  0.00    -0.200 F 
ENDBRANCH  55  69
BRANCH  56  80
ATOM     80  C   UNL A   1      42.560  23.940  27.621  1.00  0.00     0.064 A 
ATOM     81  C   UNL A   1      42.941  23.955  26.273  1.00  0.00     0.173 A 
ATOM     82  C   UNL A   1      42.114  22.726  28.161  1.00  0.00     0.173 A 
ATOM     83  F   UNL A   1      43.353  25.100  25.706  1.00  0.00    -0.203 F 
ATOM     84  C   UNL A   1      42.858  22.807  25.488  1.00  0.00     0.198 A 
ATOM     85  C   UNL A   1      42.057  21.572  27.383  1.00  0.00     0.198 A 
ATOM     86  F   UNL A   1      41.740  22.658  29.447  1.00  0.00    -0.203 F 
ATOM     87  F   UNL A   1      43.187  22.861  24.189  1.00  0.00    -0.200 F 
ATOM     88  C   UNL A   1      42.422  21.615  26.045  1.00  0.00     0.200 A 
ATOM     89  F   UNL A   1      41.646  20.418  27.926  1.00  0.00    -0.200 F 
ATOM     90  F   UNL A   1      42.346  20.510  25.291  1.00  0.00    -0.200 F 
ENDBRANCH  56  80
BRANCH  68  91
ATOM     91  C   UNL A   1      47.458  26.705  31.725  1.00  0.00     0.064 A 
ATOM     92  C   UNL A   1      47.652  25.900  32.856  1.00  0.00     0.173 A 
ATOM     93  C   UNL A   1      48.580  27.030  30.949  1.00  0.00     0.173 A 
ATOM     94  F   UNL A   1      46.612  25.575  33.639  1.00  0.00    -0.203 F 
ATOM     95  C   UNL A   1      48.923  25.453  33.206  1.00  0.00     0.198 A 
ATOM     96  C   UNL A   1      49.846  26.561  31.286  1.00  0.00     0.198 A 
ATOM     97  F   UNL A   1      48.447  27.794  29.853  1.00  0.00    -0.203 F 
ATOM     98  F   UNL A   1      49.091  24.718  34.314  1.00  0.00    -0.200 F 
ATOM     99  C   UNL A   1      50.018  25.778  32.418  1.00  0.00     0.200 A 
ATOM    100  F   UNL A   1      50.901  26.866  30.517  1.00  0.00    -0.200 F 
ATOM    101  F   UNL A   1      51.239  25.341  32.753  1.00  0.00    -0.200 F 
ENDBRANCH  68  91
ENDBRANCH  42  43
ENDBRANCH  34  37
ENDBRANCH  32  33
ENDBRANCH  31  32
ENDBRANCH  30  31
ENDBRANCH   3  30
TORSDOF 15
ENDMDL
MODEL 2
REMARK VINA RESULT:     -12.1      0.192      1.545
REMARK SMILES CCOC(=O)c1c(NC(=O)[C@@H]2[C@@H]3CC[C@@H](C3)[C@@H]2C(=O)NCCCNC(=O)c2ccc(-c3c4nc(c(-c5c(F)c(F)c(F)c(F)c5F)c5ccc([nH]5)c(-c5c(F)c(F)c(F)c(F)c5F)c5nc(c(-c6c(F)c(F)c(F)c(F)c6F)c6ccc3[nH]6)C=C5)C=C4)cc2)sc2c1CCCC2
REMARK SMILES IDX 18 1 19 2 20 3 17 5 11 6 12 7 13 8 16 9 15 10 14 11 9 12
REMARK SMILES IDX 8 13 10 15 7 16 6 17 92 18 90 19 91 20 93 21 96 22 94 23
REMARK SMILES IDX 95 24 4 25 5 26 3 27 2 28 1 29 21 30 22 31 23 32 24 33 25 34
REMARK SMILES IDX 26 36 27 37 28 38 89 39 29 40 88 41 30 42 31 43 32 44 82 45
REMARK SMILES IDX 33 46 87 47 81 48 83 49 34 50 86 51 80 52 79 53 35 55 67 56
REMARK SMILES IDX 47 57 66 58 48 59 51 60 65 61 84 62 49 63 50 64 64 66 85 67
REMARK SMILES IDX 52 68 36 69 37 70 45 71 38 72 39 73 43 74 46 75 40 76 41 77
REMARK SMILES IDX 44 78 42 79 68 80 69 81 77 82 70 83 71 84 75 85 78 86 72 87
REMARK SMILES IDX 73 88 76 89 74 90 53 91 54 92 62 93 55 94 56 95 60 96 63 97
REMARK SMILES IDX 57 98 58 99 61 100 59 101
REMARK H PARENT 20 4 8 14 24 35 83 54 51 65
REMARK Flexibility Score: inf
ROOT
ATOM      1  C   UNL A   1      33.378  24.262  26.068  1.00  0.00     0.224 C 
ATOM      2  O   UNL A   1      33.138  23.316  26.821  1.00  0.00    -0.275 OA
ATOM      3  N   UNL A   1      32.646  25.380  26.301  1.00  0.00    -0.356 N 
ATOM      4  H   UNL A   1      31.970  25.270  27.008  1.00  0.00     0.163 HD
ENDROOT
BRANCH   1   5
ATOM      5  C   UNL A   1      34.533  24.252  25.071  1.00  0.00     0.094 C 
ATOM      6  C   UNL A   1      34.602  23.290  23.871  1.00  0.00     0.094 C 
ATOM      7  C   UNL A   1      35.951  22.547  24.066  1.00  0.00     0.002 C 
ATOM      8  C   UNL A   1      35.974  21.658  25.320  1.00  0.00     0.005 C 
ATOM      9  C   UNL A   1      36.825  23.718  24.521  1.00  0.00     0.009 C 
ATOM     10  C   UNL A   1      35.931  24.025  25.733  1.00  0.00     0.002 C 
ATOM     11  C   UNL A   1      36.017  22.673  26.464  1.00  0.00     0.005 C 
BRANCH   6  12
ATOM     12  C   UNL A   1      33.460  22.387  23.512  1.00  0.00     0.229 C 
ATOM     13  N   UNL A   1      32.343  22.840  22.870  1.00  0.00    -0.317 N 
ATOM     14  H   UNL A   1      31.849  22.121  22.414  1.00  0.00     0.170 HD
ATOM     15  O   UNL A   1      33.492  21.181  23.776  1.00  0.00    -0.274 OA
BRANCH  13  16
ATOM     16  C   UNL A   1      31.747  24.078  22.712  1.00  0.00     0.110 A 
ATOM     17  C   UNL A   1      31.995  25.352  22.214  1.00  0.00     0.098 A 
ATOM     18  C   UNL A   1      31.002  26.296  22.706  1.00  0.00    -0.017 A 
ATOM     19  S   UNL A   1      30.201  24.001  23.478  1.00  0.00    -0.122 S 
ATOM     20  C   UNL A   1      30.020  25.679  23.450  1.00  0.00     0.011 A 
ATOM     21  C   UNL A   1      30.956  27.775  22.423  1.00  0.00     0.038 C 
ATOM     22  C   UNL A   1      28.898  26.378  24.155  1.00  0.00     0.047 C 
ATOM     23  C   UNL A   1      30.013  28.522  23.376  1.00  0.00     0.005 C 
ATOM     24  C   UNL A   1      28.684  27.778  23.564  1.00  0.00     0.006 C 
BRANCH  17  25
ATOM     25  C   UNL A   1      33.047  25.779  21.305  1.00  0.00     0.341 C 
ATOM     26  O   UNL A   1      33.020  25.558  20.099  1.00  0.00    -0.246 OA
BRANCH  25  27
ATOM     27  O   UNL A   1      34.018  26.485  21.953  1.00  0.00    -0.462 OA
BRANCH  27  28
ATOM     28  C   UNL A   1      34.070  27.901  21.714  1.00  0.00     0.230 C 
ATOM     29  C   UNL A   1      34.429  28.628  22.997  1.00  0.00     0.049 C 
ENDBRANCH  27  28
ENDBRANCH  25  27
ENDBRANCH  17  25
ENDBRANCH  13  16
ENDBRANCH   6  12
ENDBRANCH   1   5
BRANCH   3  30
ATOM     30  C   UNL A   1      32.664  26.705  25.716  1.00  0.00     0.117 C 
BRANCH  30  31
ATOM     31  C   UNL A   1      33.682  27.596  26.420  1.00  0.00     0.042 C 
BRANCH  31  32
ATOM     32  C   UNL A   1      33.135  28.368  27.614  1.00  0.00     0.118 C 
BRANCH  32  33
ATOM     33  N   UNL A   1      33.249  29.805  27.438  1.00  0.00    -0.352 N 
ATOM     34  C   UNL A   1      34.262  30.678  27.755  1.00  0.00     0.251 C 
ATOM     35  H   UNL A   1      32.465  30.227  27.018  1.00  0.00     0.163 HD
ATOM     36  O   UNL A   1      34.032  31.886  27.707  1.00  0.00    -0.269 OA
BRANCH  34  37
ATOM     37  C   UNL A   1      35.613  30.216  28.170  1.00  0.00     0.039 A 
ATOM     38  C   UNL A   1      35.782  29.749  29.481  1.00  0.00     0.014 A 
ATOM     39  C   UNL A   1      36.731  30.305  27.339  1.00  0.00     0.014 A 
ATOM     40  C   UNL A   1      37.042  29.336  29.932  1.00  0.00     0.010 A 
ATOM     41  C   UNL A   1      37.963  29.800  27.753  1.00  0.00     0.010 A 
ATOM     42  C   UNL A   1      38.143  29.329  29.062  1.00  0.00    -0.014 A 
BRANCH  42  43
ATOM     43  C   UNL A   1      39.495  28.892  29.508  1.00  0.00     0.031 A 
ATOM     44  C   UNL A   1      40.296  29.755  30.450  1.00  0.00     0.074 A 
ATOM     45  C   UNL A   1      40.037  27.756  29.026  1.00  0.00     0.049 A 
ATOM     46  N   UNL A   1      41.536  29.620  30.854  1.00  0.00    -0.248 NA
ATOM     47  C   UNL A   1      39.620  30.947  30.988  1.00  0.00     0.031 C 
ATOM     48  C   UNL A   1      39.391  26.840  28.086  1.00  0.00     0.029 A 
ATOM     49  N   UNL A   1      41.266  27.185  29.252  1.00  0.00    -0.354 N 
ATOM     50  C   UNL A   1      41.795  30.724  31.656  1.00  0.00     0.074 A 
ATOM     51  C   UNL A   1      40.602  31.541  31.651  1.00  0.00     0.031 C 
ATOM     52  C   UNL A   1      40.219  25.814  27.831  1.00  0.00     0.029 A 
ATOM     53  C   UNL A   1      41.471  26.020  28.555  1.00  0.00     0.049 A 
ATOM     54  H   UNL A   1      41.938  27.575  29.858  1.00  0.00     0.167 HD
ATOM     55  C   UNL A   1      42.919  31.023  32.352  1.00  0.00     0.037 A 
ATOM     56  C   UNL A   1      42.549  25.214  28.494  1.00  0.00     0.037 A 
ATOM     57  C   UNL A   1      44.090  30.188  32.404  1.00  0.00     0.049 A 
ATOM     58  C   UNL A   1      43.779  25.560  29.289  1.00  0.00     0.074 A 
ATOM     59  C   UNL A   1      45.253  30.378  33.129  1.00  0.00     0.029 A 
ATOM     60  N   UNL A   1      44.240  28.998  31.709  1.00  0.00    -0.354 N 
ATOM     61  N   UNL A   1      43.996  26.585  30.075  1.00  0.00    -0.248 NA
ATOM     62  C   UNL A   1      44.915  24.630  29.190  1.00  0.00     0.031 C 
ATOM     63  C   UNL A   1      46.121  29.316  32.850  1.00  0.00     0.029 A 
ATOM     64  C   UNL A   1      45.482  28.447  31.983  1.00  0.00     0.049 A 
ATOM     65  H   UNL A   1      43.566  28.604  31.111  1.00  0.00     0.167 HD
ATOM     66  C   UNL A   1      45.275  26.411  30.586  1.00  0.00     0.074 A 
ATOM     67  C   UNL A   1      45.784  25.175  30.029  1.00  0.00     0.031 C 
ATOM     68  C   UNL A   1      45.966  27.205  31.438  1.00  0.00     0.037 A 
BRANCH  55  69
ATOM     69  C   UNL A   1      42.933  32.307  33.130  1.00  0.00     0.064 A 
ATOM     70  C   UNL A   1      43.357  33.513  32.551  1.00  0.00     0.173 A 
ATOM     71  C   UNL A   1      42.482  32.341  34.458  1.00  0.00     0.173 A 
ATOM     72  F   UNL A   1      43.807  33.532  31.287  1.00  0.00    -0.203 F 
ATOM     73  C   UNL A   1      43.355  34.698  33.280  1.00  0.00     0.198 A 
ATOM     74  C   UNL A   1      42.454  33.534  35.176  1.00  0.00     0.198 A 
ATOM     75  F   UNL A   1      42.057  31.218  35.057  1.00  0.00    -0.203 F 
ATOM     76  F   UNL A   1      43.810  35.828  32.721  1.00  0.00    -0.200 F 
ATOM     77  C   UNL A   1      42.898  34.709  34.590  1.00  0.00     0.200 A 
ATOM     78  F   UNL A   1      41.999  33.546  36.437  1.00  0.00    -0.200 F 
ATOM     79  F   UNL A   1      42.890  35.853  35.288  1.00  0.00    -0.200 F 
ENDBRANCH  55  69
BRANCH  56  80
ATOM     80  C   UNL A   1      42.509  23.983  27.662  1.00  0.00     0.064 A 
ATOM     81  C   UNL A   1      42.898  24.017  26.316  1.00  0.00     0.173 A 
ATOM     82  C   UNL A   1      42.076  22.758  28.187  1.00  0.00     0.173 A 
ATOM     83  F   UNL A   1      43.298  25.172  25.763  1.00  0.00    -0.203 F 
ATOM     84  C   UNL A   1      42.835  22.875  25.519  1.00  0.00     0.198 A 
ATOM     85  C   UNL A   1      42.039  21.611  27.397  1.00  0.00     0.198 A 
ATOM     86  F   UNL A   1      41.696  22.673  29.470  1.00  0.00    -0.203 F 
ATOM     87  F   UNL A   1      43.170  22.946  24.223  1.00  0.00    -0.200 F 
ATOM     88  C   UNL A   1      42.410  21.672  26.062  1.00  0.00     0.200 A 
ATOM     89  F   UNL A   1      41.639  20.447  27.927  1.00  0.00    -0.200 F 
ATOM     90  F   UNL A   1      42.353  20.574  25.297  1.00  0.00    -0.200 F 
ENDBRANCH  56  80
BRANCH  68  91
ATOM     91  C   UNL A   1      47.328  26.742  31.863  1.00  0.00     0.064 A 
ATOM     92  C   UNL A   1      48.486  27.135  31.179  1.00  0.00     0.173 A 
ATOM     93  C   UNL A   1      47.477  25.929  32.997  1.00  0.00     0.173 A 
ATOM     94  F   UNL A   1      48.394  27.899  30.080  1.00  0.00    -0.203 F 
ATOM     95  C   UNL A   1      49.744  26.716  31.604  1.00  0.00     0.198 A 
ATOM     96  C   UNL A   1      48.737  25.533  33.435  1.00  0.00     0.198 A 
ATOM     97  F   UNL A   1      46.399  25.531  33.690  1.00  0.00    -0.203 F 
ATOM     98  F   UNL A   1      50.835  27.070  30.912  1.00  0.00    -0.200 F 
ATOM     99  C   UNL A   1      49.869  25.921  32.734  1.00  0.00     0.200 A 
ATOM    100  F   UNL A   1      48.856  24.775  34.534  1.00  0.00    -0.200 F 
ATOM    101  F   UNL A   1      51.081  25.525  33.146  1.00  0.00    -0.200 F 
ENDBRANCH  68  91
ENDBRANCH  42  43
ENDBRANCH  34  37
ENDBRANCH  32  33
ENDBRANCH  31  32
ENDBRANCH  30  31
ENDBRANCH   3  30
TORSDOF 15
ENDMDL
MODEL 3
REMARK VINA RESULT:     -11.6      3.330      8.029
REMARK SMILES CCOC(=O)c1c(NC(=O)[C@@H]2[C@@H]3CC[C@@H](C3)[C@@H]2C(=O)NCCCNC(=O)c2ccc(-c3c4nc(c(-c5c(F)c(F)c(F)c(F)c5F)c5ccc([nH]5)c(-c5c(F)c(F)c(F)c(F)c5F)c5nc(c(-c6c(F)c(F)c(F)c(F)c6F)c6ccc3[nH]6)C=C5)C=C4)cc2)sc2c1CCCC2
REMARK SMILES IDX 18 1 19 2 20 3 17 5 11 6 12 7 13 8 16 9 15 10 14 11 9 12
REMARK SMILES IDX 8 13 10 15 7 16 6 17 92 18 90 19 91 20 93 21 96 22 94 23
REMARK SMILES IDX 95 24 4 25 5 26 3 27 2 28 1 29 21 30 22 31 23 32 24 33 25 34
REMARK SMILES IDX 26 36 27 37 28 38 89 39 29 40 88 41 30 42 31 43 32 44 82 45
REMARK SMILES IDX 33 46 87 47 81 48 83 49 34 50 86 51 80 52 79 53 35 55 67 56
REMARK SMILES IDX 47 57 66 58 48 59 51 60 65 61 84 62 49 63 50 64 64 66 85 67
REMARK SMILES IDX 52 68 36 69 37 70 45 71 38 72 39 73 43 74 46 75 40 76 41 77
REMARK SMILES IDX 44 78 42 79 68 80 69 81 77 82 70 83 71 84 75 85 78 86 72 87
REMARK SMILES IDX 73 88 76 89 74 90 53 91 54 92 62 93 55 94 56 95 60 96 63 97
REMARK SMILES IDX 57 98 58 99 61 100 59 101
REMARK H PARENT 20 4 8 14 24 35 83 54 51 65
REMARK Flexibility Score: inf
ROOT
ATOM      1  C   UNL A   1      34.050  24.106  25.269  1.00  0.00     0.224 C 
ATOM      2  O   UNL A   1      33.782  24.578  26.376  1.00  0.00    -0.275 OA
ATOM      3  N   UNL A   1      35.367  24.118  24.944  1.00  0.00    -0.356 N 
ATOM      4  H   UNL A   1      35.936  24.562  25.613  1.00  0.00     0.163 HD
ENDROOT
BRANCH   1   5
ATOM      5  C   UNL A   1      33.016  23.391  24.405  1.00  0.00     0.094 C 
ATOM      6  C   UNL A   1      31.601  23.042  24.901  1.00  0.00     0.094 C 
ATOM      7  C   UNL A   1      31.503  21.506  24.700  1.00  0.00     0.002 C 
ATOM      8  C   UNL A   1      32.470  20.719  25.600  1.00  0.00     0.005 C 
ATOM      9  C   UNL A   1      32.198  21.380  23.342  1.00  0.00     0.009 C 
ATOM     10  C   UNL A   1      33.502  22.010  23.856  1.00  0.00     0.002 C 
ATOM     11  C   UNL A   1      33.838  21.020  24.986  1.00  0.00     0.005 C 
BRANCH   6  12
ATOM     12  C   UNL A   1      31.086  23.514  26.228  1.00  0.00     0.229 C 
ATOM     13  N   UNL A   1      30.606  24.778  26.419  1.00  0.00    -0.317 N 
ATOM     14  H   UNL A   1      30.016  24.845  27.204  1.00  0.00     0.170 HD
ATOM     15  O   UNL A   1      31.065  22.763  27.208  1.00  0.00    -0.274 OA
BRANCH  13  16
ATOM     16  C   UNL A   1      30.758  25.985  25.762  1.00  0.00     0.110 A 
ATOM     17  C   UNL A   1      31.246  27.273  25.947  1.00  0.00     0.098 A 
ATOM     18  C   UNL A   1      30.751  28.163  24.906  1.00  0.00    -0.017 A 
ATOM     19  S   UNL A   1      30.000  25.824  24.218  1.00  0.00    -0.122 S 
ATOM     20  C   UNL A   1      30.017  27.492  23.953  1.00  0.00     0.011 A 
ATOM     21  C   UNL A   1      31.024  29.639  24.787  1.00  0.00     0.038 C 
ATOM     22  C   UNL A   1      29.312  28.128  22.794  1.00  0.00     0.047 C 
ATOM     23  C   UNL A   1      30.070  30.331  23.803  1.00  0.00     0.005 C 
ATOM     24  C   UNL A   1      29.894  29.520  22.513  1.00  0.00     0.006 C 
BRANCH  17  25
ATOM     25  C   UNL A   1      32.146  27.760  26.981  1.00  0.00     0.341 C 
ATOM     26  O   UNL A   1      31.774  28.047  28.113  1.00  0.00    -0.246 OA
BRANCH  25  27
ATOM     27  O   UNL A   1      33.438  27.804  26.544  1.00  0.00    -0.462 OA
BRANCH  27  28
ATOM     28  C   UNL A   1      34.061  29.096  26.463  1.00  0.00     0.230 C 
ATOM     29  C   UNL A   1      35.116  29.231  27.546  1.00  0.00     0.049 C 
ENDBRANCH  27  28
ENDBRANCH  25  27
ENDBRANCH  17  25
ENDBRANCH  13  16
ENDBRANCH   6  12
ENDBRANCH   1   5
BRANCH   3  30
ATOM     30  C   UNL A   1      36.102  23.605  23.806  1.00  0.00     0.117 C 
BRANCH  30  31
ATOM     31  C   UNL A   1      37.079  22.516  24.236  1.00  0.00     0.042 C 
BRANCH  31  32
ATOM     32  C   UNL A   1      37.269  22.388  25.742  1.00  0.00     0.118 C 
BRANCH  32  33
ATOM     33  N   UNL A   1      38.362  21.495  26.084  1.00  0.00    -0.352 N 
ATOM     34  C   UNL A   1      39.654  21.754  26.473  1.00  0.00     0.251 C 
ATOM     35  H   UNL A   1      38.139  20.538  26.027  1.00  0.00     0.163 HD
ATOM     36  O   UNL A   1      40.459  20.824  26.494  1.00  0.00    -0.269 OA
BRANCH  34  37
ATOM     37  C   UNL A   1      40.116  23.117  26.848  1.00  0.00     0.039 A 
ATOM     38  C   UNL A   1      40.922  23.256  27.986  1.00  0.00     0.014 A 
ATOM     39  C   UNL A   1      39.715  24.266  26.163  1.00  0.00     0.014 A 
ATOM     40  C   UNL A   1      41.353  24.522  28.402  1.00  0.00     0.010 A 
ATOM     41  C   UNL A   1      40.227  25.515  26.516  1.00  0.00     0.010 A 
ATOM     42  C   UNL A   1      41.035  25.665  27.653  1.00  0.00    -0.014 A 
BRANCH  42  43
ATOM     43  C   UNL A   1      41.482  27.025  28.064  1.00  0.00     0.031 A 
ATOM     44  C   UNL A   1      42.939  27.402  27.971  1.00  0.00     0.074 A 
ATOM     45  C   UNL A   1      40.601  27.905  28.578  1.00  0.00     0.049 A 
ATOM     46  N   UNL A   1      43.550  28.480  28.396  1.00  0.00    -0.248 NA
ATOM     47  C   UNL A   1      43.836  26.418  27.341  1.00  0.00     0.031 C 
ATOM     48  C   UNL A   1      39.168  27.667  28.756  1.00  0.00     0.029 A 
ATOM     49  N   UNL A   1      40.786  29.178  29.061  1.00  0.00    -0.354 N 
ATOM     50  C   UNL A   1      44.898  28.287  28.121  1.00  0.00     0.074 A 
ATOM     51  C   UNL A   1      45.024  26.972  27.529  1.00  0.00     0.031 C 
ATOM     52  C   UNL A   1      38.602  28.762  29.288  1.00  0.00     0.029 A 
ATOM     53  C   UNL A   1      39.636  29.764  29.530  1.00  0.00     0.049 A 
ATOM     54  H   UNL A   1      41.662  29.628  29.070  1.00  0.00     0.167 HD
ATOM     55  C   UNL A   1      45.936  29.134  28.321  1.00  0.00     0.037 A 
ATOM     56  C   UNL A   1      39.438  30.967  30.104  1.00  0.00     0.037 A 
ATOM     57  C   UNL A   1      45.810  30.463  28.859  1.00  0.00     0.049 A 
ATOM     58  C   UNL A   1      40.605  31.896  30.301  1.00  0.00     0.074 A 
ATOM     59  C   UNL A   1      46.795  31.416  29.044  1.00  0.00     0.029 A 
ATOM     60  N   UNL A   1      44.619  31.029  29.289  1.00  0.00    -0.354 N 
ATOM     61  N   UNL A   1      41.867  31.717  29.998  1.00  0.00    -0.248 NA
ATOM     62  C   UNL A   1      40.317  33.200  30.918  1.00  0.00     0.031 C 
ATOM     63  C   UNL A   1      46.206  32.550  29.614  1.00  0.00     0.029 A 
ATOM     64  C   UNL A   1      44.849  32.316  29.746  1.00  0.00     0.049 A 
ATOM     65  H   UNL A   1      43.743  30.582  29.272  1.00  0.00     0.167 HD
ATOM     66  C   UNL A   1      42.517  32.890  30.358  1.00  0.00     0.074 A 
ATOM     67  C   UNL A   1      41.509  33.780  30.893  1.00  0.00     0.031 C 
ATOM     68  C   UNL A   1      43.832  33.199  30.256  1.00  0.00     0.037 A 
BRANCH  55  69
ATOM     69  C   UNL A   1      47.308  28.653  27.944  1.00  0.00     0.064 A 
ATOM     70  C   UNL A   1      48.200  28.152  28.903  1.00  0.00     0.173 A 
ATOM     71  C   UNL A   1      47.720  28.657  26.603  1.00  0.00     0.173 A 
ATOM     72  F   UNL A   1      47.858  28.136  30.200  1.00  0.00    -0.203 F 
ATOM     73  C   UNL A   1      49.465  27.699  28.537  1.00  0.00     0.198 A 
ATOM     74  C   UNL A   1      48.975  28.177  26.237  1.00  0.00     0.198 A 
ATOM     75  F   UNL A   1      46.902  29.118  25.644  1.00  0.00    -0.203 F 
ATOM     76  F   UNL A   1      50.319  27.271  29.477  1.00  0.00    -0.200 F 
ATOM     77  C   UNL A   1      49.850  27.707  27.205  1.00  0.00     0.200 A 
ATOM     78  F   UNL A   1      49.340  28.172  24.947  1.00  0.00    -0.200 F 
ATOM     79  F   UNL A   1      51.065  27.264  26.855  1.00  0.00    -0.200 F 
ENDBRANCH  55  69
BRANCH  56  80
ATOM     80  C   UNL A   1      38.069  31.376  30.516  1.00  0.00     0.064 A 
ATOM     81  C   UNL A   1      37.144  31.833  29.568  1.00  0.00     0.173 A 
ATOM     82  C   UNL A   1      37.664  31.330  31.856  1.00  0.00     0.173 A 
ATOM     83  F   UNL A   1      37.495  31.916  28.275  1.00  0.00    -0.203 F 
ATOM     84  C   UNL A   1      35.869  32.248  29.948  1.00  0.00     0.198 A 
ATOM     85  C   UNL A   1      36.380  31.720  32.232  1.00  0.00     0.198 A 
ATOM     86  F   UNL A   1      38.512  30.899  32.801  1.00  0.00    -0.203 F 
ATOM     87  F   UNL A   1      35.019  32.723  29.026  1.00  0.00    -0.200 F 
ATOM     88  C   UNL A   1      35.487  32.186  31.279  1.00  0.00     0.200 A 
ATOM     89  F   UNL A   1      36.009  31.649  33.518  1.00  0.00    -0.200 F 
ATOM     90  F   UNL A   1      34.260  32.583  31.644  1.00  0.00    -0.200 F 
ENDBRANCH  56  80
BRANCH  68  91
ATOM     91  C   UNL A   1      44.253  34.573  30.685  1.00  0.00     0.064 A 
ATOM     92  C   UNL A   1      44.222  35.662  29.802  1.00  0.00     0.173 A 
ATOM     93  C   UNL A   1      44.650  34.810  32.009  1.00  0.00     0.173 A 
ATOM     94  F   UNL A   1      43.863  35.482  28.522  1.00  0.00    -0.203 F 
ATOM     95  C   UNL A   1      44.591  36.935  30.225  1.00  0.00     0.198 A 
ATOM     96  C   UNL A   1      44.994  36.089  32.436  1.00  0.00     0.198 A 
ATOM     97  F   UNL A   1      44.691  33.802  32.894  1.00  0.00    -0.203 F 
ATOM     98  F   UNL A   1      44.593  37.955  29.355  1.00  0.00    -0.200 F 
ATOM     99  C   UNL A   1      44.971  37.150  31.543  1.00  0.00     0.200 A 
ATOM    100  F   UNL A   1      45.350  36.296  33.712  1.00  0.00    -0.200 F 
ATOM    101  F   UNL A   1      45.320  38.377  31.950  1.00  0.00    -0.200 F 
ENDBRANCH  68  91
ENDBRANCH  42  43
ENDBRANCH  34  37
ENDBRANCH  32  33
ENDBRANCH  31  32
ENDBRANCH  30  31
ENDBRANCH   3  30
TORSDOF 15
ENDMDL
