MODEL 1
REMARK VINA RESULT:     -15.0      0.000      0.000
REMARK SMILES O=C(NC1(C(=O)NCCCNC(=O)c2ccc(-c3c4nc(c(-c5c(F)c(F)c(F)c(F)c5F)c5ccc([nH]5)c(-c5c(F)c(F)c(F)c(F)c5F)c5nc(c(-c6c(F)c(F)c(F)c(F)c6F)c6ccc3[nH]6)C=C5)C=C4)cc2)Cc2ccccc2C1)OCC1c2ccccc2-c2ccccc21
REMARK SMILES IDX 8 1 7 2 5 3 6 4 4 6 77 7 84 8 78 9 83 10 79 11 82 12 80 13
REMARK SMILES IDX 81 14 3 15 1 16 2 17 85 19 86 20 87 21 88 22 99 23 89 24
REMARK SMILES IDX 93 25 94 26 98 27 90 28 92 29 95 30 97 31 91 32 96 33 9 34
REMARK SMILES IDX 10 35 11 36 12 37 13 39 14 40 15 41 76 42 16 43 75 44 17 45
REMARK SMILES IDX 18 46 19 47 69 48 20 49 74 50 68 51 70 52 21 53 73 54 67 55
REMARK SMILES IDX 66 56 22 58 54 59 34 60 53 61 35 62 38 63 52 64 71 65 36 66
REMARK SMILES IDX 37 67 51 69 72 70 39 71 23 72 24 73 32 74 25 75 26 76 30 77
REMARK SMILES IDX 33 78 27 79 28 80 31 81 29 82 55 83 56 84 64 85 57 86 58 87
REMARK SMILES IDX 62 88 65 89 59 90 60 91 63 92 61 93 40 94 41 95 49 96 42 97
REMARK SMILES IDX 43 98 47 99 50 100 44 101 45 102 48 103 46 104
REMARK H PARENT 7 5 3 18 11 38 70 57 38 68
REMARK Flexibility Score: inf
ROOT
ATOM      1  C   UNL A   1      31.571  29.193  26.643  1.00  0.00     0.117 C 
ENDROOT
BRANCH   1   2
ATOM      2  N   UNL A   1      32.702  28.162  25.944  1.00  0.00    -0.354 N 
ATOM      3  C   UNL A   1      33.331  26.317  25.881  1.00  0.00     0.246 C 
ATOM      4  O   UNL A   1      34.523  25.912  25.554  1.00  0.00    -0.272 OA
ATOM      5  H   UNL A   1      33.263  28.693  25.333  1.00  0.00     0.163 HD
BRANCH   3   6
ATOM      6  C   UNL A   1      32.574  24.676  26.289  1.00  0.00     0.130 C 
ATOM      7  C   UNL A   1      32.811  23.438  27.211  1.00  0.00     0.075 C 
ATOM      8  C   UNL A   1      32.292  23.903  24.915  1.00  0.00     0.075 C 
ATOM      9  C   UNL A   1      33.582  22.506  26.342  1.00  0.00    -0.042 A 
ATOM     10  C   UNL A   1      33.290  22.759  25.003  1.00  0.00    -0.042 A 
ATOM     11  C   UNL A   1      34.591  21.648  26.741  1.00  0.00     0.004 A 
ATOM     12  C   UNL A   1      34.055  22.161  24.013  1.00  0.00     0.004 A 
ATOM     13  C   UNL A   1      35.422  21.125  25.758  1.00  0.00     0.000 A 
ATOM     14  C   UNL A   1      35.157  21.382  24.403  1.00  0.00     0.000 A 
BRANCH   6  15
ATOM     15  N   UNL A   1      31.240  25.260  26.833  1.00  0.00    -0.306 N 
ATOM     16  O   UNL A   1      28.963  25.290  26.785  1.00  0.00    -0.225 OA
ATOM     17  C   UNL A   1      30.024  25.386  26.181  1.00  0.00     0.408 C 
ATOM     18  H   UNL A   1      31.261  25.582  27.763  1.00  0.00     0.168 HD
BRANCH  17  19
ATOM     19  O   UNL A   1      30.067  25.667  24.849  1.00  0.00    -0.449 OA
BRANCH  19  20
ATOM     20  C   UNL A   1      28.822  26.198  24.230  1.00  0.00     0.248 C 
BRANCH  20  21
ATOM     21  C   UNL A   1      29.227  27.330  23.255  1.00  0.00     0.088 C 
ATOM     22  C   UNL A   1      28.765  28.803  23.061  1.00  0.00    -0.029 A 
ATOM     23  C   UNL A   1      30.544  27.241  22.510  1.00  0.00    -0.029 A 
ATOM     24  C   UNL A   1      27.491  29.331  23.173  1.00  0.00     0.005 A 
ATOM     25  C   UNL A   1      29.895  29.690  22.836  1.00  0.00    -0.014 A 
ATOM     26  C   UNL A   1      31.151  28.916  22.863  1.00  0.00    -0.014 A 
ATOM     27  C   UNL A   1      31.645  25.918  22.003  1.00  0.00     0.005 A 
ATOM     28  C   UNL A   1      27.318  30.697  22.905  1.00  0.00     0.000 A 
ATOM     29  C   UNL A   1      29.698  31.019  22.504  1.00  0.00     0.009 A 
ATOM     30  C   UNL A   1      32.954  29.234  22.854  1.00  0.00     0.009 A 
ATOM     31  C   UNL A   1      33.449  26.246  21.860  1.00  0.00     0.000 A 
ATOM     32  C   UNL A   1      28.396  31.517  22.524  1.00  0.00     0.001 A 
ATOM     33  C   UNL A   1      34.102  27.882  22.355  1.00  0.00     0.001 A 
ENDBRANCH  20  21
ENDBRANCH  19  20
ENDBRANCH  17  19
ENDBRANCH   6  15
ENDBRANCH   3   6
ENDBRANCH   1   2
BRANCH   1  34
ATOM     34  C   UNL A   1      31.749  30.699  26.348  1.00  0.00     0.042 C 
BRANCH  34  35
ATOM     35  C   UNL A   1      32.838  31.296  27.202  1.00  0.00     0.118 C 
BRANCH  35  36
ATOM     36  N   UNL A   1      32.693  32.745  27.238  1.00  0.00    -0.352 N 
ATOM     37  C   UNL A   1      33.212  33.640  28.149  1.00  0.00     0.251 C 
ATOM     38  H   UNL A   1      32.150  33.138  26.517  1.00  0.00     0.163 HD
ATOM     39  O   UNL A   1      32.632  34.701  28.357  1.00  0.00    -0.269 OA
BRANCH  37  40
ATOM     40  C   UNL A   1      34.458  33.319  28.884  1.00  0.00     0.039 A 
ATOM     41  C   UNL A   1      35.655  33.981  28.587  1.00  0.00     0.014 A 
ATOM     42  C   UNL A   1      34.457  32.308  29.840  1.00  0.00     0.014 A 
ATOM     43  C   UNL A   1      36.827  33.638  29.271  1.00  0.00     0.010 A 
ATOM     44  C   UNL A   1      35.565  32.100  30.640  1.00  0.00     0.010 A 
ATOM     45  C   UNL A   1      36.783  32.708  30.322  1.00  0.00    -0.014 A 
BRANCH  45  46
ATOM     46  C   UNL A   1      37.986  32.244  31.058  1.00  0.00     0.031 A 
ATOM     47  C   UNL A   1      38.808  31.122  30.473  1.00  0.00     0.074 A 
ATOM     48  C   UNL A   1      38.257  32.723  32.285  1.00  0.00     0.049 A 
ATOM     49  N   UNL A   1      39.746  30.398  31.028  1.00  0.00    -0.248 NA
ATOM     50  C   UNL A   1      38.475  30.707  29.097  1.00  0.00     0.031 C 
ATOM     51  C   UNL A   1      37.495  33.764  32.976  1.00  0.00     0.029 A 
ATOM     52  N   UNL A   1      39.231  32.371  33.182  1.00  0.00    -0.354 N 
ATOM     53  C   UNL A   1      40.071  29.425  30.090  1.00  0.00     0.074 A 
ATOM     54  C   UNL A   1      39.170  29.589  28.974  1.00  0.00     0.031 C 
ATOM     55  C   UNL A   1      38.041  33.978  34.183  1.00  0.00     0.029 A 
ATOM     56  C   UNL A   1      39.155  33.053  34.372  1.00  0.00     0.049 A 
ATOM     57  H   UNL A   1      39.921  31.694  32.992  1.00  0.00     0.167 HD
ATOM     58  C   UNL A   1      41.060  28.502  30.136  1.00  0.00     0.037 A 
ATOM     59  C   UNL A   1      39.887  32.927  35.493  1.00  0.00     0.037 A 
ATOM     60  C   UNL A   1      41.981  28.389  31.232  1.00  0.00     0.049 A 
ATOM     61  C   UNL A   1      40.998  31.910  35.522  1.00  0.00     0.074 A 
ATOM     62  C   UNL A   1      43.074  27.552  31.361  1.00  0.00     0.029 A 
ATOM     63  N   UNL A   1      41.913  29.147  32.394  1.00  0.00    -0.354 N 
ATOM     64  N   UNL A   1      41.349  31.043  34.602  1.00  0.00    -0.248 NA
ATOM     65  C   UNL A   1      41.819  31.859  36.738  1.00  0.00     0.031 C 
ATOM     66  C   UNL A   1      43.633  27.763  32.625  1.00  0.00     0.029 A 
ATOM     67  C   UNL A   1      42.930  28.779  33.257  1.00  0.00     0.049 A 
ATOM     68  H   UNL A   1      41.240  29.843  32.576  1.00  0.00     0.167 HD
ATOM     69  C   UNL A   1      42.446  30.364  35.114  1.00  0.00     0.074 A 
ATOM     70  C   UNL A   1      42.709  30.927  36.422  1.00  0.00     0.031 C 
ATOM     71  C   UNL A   1      43.174  29.368  34.551  1.00  0.00     0.037 A 
BRANCH  58  72
ATOM     72  C   UNL A   1      41.190  27.559  28.969  1.00  0.00     0.064 A 
ATOM     73  C   UNL A   1      42.186  27.720  27.991  1.00  0.00     0.173 A 
ATOM     74  C   UNL A   1      40.302  26.483  28.820  1.00  0.00     0.173 A 
ATOM     75  F   UNL A   1      43.058  28.736  28.075  1.00  0.00    -0.203 F 
ATOM     76  C   UNL A   1      42.250  26.879  26.883  1.00  0.00     0.198 A 
ATOM     77  C   UNL A   1      40.398  25.616  27.734  1.00  0.00     0.198 A 
ATOM     78  F   UNL A   1      39.336  26.271  29.726  1.00  0.00    -0.203 F 
ATOM     79  F   UNL A   1      43.156  27.108  25.922  1.00  0.00    -0.200 F 
ATOM     80  C   UNL A   1      41.360  25.825  26.758  1.00  0.00     0.200 A 
ATOM     81  F   UNL A   1      39.547  24.586  27.623  1.00  0.00    -0.200 F 
ATOM     82  F   UNL A   1      41.422  25.017  25.690  1.00  0.00    -0.200 F 
ENDBRANCH  58  72
BRANCH  59  83
ATOM     83  C   UNL A   1      39.601  33.802  36.659  1.00  0.00     0.064 A 
ATOM     84  C   UNL A   1      38.795  33.354  37.716  1.00  0.00     0.173 A 
ATOM     85  C   UNL A   1      40.156  35.086  36.763  1.00  0.00     0.173 A 
ATOM     86  F   UNL A   1      38.233  32.138  37.661  1.00  0.00    -0.203 F 
ATOM     87  C   UNL A   1      38.545  34.162  38.824  1.00  0.00     0.198 A 
ATOM     88  C   UNL A   1      39.929  35.882  37.884  1.00  0.00     0.198 A 
ATOM     89  F   UNL A   1      40.945  35.557  35.785  1.00  0.00    -0.203 F 
ATOM     90  F   UNL A   1      37.744  33.723  39.803  1.00  0.00    -0.200 F 
ATOM     91  C   UNL A   1      39.119  35.422  38.910  1.00  0.00     0.200 A 
ATOM     92  F   UNL A   1      40.506  37.088  37.974  1.00  0.00    -0.200 F 
ATOM     93  F   UNL A   1      38.890  36.193  39.983  1.00  0.00    -0.200 F 
ENDBRANCH  59  83
BRANCH  71  94
ATOM     94  C   UNL A   1      44.350  28.847  35.323  1.00  0.00     0.064 A 
ATOM     95  C   UNL A   1      44.230  27.772  36.214  1.00  0.00     0.173 A 
ATOM     96  C   UNL A   1      45.630  29.377  35.095  1.00  0.00     0.173 A 
ATOM     97  F   UNL A   1      43.027  27.240  36.473  1.00  0.00    -0.203 F 
ATOM     98  C   UNL A   1      45.350  27.254  36.860  1.00  0.00     0.198 A 
ATOM     99  C   UNL A   1      46.750  28.834  35.717  1.00  0.00     0.198 A 
ATOM    100  F   UNL A   1      45.797  30.400  34.243  1.00  0.00    -0.203 F 
ATOM    101  F   UNL A   1      45.209  26.249  37.736  1.00  0.00    -0.200 F 
ATOM    102  C   UNL A   1      46.609  27.778  36.602  1.00  0.00     0.200 A 
ATOM    103  F   UNL A   1      47.966  29.328  35.450  1.00  0.00    -0.200 F 
ATOM    104  F   UNL A   1      47.687  27.262  37.207  1.00  0.00    -0.200 F 
ENDBRANCH  71  94
ENDBRANCH  45  46
ENDBRANCH  37  40
ENDBRANCH  35  36
ENDBRANCH  34  35
ENDBRANCH   1  34
TORSDOF 14
ENDMDL
MODEL 2
REMARK VINA RESULT:     -14.9      3.591      7.962
REMARK SMILES O=C(NC1(C(=O)NCCCNC(=O)c2ccc(-c3c4nc(c(-c5c(F)c(F)c(F)c(F)c5F)c5ccc([nH]5)c(-c5c(F)c(F)c(F)c(F)c5F)c5nc(c(-c6c(F)c(F)c(F)c(F)c6F)c6ccc3[nH]6)C=C5)C=C4)cc2)Cc2ccccc2C1)OCC1c2ccccc2-c2ccccc21
REMARK SMILES IDX 8 1 7 2 5 3 6 4 4 6 77 7 84 8 78 9 83 10 79 11 82 12 80 13
REMARK SMILES IDX 81 14 3 15 1 16 2 17 85 19 86 20 87 21 88 22 99 23 89 24
REMARK SMILES IDX 93 25 94 26 98 27 90 28 92 29 95 30 97 31 91 32 96 33 9 34
REMARK SMILES IDX 10 35 11 36 12 37 13 39 14 40 15 41 76 42 16 43 75 44 17 45
REMARK SMILES IDX 18 46 19 47 69 48 20 49 74 50 68 51 70 52 21 53 73 54 67 55
REMARK SMILES IDX 66 56 22 58 54 59 34 60 53 61 35 62 38 63 52 64 71 65 36 66
REMARK SMILES IDX 37 67 51 69 72 70 39 71 23 72 24 73 32 74 25 75 26 76 30 77
REMARK SMILES IDX 33 78 27 79 28 80 31 81 29 82 55 83 56 84 64 85 57 86 58 87
REMARK SMILES IDX 62 88 65 89 59 90 60 91 63 92 61 93 40 94 41 95 49 96 42 97
REMARK SMILES IDX 43 98 47 99 50 100 44 101 45 102 48 103 46 104
REMARK H PARENT 7 5 3 18 11 38 70 57 38 68
REMARK Flexibility Score: inf
ROOT
ATOM      1  C   UNL A   1      35.168  23.314  23.836  1.00  0.00     0.117 C 
ENDROOT
BRANCH   1   2
ATOM      2  N   UNL A   1      34.796  24.694  22.948  1.00  0.00    -0.354 N 
ATOM      3  C   UNL A   1      33.444  26.069  22.659  1.00  0.00     0.246 C 
ATOM      4  O   UNL A   1      33.267  26.772  21.579  1.00  0.00    -0.272 OA
ATOM      5  H   UNL A   1      35.549  24.879  22.341  1.00  0.00     0.163 HD
BRANCH   3   6
ATOM      6  C   UNL A   1      32.041  26.738  23.666  1.00  0.00     0.130 C 
ATOM      7  C   UNL A   1      31.299  28.082  23.954  1.00  0.00     0.075 C 
ATOM      8  C   UNL A   1      32.230  26.240  25.176  1.00  0.00     0.075 C 
ATOM      9  C   UNL A   1      31.994  28.605  25.162  1.00  0.00    -0.042 A 
ATOM     10  C   UNL A   1      32.539  27.547  25.888  1.00  0.00    -0.042 A 
ATOM     11  C   UNL A   1      32.260  29.932  25.453  1.00  0.00     0.004 A 
ATOM     12  C   UNL A   1      33.415  27.815  26.930  1.00  0.00     0.004 A 
ATOM     13  C   UNL A   1      33.211  30.201  26.430  1.00  0.00     0.000 A 
ATOM     14  C   UNL A   1      33.786  29.149  27.161  1.00  0.00     0.000 A 
BRANCH   6  15
ATOM     15  N   UNL A   1      30.942  25.880  22.977  1.00  0.00    -0.306 N 
ATOM     16  O   UNL A   1      29.569  24.063  23.030  1.00  0.00    -0.225 OA
ATOM     17  C   UNL A   1      30.703  24.521  23.103  1.00  0.00     0.408 C 
ATOM     18  H   UNL A   1      30.337  26.366  22.372  1.00  0.00     0.168 HD
BRANCH  17  19
ATOM     19  O   UNL A   1      31.791  23.718  23.264  1.00  0.00    -0.449 OA
BRANCH  19  20
ATOM     20  C   UNL A   1      31.808  22.440  22.501  1.00  0.00     0.248 C 
BRANCH  20  21
ATOM     21  C   UNL A   1      32.006  21.288  23.516  1.00  0.00     0.088 C 
ATOM     22  C   UNL A   1      32.547  19.834  23.405  1.00  0.00    -0.029 A 
ATOM     23  C   UNL A   1      32.034  21.595  25.000  1.00  0.00    -0.029 A 
ATOM     24  C   UNL A   1      32.373  18.923  22.378  1.00  0.00     0.005 A 
ATOM     25  C   UNL A   1      33.422  19.505  24.518  1.00  0.00    -0.014 A 
ATOM     26  C   UNL A   1      33.536  20.664  25.424  1.00  0.00    -0.014 A 
ATOM     27  C   UNL A   1      31.394  22.898  26.055  1.00  0.00     0.005 A 
ATOM     28  C   UNL A   1      32.928  17.644  22.530  1.00  0.00     0.000 A 
ATOM     29  C   UNL A   1      33.903  18.218  24.686  1.00  0.00     0.009 A 
ATOM     30  C   UNL A   1      34.516  21.167  26.887  1.00  0.00     0.009 A 
ATOM     31  C   UNL A   1      32.290  23.336  27.599  1.00  0.00     0.000 A 
ATOM     32  C   UNL A   1      33.636  17.280  23.690  1.00  0.00     0.001 A 
ATOM     33  C   UNL A   1      33.884  22.517  27.971  1.00  0.00     0.001 A 
ENDBRANCH  20  21
ENDBRANCH  19  20
ENDBRANCH  17  19
ENDBRANCH   6  15
ENDBRANCH   3   6
ENDBRANCH   1   2
BRANCH   1  34
ATOM     34  C   UNL A   1      36.665  23.080  24.135  1.00  0.00     0.042 C 
BRANCH  34  35
ATOM     35  C   UNL A   1      37.014  23.506  25.537  1.00  0.00     0.118 C 
BRANCH  35  36
ATOM     36  N   UNL A   1      37.992  22.586  26.101  1.00  0.00    -0.352 N 
ATOM     37  C   UNL A   1      39.273  22.851  26.537  1.00  0.00     0.251 C 
ATOM     38  H   UNL A   1      37.701  21.649  26.178  1.00  0.00     0.163 HD
ATOM     39  O   UNL A   1      40.121  21.965  26.507  1.00  0.00    -0.269 OA
BRANCH  37  40
ATOM     40  C   UNL A   1      39.629  24.203  27.027  1.00  0.00     0.039 A 
ATOM     41  C   UNL A   1      40.241  25.133  26.179  1.00  0.00     0.014 A 
ATOM     42  C   UNL A   1      39.410  24.537  28.360  1.00  0.00     0.014 A 
ATOM     43  C   UNL A   1      40.600  26.393  26.673  1.00  0.00     0.010 A 
ATOM     44  C   UNL A   1      39.592  25.836  28.795  1.00  0.00     0.010 A 
ATOM     45  C   UNL A   1      40.254  26.761  27.983  1.00  0.00    -0.014 A 
BRANCH  45  46
ATOM     46  C   UNL A   1      40.647  28.050  28.604  1.00  0.00     0.031 A 
ATOM     47  C   UNL A   1      42.050  28.203  29.139  1.00  0.00     0.074 A 
ATOM     48  C   UNL A   1      39.730  29.013  28.806  1.00  0.00     0.049 A 
ATOM     49  N   UNL A   1      42.550  29.126  29.918  1.00  0.00    -0.248 NA
ATOM     50  C   UNL A   1      43.001  27.124  28.812  1.00  0.00     0.031 C 
ATOM     51  C   UNL A   1      38.329  28.951  28.388  1.00  0.00     0.029 A 
ATOM     52  N   UNL A   1      39.834  30.220  29.446  1.00  0.00    -0.354 N 
ATOM     53  C   UNL A   1      43.846  28.712  30.207  1.00  0.00     0.074 A 
ATOM     54  C   UNL A   1      44.022  27.413  29.601  1.00  0.00     0.031 C 
ATOM     55  C   UNL A   1      37.708  30.078  28.767  1.00  0.00     0.029 A 
ATOM     56  C   UNL A   1      38.651  30.916  29.503  1.00  0.00     0.049 A 
ATOM     57  H   UNL A   1      40.676  30.558  29.829  1.00  0.00     0.167 HD
ATOM     58  C   UNL A   1      44.815  29.371  30.881  1.00  0.00     0.037 A 
ATOM     59  C   UNL A   1      38.359  32.085  30.101  1.00  0.00     0.037 A 
ATOM     60  C   UNL A   1      44.636  30.687  31.431  1.00  0.00     0.049 A 
ATOM     61  C   UNL A   1      39.454  32.819  30.829  1.00  0.00     0.074 A 
ATOM     62  C   UNL A   1      45.564  31.494  32.063  1.00  0.00     0.029 A 
ATOM     63  N   UNL A   1      43.439  31.389  31.408  1.00  0.00    -0.354 N 
ATOM     64  N   UNL A   1      40.697  32.455  31.035  1.00  0.00    -0.248 NA
ATOM     65  C   UNL A   1      39.109  34.126  31.402  1.00  0.00     0.031 C 
ATOM     66  C   UNL A   1      44.913  32.660  32.474  1.00  0.00     0.029 A 
ATOM     67  C   UNL A   1      43.596  32.611  32.038  1.00  0.00     0.049 A 
ATOM     68  H   UNL A   1      42.601  31.066  31.003  1.00  0.00     0.167 HD
ATOM     69  C   UNL A   1      41.291  33.497  31.734  1.00  0.00     0.074 A 
ATOM     70  C   UNL A   1      40.273  34.512  31.909  1.00  0.00     0.031 C 
ATOM     71  C   UNL A   1      42.565  33.608  32.186  1.00  0.00     0.037 A 
BRANCH  58  72
ATOM     72  C   UNL A   1      46.142  28.681  31.050  1.00  0.00     0.064 A 
ATOM     73  C   UNL A   1      47.171  28.805  30.100  1.00  0.00     0.173 A 
ATOM     74  C   UNL A   1      46.390  27.876  32.173  1.00  0.00     0.173 A 
ATOM     75  F   UNL A   1      46.990  29.554  29.001  1.00  0.00    -0.203 F 
ATOM     76  C   UNL A   1      48.366  28.106  30.239  1.00  0.00     0.198 A 
ATOM     77  C   UNL A   1      47.605  27.214  32.330  1.00  0.00     0.198 A 
ATOM     78  F   UNL A   1      45.450  27.726  33.119  1.00  0.00    -0.203 F 
ATOM     79  F   UNL A   1      49.296  28.175  29.275  1.00  0.00    -0.200 F 
ATOM     80  C   UNL A   1      48.586  27.316  31.355  1.00  0.00     0.200 A 
ATOM     81  F   UNL A   1      47.822  26.464  33.420  1.00  0.00    -0.200 F 
ATOM     82  F   UNL A   1      49.737  26.642  31.486  1.00  0.00    -0.200 F 
ENDBRANCH  58  72
BRANCH  59  83
ATOM     83  C   UNL A   1      36.981  32.632  30.009  1.00  0.00     0.064 A 
ATOM     84  C   UNL A   1      36.059  32.444  31.049  1.00  0.00     0.173 A 
ATOM     85  C   UNL A   1      36.567  33.388  28.901  1.00  0.00     0.173 A 
ATOM     86  F   UNL A   1      36.403  31.721  32.124  1.00  0.00    -0.203 F 
ATOM     87  C   UNL A   1      34.774  32.978  30.978  1.00  0.00     0.198 A 
ATOM     88  C   UNL A   1      35.291  33.946  28.845  1.00  0.00     0.198 A 
ATOM     89  F   UNL A   1      37.415  33.610  27.886  1.00  0.00    -0.203 F 
ATOM     90  F   UNL A   1      33.902  32.752  31.970  1.00  0.00    -0.200 F 
ATOM     91  C   UNL A   1      34.394  33.735  29.880  1.00  0.00     0.200 A 
ATOM     92  F   UNL A   1      34.937  34.697  27.793  1.00  0.00    -0.200 F 
ATOM     93  F   UNL A   1      33.162  34.260  29.820  1.00  0.00    -0.200 F 
ENDBRANCH  59  83
BRANCH  71  94
ATOM     94  C   UNL A   1      42.948  34.883  32.877  1.00  0.00     0.064 A 
ATOM     95  C   UNL A   1      43.399  36.002  32.163  1.00  0.00     0.173 A 
ATOM     96  C   UNL A   1      42.774  35.010  34.264  1.00  0.00     0.173 A 
ATOM     97  F   UNL A   1      43.592  35.927  30.839  1.00  0.00    -0.203 F 
ATOM     98  C   UNL A   1      43.673  37.200  32.817  1.00  0.00     0.198 A 
ATOM     99  C   UNL A   1      43.017  36.219  34.908  1.00  0.00     0.198 A 
ATOM    100  F   UNL A   1      42.336  33.969  34.989  1.00  0.00    -0.203 F 
ATOM    101  F   UNL A   1      44.137  38.249  32.122  1.00  0.00    -0.200 F 
ATOM    102  C   UNL A   1      43.471  37.311  34.185  1.00  0.00     0.200 A 
ATOM    103  F   UNL A   1      42.802  36.328  36.226  1.00  0.00    -0.200 F 
ATOM    104  F   UNL A   1      43.714  38.472  34.808  1.00  0.00    -0.200 F 
ENDBRANCH  71  94
ENDBRANCH  45  46
ENDBRANCH  37  40
ENDBRANCH  35  36
ENDBRANCH  34  35
ENDBRANCH   1  34
TORSDOF 14
ENDMDL
MODEL 3
REMARK VINA RESULT:     -14.7      4.931      9.796
REMARK SMILES O=C(NC1(C(=O)NCCCNC(=O)c2ccc(-c3c4nc(c(-c5c(F)c(F)c(F)c(F)c5F)c5ccc([nH]5)c(-c5c(F)c(F)c(F)c(F)c5F)c5nc(c(-c6c(F)c(F)c(F)c(F)c6F)c6ccc3[nH]6)C=C5)C=C4)cc2)Cc2ccccc2C1)OCC1c2ccccc2-c2ccccc21
REMARK SMILES IDX 8 1 7 2 5 3 6 4 4 6 77 7 84 8 78 9 83 10 79 11 82 12 80 13
REMARK SMILES IDX 81 14 3 15 1 16 2 17 85 19 86 20 87 21 88 22 99 23 89 24
REMARK SMILES IDX 93 25 94 26 98 27 90 28 92 29 95 30 97 31 91 32 96 33 9 34
REMARK SMILES IDX 10 35 11 36 12 37 13 39 14 40 15 41 76 42 16 43 75 44 17 45
REMARK SMILES IDX 18 46 19 47 69 48 20 49 74 50 68 51 70 52 21 53 73 54 67 55
REMARK SMILES IDX 66 56 22 58 54 59 34 60 53 61 35 62 38 63 52 64 71 65 36 66
REMARK SMILES IDX 37 67 51 69 72 70 39 71 23 72 24 73 32 74 25 75 26 76 30 77
REMARK SMILES IDX 33 78 27 79 28 80 31 81 29 82 55 83 56 84 64 85 57 86 58 87
REMARK SMILES IDX 62 88 65 89 59 90 60 91 63 92 61 93 40 94 41 95 49 96 42 97
REMARK SMILES IDX 43 98 47 99 50 100 44 101 45 102 48 103 46 104
REMARK H PARENT 7 5 3 18 11 38 70 57 38 68
REMARK Flexibility Score: inf
ROOT
ATOM      1  C   UNL A   1      38.312  22.209  25.682  1.00  0.00     0.117 C 
ENDROOT
BRANCH   1   2
ATOM      2  N   UNL A   1      37.108  22.792  24.660  1.00  0.00    -0.354 N 
ATOM      3  C   UNL A   1      35.244  22.575  24.132  1.00  0.00     0.246 C 
ATOM      4  O   UNL A   1      34.716  22.905  22.990  1.00  0.00    -0.272 OA
ATOM      5  H   UNL A   1      37.492  23.523  24.123  1.00  0.00     0.163 HD
BRANCH   3   6
ATOM      6  C   UNL A   1      33.747  21.838  24.936  1.00  0.00     0.130 C 
ATOM      7  C   UNL A   1      33.342  20.646  25.861  1.00  0.00     0.075 C 
ATOM      8  C   UNL A   1      32.613  21.670  23.817  1.00  0.00     0.075 C 
ATOM      9  C   UNL A   1      32.954  19.580  24.897  1.00  0.00    -0.042 A 
ATOM     10  C   UNL A   1      32.523  20.156  23.703  1.00  0.00    -0.042 A 
ATOM     11  C   UNL A   1      33.162  18.219  25.042  1.00  0.00     0.004 A 
ATOM     12  C   UNL A   1      32.323  19.353  22.591  1.00  0.00     0.004 A 
ATOM     13  C   UNL A   1      33.058  17.425  23.906  1.00  0.00     0.000 A 
ATOM     14  C   UNL A   1      32.643  17.989  22.689  1.00  0.00     0.000 A 
BRANCH   6  15
ATOM     15  N   UNL A   1      33.424  23.080  25.813  1.00  0.00    -0.306 N 
ATOM     16  O   UNL A   1      31.870  24.375  26.860  1.00  0.00    -0.225 OA
ATOM     17  C   UNL A   1      32.271  23.847  25.830  1.00  0.00     0.408 C 
ATOM     18  H   UNL A   1      34.131  23.358  26.439  1.00  0.00     0.168 HD
BRANCH  17  19
ATOM     19  O   UNL A   1      31.633  24.024  24.640  1.00  0.00    -0.449 OA
BRANCH  19  20
ATOM     20  C   UNL A   1      32.026  25.210  23.831  1.00  0.00     0.248 C 
BRANCH  20  21
ATOM     21  C   UNL A   1      31.690  26.476  24.657  1.00  0.00     0.088 C 
ATOM     22  C   UNL A   1      32.550  27.547  25.387  1.00  0.00    -0.029 A 
ATOM     23  C   UNL A   1      30.316  27.104  24.537  1.00  0.00    -0.029 A 
ATOM     24  C   UNL A   1      33.726  27.375  26.096  1.00  0.00     0.005 A 
ATOM     25  C   UNL A   1      32.036  28.888  25.160  1.00  0.00    -0.014 A 
ATOM     26  C   UNL A   1      30.844  28.825  24.293  1.00  0.00    -0.014 A 
ATOM     27  C   UNL A   1      28.680  26.536  24.068  1.00  0.00     0.005 A 
ATOM     28  C   UNL A   1      34.297  28.500  26.708  1.00  0.00     0.000 A 
ATOM     29  C   UNL A   1      32.571  29.975  25.828  1.00  0.00     0.009 A 
ATOM     30  C   UNL A   1      29.738  29.982  23.402  1.00  0.00     0.009 A 
ATOM     31  C   UNL A   1      27.502  27.712  23.288  1.00  0.00     0.000 A 
ATOM     32  C   UNL A   1      33.700  29.771  26.621  1.00  0.00     0.001 A 
ATOM     33  C   UNL A   1      28.061  29.409  22.895  1.00  0.00     0.001 A 
ENDBRANCH  20  21
ENDBRANCH  19  20
ENDBRANCH  17  19
ENDBRANCH   6  15
ENDBRANCH   3   6
ENDBRANCH   1   2
BRANCH   1  34
ATOM     34  C   UNL A   1      38.938  20.852  25.289  1.00  0.00     0.042 C 
BRANCH  34  35
ATOM     35  C   UNL A   1      39.476  20.130  26.497  1.00  0.00     0.118 C 
BRANCH  35  36
ATOM     36  N   UNL A   1      40.637  19.337  26.118  1.00  0.00    -0.352 N 
ATOM     37  C   UNL A   1      41.914  19.766  25.822  1.00  0.00     0.251 C 
ATOM     38  H   UNL A   1      40.491  18.365  26.064  1.00  0.00     0.163 HD
ATOM     39  O   UNL A   1      42.617  19.104  25.065  1.00  0.00    -0.269 OA
BRANCH  37  40
ATOM     40  C   UNL A   1      42.431  21.026  26.403  1.00  0.00     0.039 A 
ATOM     41  C   UNL A   1      42.560  21.175  27.789  1.00  0.00     0.014 A 
ATOM     42  C   UNL A   1      42.738  22.099  25.571  1.00  0.00     0.014 A 
ATOM     43  C   UNL A   1      43.020  22.386  28.319  1.00  0.00     0.010 A 
ATOM     44  C   UNL A   1      43.364  23.221  26.079  1.00  0.00     0.010 A 
ATOM     45  C   UNL A   1      43.448  23.412  27.461  1.00  0.00    -0.014 A 
BRANCH  45  46
ATOM     46  C   UNL A   1      43.892  24.747  27.936  1.00  0.00     0.031 A 
ATOM     47  C   UNL A   1      42.848  25.774  28.299  1.00  0.00     0.074 A 
ATOM     48  C   UNL A   1      45.197  25.076  27.913  1.00  0.00     0.049 A 
ATOM     49  N   UNL A   1      42.979  27.058  28.510  1.00  0.00    -0.248 NA
ATOM     50  C   UNL A   1      41.452  25.303  28.358  1.00  0.00     0.031 C 
ATOM     51  C   UNL A   1      46.289  24.185  27.521  1.00  0.00     0.029 A 
ATOM     52  N   UNL A   1      45.819  26.263  28.195  1.00  0.00    -0.354 N 
ATOM     53  C   UNL A   1      41.687  27.544  28.676  1.00  0.00     0.074 A 
ATOM     54  C   UNL A   1      40.784  26.441  28.447  1.00  0.00     0.031 C 
ATOM     55  C   UNL A   1      47.450  24.852  27.604  1.00  0.00     0.029 A 
ATOM     56  C   UNL A   1      47.178  26.230  28.000  1.00  0.00     0.049 A 
ATOM     57  H   UNL A   1      45.339  27.064  28.509  1.00  0.00     0.167 HD
ATOM     58  C   UNL A   1      41.288  28.788  29.026  1.00  0.00     0.037 A 
ATOM     59  C   UNL A   1      48.095  27.210  28.109  1.00  0.00     0.037 A 
ATOM     60  C   UNL A   1      42.205  29.860  29.301  1.00  0.00     0.049 A 
ATOM     61  C   UNL A   1      47.639  28.585  28.522  1.00  0.00     0.074 A 
ATOM     62  C   UNL A   1      41.931  31.140  29.746  1.00  0.00     0.029 A 
ATOM     63  N   UNL A   1      43.583  29.768  29.159  1.00  0.00    -0.354 N 
ATOM     64  N   UNL A   1      46.423  29.019  28.749  1.00  0.00    -0.248 NA
ATOM     65  C   UNL A   1      48.682  29.603  28.699  1.00  0.00     0.031 C 
ATOM     66  C   UNL A   1      43.139  31.841  29.815  1.00  0.00     0.029 A 
ATOM     67  C   UNL A   1      44.173  30.977  29.481  1.00  0.00     0.049 A 
ATOM     68  H   UNL A   1      44.069  28.961  28.871  1.00  0.00     0.167 HD
ATOM     69  C   UNL A   1      46.554  30.349  29.124  1.00  0.00     0.074 A 
ATOM     70  C   UNL A   1      47.971  30.648  29.103  1.00  0.00     0.031 C 
ATOM     71  C   UNL A   1      45.591  31.242  29.462  1.00  0.00     0.037 A 
BRANCH  58  72
ATOM     72  C   UNL A   1      39.809  29.044  29.136  1.00  0.00     0.064 A 
ATOM     73  C   UNL A   1      39.119  28.911  30.353  1.00  0.00     0.173 A 
ATOM     74  C   UNL A   1      39.066  29.420  28.006  1.00  0.00     0.173 A 
ATOM     75  F   UNL A   1      39.775  28.546  31.465  1.00  0.00    -0.203 F 
ATOM     76  C   UNL A   1      37.740  29.085  30.421  1.00  0.00     0.198 A 
ATOM     77  C   UNL A   1      37.692  29.637  28.089  1.00  0.00     0.198 A 
ATOM     78  F   UNL A   1      39.669  29.572  26.818  1.00  0.00    -0.203 F 
ATOM     79  F   UNL A   1      37.096  28.868  31.577  1.00  0.00    -0.200 F 
ATOM     80  C   UNL A   1      37.028  29.454  29.292  1.00  0.00     0.200 A 
ATOM     81  F   UNL A   1      37.007  30.011  26.998  1.00  0.00    -0.200 F 
ATOM     82  F   UNL A   1      35.700  29.620  29.359  1.00  0.00    -0.200 F 
ENDBRANCH  58  72
BRANCH  59  83
ATOM     83  C   UNL A   1      49.525  26.909  27.843  1.00  0.00     0.064 A 
ATOM     84  C   UNL A   1      50.397  26.571  28.887  1.00  0.00     0.173 A 
ATOM     85  C   UNL A   1      50.042  26.913  26.538  1.00  0.00     0.173 A 
ATOM     86  F   UNL A   1      49.954  26.562  30.152  1.00  0.00    -0.203 F 
ATOM     87  C   UNL A   1      51.734  26.262  28.638  1.00  0.00     0.198 A 
ATOM     88  C   UNL A   1      51.371  26.575  26.288  1.00  0.00     0.198 A 
ATOM     89  F   UNL A   1      49.246  27.215  25.501  1.00  0.00    -0.203 F 
ATOM     90  F   UNL A   1      52.553  25.977  29.658  1.00  0.00    -0.200 F 
ATOM     91  C   UNL A   1      52.217  26.257  27.338  1.00  0.00     0.200 A 
ATOM     92  F   UNL A   1      51.826  26.548  25.028  1.00  0.00    -0.200 F 
ATOM     93  F   UNL A   1      53.498  25.946  27.099  1.00  0.00    -0.200 F 
ENDBRANCH  59  83
BRANCH  71  94
ATOM     94  C   UNL A   1      46.031  32.614  29.876  1.00  0.00     0.064 A 
ATOM     95  C   UNL A   1      46.098  33.675  28.962  1.00  0.00     0.173 A 
ATOM     96  C   UNL A   1      46.302  32.888  31.226  1.00  0.00     0.173 A 
ATOM     97  F   UNL A   1      45.859  33.461  27.660  1.00  0.00    -0.203 F 
ATOM     98  C   UNL A   1      46.433  34.959  29.383  1.00  0.00     0.198 A 
ATOM     99  C   UNL A   1      46.604  34.178  31.648  1.00  0.00     0.198 A 
ATOM    100  F   UNL A   1      46.243  31.907  32.140  1.00  0.00    -0.203 F 
ATOM    101  F   UNL A   1      46.526  35.952  28.488  1.00  0.00    -0.200 F 
ATOM    102  C   UNL A   1      46.674  35.211  30.726  1.00  0.00     0.200 A 
ATOM    103  F   UNL A   1      46.816  34.423  32.948  1.00  0.00    -0.200 F 
ATOM    104  F   UNL A   1      46.974  36.453  31.132  1.00  0.00    -0.200 F 
ENDBRANCH  71  94
ENDBRANCH  45  46
ENDBRANCH  37  40
ENDBRANCH  35  36
ENDBRANCH  34  35
ENDBRANCH   1  34
TORSDOF 14
ENDMDL
