MODEL 1
REMARK VINA RESULT:     -12.0      0.000      0.000
REMARK SMILES CC(C)(C)N(CC(=O)NCCCNC(=O)c1ccc(-c2c3nc(c(-c4c(F)c(F)c(F)c(F)c4F)c4ccc([nH]4)c(-c4c(F)c(F)c(F)c(F)c4F)c4nc(c(-c5c(F)c(F)c(F)c(F)c5F)c5ccc2[nH]5)C=C4)C=C3)cc1)C(=O)NC[C@H]1CCOC1
REMARK SMILES IDX 10 1 9 2 7 3 8 4 6 6 5 7 2 8 1 9 3 10 4 11 79 12 80 13 81 14
REMARK SMILES IDX 82 16 83 17 84 18 87 19 85 20 86 21 11 22 12 23 13 24 14 25
REMARK SMILES IDX 15 27 16 28 17 29 78 30 18 31 77 32 19 33 20 34 21 35 71 36
REMARK SMILES IDX 22 37 76 38 70 39 72 40 23 41 75 42 69 43 68 44 24 46 56 47
REMARK SMILES IDX 36 48 55 49 37 50 40 51 54 52 73 53 38 54 39 55 53 57 74 58
REMARK SMILES IDX 41 59 25 60 26 61 34 62 27 63 28 64 32 65 35 66 29 67 30 68
REMARK SMILES IDX 33 69 31 70 57 71 58 72 66 73 59 74 60 75 64 76 67 77 61 78
REMARK SMILES IDX 62 79 65 80 63 81 42 82 43 83 51 84 44 85 45 86 49 87 52 88
REMARK SMILES IDX 46 89 47 90 50 91 48 92
REMARK H PARENT 9 5 81 15 13 26 72 45 40 56
REMARK Flexibility Score: inf
ROOT
ATOM      1  C   UNL A   1      32.430  26.268  25.868  1.00  0.00     0.117 C 
ENDROOT
BRANCH   1   2
ATOM      2  N   UNL A   1      31.790  25.309  26.735  1.00  0.00    -0.354 N 
ATOM      3  C   UNL A   1      31.677  23.959  26.611  1.00  0.00     0.239 C 
ATOM      4  O   UNL A   1      31.308  23.352  27.624  1.00  0.00    -0.273 OA
ATOM      5  H   UNL A   1      31.370  25.690  27.540  1.00  0.00     0.163 HD
BRANCH   3   6
ATOM      6  C   UNL A   1      32.164  23.189  25.367  1.00  0.00     0.221 C 
BRANCH   6   7
ATOM      7  N   UNL A   1      33.444  22.463  25.416  1.00  0.00    -0.311 N 
BRANCH   7   8
ATOM      8  C   UNL A   1      34.646  23.019  24.644  1.00  0.00     0.037 C 
ATOM      9  C   UNL A   1      35.720  21.967  24.251  1.00  0.00     0.034 C 
ATOM     10  C   UNL A   1      35.403  24.107  25.445  1.00  0.00     0.034 C 
ATOM     11  C   UNL A   1      34.178  23.623  23.294  1.00  0.00     0.034 C 
ENDBRANCH   7   8
BRANCH   7  12
ATOM     12  C   UNL A   1      33.713  21.486  26.353  1.00  0.00     0.318 C 
ATOM     13  O   UNL A   1      34.366  21.712  27.377  1.00  0.00    -0.249 OA
ATOM     14  N   UNL A   1      33.297  20.213  26.294  1.00  0.00    -0.338 N 
ATOM     15  H   UNL A   1      33.625  19.726  27.085  1.00  0.00     0.165 HD
BRANCH  14  16
ATOM     16  C   UNL A   1      32.524  19.307  25.458  1.00  0.00     0.123 C 
BRANCH  16  17
ATOM     17  C   UNL A   1      33.350  18.658  24.342  1.00  0.00     0.036 C 
ATOM     18  C   UNL A   1      33.996  17.316  24.625  1.00  0.00     0.036 C 
ATOM     19  C   UNL A   1      32.533  18.333  23.100  1.00  0.00     0.165 C 
ATOM     20  C   UNL A   1      34.273  16.791  23.232  1.00  0.00     0.160 C 
ATOM     21  O   UNL A   1      33.259  17.328  22.376  1.00  0.00    -0.381 OA
ENDBRANCH  16  17
ENDBRANCH  14  16
ENDBRANCH   7  12
ENDBRANCH   6   7
ENDBRANCH   3   6
ENDBRANCH   1   2
BRANCH   1  22
ATOM     22  C   UNL A   1      32.046  27.706  26.180  1.00  0.00     0.042 C 
BRANCH  22  23
ATOM     23  C   UNL A   1      33.019  28.737  25.622  1.00  0.00     0.118 C 
BRANCH  23  24
ATOM     24  N   UNL A   1      32.630  30.106  25.947  1.00  0.00    -0.352 N 
ATOM     25  C   UNL A   1      33.138  30.994  26.861  1.00  0.00     0.251 C 
ATOM     26  H   UNL A   1      31.874  30.451  25.419  1.00  0.00     0.163 HD
ATOM     27  O   UNL A   1      32.499  32.010  27.133  1.00  0.00    -0.269 OA
BRANCH  25  28
ATOM     28  C   UNL A   1      34.431  30.744  27.533  1.00  0.00     0.039 A 
ATOM     29  C   UNL A   1      35.362  31.785  27.628  1.00  0.00     0.014 A 
ATOM     30  C   UNL A   1      34.754  29.480  28.027  1.00  0.00     0.014 A 
ATOM     31  C   UNL A   1      36.578  31.576  28.285  1.00  0.00     0.010 A 
ATOM     32  C   UNL A   1      35.922  29.298  28.759  1.00  0.00     0.010 A 
ATOM     33  C   UNL A   1      36.850  30.342  28.894  1.00  0.00    -0.014 A 
BRANCH  33  34
ATOM     34  C   UNL A   1      38.091  30.098  29.672  1.00  0.00     0.031 A 
ATOM     35  C   UNL A   1      39.135  29.155  29.138  1.00  0.00     0.074 A 
ATOM     36  C   UNL A   1      38.230  30.633  30.900  1.00  0.00     0.049 A 
ATOM     37  N   UNL A   1      40.193  28.664  29.732  1.00  0.00    -0.248 NA
ATOM     38  C   UNL A   1      38.943  28.674  27.761  1.00  0.00     0.031 C 
ATOM     39  C   UNL A   1      37.274  31.535  31.545  1.00  0.00     0.029 A 
ATOM     40  N   UNL A   1      39.218  30.472  31.840  1.00  0.00    -0.354 N 
ATOM     41  C   UNL A   1      40.769  27.794  28.816  1.00  0.00     0.074 A 
ATOM     42  C   UNL A   1      39.923  27.790  27.643  1.00  0.00     0.031 C 
ATOM     43  C   UNL A   1      37.725  31.852  32.769  1.00  0.00     0.029 A 
ATOM     44  C   UNL A   1      38.973  31.138  33.017  1.00  0.00     0.049 A 
ATOM     45  H   UNL A   1      40.027  29.931  31.686  1.00  0.00     0.167 HD
ATOM     46  C   UNL A   1      41.912  27.076  28.937  1.00  0.00     0.037 A 
ATOM     47  C   UNL A   1      39.662  31.150  34.174  1.00  0.00     0.037 A 
ATOM     48  C   UNL A   1      42.769  27.112  30.092  1.00  0.00     0.049 A 
ATOM     49  C   UNL A   1      40.924  30.337  34.286  1.00  0.00     0.074 A 
ATOM     50  C   UNL A   1      43.983  26.476  30.286  1.00  0.00     0.029 A 
ATOM     51  N   UNL A   1      42.502  27.827  31.251  1.00  0.00    -0.354 N 
ATOM     52  N   UNL A   1      41.490  29.561  33.393  1.00  0.00    -0.248 NA
ATOM     53  C   UNL A   1      41.642  30.400  35.566  1.00  0.00     0.031 C 
ATOM     54  C   UNL A   1      44.428  26.768  31.579  1.00  0.00     0.029 A 
ATOM     55  C   UNL A   1      43.519  27.629  32.171  1.00  0.00     0.049 A 
ATOM     56  H   UNL A   1      41.709  28.391  31.397  1.00  0.00     0.167 HD
ATOM     57  C   UNL A   1      42.644  29.071  33.990  1.00  0.00     0.074 A 
ATOM     58  C   UNL A   1      42.703  29.644  35.318  1.00  0.00     0.031 C 
ATOM     59  C   UNL A   1      43.572  28.223  33.483  1.00  0.00     0.037 A 
BRANCH  46  60
ATOM     60  C   UNL A   1      42.304  26.189  27.790  1.00  0.00     0.064 A 
ATOM     61  C   UNL A   1      41.719  24.928  27.600  1.00  0.00     0.173 A 
ATOM     62  C   UNL A   1      43.244  26.624  26.844  1.00  0.00     0.173 A 
ATOM     63  F   UNL A   1      40.822  24.460  28.481  1.00  0.00    -0.203 F 
ATOM     64  C   UNL A   1      42.085  24.123  26.525  1.00  0.00     0.198 A 
ATOM     65  C   UNL A   1      43.584  25.830  25.752  1.00  0.00     0.198 A 
ATOM     66  F   UNL A   1      43.828  27.825  26.974  1.00  0.00    -0.203 F 
ATOM     67  F   UNL A   1      41.550  22.901  26.392  1.00  0.00    -0.200 F 
ATOM     68  C   UNL A   1      43.010  24.578  25.597  1.00  0.00     0.200 A 
ATOM     69  F   UNL A   1      44.466  26.277  24.848  1.00  0.00    -0.200 F 
ATOM     70  F   UNL A   1      43.354  23.806  24.557  1.00  0.00    -0.200 F 
ENDBRANCH  46  60
BRANCH  47  71
ATOM     71  C   UNL A   1      39.180  31.967  35.318  1.00  0.00     0.064 A 
ATOM     72  C   UNL A   1      38.433  31.384  36.351  1.00  0.00     0.173 A 
ATOM     73  C   UNL A   1      39.449  33.341  35.402  1.00  0.00     0.173 A 
ATOM     74  F   UNL A   1      38.133  30.079  36.305  1.00  0.00    -0.203 F 
ATOM     75  C   UNL A   1      37.955  32.149  37.414  1.00  0.00     0.198 A 
ATOM     76  C   UNL A   1      38.996  34.099  36.480  1.00  0.00     0.198 A 
ATOM     77  F   UNL A   1      40.164  33.947  34.442  1.00  0.00    -0.203 F 
ATOM     78  F   UNL A   1      37.202  31.575  38.362  1.00  0.00    -0.200 F 
ATOM     79  C   UNL A   1      38.242  33.503  37.480  1.00  0.00     0.200 A 
ATOM     80  F   UNL A   1      39.286  35.405  36.549  1.00  0.00    -0.200 F 
ATOM     81  F   UNL A   1      37.784  34.237  38.504  1.00  0.00    -0.200 F 
ENDBRANCH  47  71
BRANCH  59  82
ATOM     82  C   UNL A   1      44.759  27.899  34.342  1.00  0.00     0.064 A 
ATOM     83  C   UNL A   1      45.905  28.706  34.348  1.00  0.00     0.173 A 
ATOM     84  C   UNL A   1      44.719  26.803  35.216  1.00  0.00     0.173 A 
ATOM     85  F   UNL A   1      45.998  29.757  33.520  1.00  0.00    -0.203 F 
ATOM     86  C   UNL A   1      46.976  28.416  35.190  1.00  0.00     0.198 A 
ATOM     87  C   UNL A   1      45.779  26.534  36.076  1.00  0.00     0.198 A 
ATOM     88  F   UNL A   1      43.641  26.005  35.251  1.00  0.00    -0.203 F 
ATOM     89  F   UNL A   1      48.079  29.178  35.154  1.00  0.00    -0.200 F 
ATOM     90  C   UNL A   1      46.909  27.338  36.060  1.00  0.00     0.200 A 
ATOM     91  F   UNL A   1      45.705  25.500  36.926  1.00  0.00    -0.200 F 
ATOM     92  F   UNL A   1      47.935  27.071  36.879  1.00  0.00    -0.200 F 
ENDBRANCH  59  82
ENDBRANCH  33  34
ENDBRANCH  25  28
ENDBRANCH  23  24
ENDBRANCH  22  23
ENDBRANCH   1  22
TORSDOF 15
ENDMDL
MODEL 2
REMARK VINA RESULT:     -11.8      4.670      9.938
REMARK SMILES CC(C)(C)N(CC(=O)NCCCNC(=O)c1ccc(-c2c3nc(c(-c4c(F)c(F)c(F)c(F)c4F)c4ccc([nH]4)c(-c4c(F)c(F)c(F)c(F)c4F)c4nc(c(-c5c(F)c(F)c(F)c(F)c5F)c5ccc2[nH]5)C=C4)C=C3)cc1)C(=O)NC[C@H]1CCOC1
REMARK SMILES IDX 10 1 9 2 7 3 8 4 6 6 5 7 2 8 1 9 3 10 4 11 79 12 80 13 81 14
REMARK SMILES IDX 82 16 83 17 84 18 87 19 85 20 86 21 11 22 12 23 13 24 14 25
REMARK SMILES IDX 15 27 16 28 17 29 78 30 18 31 77 32 19 33 20 34 21 35 71 36
REMARK SMILES IDX 22 37 76 38 70 39 72 40 23 41 75 42 69 43 68 44 24 46 56 47
REMARK SMILES IDX 36 48 55 49 37 50 40 51 54 52 73 53 38 54 39 55 53 57 74 58
REMARK SMILES IDX 41 59 25 60 26 61 34 62 27 63 28 64 32 65 35 66 29 67 30 68
REMARK SMILES IDX 33 69 31 70 57 71 58 72 66 73 59 74 60 75 64 76 67 77 61 78
REMARK SMILES IDX 62 79 65 80 63 81 42 82 43 83 51 84 44 85 45 86 49 87 52 88
REMARK SMILES IDX 46 89 47 90 50 91 48 92
REMARK H PARENT 9 5 81 15 13 26 72 45 40 56
REMARK Flexibility Score: inf
ROOT
ATOM      1  C   UNL A   1      36.893  20.314  24.990  1.00  0.00     0.117 C 
ENDROOT
BRANCH   1   2
ATOM      2  N   UNL A   1      36.974  21.699  24.593  1.00  0.00    -0.354 N 
ATOM      3  C   UNL A   1      35.982  22.587  24.318  1.00  0.00     0.239 C 
ATOM      4  O   UNL A   1      36.321  23.775  24.257  1.00  0.00    -0.273 OA
ATOM      5  H   UNL A   1      37.888  22.054  24.507  1.00  0.00     0.163 HD
BRANCH   3   6
ATOM      6  C   UNL A   1      34.491  22.193  24.281  1.00  0.00     0.221 C 
BRANCH   6   7
ATOM      7  N   UNL A   1      33.700  22.223  25.523  1.00  0.00    -0.311 N 
BRANCH   7   8
ATOM      8  C   UNL A   1      32.478  23.144  25.607  1.00  0.00     0.037 C 
ATOM      9  C   UNL A   1      32.779  24.656  25.413  1.00  0.00     0.034 C 
ATOM     10  C   UNL A   1      31.757  23.036  26.974  1.00  0.00     0.034 C 
ATOM     11  C   UNL A   1      31.472  22.797  24.479  1.00  0.00     0.034 C 
ENDBRANCH   7   8
BRANCH   7  12
ATOM     12  C   UNL A   1      33.810  21.255  26.501  1.00  0.00     0.318 C 
ATOM     13  O   UNL A   1      34.393  21.459  27.572  1.00  0.00    -0.249 OA
ATOM     14  N   UNL A   1      33.299  20.018  26.437  1.00  0.00    -0.338 N 
ATOM     15  H   UNL A   1      33.520  19.530  27.263  1.00  0.00     0.165 HD
BRANCH  14  16
ATOM     16  C   UNL A   1      32.526  19.152  25.559  1.00  0.00     0.123 C 
BRANCH  16  17
ATOM     17  C   UNL A   1      33.349  18.563  24.409  1.00  0.00     0.036 C 
ATOM     18  C   UNL A   1      34.009  17.215  24.625  1.00  0.00     0.036 C 
ATOM     19  C   UNL A   1      32.527  18.288  23.158  1.00  0.00     0.165 C 
ATOM     20  C   UNL A   1      34.282  16.759  23.208  1.00  0.00     0.160 C 
ATOM     21  O   UNL A   1      33.256  17.325  22.384  1.00  0.00    -0.381 OA
ENDBRANCH  16  17
ENDBRANCH  14  16
ENDBRANCH   7  12
ENDBRANCH   6   7
ENDBRANCH   3   6
ENDBRANCH   1   2
BRANCH   1  22
ATOM     22  C   UNL A   1      38.213  19.573  24.845  1.00  0.00     0.042 C 
BRANCH  22  23
ATOM     23  C   UNL A   1      39.263  19.980  25.873  1.00  0.00     0.118 C 
BRANCH  23  24
ATOM     24  N   UNL A   1      40.357  19.019  25.964  1.00  0.00    -0.352 N 
ATOM     25  C   UNL A   1      41.712  19.203  26.073  1.00  0.00     0.251 C 
ATOM     26  H   UNL A   1      40.074  18.075  25.945  1.00  0.00     0.163 HD
ATOM     27  O   UNL A   1      42.466  18.248  25.892  1.00  0.00    -0.269 OA
BRANCH  25  28
ATOM     28  C   UNL A   1      42.280  20.530  26.390  1.00  0.00     0.039 A 
ATOM     29  C   UNL A   1      42.740  21.342  25.347  1.00  0.00     0.014 A 
ATOM     30  C   UNL A   1      42.409  20.961  27.711  1.00  0.00     0.014 A 
ATOM     31  C   UNL A   1      43.253  22.612  25.625  1.00  0.00     0.010 A 
ATOM     32  C   UNL A   1      42.835  22.258  27.980  1.00  0.00     0.010 A 
ATOM     33  C   UNL A   1      43.265  23.098  26.941  1.00  0.00    -0.014 A 
BRANCH  33  34
ATOM     34  C   UNL A   1      43.725  24.470  27.275  1.00  0.00     0.031 A 
ATOM     35  C   UNL A   1      42.737  25.488  27.776  1.00  0.00     0.074 A 
ATOM     36  C   UNL A   1      44.998  24.830  27.026  1.00  0.00     0.049 A 
ATOM     37  N   UNL A   1      42.887  26.777  27.949  1.00  0.00    -0.248 NA
ATOM     38  C   UNL A   1      41.387  24.994  28.093  1.00  0.00     0.031 C 
ATOM     39  C   UNL A   1      46.043  23.946  26.507  1.00  0.00     0.029 A 
ATOM     40  N   UNL A   1      45.624  26.047  27.147  1.00  0.00    -0.354 N 
ATOM     41  C   UNL A   1      41.648  27.249  28.360  1.00  0.00     0.074 A 
ATOM     42  C   UNL A   1      40.745  26.119  28.369  1.00  0.00     0.031 C 
ATOM     43  C   UNL A   1      47.180  24.647  26.362  1.00  0.00     0.029 A 
ATOM     44  C   UNL A   1      46.932  26.038  26.727  1.00  0.00     0.049 A 
ATOM     45  H   UNL A   1      45.177  26.850  27.501  1.00  0.00     0.167 HD
ATOM     46  C   UNL A   1      41.299  28.510  28.713  1.00  0.00     0.037 A 
ATOM     47  C   UNL A   1      47.822  27.043  26.620  1.00  0.00     0.037 A 
ATOM     48  C   UNL A   1      42.212  29.622  28.737  1.00  0.00     0.049 A 
ATOM     49  C   UNL A   1      47.408  28.436  27.011  1.00  0.00     0.074 A 
ATOM     50  C   UNL A   1      41.975  30.923  29.145  1.00  0.00     0.029 A 
ATOM     51  N   UNL A   1      43.539  29.563  28.336  1.00  0.00    -0.354 N 
ATOM     52  N   UNL A   1      46.248  28.861  27.451  1.00  0.00    -0.248 NA
ATOM     53  C   UNL A   1      48.425  29.489  26.890  1.00  0.00     0.031 C 
ATOM     54  C   UNL A   1      43.144  31.663  28.948  1.00  0.00     0.029 A 
ATOM     55  C   UNL A   1      44.126  30.811  28.467  1.00  0.00     0.049 A 
ATOM     56  H   UNL A   1      43.995  28.756  28.008  1.00  0.00     0.167 HD
ATOM     57  C   UNL A   1      46.406  30.220  27.690  1.00  0.00     0.074 A 
ATOM     58  C   UNL A   1      47.776  30.548  27.354  1.00  0.00     0.031 C 
ATOM     59  C   UNL A   1      45.497  31.116  28.147  1.00  0.00     0.037 A 
BRANCH  46  60
ATOM     60  C   UNL A   1      39.870  28.755  29.104  1.00  0.00     0.064 A 
ATOM     61  C   UNL A   1      39.435  28.620  30.432  1.00  0.00     0.173 A 
ATOM     62  C   UNL A   1      38.933  29.174  28.148  1.00  0.00     0.173 A 
ATOM     63  F   UNL A   1      40.288  28.212  31.383  1.00  0.00    -0.203 F 
ATOM     64  C   UNL A   1      38.109  28.862  30.779  1.00  0.00     0.198 A 
ATOM     65  C   UNL A   1      37.615  29.447  28.505  1.00  0.00     0.198 A 
ATOM     66  F   UNL A   1      39.297  29.327  26.866  1.00  0.00    -0.203 F 
ATOM     67  F   UNL A   1      37.706  28.677  32.044  1.00  0.00    -0.200 F 
ATOM     68  C   UNL A   1      37.203  29.284  29.818  1.00  0.00     0.200 A 
ATOM     69  F   UNL A   1      36.744  29.869  27.579  1.00  0.00    -0.200 F 
ATOM     70  F   UNL A   1      35.929  29.526  30.157  1.00  0.00    -0.200 F 
ENDBRANCH  46  60
BRANCH  47  71
ATOM     71  C   UNL A   1      49.199  26.768  26.132  1.00  0.00     0.064 A 
ATOM     72  C   UNL A   1      49.535  26.967  24.786  1.00  0.00     0.173 A 
ATOM     73  C   UNL A   1      50.202  26.298  26.993  1.00  0.00     0.173 A 
ATOM     74  F   UNL A   1      48.606  27.396  23.921  1.00  0.00    -0.203 F 
ATOM     75  C   UNL A   1      50.817  26.687  24.315  1.00  0.00     0.198 A 
ATOM     76  C   UNL A   1      51.491  26.045  26.527  1.00  0.00     0.198 A 
ATOM     77  F   UNL A   1      49.933  26.094  28.291  1.00  0.00    -0.203 F 
ATOM     78  F   UNL A   1      51.097  26.840  23.014  1.00  0.00    -0.200 F 
ATOM     79  C   UNL A   1      51.794  26.232  25.186  1.00  0.00     0.200 A 
ATOM     80  F   UNL A   1      52.437  25.619  27.374  1.00  0.00    -0.200 F 
ATOM     81  F   UNL A   1      53.026  25.965  24.733  1.00  0.00    -0.200 F 
ENDBRANCH  47  71
BRANCH  59  82
ATOM     82  C   UNL A   1      45.961  32.527  28.361  1.00  0.00     0.064 A 
ATOM     83  C   UNL A   1      45.842  33.501  27.361  1.00  0.00     0.173 A 
ATOM     84  C   UNL A   1      46.471  32.920  29.608  1.00  0.00     0.173 A 
ATOM     85  F   UNL A   1      45.375  33.172  26.148  1.00  0.00    -0.203 F 
ATOM     86  C   UNL A   1      46.232  34.817  27.597  1.00  0.00     0.198 A 
ATOM     87  C   UNL A   1      46.832  34.243  29.849  1.00  0.00     0.198 A 
ATOM     88  F   UNL A   1      46.598  32.026  30.600  1.00  0.00    -0.203 F 
ATOM     89  F   UNL A   1      46.146  35.726  26.615  1.00  0.00    -0.200 F 
ATOM     90  C   UNL A   1      46.717  35.189  28.842  1.00  0.00     0.200 A 
ATOM     91  F   UNL A   1      47.286  34.602  31.058  1.00  0.00    -0.200 F 
ATOM     92  F   UNL A   1      47.077  36.459  29.070  1.00  0.00    -0.200 F 
ENDBRANCH  59  82
ENDBRANCH  33  34
ENDBRANCH  25  28
ENDBRANCH  23  24
ENDBRANCH  22  23
ENDBRANCH   1  22
TORSDOF 15
ENDMDL
MODEL 3
REMARK VINA RESULT:     -11.8      3.275      5.126
REMARK SMILES CC(C)(C)N(CC(=O)NCCCNC(=O)c1ccc(-c2c3nc(c(-c4c(F)c(F)c(F)c(F)c4F)c4ccc([nH]4)c(-c4c(F)c(F)c(F)c(F)c4F)c4nc(c(-c5c(F)c(F)c(F)c(F)c5F)c5ccc2[nH]5)C=C4)C=C3)cc1)C(=O)NC[C@H]1CCOC1
REMARK SMILES IDX 10 1 9 2 7 3 8 4 6 6 5 7 2 8 1 9 3 10 4 11 79 12 80 13 81 14
REMARK SMILES IDX 82 16 83 17 84 18 87 19 85 20 86 21 11 22 12 23 13 24 14 25
REMARK SMILES IDX 15 27 16 28 17 29 78 30 18 31 77 32 19 33 20 34 21 35 71 36
REMARK SMILES IDX 22 37 76 38 70 39 72 40 23 41 75 42 69 43 68 44 24 46 56 47
REMARK SMILES IDX 36 48 55 49 37 50 40 51 54 52 73 53 38 54 39 55 53 57 74 58
REMARK SMILES IDX 41 59 25 60 26 61 34 62 27 63 28 64 32 65 35 66 29 67 30 68
REMARK SMILES IDX 33 69 31 70 57 71 58 72 66 73 59 74 60 75 64 76 67 77 61 78
REMARK SMILES IDX 62 79 65 80 63 81 42 82 43 83 51 84 44 85 45 86 49 87 52 88
REMARK SMILES IDX 46 89 47 90 50 91 48 92
REMARK H PARENT 9 5 81 15 13 26 72 45 40 56
REMARK Flexibility Score: inf
ROOT
ATOM      1  C   UNL A   1      31.484  30.837  26.093  1.00  0.00     0.117 C 
ENDROOT
BRANCH   1   2
ATOM      2  N   UNL A   1      32.586  30.088  26.647  1.00  0.00    -0.354 N 
ATOM      3  C   UNL A   1      32.958  28.797  26.435  1.00  0.00     0.239 C 
ATOM      4  O   UNL A   1      34.088  28.488  26.832  1.00  0.00    -0.273 OA
ATOM      5  H   UNL A   1      33.155  30.588  27.276  1.00  0.00     0.163 HD
BRANCH   3   6
ATOM      6  C   UNL A   1      32.130  27.817  25.579  1.00  0.00     0.221 C 
BRANCH   6   7
ATOM      7  N   UNL A   1      32.446  27.654  24.150  1.00  0.00    -0.311 N 
BRANCH   7   8
ATOM      8  C   UNL A   1      32.347  26.261  23.518  1.00  0.00     0.037 C 
ATOM      9  C   UNL A   1      32.131  26.249  21.979  1.00  0.00     0.034 C 
ATOM     10  C   UNL A   1      31.177  25.434  24.108  1.00  0.00     0.034 C 
ATOM     11  C   UNL A   1      33.671  25.483  23.734  1.00  0.00     0.034 C 
ENDBRANCH   7   8
BRANCH   7  12
ATOM     12  C   UNL A   1      32.531  28.720  23.278  1.00  0.00     0.318 C 
ATOM     13  O   UNL A   1      33.610  29.139  22.846  1.00  0.00    -0.249 OA
ATOM     14  N   UNL A   1      31.492  29.407  22.781  1.00  0.00    -0.338 N 
ATOM     15  H   UNL A   1      31.825  30.117  22.185  1.00  0.00     0.165 HD
BRANCH  14  16
ATOM     16  C   UNL A   1      30.038  29.457  22.823  1.00  0.00     0.123 C 
BRANCH  16  17
ATOM     17  C   UNL A   1      29.463  30.800  22.362  1.00  0.00     0.036 C 
ATOM     18  C   UNL A   1      28.476  30.792  21.211  1.00  0.00     0.036 C 
ATOM     19  C   UNL A   1      28.652  31.509  23.437  1.00  0.00     0.165 C 
ATOM     20  C   UNL A   1      27.790  32.133  21.366  1.00  0.00     0.160 C 
ATOM     21  O   UNL A   1      27.797  32.444  22.764  1.00  0.00    -0.381 OA
ENDBRANCH  16  17
ENDBRANCH  14  16
ENDBRANCH   7  12
ENDBRANCH   6   7
ENDBRANCH   3   6
ENDBRANCH   1   2
BRANCH   1  22
ATOM     22  C   UNL A   1      31.297  32.197  26.747  1.00  0.00     0.042 C 
BRANCH  22  23
ATOM     23  C   UNL A   1      32.597  32.829  27.231  1.00  0.00     0.118 C 
BRANCH  23  24
ATOM     24  N   UNL A   1      32.426  34.224  27.625  1.00  0.00    -0.352 N 
ATOM     25  C   UNL A   1      33.022  34.960  28.618  1.00  0.00     0.251 C 
ATOM     26  H   UNL A   1      31.771  34.723  27.085  1.00  0.00     0.163 HD
ATOM     27  O   UNL A   1      32.549  36.054  28.923  1.00  0.00    -0.269 OA
BRANCH  25  28
ATOM     28  C   UNL A   1      34.213  34.455  29.334  1.00  0.00     0.039 A 
ATOM     29  C   UNL A   1      34.050  33.841  30.581  1.00  0.00     0.014 A 
ATOM     30  C   UNL A   1      35.495  34.626  28.809  1.00  0.00     0.014 A 
ATOM     31  C   UNL A   1      35.160  33.332  31.259  1.00  0.00     0.010 A 
ATOM     32  C   UNL A   1      36.587  34.040  29.440  1.00  0.00     0.010 A 
ATOM     33  C   UNL A   1      36.434  33.389  30.673  1.00  0.00    -0.014 A 
BRANCH  33  34
ATOM     34  C   UNL A   1      37.631  32.790  31.318  1.00  0.00     0.031 A 
ATOM     35  C   UNL A   1      38.342  31.643  30.653  1.00  0.00     0.074 A 
ATOM     36  C   UNL A   1      38.008  33.199  32.544  1.00  0.00     0.049 A 
ATOM     37  N   UNL A   1      39.282  30.863  31.124  1.00  0.00    -0.248 NA
ATOM     38  C   UNL A   1      37.915  31.308  29.286  1.00  0.00     0.031 C 
ATOM     39  C   UNL A   1      37.378  34.276  33.309  1.00  0.00     0.029 A 
ATOM     40  N   UNL A   1      38.996  32.735  33.378  1.00  0.00    -0.354 N 
ATOM     41  C   UNL A   1      39.531  29.929  30.128  1.00  0.00     0.074 A 
ATOM     42  C   UNL A   1      38.617  30.211  29.043  1.00  0.00     0.031 C 
ATOM     43  C   UNL A   1      37.999  34.395  34.494  1.00  0.00     0.029 A 
ATOM     44  C   UNL A   1      39.035  33.372  34.595  1.00  0.00     0.049 A 
ATOM     45  H   UNL A   1      39.619  32.015  33.127  1.00  0.00     0.167 HD
ATOM     46  C   UNL A   1      40.453  28.936  30.113  1.00  0.00     0.037 A 
ATOM     47  C   UNL A   1      39.798  33.139  35.679  1.00  0.00     0.037 A 
ATOM     48  C   UNL A   1      41.385  28.684  31.179  1.00  0.00     0.049 A 
ATOM     49  C   UNL A   1      40.809  32.024  35.640  1.00  0.00     0.074 A 
ATOM     50  C   UNL A   1      42.403  27.747  31.232  1.00  0.00     0.029 A 
ATOM     51  N   UNL A   1      41.413  29.375  32.382  1.00  0.00    -0.354 N 
ATOM     52  N   UNL A   1      41.075  31.182  34.671  1.00  0.00    -0.248 NA
ATOM     53  C   UNL A   1      41.625  31.826  36.846  1.00  0.00     0.031 C 
ATOM     54  C   UNL A   1      43.017  27.839  32.485  1.00  0.00     0.029 A 
ATOM     55  C   UNL A   1      42.418  28.869  33.192  1.00  0.00     0.049 A 
ATOM     56  H   UNL A   1      40.810  30.114  32.624  1.00  0.00     0.167 HD
ATOM     57  C   UNL A   1      42.108  30.379  35.135  1.00  0.00     0.074 A 
ATOM     58  C   UNL A   1      42.427  30.839  36.470  1.00  0.00     0.031 C 
ATOM     59  C   UNL A   1      42.735  29.352  34.511  1.00  0.00     0.037 A 
BRANCH  46  60
ATOM     60  C   UNL A   1      40.501  28.046  28.903  1.00  0.00     0.064 A 
ATOM     61  C   UNL A   1      39.757  26.858  28.832  1.00  0.00     0.173 A 
ATOM     62  C   UNL A   1      41.265  28.409  27.784  1.00  0.00     0.173 A 
ATOM     63  F   UNL A   1      39.018  26.461  29.878  1.00  0.00    -0.203 F 
ATOM     64  C   UNL A   1      39.804  26.051  27.698  1.00  0.00     0.198 A 
ATOM     65  C   UNL A   1      41.284  27.615  26.640  1.00  0.00     0.198 A 
ATOM     66  F   UNL A   1      41.989  29.539  27.796  1.00  0.00    -0.203 F 
ATOM     67  F   UNL A   1      39.125  24.895  27.673  1.00  0.00    -0.200 F 
ATOM     68  C   UNL A   1      40.560  26.435  26.600  1.00  0.00     0.200 A 
ATOM     69  F   UNL A   1      42.002  27.995  25.574  1.00  0.00    -0.200 F 
ATOM     70  F   UNL A   1      40.595  25.661  25.507  1.00  0.00    -0.200 F 
ENDBRANCH  46  60
BRANCH  47  71
ATOM     71  C   UNL A   1      39.645  33.984  36.892  1.00  0.00     0.064 A 
ATOM     72  C   UNL A   1      38.847  33.563  37.964  1.00  0.00     0.173 A 
ATOM     73  C   UNL A   1      40.286  35.227  37.005  1.00  0.00     0.173 A 
ATOM     74  F   UNL A   1      38.198  32.391  37.895  1.00  0.00    -0.203 F 
ATOM     75  C   UNL A   1      38.677  34.361  39.094  1.00  0.00     0.198 A 
ATOM     76  C   UNL A   1      40.139  36.012  38.147  1.00  0.00     0.198 A 
ATOM     77  F   UNL A   1      41.064  35.675  36.009  1.00  0.00    -0.203 F 
ATOM     78  F   UNL A   1      37.870  33.955  40.082  1.00  0.00    -0.200 F 
ATOM     79  C   UNL A   1      39.328  35.582  39.186  1.00  0.00     0.200 A 
ATOM     80  F   UNL A   1      40.780  37.185  38.239  1.00  0.00    -0.200 F 
ATOM     81  F   UNL A   1      39.166  36.348  40.274  1.00  0.00    -0.200 F 
ENDBRANCH  47  71
BRANCH  59  82
ATOM     82  C   UNL A   1      43.865  28.685  35.239  1.00  0.00     0.064 A 
ATOM     83  C   UNL A   1      45.193  29.107  35.084  1.00  0.00     0.173 A 
ATOM     84  C   UNL A   1      43.604  27.653  36.153  1.00  0.00     0.173 A 
ATOM     85  F   UNL A   1      45.496  30.079  34.211  1.00  0.00    -0.203 F 
ATOM     86  C   UNL A   1      46.221  28.507  35.806  1.00  0.00     0.198 A 
ATOM     87  C   UNL A   1      44.631  27.077  36.895  1.00  0.00     0.198 A 
ATOM     88  F   UNL A   1      42.349  27.218  36.343  1.00  0.00    -0.203 F 
ATOM     89  F   UNL A   1      47.489  28.900  35.615  1.00  0.00    -0.200 F 
ATOM     90  C   UNL A   1      45.939  27.501  36.718  1.00  0.00     0.200 A 
ATOM     91  F   UNL A   1      44.353  26.115  37.786  1.00  0.00    -0.200 F 
ATOM     92  F   UNL A   1      46.929  26.937  37.423  1.00  0.00    -0.200 F 
ENDBRANCH  59  82
ENDBRANCH  33  34
ENDBRANCH  25  28
ENDBRANCH  23  24
ENDBRANCH  22  23
ENDBRANCH   1  22
TORSDOF 15
ENDMDL
