MODEL 1
REMARK VINA RESULT:     -10.8      0.000      0.000
REMARK SMILES C[C@H](O)[C@H](C)[NH2+]C1(C(=O)NCCCNC(=O)c2ccc(-c3c4nc(c(-c5c(F)c(F)c(F)c(F)c5F)c5ccc([nH]5)c(-c5c(F)c(F)c(F)c(F)c5F)c5nc(c(-c6c(F)c(F)c(F)c(F)c6F)c6ccc3[nH]6)C=C5)C=C4)cc2)CC1
REMARK SMILES IDX 11 1 10 2 8 3 9 4 7 6 80 7 81 8 6 9 4 12 5 13 2 14 1 15 3 16
REMARK SMILES IDX 12 18 13 19 14 20 15 21 16 23 17 24 18 25 79 26 19 27 78 28
REMARK SMILES IDX 20 29 21 30 22 31 72 32 23 33 77 34 71 35 73 36 24 37 76 38
REMARK SMILES IDX 70 39 69 40 25 42 57 43 37 44 56 45 38 46 41 47 55 48 74 49
REMARK SMILES IDX 39 50 40 51 54 53 75 54 42 55 26 56 27 57 35 58 28 59 29 60
REMARK SMILES IDX 33 61 36 62 30 63 31 64 34 65 32 66 58 67 59 68 67 69 60 70
REMARK SMILES IDX 61 71 65 72 68 73 62 74 63 75 66 76 64 77 43 78 44 79 52 80
REMARK SMILES IDX 45 81 46 82 50 83 53 84 47 85 48 86 51 87 49 88
REMARK H PARENT 10 5 6 10 6 11 3 17 14 22 73 41 41 52
REMARK Flexibility Score: inf
ROOT
ATOM      1  C   UNL A   1      31.573  30.391  26.443  1.00  0.00     0.118 C 
ENDROOT
BRANCH   1   2
ATOM      2  N   UNL A   1      32.399  30.262  25.263  1.00  0.00    -0.351 N 
ATOM      3  C   UNL A   1      32.371  29.327  24.263  1.00  0.00     0.281 C 
ATOM      4  O   UNL A   1      33.471  28.948  23.847  1.00  0.00    -0.268 OA
ATOM      5  H   UNL A   1      33.090  30.956  25.163  1.00  0.00     0.163 HD
BRANCH   3   6
ATOM      6  C   UNL A   1      31.088  28.822  23.603  1.00  0.00     0.176 C 
ATOM      7  C   UNL A   1      30.251  27.613  23.971  1.00  0.00     0.086 C 
ATOM      8  C   UNL A   1      31.263  27.489  22.881  1.00  0.00     0.086 C 
BRANCH   6   9
ATOM      9  N   UNL A   1      30.329  29.906  22.889  1.00  0.00    -0.329 N 
ATOM     10  H   UNL A   1      30.922  30.735  22.857  1.00  0.00     0.347 HD
ATOM     11  H   UNL A   1      30.100  29.528  21.970  1.00  0.00     0.347 HD
BRANCH   9  12
ATOM     12  C   UNL A   1      29.042  30.290  23.501  1.00  0.00     0.208 C 
ATOM     13  C   UNL A   1      29.153  31.779  23.859  1.00  0.00     0.078 C 
BRANCH  12  14
ATOM     14  C   UNL A   1      27.754  30.060  22.650  1.00  0.00     0.169 C 
ATOM     15  C   UNL A   1      27.002  28.822  23.126  1.00  0.00     0.045 C 
BRANCH  14  16
ATOM     16  O   UNL A   1      28.020  29.869  21.263  1.00  0.00    -0.387 OA
ATOM     17  H   UNL A   1      28.365  28.973  21.120  1.00  0.00     0.211 HD
ENDBRANCH  14  16
ENDBRANCH  12  14
ENDBRANCH   9  12
ENDBRANCH   6   9
ENDBRANCH   3   6
ENDBRANCH   1   2
BRANCH   1  18
ATOM     18  C   UNL A   1      31.403  31.854  26.845  1.00  0.00     0.042 C 
BRANCH  18  19
ATOM     19  C   UNL A   1      32.705  32.646  26.876  1.00  0.00     0.118 C 
BRANCH  19  20
ATOM     20  N   UNL A   1      32.549  33.951  27.504  1.00  0.00    -0.352 N 
ATOM     21  C   UNL A   1      33.163  34.477  28.609  1.00  0.00     0.251 C 
ATOM     22  H   UNL A   1      31.902  34.548  27.064  1.00  0.00     0.163 HD
ATOM     23  O   UNL A   1      32.741  35.528  29.096  1.00  0.00    -0.269 OA
BRANCH  21  24
ATOM     24  C   UNL A   1      34.316  33.796  29.232  1.00  0.00     0.039 A 
ATOM     25  C   UNL A   1      35.607  34.212  28.897  1.00  0.00     0.014 A 
ATOM     26  C   UNL A   1      34.134  32.721  30.106  1.00  0.00     0.014 A 
ATOM     27  C   UNL A   1      36.712  33.576  29.469  1.00  0.00     0.010 A 
ATOM     28  C   UNL A   1      35.230  32.148  30.743  1.00  0.00     0.010 A 
ATOM     29  C   UNL A   1      36.532  32.553  30.412  1.00  0.00    -0.014 A 
BRANCH  29  30
ATOM     30  C   UNL A   1      37.691  31.860  31.027  1.00  0.00     0.031 A 
ATOM     31  C   UNL A   1      38.133  32.229  32.417  1.00  0.00     0.074 A 
ATOM     32  C   UNL A   1      38.380  30.945  30.319  1.00  0.00     0.049 A 
ATOM     33  N   UNL A   1      39.156  31.789  33.107  1.00  0.00    -0.248 NA
ATOM     34  C   UNL A   1      37.340  33.255  33.110  1.00  0.00     0.031 C 
ATOM     35  C   UNL A   1      38.083  30.541  28.945  1.00  0.00     0.029 A 
ATOM     36  N   UNL A   1      39.480  30.199  30.657  1.00  0.00    -0.354 N 
ATOM     37  C   UNL A   1      39.140  32.503  34.298  1.00  0.00     0.074 A 
ATOM     38  C   UNL A   1      38.045  33.444  34.215  1.00  0.00     0.031 C 
ATOM     39  C   UNL A   1      38.965  29.605  28.563  1.00  0.00     0.029 A 
ATOM     40  C   UNL A   1      39.907  29.366  29.653  1.00  0.00     0.049 A 
ATOM     41  H   UNL A   1      39.922  30.256  31.534  1.00  0.00     0.167 HD
ATOM     42  C   UNL A   1      39.950  32.369  35.377  1.00  0.00     0.037 A 
ATOM     43  C   UNL A   1      40.943  28.506  29.618  1.00  0.00     0.037 A 
ATOM     44  C   UNL A   1      41.018  31.409  35.469  1.00  0.00     0.049 A 
ATOM     45  C   UNL A   1      41.810  28.350  30.838  1.00  0.00     0.074 A 
ATOM     46  C   UNL A   1      41.857  31.148  36.537  1.00  0.00     0.029 A 
ATOM     47  N   UNL A   1      41.392  30.549  34.447  1.00  0.00    -0.354 N 
ATOM     48  N   UNL A   1      41.745  28.980  31.986  1.00  0.00    -0.248 NA
ATOM     49  C   UNL A   1      42.884  27.352  30.761  1.00  0.00     0.031 C 
ATOM     50  C   UNL A   1      42.767  30.159  36.147  1.00  0.00     0.029 A 
ATOM     51  C   UNL A   1      42.459  29.764  34.854  1.00  0.00     0.049 A 
ATOM     52  H   UNL A   1      40.962  30.502  33.562  1.00  0.00     0.167 HD
ATOM     53  C   UNL A   1      42.743  28.433  32.780  1.00  0.00     0.074 A 
ATOM     54  C   UNL A   1      43.394  27.412  31.983  1.00  0.00     0.031 C 
ATOM     55  C   UNL A   1      43.088  28.744  34.053  1.00  0.00     0.037 A 
BRANCH  42  56
ATOM     56  C   UNL A   1      39.704  33.288  36.541  1.00  0.00     0.064 A 
ATOM     57  C   UNL A   1      38.819  32.949  37.577  1.00  0.00     0.173 A 
ATOM     58  C   UNL A   1      40.365  34.523  36.624  1.00  0.00     0.173 A 
ATOM     59  F   UNL A   1      38.152  31.785  37.540  1.00  0.00    -0.203 F 
ATOM     60  C   UNL A   1      38.572  33.828  38.627  1.00  0.00     0.198 A 
ATOM     61  C   UNL A   1      40.142  35.384  37.694  1.00  0.00     0.198 A 
ATOM     62  F   UNL A   1      41.227  34.895  35.666  1.00  0.00    -0.203 F 
ATOM     63  F   UNL A   1      37.671  33.509  39.567  1.00  0.00    -0.200 F 
ATOM     64  C   UNL A   1      39.237  35.043  38.687  1.00  0.00     0.200 A 
ATOM     65  F   UNL A   1      40.795  36.553  37.760  1.00  0.00    -0.200 F 
ATOM     66  F   UNL A   1      38.997  35.889  39.699  1.00  0.00    -0.200 F 
ENDBRANCH  42  56
BRANCH  43  67
ATOM     67  C   UNL A   1      41.183  27.693  28.398  1.00  0.00     0.064 A 
ATOM     68  C   UNL A   1      42.076  28.129  27.410  1.00  0.00     0.173 A 
ATOM     69  C   UNL A   1      40.543  26.461  28.203  1.00  0.00     0.173 A 
ATOM     70  F   UNL A   1      42.699  29.309  27.543  1.00  0.00    -0.203 F 
ATOM     71  C   UNL A   1      42.308  27.370  26.263  1.00  0.00     0.198 A 
ATOM     72  C   UNL A   1      40.795  25.690  27.070  1.00  0.00     0.198 A 
ATOM     73  F   UNL A   1      39.686  25.996  29.124  1.00  0.00    -0.203 F 
ATOM     74  F   UNL A   1      43.139  27.827  25.317  1.00  0.00    -0.200 F 
ATOM     75  C   UNL A   1      41.673  26.149  26.099  1.00  0.00     0.200 A 
ATOM     76  F   UNL A   1      40.192  24.504  26.921  1.00  0.00    -0.200 F 
ATOM     77  F   UNL A   1      41.903  25.415  25.001  1.00  0.00    -0.200 F 
ENDBRANCH  43  67
BRANCH  55  78
ATOM     78  C   UNL A   1      44.187  27.940  34.684  1.00  0.00     0.064 A 
ATOM     79  C   UNL A   1      45.527  28.352  34.641  1.00  0.00     0.173 A 
ATOM     80  C   UNL A   1      43.888  26.752  35.369  1.00  0.00     0.173 A 
ATOM     81  F   UNL A   1      45.867  29.473  33.986  1.00  0.00    -0.203 F 
ATOM     82  C   UNL A   1      46.529  27.590  35.232  1.00  0.00     0.198 A 
ATOM     83  C   UNL A   1      44.888  26.008  35.987  1.00  0.00     0.198 A 
ATOM     84  F   UNL A   1      42.621  26.316  35.447  1.00  0.00    -0.203 F 
ATOM     85  F   UNL A   1      47.809  27.975  35.133  1.00  0.00    -0.200 F 
ATOM     86  C   UNL A   1      46.209  26.422  35.910  1.00  0.00     0.200 A 
ATOM     87  F   UNL A   1      44.575  24.888  36.653  1.00  0.00    -0.200 F 
ATOM     88  F   UNL A   1      47.176  25.691  36.484  1.00  0.00    -0.200 F 
ENDBRANCH  55  78
ENDBRANCH  29  30
ENDBRANCH  21  24
ENDBRANCH  19  20
ENDBRANCH  18  19
ENDBRANCH   1  18
TORSDOF 14
ENDMDL
MODEL 2
REMARK VINA RESULT:     -10.7      1.331      7.865
REMARK SMILES C[C@H](O)[C@H](C)[NH2+]C1(C(=O)NCCCNC(=O)c2ccc(-c3c4nc(c(-c5c(F)c(F)c(F)c(F)c5F)c5ccc([nH]5)c(-c5c(F)c(F)c(F)c(F)c5F)c5nc(c(-c6c(F)c(F)c(F)c(F)c6F)c6ccc3[nH]6)C=C5)C=C4)cc2)CC1
REMARK SMILES IDX 11 1 10 2 8 3 9 4 7 6 80 7 81 8 6 9 4 12 5 13 2 14 1 15 3 16
REMARK SMILES IDX 12 18 13 19 14 20 15 21 16 23 17 24 18 25 79 26 19 27 78 28
REMARK SMILES IDX 20 29 21 30 22 31 72 32 23 33 77 34 71 35 73 36 24 37 76 38
REMARK SMILES IDX 70 39 69 40 25 42 57 43 37 44 56 45 38 46 41 47 55 48 74 49
REMARK SMILES IDX 39 50 40 51 54 53 75 54 42 55 26 56 27 57 35 58 28 59 29 60
REMARK SMILES IDX 33 61 36 62 30 63 31 64 34 65 32 66 58 67 59 68 67 69 60 70
REMARK SMILES IDX 61 71 65 72 68 73 62 74 63 75 66 76 64 77 43 78 44 79 52 80
REMARK SMILES IDX 45 81 46 82 50 83 53 84 47 85 48 86 51 87 49 88
REMARK H PARENT 10 5 6 10 6 11 3 17 14 22 73 41 41 52
REMARK Flexibility Score: inf
ROOT
ATOM      1  C   UNL A   1      31.336  30.893  25.918  1.00  0.00     0.118 C 
ENDROOT
BRANCH   1   2
ATOM      2  N   UNL A   1      31.610  29.962  26.990  1.00  0.00    -0.351 N 
ATOM      3  C   UNL A   1      31.766  28.602  26.962  1.00  0.00     0.281 C 
ATOM      4  O   UNL A   1      31.259  27.981  27.902  1.00  0.00    -0.268 OA
ATOM      5  H   UNL A   1      31.698  30.371  27.882  1.00  0.00     0.163 HD
BRANCH   3   6
ATOM      6  C   UNL A   1      32.584  27.859  25.906  1.00  0.00     0.176 C 
ATOM      7  C   UNL A   1      33.366  26.569  26.054  1.00  0.00     0.086 C 
ATOM      8  C   UNL A   1      34.084  27.870  26.185  1.00  0.00     0.086 C 
BRANCH   6   9
ATOM      9  N   UNL A   1      32.135  28.153  24.501  1.00  0.00    -0.329 N 
ATOM     10  H   UNL A   1      31.540  28.981  24.529  1.00  0.00     0.347 HD
ATOM     11  H   UNL A   1      32.987  28.276  23.956  1.00  0.00     0.347 HD
BRANCH   9  12
ATOM     12  C   UNL A   1      31.381  27.073  23.836  1.00  0.00     0.208 C 
ATOM     13  C   UNL A   1      29.956  27.601  23.620  1.00  0.00     0.078 C 
BRANCH  12  14
ATOM     14  C   UNL A   1      31.945  26.545  22.479  1.00  0.00     0.169 C 
ATOM     15  C   UNL A   1      33.399  26.968  22.293  1.00  0.00     0.045 C 
BRANCH  14  16
ATOM     16  O   UNL A   1      31.230  27.027  21.344  1.00  0.00    -0.387 OA
ATOM     17  H   UNL A   1      30.278  27.019  21.534  1.00  0.00     0.211 HD
ENDBRANCH  14  16
ENDBRANCH  12  14
ENDBRANCH   9  12
ENDBRANCH   6   9
ENDBRANCH   3   6
ENDBRANCH   1   2
BRANCH   1  18
ATOM     18  C   UNL A   1      31.231  32.325  26.438  1.00  0.00     0.042 C 
BRANCH  18  19
ATOM     19  C   UNL A   1      32.485  32.821  27.150  1.00  0.00     0.118 C 
BRANCH  19  20
ATOM     20  N   UNL A   1      32.361  34.200  27.601  1.00  0.00    -0.352 N 
ATOM     21  C   UNL A   1      33.009  34.860  28.611  1.00  0.00     0.251 C 
ATOM     22  H   UNL A   1      31.710  34.744  27.101  1.00  0.00     0.163 HD
ATOM     23  O   UNL A   1      32.612  35.973  28.963  1.00  0.00    -0.269 OA
BRANCH  21  24
ATOM     24  C   UNL A   1      34.169  34.250  29.292  1.00  0.00     0.039 A 
ATOM     25  C   UNL A   1      35.456  34.558  28.839  1.00  0.00     0.014 A 
ATOM     26  C   UNL A   1      33.997  33.341  30.340  1.00  0.00     0.014 A 
ATOM     27  C   UNL A   1      36.567  33.987  29.464  1.00  0.00     0.010 A 
ATOM     28  C   UNL A   1      35.104  32.843  31.018  1.00  0.00     0.010 A 
ATOM     29  C   UNL A   1      36.400  33.141  30.571  1.00  0.00    -0.014 A 
BRANCH  29  30
ATOM     30  C   UNL A   1      37.566  32.518  31.246  1.00  0.00     0.031 A 
ATOM     31  C   UNL A   1      38.317  31.403  30.568  1.00  0.00     0.074 A 
ATOM     32  C   UNL A   1      37.912  32.909  32.487  1.00  0.00     0.049 A 
ATOM     33  N   UNL A   1      39.319  30.686  31.013  1.00  0.00    -0.248 NA
ATOM     34  C   UNL A   1      37.857  31.021  29.225  1.00  0.00     0.031 C 
ATOM     35  C   UNL A   1      37.231  33.939  33.269  1.00  0.00     0.029 A 
ATOM     36  N   UNL A   1      38.920  32.475  33.310  1.00  0.00    -0.354 N 
ATOM     37  C   UNL A   1      39.588  29.757  30.016  1.00  0.00     0.074 A 
ATOM     38  C   UNL A   1      38.610  29.962  28.971  1.00  0.00     0.031 C 
ATOM     39  C   UNL A   1      37.851  34.074  34.452  1.00  0.00     0.029 A 
ATOM     40  C   UNL A   1      38.954  33.120  34.522  1.00  0.00     0.049 A 
ATOM     41  H   UNL A   1      39.558  31.769  33.058  1.00  0.00     0.167 HD
ATOM     42  C   UNL A   1      40.578  28.834  29.964  1.00  0.00     0.037 A 
ATOM     43  C   UNL A   1      39.783  32.957  35.571  1.00  0.00     0.037 A 
ATOM     44  C   UNL A   1      41.569  28.656  30.992  1.00  0.00     0.049 A 
ATOM     45  C   UNL A   1      40.894  31.948  35.479  1.00  0.00     0.074 A 
ATOM     46  C   UNL A   1      42.650  27.793  31.011  1.00  0.00     0.029 A 
ATOM     47  N   UNL A   1      41.599  29.360  32.187  1.00  0.00    -0.354 N 
ATOM     48  N   UNL A   1      41.184  31.121  34.504  1.00  0.00    -0.248 NA
ATOM     49  C   UNL A   1      41.804  31.861  36.629  1.00  0.00     0.031 C 
ATOM     50  C   UNL A   1      43.310  27.945  32.236  1.00  0.00     0.029 A 
ATOM     51  C   UNL A   1      42.672  28.942  32.957  1.00  0.00     0.049 A 
ATOM     52  H   UNL A   1      40.952  30.055  32.449  1.00  0.00     0.167 HD
ATOM     53  C   UNL A   1      42.325  30.441  34.904  1.00  0.00     0.074 A 
ATOM     54  C   UNL A   1      42.681  30.960  36.210  1.00  0.00     0.031 C 
ATOM     55  C   UNL A   1      43.019  29.477  34.250  1.00  0.00     0.037 A 
BRANCH  42  56
ATOM     56  C   UNL A   1      40.629  27.947  28.752  1.00  0.00     0.064 A 
ATOM     57  C   UNL A   1      41.385  28.287  27.618  1.00  0.00     0.173 A 
ATOM     58  C   UNL A   1      39.917  26.738  28.723  1.00  0.00     0.173 A 
ATOM     59  F   UNL A   1      42.075  29.437  27.588  1.00  0.00    -0.203 F 
ATOM     60  C   UNL A   1      41.390  27.475  26.488  1.00  0.00     0.198 A 
ATOM     61  C   UNL A   1      39.952  25.912  27.604  1.00  0.00     0.198 A 
ATOM     62  F   UNL A   1      39.184  26.360  29.781  1.00  0.00    -0.203 F 
ATOM     63  F   UNL A   1      42.065  27.856  25.394  1.00  0.00    -0.200 F 
ATOM     64  C   UNL A   1      40.677  26.286  26.483  1.00  0.00     0.200 A 
ATOM     65  F   UNL A   1      39.274  24.755  27.605  1.00  0.00    -0.200 F 
ATOM     66  F   UNL A   1      40.682  25.505  25.393  1.00  0.00    -0.200 F 
ENDBRANCH  42  56
BRANCH  43  67
ATOM     67  C   UNL A   1      39.617  33.808  36.777  1.00  0.00     0.064 A 
ATOM     68  C   UNL A   1      40.216  35.073  36.851  1.00  0.00     0.173 A 
ATOM     69  C   UNL A   1      38.845  33.386  37.869  1.00  0.00     0.173 A 
ATOM     70  F   UNL A   1      40.979  35.513  35.839  1.00  0.00    -0.203 F 
ATOM     71  C   UNL A   1      40.064  35.878  37.979  1.00  0.00     0.198 A 
ATOM     72  C   UNL A   1      38.671  34.202  38.985  1.00  0.00     0.198 A 
ATOM     73  F   UNL A   1      38.244  32.188  37.843  1.00  0.00    -0.203 F 
ATOM     74  F   UNL A   1      40.678  37.067  38.039  1.00  0.00    -0.200 F 
ATOM     75  C   UNL A   1      39.285  35.445  39.041  1.00  0.00     0.200 A 
ATOM     76  F   UNL A   1      37.906  33.787  40.002  1.00  0.00    -0.200 F 
ATOM     77  F   UNL A   1      39.130  36.222  40.122  1.00  0.00    -0.200 F 
ENDBRANCH  43  67
BRANCH  55  78
ATOM     78  C   UNL A   1      44.261  28.955  34.911  1.00  0.00     0.064 A 
ATOM     79  C   UNL A   1      45.516  29.546  34.703  1.00  0.00     0.173 A 
ATOM     80  C   UNL A   1      44.188  27.863  35.790  1.00  0.00     0.173 A 
ATOM     81  F   UNL A   1      45.642  30.584  33.861  1.00  0.00    -0.203 F 
ATOM     82  C   UNL A   1      46.655  29.045  35.325  1.00  0.00     0.198 A 
ATOM     83  C   UNL A   1      45.323  27.385  36.436  1.00  0.00     0.198 A 
ATOM     84  F   UNL A   1      43.010  27.266  36.030  1.00  0.00    -0.203 F 
ATOM     85  F   UNL A   1      47.852  29.592  35.071  1.00  0.00    -0.200 F 
ATOM     86  C   UNL A   1      46.557  27.969  36.196  1.00  0.00     0.200 A 
ATOM     87  F   UNL A   1      45.224  26.354  37.287  1.00  0.00    -0.200 F 
ATOM     88  F   UNL A   1      47.655  27.491  36.799  1.00  0.00    -0.200 F 
ENDBRANCH  55  78
ENDBRANCH  29  30
ENDBRANCH  21  24
ENDBRANCH  19  20
ENDBRANCH  18  19
ENDBRANCH   1  18
TORSDOF 14
ENDMDL
MODEL 3
REMARK VINA RESULT:     -10.6      6.257     10.010
REMARK SMILES C[C@H](O)[C@H](C)[NH2+]C1(C(=O)NCCCNC(=O)c2ccc(-c3c4nc(c(-c5c(F)c(F)c(F)c(F)c5F)c5ccc([nH]5)c(-c5c(F)c(F)c(F)c(F)c5F)c5nc(c(-c6c(F)c(F)c(F)c(F)c6F)c6ccc3[nH]6)C=C5)C=C4)cc2)CC1
REMARK SMILES IDX 11 1 10 2 8 3 9 4 7 6 80 7 81 8 6 9 4 12 5 13 2 14 1 15 3 16
REMARK SMILES IDX 12 18 13 19 14 20 15 21 16 23 17 24 18 25 79 26 19 27 78 28
REMARK SMILES IDX 20 29 21 30 22 31 72 32 23 33 77 34 71 35 73 36 24 37 76 38
REMARK SMILES IDX 70 39 69 40 25 42 57 43 37 44 56 45 38 46 41 47 55 48 74 49
REMARK SMILES IDX 39 50 40 51 54 53 75 54 42 55 26 56 27 57 35 58 28 59 29 60
REMARK SMILES IDX 33 61 36 62 30 63 31 64 34 65 32 66 58 67 59 68 67 69 60 70
REMARK SMILES IDX 61 71 65 72 68 73 62 74 63 75 66 76 64 77 43 78 44 79 52 80
REMARK SMILES IDX 45 81 46 82 50 83 53 84 47 85 48 86 51 87 49 88
REMARK H PARENT 10 5 6 10 6 11 3 17 14 22 73 41 41 52
REMARK Flexibility Score: inf
ROOT
ATOM      1  C   UNL A   1      36.733  20.282  24.920  1.00  0.00     0.118 C 
ENDROOT
BRANCH   1   2
ATOM      2  N   UNL A   1      37.005  21.500  24.190  1.00  0.00    -0.351 N 
ATOM      3  C   UNL A   1      36.171  22.532  23.850  1.00  0.00     0.281 C 
ATOM      4  O   UNL A   1      36.333  23.008  22.721  1.00  0.00    -0.268 OA
ATOM      5  H   UNL A   1      37.937  21.605  23.890  1.00  0.00     0.163 HD
BRANCH   3   6
ATOM      6  C   UNL A   1      35.151  23.153  24.803  1.00  0.00     0.176 C 
ATOM      7  C   UNL A   1      34.937  24.617  25.133  1.00  0.00     0.086 C 
ATOM      8  C   UNL A   1      35.784  23.786  26.038  1.00  0.00     0.086 C 
BRANCH   6   9
ATOM      9  N   UNL A   1      33.937  22.289  25.008  1.00  0.00    -0.329 N 
ATOM     10  H   UNL A   1      34.110  21.392  24.554  1.00  0.00     0.347 HD
ATOM     11  H   UNL A   1      33.809  22.222  26.017  1.00  0.00     0.347 HD
BRANCH   9  12
ATOM     12  C   UNL A   1      32.673  22.832  24.474  1.00  0.00     0.208 C 
ATOM     13  C   UNL A   1      32.411  22.110  23.145  1.00  0.00     0.078 C 
BRANCH  12  14
ATOM     14  C   UNL A   1      31.409  22.712  25.382  1.00  0.00     0.169 C 
ATOM     15  C   UNL A   1      31.532  23.612  26.607  1.00  0.00     0.045 C 
BRANCH  14  16
ATOM     16  O   UNL A   1      31.185  21.390  25.867  1.00  0.00    -0.387 OA
ATOM     17  H   UNL A   1      32.000  21.052  26.271  1.00  0.00     0.211 HD
ENDBRANCH  14  16
ENDBRANCH  12  14
ENDBRANCH   9  12
ENDBRANCH   6   9
ENDBRANCH   3   6
ENDBRANCH   1   2
BRANCH   1  18
ATOM     18  C   UNL A   1      37.970  19.390  24.993  1.00  0.00     0.042 C 
BRANCH  18  19
ATOM     19  C   UNL A   1      39.123  19.989  25.790  1.00  0.00     0.118 C 
BRANCH  19  20
ATOM     20  N   UNL A   1      40.238  19.064  25.939  1.00  0.00    -0.352 N 
ATOM     21  C   UNL A   1      41.573  19.313  26.117  1.00  0.00     0.251 C 
ATOM     22  H   UNL A   1      39.994  18.111  25.909  1.00  0.00     0.163 HD
ATOM     23  O   UNL A   1      42.382  18.388  26.018  1.00  0.00    -0.269 OA
BRANCH  21  24
ATOM     24  C   UNL A   1      42.057  20.677  26.413  1.00  0.00     0.039 A 
ATOM     25  C   UNL A   1      42.305  21.031  27.742  1.00  0.00     0.014 A 
ATOM     26  C   UNL A   1      42.221  21.622  25.396  1.00  0.00     0.014 A 
ATOM     27  C   UNL A   1      42.756  22.318  28.045  1.00  0.00     0.010 A 
ATOM     28  C   UNL A   1      42.754  22.873  25.689  1.00  0.00     0.010 A 
ATOM     29  C   UNL A   1      43.003  23.242  27.019  1.00  0.00    -0.014 A 
BRANCH  29  30
ATOM     30  C   UNL A   1      43.476  24.617  27.319  1.00  0.00     0.031 A 
ATOM     31  C   UNL A   1      42.520  25.631  27.886  1.00  0.00     0.074 A 
ATOM     32  C   UNL A   1      44.742  24.971  27.026  1.00  0.00     0.049 A 
ATOM     33  N   UNL A   1      42.718  26.898  28.157  1.00  0.00    -0.248 NA
ATOM     34  C   UNL A   1      41.151  25.168  28.152  1.00  0.00     0.031 C 
ATOM     35  C   UNL A   1      45.746  24.095  26.424  1.00  0.00     0.029 A 
ATOM     36  N   UNL A   1      45.394  26.167  27.187  1.00  0.00    -0.354 N 
ATOM     37  C   UNL A   1      41.493  27.382  28.599  1.00  0.00     0.074 A 
ATOM     38  C   UNL A   1      40.547  26.293  28.505  1.00  0.00     0.031 C 
ATOM     39  C   UNL A   1      46.895  24.775  26.285  1.00  0.00     0.029 A 
ATOM     40  C   UNL A   1      46.698  26.142  26.759  1.00  0.00     0.049 A 
ATOM     41  H   UNL A   1      44.968  26.966  27.571  1.00  0.00     0.167 HD
ATOM     42  C   UNL A   1      41.190  28.618  29.066  1.00  0.00     0.037 A 
ATOM     43  C   UNL A   1      47.629  27.115  26.752  1.00  0.00     0.037 A 
ATOM     44  C   UNL A   1      42.143  29.689  29.188  1.00  0.00     0.049 A 
ATOM     45  C   UNL A   1      47.280  28.470  27.304  1.00  0.00     0.074 A 
ATOM     46  C   UNL A   1      41.955  30.958  29.706  1.00  0.00     0.029 A 
ATOM     47  N   UNL A   1      43.469  29.613  28.787  1.00  0.00    -0.354 N 
ATOM     48  N   UNL A   1      46.139  28.900  27.785  1.00  0.00    -0.248 NA
ATOM     49  C   UNL A   1      48.355  29.470  27.328  1.00  0.00     0.031 C 
ATOM     50  C   UNL A   1      43.157  31.664  29.578  1.00  0.00     0.029 A 
ATOM     51  C   UNL A   1      44.109  30.817  29.032  1.00  0.00     0.049 A 
ATOM     52  H   UNL A   1      43.893  28.819  28.387  1.00  0.00     0.167 HD
ATOM     53  C   UNL A   1      46.364  30.205  28.198  1.00  0.00     0.074 A 
ATOM     54  C   UNL A   1      47.757  30.494  27.921  1.00  0.00     0.031 C 
ATOM     55  C   UNL A   1      45.499  31.085  28.761  1.00  0.00     0.037 A 
BRANCH  42  56
ATOM     56  C   UNL A   1      39.767  28.868  29.476  1.00  0.00     0.064 A 
ATOM     57  C   UNL A   1      38.817  29.378  28.576  1.00  0.00     0.173 A 
ATOM     58  C   UNL A   1      39.343  28.592  30.786  1.00  0.00     0.173 A 
ATOM     59  F   UNL A   1      39.171  29.670  27.316  1.00  0.00    -0.203 F 
ATOM     60  C   UNL A   1      37.512  29.643  28.982  1.00  0.00     0.198 A 
ATOM     61  C   UNL A   1      38.028  28.826  31.178  1.00  0.00     0.198 A 
ATOM     62  F   UNL A   1      40.206  28.098  31.685  1.00  0.00    -0.203 F 
ATOM     63  F   UNL A   1      36.643  30.192  28.122  1.00  0.00    -0.200 F 
ATOM     64  C   UNL A   1      37.118  29.362  30.281  1.00  0.00     0.200 A 
ATOM     65  F   UNL A   1      37.644  28.541  32.431  1.00  0.00    -0.200 F 
ATOM     66  F   UNL A   1      35.861  29.618  30.671  1.00  0.00    -0.200 F 
ENDBRANCH  42  56
BRANCH  43  67
ATOM     67  C   UNL A   1      48.995  26.822  26.246  1.00  0.00     0.064 A 
ATOM     68  C   UNL A   1      49.953  26.221  27.073  1.00  0.00     0.173 A 
ATOM     69  C   UNL A   1      49.364  27.117  24.926  1.00  0.00     0.173 A 
ATOM     70  F   UNL A   1      49.652  25.937  28.349  1.00  0.00    -0.203 F 
ATOM     71  C   UNL A   1      51.236  25.941  26.604  1.00  0.00     0.198 A 
ATOM     72  C   UNL A   1      50.637  26.812  24.450  1.00  0.00     0.198 A 
ATOM     73  F   UNL A   1      48.480  27.684  24.092  1.00  0.00    -0.203 F 
ATOM     74  F   UNL A   1      52.144  25.400  27.428  1.00  0.00    -0.200 F 
ATOM     75  C   UNL A   1      51.574  26.230  25.292  1.00  0.00     0.200 A 
ATOM     76  F   UNL A   1      50.956  27.078  23.177  1.00  0.00    -0.200 F 
ATOM     77  F   UNL A   1      52.804  25.952  24.838  1.00  0.00    -0.200 F 
ENDBRANCH  43  67
BRANCH  55  78
ATOM     78  C   UNL A   1      46.043  32.425  29.160  1.00  0.00     0.064 A 
ATOM     79  C   UNL A   1      46.606  32.649  30.425  1.00  0.00     0.173 A 
ATOM     80  C   UNL A   1      46.027  33.493  28.250  1.00  0.00     0.173 A 
ATOM     81  F   UNL A   1      46.632  31.665  31.336  1.00  0.00    -0.203 F 
ATOM     82  C   UNL A   1      47.103  33.901  30.775  1.00  0.00     0.198 A 
ATOM     83  C   UNL A   1      46.554  34.734  28.591  1.00  0.00     0.198 A 
ATOM     84  F   UNL A   1      45.506  33.330  27.024  1.00  0.00    -0.203 F 
ATOM     85  F   UNL A   1      47.589  34.107  32.007  1.00  0.00    -0.200 F 
ATOM     86  C   UNL A   1      47.083  34.941  29.856  1.00  0.00     0.200 A 
ATOM     87  F   UNL A   1      46.547  35.733  27.698  1.00  0.00    -0.200 F 
ATOM     88  F   UNL A   1      47.568  36.145  30.193  1.00  0.00    -0.200 F 
ENDBRANCH  55  78
ENDBRANCH  29  30
ENDBRANCH  21  24
ENDBRANCH  19  20
ENDBRANCH  18  19
ENDBRANCH   1  18
TORSDOF 14
ENDMDL
