MODEL 1
REMARK VINA RESULT:     -12.5      0.000      0.000
REMARK SMILES CC[C@@H](C)[C@@H](NC(=O)Cn1ncc2ccccc2c1=O)C(=O)NCCCNC(=O)c1ccc(-c2c3nc(c(-c4c(F)c(F)c(F)c(F)c4F)c4ccc([nH]4)c(-c4c(F)c(F)c(F)c(F)c4F)c4nc(c(-c5c(F)c(F)c(F)c(F)c5F)c5ccc2[nH]5)C=C4)C=C3)cc1
REMARK SMILES IDX 24 1 23 2 21 3 22 4 5 6 3 7 4 8 2 9 1 10 6 11 7 12 8 14 9 15
REMARK SMILES IDX 10 16 11 17 19 18 12 19 18 20 20 21 13 22 17 23 14 24 16 25
REMARK SMILES IDX 15 26 25 27 26 28 27 29 28 30 29 32 30 33 31 34 92 35 32 36
REMARK SMILES IDX 91 37 33 38 34 39 35 40 85 41 36 42 90 43 84 44 86 45 37 46
REMARK SMILES IDX 89 47 83 48 82 49 38 51 70 52 50 53 69 54 51 55 54 56 68 57
REMARK SMILES IDX 87 58 52 59 53 60 67 62 88 63 55 64 39 65 40 66 48 67 41 68
REMARK SMILES IDX 42 69 46 70 49 71 43 72 44 73 47 74 45 75 71 76 72 77 80 78
REMARK SMILES IDX 73 79 74 80 78 81 81 82 75 83 76 84 79 85 77 86 56 87 57 88
REMARK SMILES IDX 65 89 58 90 59 91 63 92 66 93 60 94 61 95 64 96 62 97
REMARK H PARENT 23 5 6 13 27 31 86 50 54 61
REMARK Flexibility Score: inf
ROOT
ATOM      1  C   UNL A   1      36.771  21.339  25.415  1.00  0.00     0.117 C 
ENDROOT
BRANCH   1   2
ATOM      2  N   UNL A   1      35.581  21.453  26.244  1.00  0.00    -0.354 N 
ATOM      3  C   UNL A   1      34.324  20.954  26.033  1.00  0.00     0.242 C 
ATOM      4  O   UNL A   1      33.494  21.117  26.931  1.00  0.00    -0.273 OA
ATOM      5  H   UNL A   1      35.697  21.964  27.078  1.00  0.00     0.163 HD
BRANCH   3   6
ATOM      6  C   UNL A   1      33.884  20.477  24.637  1.00  0.00     0.174 C 
BRANCH   6   7
ATOM      7  C   UNL A   1      33.661  18.935  24.875  1.00  0.00     0.018 C 
ATOM      8  C   UNL A   1      34.934  18.161  24.465  1.00  0.00     0.010 C 
BRANCH   7   9
ATOM      9  C   UNL A   1      32.425  18.261  24.256  1.00  0.00     0.002 C 
ATOM     10  C   UNL A   1      32.714  17.821  22.815  1.00  0.00     0.004 C 
ENDBRANCH   7   9
ENDBRANCH   6   7
BRANCH   6  11
ATOM     11  N   UNL A   1      32.732  21.250  24.170  1.00  0.00    -0.342 N 
ATOM     12  C   UNL A   1      32.677  22.413  23.445  1.00  0.00     0.242 C 
ATOM     13  H   UNL A   1      31.856  20.875  24.415  1.00  0.00     0.164 HD
ATOM     14  O   UNL A   1      31.545  22.773  23.097  1.00  0.00    -0.273 OA
BRANCH  12  15
ATOM     15  C   UNL A   1      33.922  23.192  22.975  1.00  0.00     0.248 C 
BRANCH  15  16
ATOM     16  N   UNL A   1      33.941  24.635  23.189  1.00  0.00    -0.220 N 
ATOM     17  N   UNL A   1      33.758  25.455  22.090  1.00  0.00    -0.177 NA
ATOM     18  C   UNL A   1      34.306  25.139  24.445  1.00  0.00     0.275 A 
ATOM     19  C   UNL A   1      33.515  26.707  22.326  1.00  0.00     0.142 A 
ATOM     20  C   UNL A   1      33.883  26.529  24.715  1.00  0.00     0.050 A 
ATOM     21  O   UNL A   1      34.828  24.473  25.334  1.00  0.00    -0.267 OA
ATOM     22  C   UNL A   1      33.344  27.253  23.668  1.00  0.00     0.007 A 
ATOM     23  C   UNL A   1      33.749  27.001  26.024  1.00  0.00     0.014 A 
ATOM     24  C   UNL A   1      32.535  28.361  23.914  1.00  0.00     0.010 A 
ATOM     25  C   UNL A   1      32.976  28.138  26.275  1.00  0.00     0.001 A 
ATOM     26  C   UNL A   1      32.336  28.796  25.223  1.00  0.00     0.001 A 
ENDBRANCH  15  16
ENDBRANCH  12  15
ENDBRANCH   6  11
ENDBRANCH   3   6
ENDBRANCH   1   2
BRANCH   1  27
ATOM     27  C   UNL A   1      37.775  22.458  25.665  1.00  0.00     0.042 C 
BRANCH  27  28
ATOM     28  C   UNL A   1      39.134  22.007  26.189  1.00  0.00     0.118 C 
BRANCH  28  29
ATOM     29  N   UNL A   1      39.491  20.626  25.895  1.00  0.00    -0.352 N 
ATOM     30  C   UNL A   1      40.757  20.070  25.984  1.00  0.00     0.251 C 
ATOM     31  H   UNL A   1      38.762  20.031  25.606  1.00  0.00     0.163 HD
ATOM     32  O   UNL A   1      40.978  18.900  25.743  1.00  0.00    -0.269 OA
BRANCH  30  33
ATOM     33  C   UNL A   1      41.847  20.974  26.405  1.00  0.00     0.039 A 
ATOM     34  C   UNL A   1      42.104  21.123  27.766  1.00  0.00     0.014 A 
ATOM     35  C   UNL A   1      42.428  21.824  25.471  1.00  0.00     0.014 A 
ATOM     36  C   UNL A   1      42.740  22.274  28.221  1.00  0.00     0.010 A 
ATOM     37  C   UNL A   1      43.154  22.924  25.923  1.00  0.00     0.010 A 
ATOM     38  C   UNL A   1      43.227  23.211  27.300  1.00  0.00    -0.014 A 
BRANCH  38  39
ATOM     39  C   UNL A   1      43.692  24.553  27.736  1.00  0.00     0.031 A 
ATOM     40  C   UNL A   1      42.672  25.591  28.136  1.00  0.00     0.074 A 
ATOM     41  C   UNL A   1      45.000  24.855  27.796  1.00  0.00     0.049 A 
ATOM     42  N   UNL A   1      42.824  26.874  28.353  1.00  0.00    -0.248 NA
ATOM     43  C   UNL A   1      41.289  25.116  28.309  1.00  0.00     0.031 C 
ATOM     44  C   UNL A   1      46.097  23.928  27.527  1.00  0.00     0.029 A 
ATOM     45  N   UNL A   1      45.625  26.039  28.098  1.00  0.00    -0.354 N 
ATOM     46  C   UNL A   1      41.556  27.361  28.647  1.00  0.00     0.074 A 
ATOM     47  C   UNL A   1      40.641  26.244  28.562  1.00  0.00     0.031 C 
ATOM     48  C   UNL A   1      47.262  24.573  27.689  1.00  0.00     0.029 A 
ATOM     49  C   UNL A   1      46.991  25.975  27.997  1.00  0.00     0.049 A 
ATOM     50  H   UNL A   1      45.140  26.854  28.362  1.00  0.00     0.167 HD
ATOM     51  C   UNL A   1      41.187  28.628  28.961  1.00  0.00     0.037 A 
ATOM     52  C   UNL A   1      47.918  26.945  28.096  1.00  0.00     0.037 A 
ATOM     53  C   UNL A   1      42.103  29.734  29.062  1.00  0.00     0.049 A 
ATOM     54  C   UNL A   1      47.483  28.362  28.345  1.00  0.00     0.074 A 
ATOM     55  C   UNL A   1      41.832  31.058  29.355  1.00  0.00     0.029 A 
ATOM     56  N   UNL A   1      43.475  29.638  28.880  1.00  0.00    -0.354 N 
ATOM     57  N   UNL A   1      46.277  28.836  28.538  1.00  0.00    -0.248 NA
ATOM     58  C   UNL A   1      48.541  29.381  28.365  1.00  0.00     0.031 C 
ATOM     59  C   UNL A   1      43.036  31.772  29.314  1.00  0.00     0.029 A 
ATOM     60  C   UNL A   1      44.063  30.883  29.041  1.00  0.00     0.049 A 
ATOM     61  H   UNL A   1      43.960  28.808  28.667  1.00  0.00     0.167 HD
ATOM     62  C   UNL A   1      46.427  30.204  28.716  1.00  0.00     0.074 A 
ATOM     63  C   UNL A   1      47.847  30.482  28.623  1.00  0.00     0.031 C 
ATOM     64  C   UNL A   1      45.475  31.146  28.933  1.00  0.00     0.037 A 
BRANCH  51  65
ATOM     65  C   UNL A   1      39.726  28.888  29.192  1.00  0.00     0.064 A 
ATOM     66  C   UNL A   1      38.869  29.271  28.150  1.00  0.00     0.173 A 
ATOM     67  C   UNL A   1      39.172  28.732  30.472  1.00  0.00     0.173 A 
ATOM     68  F   UNL A   1      39.352  29.456  26.912  1.00  0.00    -0.203 F 
ATOM     69  C   UNL A   1      37.517  29.512  28.385  1.00  0.00     0.198 A 
ATOM     70  C   UNL A   1      37.814  28.947  30.698  1.00  0.00     0.198 A 
ATOM     71  F   UNL A   1      39.946  28.370  31.505  1.00  0.00    -0.203 F 
ATOM     72  F   UNL A   1      36.730  29.928  27.384  1.00  0.00    -0.200 F 
ATOM     73  C   UNL A   1      36.990  29.343  29.656  1.00  0.00     0.200 A 
ATOM     74  F   UNL A   1      37.305  28.775  31.925  1.00  0.00    -0.200 F 
ATOM     75  F   UNL A   1      35.689  29.574  29.879  1.00  0.00    -0.200 F 
ENDBRANCH  51  65
BRANCH  52  76
ATOM     76  C   UNL A   1      49.352  26.595  27.947  1.00  0.00     0.064 A 
ATOM     77  C   UNL A   1      49.929  26.493  26.674  1.00  0.00     0.173 A 
ATOM     78  C   UNL A   1      50.183  26.411  29.061  1.00  0.00     0.173 A 
ATOM     79  F   UNL A   1      49.167  26.637  25.580  1.00  0.00    -0.203 F 
ATOM     80  C   UNL A   1      51.289  26.231  26.523  1.00  0.00     0.198 A 
ATOM     81  C   UNL A   1      51.546  26.174  28.909  1.00  0.00     0.198 A 
ATOM     82  F   UNL A   1      49.674  26.499  30.299  1.00  0.00    -0.203 F 
ATOM     83  F   UNL A   1      51.815  26.125  25.296  1.00  0.00    -0.200 F 
ATOM     84  C   UNL A   1      52.098  26.085  27.640  1.00  0.00     0.200 A 
ATOM     85  F   UNL A   1      52.327  26.049  29.991  1.00  0.00    -0.200 F 
ATOM     86  F   UNL A   1      53.410  25.858  27.493  1.00  0.00    -0.200 F 
ENDBRANCH  52  76
BRANCH  64  87
ATOM     87  C   UNL A   1      45.939  32.563  29.100  1.00  0.00     0.064 A 
ATOM     88  C   UNL A   1      46.022  33.439  28.008  1.00  0.00     0.173 A 
ATOM     89  C   UNL A   1      46.270  33.059  30.370  1.00  0.00     0.173 A 
ATOM     90  F   UNL A   1      45.731  33.007  26.772  1.00  0.00    -0.203 F 
ATOM     91  C   UNL A   1      46.445  34.755  28.179  1.00  0.00     0.198 A 
ATOM     92  C   UNL A   1      46.666  34.382  30.540  1.00  0.00     0.198 A 
ATOM     93  F   UNL A   1      46.198  32.262  31.447  1.00  0.00    -0.203 F 
ATOM     94  F   UNL A   1      46.562  35.562  27.115  1.00  0.00    -0.200 F 
ATOM     95  C   UNL A   1      46.761  35.227  29.445  1.00  0.00     0.200 A 
ATOM     96  F   UNL A   1      46.958  34.840  31.766  1.00  0.00    -0.200 F 
ATOM     97  F   UNL A   1      47.164  36.495  29.607  1.00  0.00    -0.200 F 
ENDBRANCH  64  87
ENDBRANCH  38  39
ENDBRANCH  30  33
ENDBRANCH  28  29
ENDBRANCH  27  28
ENDBRANCH   1  27
TORSDOF 15
ENDMDL
MODEL 2
REMARK VINA RESULT:     -12.4      5.503     10.592
REMARK SMILES CC[C@@H](C)[C@@H](NC(=O)Cn1ncc2ccccc2c1=O)C(=O)NCCCNC(=O)c1ccc(-c2c3nc(c(-c4c(F)c(F)c(F)c(F)c4F)c4ccc([nH]4)c(-c4c(F)c(F)c(F)c(F)c4F)c4nc(c(-c5c(F)c(F)c(F)c(F)c5F)c5ccc2[nH]5)C=C4)C=C3)cc1
REMARK SMILES IDX 24 1 23 2 21 3 22 4 5 6 3 7 4 8 2 9 1 10 6 11 7 12 8 14 9 15
REMARK SMILES IDX 10 16 11 17 19 18 12 19 18 20 20 21 13 22 17 23 14 24 16 25
REMARK SMILES IDX 15 26 25 27 26 28 27 29 28 30 29 32 30 33 31 34 92 35 32 36
REMARK SMILES IDX 91 37 33 38 34 39 35 40 85 41 36 42 90 43 84 44 86 45 37 46
REMARK SMILES IDX 89 47 83 48 82 49 38 51 70 52 50 53 69 54 51 55 54 56 68 57
REMARK SMILES IDX 87 58 52 59 53 60 67 62 88 63 55 64 39 65 40 66 48 67 41 68
REMARK SMILES IDX 42 69 46 70 49 71 43 72 44 73 47 74 45 75 71 76 72 77 80 78
REMARK SMILES IDX 73 79 74 80 78 81 81 82 75 83 76 84 79 85 77 86 56 87 57 88
REMARK SMILES IDX 65 89 58 90 59 91 63 92 66 93 60 94 61 95 64 96 62 97
REMARK H PARENT 23 5 6 13 27 31 86 50 54 61
REMARK Flexibility Score: inf
ROOT
ATOM      1  C   UNL A   1      32.355  30.098  26.063  1.00  0.00     0.117 C 
ENDROOT
BRANCH   1   2
ATOM      2  N   UNL A   1      32.738  29.629  24.741  1.00  0.00    -0.354 N 
ATOM      3  C   UNL A   1      31.946  29.232  23.697  1.00  0.00     0.242 C 
ATOM      4  O   UNL A   1      32.510  28.951  22.637  1.00  0.00    -0.273 OA
ATOM      5  H   UNL A   1      33.707  29.592  24.572  1.00  0.00     0.163 HD
BRANCH   3   6
ATOM      6  C   UNL A   1      30.466  28.871  23.917  1.00  0.00     0.174 C 
BRANCH   6   7
ATOM      7  C   UNL A   1      29.733  29.952  23.035  1.00  0.00     0.018 C 
ATOM      8  C   UNL A   1      29.377  31.175  23.910  1.00  0.00     0.010 C 
BRANCH   7   9
ATOM      9  C   UNL A   1      28.503  29.529  22.214  1.00  0.00     0.002 C 
ATOM     10  C   UNL A   1      27.282  29.347  23.125  1.00  0.00     0.004 C 
ENDBRANCH   7   9
ENDBRANCH   6   7
BRANCH   6  11
ATOM     11  N   UNL A   1      30.225  27.467  23.581  1.00  0.00    -0.342 N 
ATOM     12  C   UNL A   1      30.317  26.339  24.357  1.00  0.00     0.242 C 
ATOM     13  H   UNL A   1      29.953  27.305  22.649  1.00  0.00     0.164 HD
ATOM     14  O   UNL A   1      29.937  25.290  23.821  1.00  0.00    -0.273 OA
BRANCH  12  15
ATOM     15  C   UNL A   1      30.751  26.348  25.837  1.00  0.00     0.248 C 
BRANCH  15  16
ATOM     16  N   UNL A   1      31.756  25.375  26.255  1.00  0.00    -0.220 N 
ATOM     17  N   UNL A   1      31.342  24.312  27.036  1.00  0.00    -0.177 NA
ATOM     18  C   UNL A   1      33.110  25.634  26.002  1.00  0.00     0.275 A 
ATOM     19  C   UNL A   1      32.175  23.329  27.178  1.00  0.00     0.142 A 
ATOM     20  C   UNL A   1      33.997  24.452  26.041  1.00  0.00     0.050 A 
ATOM     21  O   UNL A   1      33.554  26.722  25.646  1.00  0.00    -0.267 OA
ATOM     22  C   UNL A   1      33.461  23.261  26.494  1.00  0.00     0.007 A 
ATOM     23  C   UNL A   1      35.226  24.451  25.376  1.00  0.00     0.014 A 
ATOM     24  C   UNL A   1      34.054  22.044  26.158  1.00  0.00     0.010 A 
ATOM     25  C   UNL A   1      35.849  23.236  25.074  1.00  0.00     0.001 A 
ATOM     26  C   UNL A   1      35.243  22.031  25.431  1.00  0.00     0.001 A 
ENDBRANCH  15  16
ENDBRANCH  12  15
ENDBRANCH   6  11
ENDBRANCH   3   6
ENDBRANCH   1   2
BRANCH   1  27
ATOM     27  C   UNL A   1      33.477  29.965  27.086  1.00  0.00     0.042 C 
BRANCH  27  28
ATOM     28  C   UNL A   1      34.024  31.282  27.627  1.00  0.00     0.118 C 
BRANCH  28  29
ATOM     29  N   UNL A   1      33.146  32.434  27.474  1.00  0.00    -0.352 N 
ATOM     30  C   UNL A   1      33.247  33.638  28.152  1.00  0.00     0.251 C 
ATOM     31  H   UNL A   1      32.410  32.347  26.825  1.00  0.00     0.163 HD
ATOM     32  O   UNL A   1      32.490  34.567  27.957  1.00  0.00    -0.269 OA
BRANCH  30  33
ATOM     33  C   UNL A   1      34.346  33.751  29.133  1.00  0.00     0.039 A 
ATOM     34  C   UNL A   1      35.588  34.206  28.696  1.00  0.00     0.014 A 
ATOM     35  C   UNL A   1      34.194  33.191  30.396  1.00  0.00     0.014 A 
ATOM     36  C   UNL A   1      36.732  33.875  29.417  1.00  0.00     0.010 A 
ATOM     37  C   UNL A   1      35.331  32.951  31.166  1.00  0.00     0.010 A 
ATOM     38  C   UNL A   1      36.613  33.197  30.639  1.00  0.00    -0.014 A 
BRANCH  38  39
ATOM     39  C   UNL A   1      37.800  32.616  31.317  1.00  0.00     0.031 A 
ATOM     40  C   UNL A   1      38.497  31.432  30.694  1.00  0.00     0.074 A 
ATOM     41  C   UNL A   1      38.272  33.132  32.465  1.00  0.00     0.049 A 
ATOM     42  N   UNL A   1      39.412  30.640  31.195  1.00  0.00    -0.248 NA
ATOM     43  C   UNL A   1      38.103  31.091  29.317  1.00  0.00     0.031 C 
ATOM     44  C   UNL A   1      37.757  34.326  33.132  1.00  0.00     0.029 A 
ATOM     45  N   UNL A   1      39.294  32.706  33.275  1.00  0.00    -0.354 N 
ATOM     46  C   UNL A   1      39.671  29.690  30.215  1.00  0.00     0.074 A 
ATOM     47  C   UNL A   1      38.804  29.989  29.096  1.00  0.00     0.031 C 
ATOM     48  C   UNL A   1      38.474  34.546  34.244  1.00  0.00     0.029 A 
ATOM     49  C   UNL A   1      39.445  33.467  34.406  1.00  0.00     0.049 A 
ATOM     50  H   UNL A   1      39.863  31.931  33.065  1.00  0.00     0.167 HD
ATOM     51  C   UNL A   1      40.553  28.660  30.244  1.00  0.00     0.037 A 
ATOM     52  C   UNL A   1      40.244  33.291  35.474  1.00  0.00     0.037 A 
ATOM     53  C   UNL A   1      41.426  28.377  31.352  1.00  0.00     0.049 A 
ATOM     54  C   UNL A   1      41.144  32.088  35.535  1.00  0.00     0.074 A 
ATOM     55  C   UNL A   1      42.343  27.350  31.492  1.00  0.00     0.029 A 
ATOM     56  N   UNL A   1      41.495  29.134  32.513  1.00  0.00    -0.354 N 
ATOM     57  N   UNL A   1      41.325  31.144  34.644  1.00  0.00    -0.248 NA
ATOM     58  C   UNL A   1      41.932  31.917  36.763  1.00  0.00     0.031 C 
ATOM     59  C   UNL A   1      42.941  27.465  32.752  1.00  0.00     0.029 A 
ATOM     60  C   UNL A   1      42.430  28.590  33.380  1.00  0.00     0.049 A 
ATOM     61  H   UNL A   1      40.959  29.940  32.695  1.00  0.00     0.167 HD
ATOM     62  C   UNL A   1      42.255  30.273  35.194  1.00  0.00     0.074 A 
ATOM     63  C   UNL A   1      42.613  30.811  36.492  1.00  0.00     0.031 C 
ATOM     64  C   UNL A   1      42.765  29.129  34.673  1.00  0.00     0.037 A 
BRANCH  51  65
ATOM     65  C   UNL A   1      40.597  27.751  29.050  1.00  0.00     0.064 A 
ATOM     66  C   UNL A   1      39.753  26.636  28.938  1.00  0.00     0.173 A 
ATOM     67  C   UNL A   1      41.483  28.010  27.993  1.00  0.00     0.173 A 
ATOM     68  F   UNL A   1      38.904  26.330  29.931  1.00  0.00    -0.203 F 
ATOM     69  C   UNL A   1      39.812  25.800  27.825  1.00  0.00     0.198 A 
ATOM     70  C   UNL A   1      41.519  27.189  26.868  1.00  0.00     0.198 A 
ATOM     71  F   UNL A   1      42.313  29.062  28.048  1.00  0.00    -0.203 F 
ATOM     72  F   UNL A   1      39.033  24.711  27.766  1.00  0.00    -0.200 F 
ATOM     73  C   UNL A   1      40.689  26.081  26.788  1.00  0.00     0.200 A 
ATOM     74  F   UNL A   1      42.361  27.467  25.864  1.00  0.00    -0.200 F 
ATOM     75  F   UNL A   1      40.742  25.277  25.718  1.00  0.00    -0.200 F 
ENDBRANCH  51  65
BRANCH  52  76
ATOM     76  C   UNL A   1      40.211  34.284  36.576  1.00  0.00     0.064 A 
ATOM     77  C   UNL A   1      39.296  34.147  37.627  1.00  0.00     0.173 A 
ATOM     78  C   UNL A   1      41.122  35.348  36.631  1.00  0.00     0.173 A 
ATOM     79  F   UNL A   1      38.391  33.159  37.603  1.00  0.00    -0.203 F 
ATOM     80  C   UNL A   1      39.300  35.035  38.701  1.00  0.00     0.198 A 
ATOM     81  C   UNL A   1      41.141  36.220  37.717  1.00  0.00     0.198 A 
ATOM     82  F   UNL A   1      42.017  35.518  35.647  1.00  0.00    -0.203 F 
ATOM     83  F   UNL A   1      38.406  34.892  39.688  1.00  0.00    -0.200 F 
ATOM     84  C   UNL A   1      40.231  36.063  38.751  1.00  0.00     0.200 A 
ATOM     85  F   UNL A   1      42.052  37.202  37.769  1.00  0.00    -0.200 F 
ATOM     86  F   UNL A   1      40.250  36.900  39.796  1.00  0.00    -0.200 F 
ENDBRANCH  52  76
BRANCH  64  87
ATOM     87  C   UNL A   1      43.776  28.390  35.500  1.00  0.00     0.064 A 
ATOM     88  C   UNL A   1      43.386  27.429  36.444  1.00  0.00     0.173 A 
ATOM     89  C   UNL A   1      45.148  28.620  35.322  1.00  0.00     0.173 A 
ATOM     90  F   UNL A   1      42.085  27.184  36.661  1.00  0.00    -0.203 F 
ATOM     91  C   UNL A   1      44.334  26.743  37.199  1.00  0.00     0.198 A 
ATOM     92  C   UNL A   1      46.094  27.913  36.058  1.00  0.00     0.198 A 
ATOM     93  F   UNL A   1      45.571  29.524  34.424  1.00  0.00    -0.203 F 
ATOM     94  F   UNL A   1      43.939  25.862  38.128  1.00  0.00    -0.200 F 
ATOM     95  C   UNL A   1      45.687  26.981  37.001  1.00  0.00     0.200 A 
ATOM     96  F   UNL A   1      47.400  28.135  35.857  1.00  0.00    -0.200 F 
ATOM     97  F   UNL A   1      46.598  26.317  37.726  1.00  0.00    -0.200 F 
ENDBRANCH  64  87
ENDBRANCH  38  39
ENDBRANCH  30  33
ENDBRANCH  28  29
ENDBRANCH  27  28
ENDBRANCH   1  27
TORSDOF 15
ENDMDL
MODEL 3
REMARK VINA RESULT:     -12.3      5.312     10.250
REMARK SMILES CC[C@@H](C)[C@@H](NC(=O)Cn1ncc2ccccc2c1=O)C(=O)NCCCNC(=O)c1ccc(-c2c3nc(c(-c4c(F)c(F)c(F)c(F)c4F)c4ccc([nH]4)c(-c4c(F)c(F)c(F)c(F)c4F)c4nc(c(-c5c(F)c(F)c(F)c(F)c5F)c5ccc2[nH]5)C=C4)C=C3)cc1
REMARK SMILES IDX 24 1 23 2 21 3 22 4 5 6 3 7 4 8 2 9 1 10 6 11 7 12 8 14 9 15
REMARK SMILES IDX 10 16 11 17 19 18 12 19 18 20 20 21 13 22 17 23 14 24 16 25
REMARK SMILES IDX 15 26 25 27 26 28 27 29 28 30 29 32 30 33 31 34 92 35 32 36
REMARK SMILES IDX 91 37 33 38 34 39 35 40 85 41 36 42 90 43 84 44 86 45 37 46
REMARK SMILES IDX 89 47 83 48 82 49 38 51 70 52 50 53 69 54 51 55 54 56 68 57
REMARK SMILES IDX 87 58 52 59 53 60 67 62 88 63 55 64 39 65 40 66 48 67 41 68
REMARK SMILES IDX 42 69 46 70 49 71 43 72 44 73 47 74 45 75 71 76 72 77 80 78
REMARK SMILES IDX 73 79 74 80 78 81 81 82 75 83 76 84 79 85 77 86 56 87 57 88
REMARK SMILES IDX 65 89 58 90 59 91 63 92 66 93 60 94 61 95 64 96 62 97
REMARK H PARENT 23 5 6 13 27 31 86 50 54 61
REMARK Flexibility Score: inf
ROOT
ATOM      1  C   UNL A   1      33.439  29.792  25.794  1.00  0.00     0.117 C 
ENDROOT
BRANCH   1   2
ATOM      2  N   UNL A   1      32.206  30.045  25.065  1.00  0.00    -0.354 N 
ATOM      3  C   UNL A   1      31.299  29.154  24.558  1.00  0.00     0.242 C 
ATOM      4  O   UNL A   1      30.278  29.620  24.045  1.00  0.00    -0.273 OA
ATOM      5  H   UNL A   1      31.993  30.994  24.916  1.00  0.00     0.163 HD
BRANCH   3   6
ATOM      6  C   UNL A   1      31.663  27.670  24.371  1.00  0.00     0.174 C 
BRANCH   6   7
ATOM      7  C   UNL A   1      30.918  26.996  25.585  1.00  0.00     0.018 C 
ATOM      8  C   UNL A   1      31.958  26.483  26.606  1.00  0.00     0.010 C 
BRANCH   7   9
ATOM      9  C   UNL A   1      29.886  25.892  25.300  1.00  0.00     0.002 C 
ATOM     10  C   UNL A   1      30.577  24.529  25.159  1.00  0.00     0.004 C 
ENDBRANCH   7   9
ENDBRANCH   6   7
BRANCH   6  11
ATOM     11  N   UNL A   1      31.291  27.216  23.029  1.00  0.00    -0.342 N 
ATOM     12  C   UNL A   1      32.026  26.553  22.080  1.00  0.00     0.242 C 
ATOM     13  H   UNL A   1      30.365  27.420  22.766  1.00  0.00     0.164 HD
ATOM     14  O   UNL A   1      31.401  26.197  21.073  1.00  0.00    -0.273 OA
BRANCH  12  15
ATOM     15  C   UNL A   1      33.505  26.156  22.261  1.00  0.00     0.248 C 
BRANCH  15  16
ATOM     16  N   UNL A   1      33.798  24.983  23.079  1.00  0.00    -0.220 N 
ATOM     17  N   UNL A   1      34.437  25.180  24.289  1.00  0.00    -0.177 NA
ATOM     18  C   UNL A   1      33.580  23.704  22.547  1.00  0.00     0.275 A 
ATOM     19  C   UNL A   1      34.454  24.179  25.113  1.00  0.00     0.142 A 
ATOM     20  C   UNL A   1      33.470  22.617  23.543  1.00  0.00     0.050 A 
ATOM     21  O   UNL A   1      33.365  23.473  21.362  1.00  0.00    -0.267 OA
ATOM     22  C   UNL A   1      33.768  22.918  24.859  1.00  0.00     0.007 A 
ATOM     23  C   UNL A   1      32.811  21.423  23.237  1.00  0.00     0.014 A 
ATOM     24  C   UNL A   1      33.281  22.122  25.896  1.00  0.00     0.010 A 
ATOM     25  C   UNL A   1      32.358  20.598  24.271  1.00  0.00     0.001 A 
ATOM     26  C   UNL A   1      32.559  20.967  25.602  1.00  0.00     0.001 A 
ENDBRANCH  15  16
ENDBRANCH  12  15
ENDBRANCH   6  11
ENDBRANCH   3   6
ENDBRANCH   1   2
BRANCH   1  27
ATOM     27  C   UNL A   1      33.328  30.118  27.278  1.00  0.00     0.042 C 
BRANCH  27  28
ATOM     28  C   UNL A   1      33.946  31.446  27.701  1.00  0.00     0.118 C 
BRANCH  28  29
ATOM     29  N   UNL A   1      33.071  32.605  27.596  1.00  0.00    -0.352 N 
ATOM     30  C   UNL A   1      33.198  33.794  28.297  1.00  0.00     0.251 C 
ATOM     31  H   UNL A   1      32.317  32.536  26.967  1.00  0.00     0.163 HD
ATOM     32  O   UNL A   1      32.440  34.730  28.142  1.00  0.00    -0.269 OA
BRANCH  30  33
ATOM     33  C   UNL A   1      34.324  33.881  29.249  1.00  0.00     0.039 A 
ATOM     34  C   UNL A   1      35.543  34.382  28.798  1.00  0.00     0.014 A 
ATOM     35  C   UNL A   1      34.222  33.257  30.487  1.00  0.00     0.014 A 
ATOM     36  C   UNL A   1      36.715  34.039  29.467  1.00  0.00     0.010 A 
ATOM     37  C   UNL A   1      35.386  33.002  31.209  1.00  0.00     0.010 A 
ATOM     38  C   UNL A   1      36.646  33.300  30.656  1.00  0.00    -0.014 A 
BRANCH  38  39
ATOM     39  C   UNL A   1      37.864  32.710  31.269  1.00  0.00     0.031 A 
ATOM     40  C   UNL A   1      38.559  31.565  30.573  1.00  0.00     0.074 A 
ATOM     41  C   UNL A   1      38.367  33.184  32.422  1.00  0.00     0.049 A 
ATOM     42  N   UNL A   1      39.502  30.768  31.008  1.00  0.00    -0.248 NA
ATOM     43  C   UNL A   1      38.124  31.278  29.196  1.00  0.00     0.031 C 
ATOM     44  C   UNL A   1      37.856  34.339  33.157  1.00  0.00     0.029 A 
ATOM     45  N   UNL A   1      39.422  32.741  33.179  1.00  0.00    -0.354 N 
ATOM     46  C   UNL A   1      39.742  29.866  29.979  1.00  0.00     0.074 A 
ATOM     47  C   UNL A   1      38.834  30.198  28.903  1.00  0.00     0.031 C 
ATOM     48  C   UNL A   1      38.607  34.523  34.254  1.00  0.00     0.029 A 
ATOM     49  C   UNL A   1      39.600  33.455  34.337  1.00  0.00     0.049 A 
ATOM     50  H   UNL A   1      39.995  31.985  32.917  1.00  0.00     0.167 HD
ATOM     51  C   UNL A   1      40.640  28.851  29.935  1.00  0.00     0.037 A 
ATOM     52  C   UNL A   1      40.437  33.246  35.369  1.00  0.00     0.037 A 
ATOM     53  C   UNL A   1      41.555  28.535  31.000  1.00  0.00     0.049 A 
ATOM     54  C   UNL A   1      41.356  32.057  35.348  1.00  0.00     0.074 A 
ATOM     55  C   UNL A   1      42.491  27.519  31.065  1.00  0.00     0.029 A 
ATOM     56  N   UNL A   1      41.651  29.243  32.190  1.00  0.00    -0.354 N 
ATOM     57  N   UNL A   1      41.522  31.156  34.411  1.00  0.00    -0.248 NA
ATOM     58  C   UNL A   1      42.188  31.846  36.540  1.00  0.00     0.031 C 
ATOM     59  C   UNL A   1      43.130  27.589  32.308  1.00  0.00     0.029 A 
ATOM     60  C   UNL A   1      42.623  28.677  33.000  1.00  0.00     0.049 A 
ATOM     61  H   UNL A   1      41.109  30.031  32.424  1.00  0.00     0.167 HD
ATOM     62  C   UNL A   1      42.483  30.277  34.891  1.00  0.00     0.074 A 
ATOM     63  C   UNL A   1      42.876  30.765  36.199  1.00  0.00     0.031 C 
ATOM     64  C   UNL A   1      42.993  29.166  34.304  1.00  0.00     0.037 A 
BRANCH  51  65
ATOM     65  C   UNL A   1      40.659  27.995  28.701  1.00  0.00     0.064 A 
ATOM     66  C   UNL A   1      41.439  28.325  27.583  1.00  0.00     0.173 A 
ATOM     67  C   UNL A   1      39.900  26.816  28.644  1.00  0.00     0.173 A 
ATOM     68  F   UNL A   1      42.165  29.454  27.577  1.00  0.00    -0.203 F 
ATOM     69  C   UNL A   1      41.440  27.521  26.446  1.00  0.00     0.198 A 
ATOM     70  C   UNL A   1      39.925  25.999  27.516  1.00  0.00     0.198 A 
ATOM     71  F   UNL A   1      39.134  26.453  29.684  1.00  0.00    -0.203 F 
ATOM     72  F   UNL A   1      42.152  27.886  25.371  1.00  0.00    -0.200 F 
ATOM     73  C   UNL A   1      40.689  26.355  26.416  1.00  0.00     0.200 A 
ATOM     74  F   UNL A   1      39.205  24.869  27.492  1.00  0.00    -0.200 F 
ATOM     75  F   UNL A   1      40.693  25.583  25.321  1.00  0.00    -0.200 F 
ENDBRANCH  51  65
BRANCH  52  76
ATOM     76  C   UNL A   1      40.425  34.190  36.513  1.00  0.00     0.064 A 
ATOM     77  C   UNL A   1      41.274  35.304  36.523  1.00  0.00     0.173 A 
ATOM     78  C   UNL A   1      39.535  34.032  37.586  1.00  0.00     0.173 A 
ATOM     79  F   UNL A   1      42.158  35.481  35.531  1.00  0.00    -0.203 F 
ATOM     80  C   UNL A   1      41.225  36.233  37.560  1.00  0.00     0.198 A 
ATOM     81  C   UNL A   1      39.470  34.975  38.608  1.00  0.00     0.198 A 
ATOM     82  F   UNL A   1      38.704  32.980  37.619  1.00  0.00    -0.203 F 
ATOM     83  F   UNL A   1      42.056  37.284  37.554  1.00  0.00    -0.200 F 
ATOM     84  C   UNL A   1      40.314  36.074  38.595  1.00  0.00     0.200 A 
ATOM     85  F   UNL A   1      38.578  34.826  39.598  1.00  0.00    -0.200 F 
ATOM     86  F   UNL A   1      40.251  36.983  39.578  1.00  0.00    -0.200 F 
ENDBRANCH  52  76
BRANCH  64  87
ATOM     87  C   UNL A   1      44.042  28.409  35.064  1.00  0.00     0.064 A 
ATOM     88  C   UNL A   1      43.703  27.365  35.938  1.00  0.00     0.173 A 
ATOM     89  C   UNL A   1      45.402  28.707  34.891  1.00  0.00     0.173 A 
ATOM     90  F   UNL A   1      42.415  27.053  36.148  1.00  0.00    -0.203 F 
ATOM     91  C   UNL A   1      44.686  26.665  36.631  1.00  0.00     0.198 A 
ATOM     92  C   UNL A   1      46.384  27.986  35.564  1.00  0.00     0.198 A 
ATOM     93  F   UNL A   1      45.777  29.691  34.060  1.00  0.00    -0.203 F 
ATOM     94  F   UNL A   1      44.337  25.702  37.495  1.00  0.00    -0.200 F 
ATOM     95  C   UNL A   1      46.026  26.971  36.438  1.00  0.00     0.200 A 
ATOM     96  F   UNL A   1      47.678  28.275  35.368  1.00  0.00    -0.200 F 
ATOM     97  F   UNL A   1      46.972  26.293  37.103  1.00  0.00    -0.200 F 
ENDBRANCH  64  87
ENDBRANCH  38  39
ENDBRANCH  30  33
ENDBRANCH  28  29
ENDBRANCH  27  28
ENDBRANCH   1  27
TORSDOF 15
ENDMDL
