MODEL 1
REMARK VINA RESULT:     -13.4      0.000      0.000
REMARK SMILES CSc1ccc(/C=C2\C(C)=C(CC(=O)NCCCNC(=O)c3ccc(-c4c5nc(c(-c6c(F)c(F)c(F)c(F)c6F)c6ccc([nH]6)c(-c6c(F)c(F)c(F)c(F)c6F)c6nc(c(-c7c(F)c(F)c(F)c(F)c7F)c7ccc4[nH]7)C=C6)C=C5)cc3)c3cc(F)ccc32)cc1
REMARK SMILES IDX 16 1 15 2 13 3 14 4 12 6 11 7 7 8 8 9 9 10 91 11 10 12 85 13
REMARK SMILES IDX 90 14 86 15 89 16 87 17 88 18 6 19 3 20 4 21 93 22 5 23
REMARK SMILES IDX 92 24 2 25 1 26 17 27 18 28 19 29 20 30 21 32 22 33 23 34
REMARK SMILES IDX 84 35 24 36 83 37 25 38 26 39 27 40 77 41 28 42 82 43 76 44
REMARK SMILES IDX 78 45 29 46 81 47 75 48 74 49 30 51 62 52 42 53 61 54 43 55
REMARK SMILES IDX 46 56 60 57 79 58 44 59 45 60 59 62 80 63 47 64 31 65 32 66
REMARK SMILES IDX 40 67 33 68 34 69 38 70 41 71 35 72 36 73 39 74 37 75 63 76
REMARK SMILES IDX 64 77 72 78 65 79 66 80 70 81 73 82 67 83 68 84 71 85 69 86
REMARK SMILES IDX 48 87 49 88 57 89 50 90 51 91 55 92 58 93 52 94 53 95 56 96
REMARK SMILES IDX 54 97
REMARK H PARENT 15 5 19 31 78 50 46 61
REMARK Flexibility Score: inf
ROOT
ATOM      1  C   UNL A   1      37.589  20.899  24.653  1.00  0.00     0.117 C 
ENDROOT
BRANCH   1   2
ATOM      2  N   UNL A   1      37.746  21.991  25.597  1.00  0.00    -0.356 N 
ATOM      3  C   UNL A   1      37.231  23.253  25.552  1.00  0.00     0.224 C 
ATOM      4  O   UNL A   1      37.624  24.075  26.382  1.00  0.00    -0.275 OA
ATOM      5  H   UNL A   1      38.303  21.790  26.383  1.00  0.00     0.163 HD
BRANCH   3   6
ATOM      6  C   UNL A   1      36.202  23.615  24.502  1.00  0.00     0.136 C 
BRANCH   6   7
ATOM      7  C   UNL A   1      34.790  23.401  25.020  1.00  0.00    -0.027 C 
ATOM      8  C   UNL A   1      32.878  25.179  22.709  1.00  0.00     0.017 C 
ATOM      9  C   UNL A   1      33.277  24.237  23.577  1.00  0.00    -0.014 C 
ATOM     10  C   UNL A   1      33.857  24.392  24.927  1.00  0.00    -0.039 C 
ATOM     11  C   UNL A   1      33.222  22.781  23.371  1.00  0.00    -0.010 A 
ATOM     12  C   UNL A   1      32.744  24.418  25.985  1.00  0.00     0.045 C 
ATOM     13  C   UNL A   1      34.100  22.269  24.347  1.00  0.00    -0.011 A 
ATOM     14  C   UNL A   1      32.252  21.987  22.785  1.00  0.00     0.012 A 
ATOM     15  C   UNL A   1      34.022  20.958  24.778  1.00  0.00     0.048 A 
ATOM     16  C   UNL A   1      32.153  20.665  23.228  1.00  0.00     0.040 A 
ATOM     17  C   UNL A   1      33.022  20.170  24.216  1.00  0.00     0.123 A 
ATOM     18  F   UNL A   1      32.821  18.936  24.696  1.00  0.00    -0.207 F 
BRANCH   8  19
ATOM     19  C   UNL A   1      32.629  26.625  22.926  1.00  0.00    -0.025 A 
ATOM     20  C   UNL A   1      32.389  28.929  24.487  1.00  0.00     0.007 A 
ATOM     21  C   UNL A   1      33.552  28.708  23.759  1.00  0.00     0.015 A 
ATOM     22  C   UNL A   1      31.263  28.145  24.238  1.00  0.00     0.015 A 
ATOM     23  C   UNL A   1      33.653  27.576  22.954  1.00  0.00     0.009 A 
ATOM     24  C   UNL A   1      31.384  26.993  23.457  1.00  0.00     0.009 A 
BRANCH  20  25
ATOM     25  S   UNL A   1      32.437  29.995  25.913  1.00  0.00    -0.130 SA
ATOM     26  C   UNL A   1      31.778  28.784  27.112  1.00  0.00     0.091 C 
ENDBRANCH  20  25
ENDBRANCH   8  19
ENDBRANCH   6   7
ENDBRANCH   3   6
ENDBRANCH   1   2
BRANCH   1  27
ATOM     27  C   UNL A   1      38.465  19.703  25.005  1.00  0.00     0.042 C 
BRANCH  27  28
ATOM     28  C   UNL A   1      39.461  19.962  26.125  1.00  0.00     0.118 C 
BRANCH  28  29
ATOM     29  N   UNL A   1      40.534  18.987  26.126  1.00  0.00    -0.352 N 
ATOM     30  C   UNL A   1      41.891  19.169  26.046  1.00  0.00     0.251 C 
ATOM     31  H   UNL A   1      40.244  18.048  26.193  1.00  0.00     0.163 HD
ATOM     32  O   UNL A   1      42.610  18.214  25.773  1.00  0.00    -0.269 OA
BRANCH  30  33
ATOM     33  C   UNL A   1      42.498  20.496  26.294  1.00  0.00     0.039 A 
ATOM     34  C   UNL A   1      42.517  20.988  27.603  1.00  0.00     0.014 A 
ATOM     35  C   UNL A   1      42.952  21.300  25.244  1.00  0.00     0.014 A 
ATOM     36  C   UNL A   1      42.998  22.273  27.859  1.00  0.00     0.010 A 
ATOM     37  C   UNL A   1      43.507  22.549  25.509  1.00  0.00     0.010 A 
ATOM     38  C   UNL A   1      43.499  23.062  26.814  1.00  0.00    -0.014 A 
BRANCH  38  39
ATOM     39  C   UNL A   1      43.936  24.461  27.050  1.00  0.00     0.031 A 
ATOM     40  C   UNL A   1      42.949  25.468  27.579  1.00  0.00     0.074 A 
ATOM     41  C   UNL A   1      45.193  24.835  26.752  1.00  0.00     0.049 A 
ATOM     42  N   UNL A   1      43.104  26.752  27.788  1.00  0.00    -0.248 NA
ATOM     43  C   UNL A   1      41.597  24.972  27.884  1.00  0.00     0.031 C 
ATOM     44  C   UNL A   1      46.228  23.960  26.198  1.00  0.00     0.029 A 
ATOM     45  N   UNL A   1      45.813  26.053  26.868  1.00  0.00    -0.354 N 
ATOM     46  C   UNL A   1      41.865  27.216  28.214  1.00  0.00     0.074 A 
ATOM     47  C   UNL A   1      40.959  26.090  28.191  1.00  0.00     0.031 C 
ATOM     48  C   UNL A   1      47.360  24.665  26.042  1.00  0.00     0.029 A 
ATOM     49  C   UNL A   1      47.124  26.045  26.460  1.00  0.00     0.049 A 
ATOM     50  H   UNL A   1      45.362  26.857  27.211  1.00  0.00     0.167 HD
ATOM     51  C   UNL A   1      41.521  28.464  28.610  1.00  0.00     0.037 A 
ATOM     52  C   UNL A   1      48.030  27.039  26.430  1.00  0.00     0.037 A 
ATOM     53  C   UNL A   1      42.439  29.569  28.682  1.00  0.00     0.049 A 
ATOM     54  C   UNL A   1      47.636  28.405  26.923  1.00  0.00     0.074 A 
ATOM     55  C   UNL A   1      42.207  30.859  29.127  1.00  0.00     0.029 A 
ATOM     56  N   UNL A   1      43.773  29.506  28.310  1.00  0.00    -0.354 N 
ATOM     57  N   UNL A   1      46.477  28.820  27.372  1.00  0.00    -0.248 NA
ATOM     58  C   UNL A   1      48.681  29.438  26.917  1.00  0.00     0.031 C 
ATOM     59  C   UNL A   1      43.397  31.585  28.998  1.00  0.00     0.029 A 
ATOM     60  C   UNL A   1      44.378  30.736  28.510  1.00  0.00     0.049 A 
ATOM     61  H   UNL A   1      44.224  28.706  27.955  1.00  0.00     0.167 HD
ATOM     62  C   UNL A   1      46.661  30.148  27.734  1.00  0.00     0.074 A 
ATOM     63  C   UNL A   1      48.046  30.467  27.458  1.00  0.00     0.031 C 
ATOM     64  C   UNL A   1      45.764  31.023  28.249  1.00  0.00     0.037 A 
BRANCH  51  65
ATOM     65  C   UNL A   1      40.091  28.696  29.003  1.00  0.00     0.064 A 
ATOM     66  C   UNL A   1      39.649  28.511  30.321  1.00  0.00     0.173 A 
ATOM     67  C   UNL A   1      39.154  29.129  28.053  1.00  0.00     0.173 A 
ATOM     68  F   UNL A   1      40.502  28.082  31.264  1.00  0.00    -0.203 F 
ATOM     69  C   UNL A   1      38.317  28.719  30.667  1.00  0.00     0.198 A 
ATOM     70  C   UNL A   1      37.828  29.365  28.409  1.00  0.00     0.198 A 
ATOM     71  F   UNL A   1      39.524  29.328  26.778  1.00  0.00    -0.203 F 
ATOM     72  F   UNL A   1      37.907  28.484  31.921  1.00  0.00    -0.200 F 
ATOM     73  C   UNL A   1      37.409  29.151  29.712  1.00  0.00     0.200 A 
ATOM     74  F   UNL A   1      36.955  29.794  27.487  1.00  0.00    -0.200 F 
ATOM     75  F   UNL A   1      36.127  29.355  30.048  1.00  0.00    -0.200 F 
ENDBRANCH  51  65
BRANCH  52  76
ATOM     76  C   UNL A   1      49.413  26.767  25.964  1.00  0.00     0.064 A 
ATOM     77  C   UNL A   1      49.780  27.000  24.632  1.00  0.00     0.173 A 
ATOM     78  C   UNL A   1      50.395  26.275  26.836  1.00  0.00     0.173 A 
ATOM     79  F   UNL A   1      48.869  27.453  23.757  1.00  0.00    -0.203 F 
ATOM     80  C   UNL A   1      51.071  26.732  24.182  1.00  0.00     0.198 A 
ATOM     81  C   UNL A   1      51.693  26.030  26.392  1.00  0.00     0.198 A 
ATOM     82  F   UNL A   1      50.096  26.043  28.123  1.00  0.00    -0.203 F 
ATOM     83  F   UNL A   1      51.382  26.925  22.894  1.00  0.00    -0.200 F 
ATOM     84  C   UNL A   1      52.028  26.252  25.064  1.00  0.00     0.200 A 
ATOM     85  F   UNL A   1      52.619  25.580  27.249  1.00  0.00    -0.200 F 
ATOM     86  F   UNL A   1      53.271  25.998  24.633  1.00  0.00    -0.200 F 
ENDBRANCH  52  76
BRANCH  64  87
ATOM     87  C   UNL A   1      46.265  32.393  28.596  1.00  0.00     0.064 A 
ATOM     88  C   UNL A   1      46.233  33.445  27.670  1.00  0.00     0.173 A 
ATOM     89  C   UNL A   1      46.751  32.663  29.884  1.00  0.00     0.173 A 
ATOM     90  F   UNL A   1      45.792  33.232  26.421  1.00  0.00    -0.203 F 
ATOM     91  C   UNL A   1      46.691  34.714  28.015  1.00  0.00     0.198 A 
ATOM     92  C   UNL A   1      47.185  33.937  30.233  1.00  0.00     0.198 A 
ATOM     93  F   UNL A   1      46.796  31.690  30.806  1.00  0.00    -0.203 F 
ATOM     94  F   UNL A   1      46.693  35.694  27.102  1.00  0.00    -0.200 F 
ATOM     95  C   UNL A   1      47.161  34.960  29.297  1.00  0.00     0.200 A 
ATOM     96  F   UNL A   1      47.628  34.177  31.475  1.00  0.00    -0.200 F 
ATOM     97  F   UNL A   1      47.599  36.182  29.627  1.00  0.00    -0.200 F 
ENDBRANCH  64  87
ENDBRANCH  38  39
ENDBRANCH  30  33
ENDBRANCH  28  29
ENDBRANCH  27  28
ENDBRANCH   1  27
TORSDOF 13
ENDMDL
MODEL 2
REMARK VINA RESULT:     -13.4      5.911     11.239
REMARK SMILES CSc1ccc(/C=C2\C(C)=C(CC(=O)NCCCNC(=O)c3ccc(-c4c5nc(c(-c6c(F)c(F)c(F)c(F)c6F)c6ccc([nH]6)c(-c6c(F)c(F)c(F)c(F)c6F)c6nc(c(-c7c(F)c(F)c(F)c(F)c7F)c7ccc4[nH]7)C=C6)C=C5)cc3)c3cc(F)ccc32)cc1
REMARK SMILES IDX 16 1 15 2 13 3 14 4 12 6 11 7 7 8 8 9 9 10 91 11 10 12 85 13
REMARK SMILES IDX 90 14 86 15 89 16 87 17 88 18 6 19 3 20 4 21 93 22 5 23
REMARK SMILES IDX 92 24 2 25 1 26 17 27 18 28 19 29 20 30 21 32 22 33 23 34
REMARK SMILES IDX 84 35 24 36 83 37 25 38 26 39 27 40 77 41 28 42 82 43 76 44
REMARK SMILES IDX 78 45 29 46 81 47 75 48 74 49 30 51 62 52 42 53 61 54 43 55
REMARK SMILES IDX 46 56 60 57 79 58 44 59 45 60 59 62 80 63 47 64 31 65 32 66
REMARK SMILES IDX 40 67 33 68 34 69 38 70 41 71 35 72 36 73 39 74 37 75 63 76
REMARK SMILES IDX 64 77 72 78 65 79 66 80 70 81 73 82 67 83 68 84 71 85 69 86
REMARK SMILES IDX 48 87 49 88 57 89 50 90 51 91 55 92 58 93 52 94 53 95 56 96
REMARK SMILES IDX 54 97
REMARK H PARENT 15 5 19 31 78 50 46 61
REMARK Flexibility Score: inf
ROOT
ATOM      1  C   UNL A   1      31.667  30.750  26.565  1.00  0.00     0.117 C 
ENDROOT
BRANCH   1   2
ATOM      2  N   UNL A   1      33.054  30.322  26.590  1.00  0.00    -0.356 N 
ATOM      3  C   UNL A   1      33.570  29.070  26.755  1.00  0.00     0.224 C 
ATOM      4  O   UNL A   1      34.787  28.954  26.904  1.00  0.00    -0.275 OA
ATOM      5  H   UNL A   1      33.717  31.039  26.468  1.00  0.00     0.163 HD
BRANCH   3   6
ATOM      6  C   UNL A   1      32.652  27.865  26.750  1.00  0.00     0.136 C 
BRANCH   6   7
ATOM      7  C   UNL A   1      32.489  27.305  25.347  1.00  0.00    -0.027 C 
ATOM      8  C   UNL A   1      31.034  24.197  25.958  1.00  0.00     0.017 C 
ATOM      9  C   UNL A   1      31.330  25.375  25.390  1.00  0.00    -0.014 C 
ATOM     10  C   UNL A   1      32.652  25.973  25.108  1.00  0.00    -0.039 C 
ATOM     11  C   UNL A   1      30.369  26.375  24.901  1.00  0.00    -0.010 A 
ATOM     12  C   UNL A   1      33.135  25.558  23.710  1.00  0.00     0.045 C 
ATOM     13  C   UNL A   1      31.135  27.552  24.787  1.00  0.00    -0.011 A 
ATOM     14  C   UNL A   1      29.174  26.222  24.219  1.00  0.00     0.012 A 
ATOM     15  C   UNL A   1      30.740  28.600  23.976  1.00  0.00     0.048 A 
ATOM     16  C   UNL A   1      28.776  27.269  23.383  1.00  0.00     0.040 A 
ATOM     17  C   UNL A   1      29.558  28.431  23.261  1.00  0.00     0.123 A 
ATOM     18  F   UNL A   1      29.203  29.359  22.364  1.00  0.00    -0.207 F 
BRANCH   8  19
ATOM     19  C   UNL A   1      31.902  23.022  26.216  1.00  0.00    -0.025 A 
ATOM     20  C   UNL A   1      34.211  21.482  25.897  1.00  0.00     0.007 A 
ATOM     21  C   UNL A   1      34.063  22.275  27.029  1.00  0.00     0.015 A 
ATOM     22  C   UNL A   1      33.115  21.261  25.065  1.00  0.00     0.015 A 
ATOM     23  C   UNL A   1      32.895  23.013  27.202  1.00  0.00     0.009 A 
ATOM     24  C   UNL A   1      31.960  22.032  25.225  1.00  0.00     0.009 A 
BRANCH  20  25
ATOM     25  S   UNL A   1      35.844  21.008  25.367  1.00  0.00    -0.130 SA
ATOM     26  C   UNL A   1      36.054  22.316  24.110  1.00  0.00     0.091 C 
ENDBRANCH  20  25
ENDBRANCH   8  19
ENDBRANCH   6   7
ENDBRANCH   3   6
ENDBRANCH   1   2
BRANCH   1  27
ATOM     27  C   UNL A   1      31.518  32.237  26.862  1.00  0.00     0.042 C 
BRANCH  27  28
ATOM     28  C   UNL A   1      32.819  32.940  27.219  1.00  0.00     0.118 C 
BRANCH  28  29
ATOM     29  N   UNL A   1      32.593  34.313  27.626  1.00  0.00    -0.352 N 
ATOM     30  C   UNL A   1      33.062  34.998  28.718  1.00  0.00     0.251 C 
ATOM     31  H   UNL A   1      32.011  34.835  27.027  1.00  0.00     0.163 HD
ATOM     32  O   UNL A   1      32.531  36.055  29.038  1.00  0.00    -0.269 OA
BRANCH  30  33
ATOM     33  C   UNL A   1      34.205  34.483  29.506  1.00  0.00     0.039 A 
ATOM     34  C   UNL A   1      35.493  34.610  28.976  1.00  0.00     0.014 A 
ATOM     35  C   UNL A   1      34.014  33.791  30.705  1.00  0.00     0.014 A 
ATOM     36  C   UNL A   1      36.584  34.055  29.649  1.00  0.00     0.010 A 
ATOM     37  C   UNL A   1      35.109  33.309  31.418  1.00  0.00     0.010 A 
ATOM     38  C   UNL A   1      36.399  33.403  30.876  1.00  0.00    -0.014 A 
BRANCH  38  39
ATOM     39  C   UNL A   1      37.529  32.733  31.566  1.00  0.00     0.031 A 
ATOM     40  C   UNL A   1      38.240  31.590  30.890  1.00  0.00     0.074 A 
ATOM     41  C   UNL A   1      37.887  33.116  32.805  1.00  0.00     0.049 A 
ATOM     42  N   UNL A   1      39.201  30.825  31.343  1.00  0.00    -0.248 NA
ATOM     43  C   UNL A   1      37.789  31.242  29.533  1.00  0.00     0.031 C 
ATOM     44  C   UNL A   1      37.249  34.182  33.579  1.00  0.00     0.029 A 
ATOM     45  N   UNL A   1      38.872  32.645  33.635  1.00  0.00    -0.354 N 
ATOM     46  C   UNL A   1      39.442  29.890  30.344  1.00  0.00     0.074 A 
ATOM     47  C   UNL A   1      38.499  30.154  29.280  1.00  0.00     0.031 C 
ATOM     48  C   UNL A   1      37.873  34.298  34.762  1.00  0.00     0.029 A 
ATOM     49  C   UNL A   1      38.936  33.300  34.840  1.00  0.00     0.049 A 
ATOM     50  H   UNL A   1      39.477  31.908  33.391  1.00  0.00     0.167 HD
ATOM     51  C   UNL A   1      40.379  28.914  30.307  1.00  0.00     0.037 A 
ATOM     52  C   UNL A   1      39.761  33.113  35.887  1.00  0.00     0.037 A 
ATOM     53  C   UNL A   1      41.351  28.690  31.344  1.00  0.00     0.049 A 
ATOM     54  C   UNL A   1      40.827  32.055  35.800  1.00  0.00     0.074 A 
ATOM     55  C   UNL A   1      42.382  27.768  31.378  1.00  0.00     0.029 A 
ATOM     56  N   UNL A   1      41.416  29.410  32.528  1.00  0.00    -0.354 N 
ATOM     57  N   UNL A   1      41.079  31.212  34.829  1.00  0.00    -0.248 NA
ATOM     58  C   UNL A   1      41.733  31.933  36.951  1.00  0.00     0.031 C 
ATOM     59  C   UNL A   1      43.056  27.913  32.597  1.00  0.00     0.029 A 
ATOM     60  C   UNL A   1      42.467  28.951  33.303  1.00  0.00     0.049 A 
ATOM     61  H   UNL A   1      40.804  30.139  32.779  1.00  0.00     0.167 HD
ATOM     62  C   UNL A   1      42.190  30.484  35.235  1.00  0.00     0.074 A 
ATOM     63  C   UNL A   1      42.568  30.991  36.538  1.00  0.00     0.031 C 
ATOM     64  C   UNL A   1      42.838  29.486  34.586  1.00  0.00     0.037 A 
BRANCH  51  65
ATOM     65  C   UNL A   1      40.402  28.021  29.101  1.00  0.00     0.064 A 
ATOM     66  C   UNL A   1      39.654  26.835  29.048  1.00  0.00     0.173 A 
ATOM     67  C   UNL A   1      41.166  28.365  27.976  1.00  0.00     0.173 A 
ATOM     68  F   UNL A   1      38.919  26.454  30.103  1.00  0.00    -0.203 F 
ATOM     69  C   UNL A   1      39.696  26.011  27.927  1.00  0.00     0.198 A 
ATOM     70  C   UNL A   1      41.182  27.552  26.844  1.00  0.00     0.198 A 
ATOM     71  F   UNL A   1      41.896  29.490  27.971  1.00  0.00    -0.203 F 
ATOM     72  F   UNL A   1      39.015  24.857  27.920  1.00  0.00    -0.200 F 
ATOM     73  C   UNL A   1      40.455  26.373  26.824  1.00  0.00     0.200 A 
ATOM     74  F   UNL A   1      41.907  27.909  25.775  1.00  0.00    -0.200 F 
ATOM     75  F   UNL A   1      40.490  25.580  25.744  1.00  0.00    -0.200 F 
ENDBRANCH  51  65
BRANCH  52  76
ATOM     76  C   UNL A   1      39.645  33.983  37.085  1.00  0.00     0.064 A 
ATOM     77  C   UNL A   1      40.293  35.225  37.134  1.00  0.00     0.173 A 
ATOM     78  C   UNL A   1      38.884  33.597  38.198  1.00  0.00     0.173 A 
ATOM     79  F   UNL A   1      41.047  35.628  36.101  1.00  0.00    -0.203 F 
ATOM     80  C   UNL A   1      40.202  36.040  38.260  1.00  0.00     0.198 A 
ATOM     81  C   UNL A   1      38.774  34.424  39.314  1.00  0.00     0.198 A 
ATOM     82  F   UNL A   1      38.239  32.422  38.195  1.00  0.00    -0.203 F 
ATOM     83  F   UNL A   1      40.866  37.203  38.297  1.00  0.00    -0.200 F 
ATOM     84  C   UNL A   1      39.439  35.641  39.347  1.00  0.00     0.200 A 
ATOM     85  F   UNL A   1      38.024  34.042  40.357  1.00  0.00    -0.200 F 
ATOM     86  F   UNL A   1      39.348  36.427  40.429  1.00  0.00    -0.200 F 
ENDBRANCH  52  76
BRANCH  64  87
ATOM     87  C   UNL A   1      44.053  28.913  35.252  1.00  0.00     0.064 A 
ATOM     88  C   UNL A   1      43.963  27.844  36.154  1.00  0.00     0.173 A 
ATOM     89  C   UNL A   1      45.327  29.420  34.954  1.00  0.00     0.173 A 
ATOM     90  F   UNL A   1      42.765  27.336  36.481  1.00  0.00    -0.203 F 
ATOM     91  C   UNL A   1      45.105  27.317  36.752  1.00  0.00     0.198 A 
ATOM     92  C   UNL A   1      46.468  28.874  35.534  1.00  0.00     0.198 A 
ATOM     93  F   UNL A   1      45.464  30.438  34.092  1.00  0.00    -0.203 F 
ATOM     94  F   UNL A   1      44.993  26.324  37.645  1.00  0.00    -0.200 F 
ATOM     95  C   UNL A   1      46.356  27.828  36.437  1.00  0.00     0.200 A 
ATOM     96  F   UNL A   1      47.677  29.362  35.222  1.00  0.00    -0.200 F 
ATOM     97  F   UNL A   1      47.452  27.318  37.012  1.00  0.00    -0.200 F 
ENDBRANCH  64  87
ENDBRANCH  38  39
ENDBRANCH  30  33
ENDBRANCH  28  29
ENDBRANCH  27  28
ENDBRANCH   1  27
TORSDOF 13
ENDMDL
MODEL 3
REMARK VINA RESULT:     -13.3      0.094      1.910
REMARK SMILES CSc1ccc(/C=C2\C(C)=C(CC(=O)NCCCNC(=O)c3ccc(-c4c5nc(c(-c6c(F)c(F)c(F)c(F)c6F)c6ccc([nH]6)c(-c6c(F)c(F)c(F)c(F)c6F)c6nc(c(-c7c(F)c(F)c(F)c(F)c7F)c7ccc4[nH]7)C=C6)C=C5)cc3)c3cc(F)ccc32)cc1
REMARK SMILES IDX 16 1 15 2 13 3 14 4 12 6 11 7 7 8 8 9 9 10 91 11 10 12 85 13
REMARK SMILES IDX 90 14 86 15 89 16 87 17 88 18 6 19 3 20 4 21 93 22 5 23
REMARK SMILES IDX 92 24 2 25 1 26 17 27 18 28 19 29 20 30 21 32 22 33 23 34
REMARK SMILES IDX 84 35 24 36 83 37 25 38 26 39 27 40 77 41 28 42 82 43 76 44
REMARK SMILES IDX 78 45 29 46 81 47 75 48 74 49 30 51 62 52 42 53 61 54 43 55
REMARK SMILES IDX 46 56 60 57 79 58 44 59 45 60 59 62 80 63 47 64 31 65 32 66
REMARK SMILES IDX 40 67 33 68 34 69 38 70 41 71 35 72 36 73 39 74 37 75 63 76
REMARK SMILES IDX 64 77 72 78 65 79 66 80 70 81 73 82 67 83 68 84 71 85 69 86
REMARK SMILES IDX 48 87 49 88 57 89 50 90 51 91 55 92 58 93 52 94 53 95 56 96
REMARK SMILES IDX 54 97
REMARK H PARENT 15 5 19 31 78 50 46 61
REMARK Flexibility Score: inf
ROOT
ATOM      1  C   UNL A   1      37.477  20.770  24.786  1.00  0.00     0.117 C 
ENDROOT
BRANCH   1   2
ATOM      2  N   UNL A   1      37.698  21.918  25.646  1.00  0.00    -0.356 N 
ATOM      3  C   UNL A   1      37.237  23.196  25.519  1.00  0.00     0.224 C 
ATOM      4  O   UNL A   1      37.680  24.057  26.281  1.00  0.00    -0.275 OA
ATOM      5  H   UNL A   1      38.260  21.750  26.437  1.00  0.00     0.163 HD
BRANCH   3   6
ATOM      6  C   UNL A   1      36.206  23.528  24.460  1.00  0.00     0.136 C 
BRANCH   6   7
ATOM      7  C   UNL A   1      34.795  23.325  24.986  1.00  0.00    -0.027 C 
ATOM      8  C   UNL A   1      32.878  25.054  22.642  1.00  0.00     0.017 C 
ATOM      9  C   UNL A   1      33.278  24.130  23.529  1.00  0.00    -0.014 C 
ATOM     10  C   UNL A   1      33.863  24.314  24.874  1.00  0.00    -0.039 C 
ATOM     11  C   UNL A   1      33.223  22.671  23.354  1.00  0.00    -0.010 A 
ATOM     12  C   UNL A   1      32.751  24.362  25.934  1.00  0.00     0.045 C 
ATOM     13  C   UNL A   1      34.104  22.179  24.339  1.00  0.00    -0.011 A 
ATOM     14  C   UNL A   1      32.252  21.865  22.787  1.00  0.00     0.012 A 
ATOM     15  C   UNL A   1      34.026  20.877  24.798  1.00  0.00     0.048 A 
ATOM     16  C   UNL A   1      32.154  20.552  23.258  1.00  0.00     0.040 A 
ATOM     17  C   UNL A   1      33.025  20.078  24.254  1.00  0.00     0.123 A 
ATOM     18  F   UNL A   1      32.825  18.854  24.761  1.00  0.00    -0.207 F 
BRANCH   8  19
ATOM     19  C   UNL A   1      32.629  26.505  22.830  1.00  0.00    -0.025 A 
ATOM     20  C   UNL A   1      32.361  28.835  24.346  1.00  0.00     0.007 A 
ATOM     21  C   UNL A   1      33.541  28.598  23.651  1.00  0.00     0.015 A 
ATOM     22  C   UNL A   1      31.239  28.051  24.084  1.00  0.00     0.015 A 
ATOM     23  C   UNL A   1      33.657  27.452  22.867  1.00  0.00     0.009 A 
ATOM     24  C   UNL A   1      31.374  26.886  23.324  1.00  0.00     0.009 A 
BRANCH  20  25
ATOM     25  S   UNL A   1      32.379  29.924  25.756  1.00  0.00    -0.130 SA
ATOM     26  C   UNL A   1      31.778  28.707  26.978  1.00  0.00     0.091 C 
ENDBRANCH  20  25
ENDBRANCH   8  19
ENDBRANCH   6   7
ENDBRANCH   3   6
ENDBRANCH   1   2
BRANCH   1  27
ATOM     27  C   UNL A   1      38.498  19.665  25.028  1.00  0.00     0.042 C 
BRANCH  27  28
ATOM     28  C   UNL A   1      39.517  19.978  26.113  1.00  0.00     0.118 C 
BRANCH  28  29
ATOM     29  N   UNL A   1      40.592  19.005  26.136  1.00  0.00    -0.352 N 
ATOM     30  C   UNL A   1      41.949  19.188  26.073  1.00  0.00     0.251 C 
ATOM     31  H   UNL A   1      40.302  18.066  26.207  1.00  0.00     0.163 HD
ATOM     32  O   UNL A   1      42.673  18.232  25.818  1.00  0.00    -0.269 OA
BRANCH  30  33
ATOM     33  C   UNL A   1      42.550  20.518  26.318  1.00  0.00     0.039 A 
ATOM     34  C   UNL A   1      42.565  21.014  27.626  1.00  0.00     0.014 A 
ATOM     35  C   UNL A   1      43.004  21.321  25.267  1.00  0.00     0.014 A 
ATOM     36  C   UNL A   1      43.041  22.302  27.879  1.00  0.00     0.010 A 
ATOM     37  C   UNL A   1      43.554  22.573  25.529  1.00  0.00     0.010 A 
ATOM     38  C   UNL A   1      43.541  23.090  26.832  1.00  0.00    -0.014 A 
BRANCH  38  39
ATOM     39  C   UNL A   1      43.972  24.491  27.064  1.00  0.00     0.031 A 
ATOM     40  C   UNL A   1      42.981  25.496  27.589  1.00  0.00     0.074 A 
ATOM     41  C   UNL A   1      45.228  24.869  26.767  1.00  0.00     0.049 A 
ATOM     42  N   UNL A   1      43.130  26.780  27.795  1.00  0.00    -0.248 NA
ATOM     43  C   UNL A   1      41.631  24.995  27.894  1.00  0.00     0.031 C 
ATOM     44  C   UNL A   1      46.267  23.997  26.217  1.00  0.00     0.029 A 
ATOM     45  N   UNL A   1      45.843  26.090  26.881  1.00  0.00    -0.354 N 
ATOM     46  C   UNL A   1      41.889  27.241  28.218  1.00  0.00     0.074 A 
ATOM     47  C   UNL A   1      40.987  26.111  28.198  1.00  0.00     0.031 C 
ATOM     48  C   UNL A   1      47.397  24.706  26.061  1.00  0.00     0.029 A 
ATOM     49  C   UNL A   1      47.155  26.086  26.474  1.00  0.00     0.049 A 
ATOM     50  H   UNL A   1      45.388  26.893  27.221  1.00  0.00     0.167 HD
ATOM     51  C   UNL A   1      41.539  28.489  28.610  1.00  0.00     0.037 A 
ATOM     52  C   UNL A   1      48.057  27.084  26.443  1.00  0.00     0.037 A 
ATOM     53  C   UNL A   1      42.453  29.598  28.681  1.00  0.00     0.049 A 
ATOM     54  C   UNL A   1      47.657  28.449  26.931  1.00  0.00     0.074 A 
ATOM     55  C   UNL A   1      42.215  30.888  29.121  1.00  0.00     0.029 A 
ATOM     56  N   UNL A   1      43.788  29.539  28.310  1.00  0.00    -0.354 N 
ATOM     57  N   UNL A   1      46.496  28.861  27.378  1.00  0.00    -0.248 NA
ATOM     58  C   UNL A   1      48.698  29.486  26.924  1.00  0.00     0.031 C 
ATOM     59  C   UNL A   1      43.403  31.618  28.992  1.00  0.00     0.029 A 
ATOM     60  C   UNL A   1      44.388  30.772  28.507  1.00  0.00     0.049 A 
ATOM     61  H   UNL A   1      44.242  28.740  27.958  1.00  0.00     0.167 HD
ATOM     62  C   UNL A   1      46.674  30.190  27.736  1.00  0.00     0.074 A 
ATOM     63  C   UNL A   1      48.058  30.514  27.461  1.00  0.00     0.031 C 
ATOM     64  C   UNL A   1      45.773  31.064  28.248  1.00  0.00     0.037 A 
BRANCH  51  65
ATOM     65  C   UNL A   1      40.108  28.716  29.000  1.00  0.00     0.064 A 
ATOM     66  C   UNL A   1      39.143  29.117  28.063  1.00  0.00     0.173 A 
ATOM     67  C   UNL A   1      39.690  28.512  30.324  1.00  0.00     0.173 A 
ATOM     68  F   UNL A   1      39.494  29.340  26.788  1.00  0.00    -0.203 F 
ATOM     69  C   UNL A   1      37.822  29.336  28.443  1.00  0.00     0.198 A 
ATOM     70  C   UNL A   1      38.361  28.703  30.694  1.00  0.00     0.198 A 
ATOM     71  F   UNL A   1      40.570  28.123  31.259  1.00  0.00    -0.203 F 
ATOM     72  F   UNL A   1      36.930  29.770  27.542  1.00  0.00    -0.200 F 
ATOM     73  C   UNL A   1      37.431  29.124  29.757  1.00  0.00     0.200 A 
ATOM     74  F   UNL A   1      37.982  28.487  31.962  1.00  0.00    -0.200 F 
ATOM     75  F   UNL A   1      36.158  29.331  30.120  1.00  0.00    -0.200 F 
ENDBRANCH  51  65
BRANCH  52  76
ATOM     76  C   UNL A   1      49.442  26.815  25.979  1.00  0.00     0.064 A 
ATOM     77  C   UNL A   1      50.417  26.346  26.870  1.00  0.00     0.173 A 
ATOM     78  C   UNL A   1      49.817  27.014  24.643  1.00  0.00     0.173 A 
ATOM     79  F   UNL A   1      50.109  26.158  28.161  1.00  0.00    -0.203 F 
ATOM     80  C   UNL A   1      51.722  26.106  26.447  1.00  0.00     0.198 A 
ATOM     81  C   UNL A   1      51.116  26.750  24.215  1.00  0.00     0.198 A 
ATOM     82  F   UNL A   1      48.918  27.453  23.751  1.00  0.00    -0.203 F 
ATOM     83  F   UNL A   1      52.645  25.698  27.328  1.00  0.00    -0.200 F 
ATOM     84  C   UNL A   1      52.070  26.304  25.118  1.00  0.00     0.200 A 
ATOM     85  F   UNL A   1      51.446  26.929  22.928  1.00  0.00    -0.200 F 
ATOM     86  F   UNL A   1      53.324  26.069  24.710  1.00  0.00    -0.200 F 
ENDBRANCH  52  76
BRANCH  64  87
ATOM     87  C   UNL A   1      46.268  32.436  28.591  1.00  0.00     0.064 A 
ATOM     88  C   UNL A   1      46.798  32.734  29.854  1.00  0.00     0.173 A 
ATOM     89  C   UNL A   1      46.246  33.457  27.628  1.00  0.00     0.173 A 
ATOM     90  F   UNL A   1      46.827  31.795  30.812  1.00  0.00    -0.203 F 
ATOM     91  C   UNL A   1      47.266  34.012  30.149  1.00  0.00     0.198 A 
ATOM     92  C   UNL A   1      46.737  34.725  27.918  1.00  0.00     0.198 A 
ATOM     93  F   UNL A   1      45.754  33.219  26.403  1.00  0.00    -0.203 F 
ATOM     94  F   UNL A   1      47.728  34.287  31.377  1.00  0.00    -0.200 F 
ATOM     95  C   UNL A   1      47.241  35.004  29.180  1.00  0.00     0.200 A 
ATOM     96  F   UNL A   1      46.722  35.681  26.978  1.00  0.00    -0.200 F 
ATOM     97  F   UNL A   1      47.694  36.231  29.465  1.00  0.00    -0.200 F 
ENDBRANCH  64  87
ENDBRANCH  38  39
ENDBRANCH  30  33
ENDBRANCH  28  29
ENDBRANCH  27  28
ENDBRANCH   1  27
TORSDOF 13
ENDMDL
