MODEL 1
REMARK VINA RESULT:     -14.5      0.000      0.000
REMARK SMILES CCOC(=O)N1CCN(c2ccc(NS(=O)(=O)c3ccc4c(c3)CCCC4)cc2C(=O)NCCCNC(=O)c2ccc(-c3c4nc(c(-c5c(F)c(F)c(F)c(F)c5F)c5ccc([nH]5)c(-c5c(F)c(F)c(F)c(F)c5F)c5nc(c(-c6c(F)c(F)c(F)c(F)c6F)c6ccc3[nH]6)C=C5)C=C4)cc2)CC1
REMARK SMILES IDX 33 1 32 2 30 3 31 4 29 6 10 7 11 8 12 9 28 10 13 11 9 12
REMARK SMILES IDX 4 13 5 14 6 15 7 16 103 17 8 18 102 19 3 20 2 21 1 22 14 23
REMARK SMILES IDX 15 25 16 26 17 27 18 28 19 29 23 30 20 31 22 32 21 33 24 34
REMARK SMILES IDX 27 35 25 36 26 37 34 38 35 39 36 40 37 41 38 43 39 44 40 45
REMARK SMILES IDX 101 46 41 47 100 48 42 49 43 50 44 51 94 52 45 53 99 54
REMARK SMILES IDX 93 55 95 56 46 57 98 58 92 59 91 60 47 62 79 63 59 64 78 65
REMARK SMILES IDX 60 66 63 67 77 68 96 69 61 70 62 71 76 73 97 74 64 75 48 76
REMARK SMILES IDX 49 77 57 78 50 79 51 80 55 81 58 82 52 83 53 84 56 85 54 86
REMARK SMILES IDX 80 87 81 88 89 89 82 90 83 91 87 92 90 93 84 94 85 95 88 96
REMARK SMILES IDX 86 97 65 98 66 99 74 100 67 101 68 102 72 103 75 104 69 105
REMARK SMILES IDX 70 106 73 107 71 108
REMARK H PARENT 32 5 14 24 36 42 95 61 63 72
REMARK Flexibility Score: inf
ROOT
ATOM      1  C   UNL A   1      31.684  30.418  25.790  1.00  0.00     0.118 C 
ENDROOT
BRANCH   1   2
ATOM      2  N   UNL A   1      32.852  29.788  26.335  1.00  0.00    -0.352 N 
ATOM      3  C   UNL A   1      33.563  28.645  26.155  1.00  0.00     0.253 C 
ATOM      4  O   UNL A   1      34.590  28.656  26.855  1.00  0.00    -0.269 OA
ATOM      5  H   UNL A   1      33.254  30.344  27.042  1.00  0.00     0.163 HD
BRANCH   3   6
ATOM      6  C   UNL A   1      33.283  27.391  25.348  1.00  0.00     0.065 A 
ATOM      7  C   UNL A   1      32.155  26.965  24.596  1.00  0.00     0.050 A 
ATOM      8  C   UNL A   1      32.035  25.557  24.417  1.00  0.00     0.029 A 
ATOM      9  C   UNL A   1      32.960  24.623  24.876  1.00  0.00     0.029 A 
ATOM     10  C   UNL A   1      34.311  26.414  25.621  1.00  0.00     0.042 A 
ATOM     11  C   UNL A   1      34.163  25.053  25.374  1.00  0.00     0.050 A 
BRANCH   7  12
ATOM     12  N   UNL A   1      31.154  27.767  24.003  1.00  0.00    -0.367 N 
ATOM     13  C   UNL A   1      28.038  29.998  22.142  1.00  0.00     0.409 C 
ATOM     14  O   UNL A   1      26.903  29.912  22.617  1.00  0.00    -0.224 OA
ATOM     15  N   UNL A   1      29.068  29.154  22.524  1.00  0.00    -0.305 N 
ATOM     16  C   UNL A   1      28.723  28.132  23.500  1.00  0.00     0.144 C 
ATOM     17  C   UNL A   1      30.472  29.565  22.379  1.00  0.00     0.144 C 
ATOM     18  C   UNL A   1      29.826  27.121  23.786  1.00  0.00     0.138 C 
ATOM     19  C   UNL A   1      31.553  28.522  22.787  1.00  0.00     0.138 C 
BRANCH  13  20
ATOM     20  O   UNL A   1      28.418  30.898  21.208  1.00  0.00    -0.450 OA
BRANCH  20  21
ATOM     21  C   UNL A   1      28.161  32.299  21.418  1.00  0.00     0.231 C 
ATOM     22  C   UNL A   1      28.775  32.910  22.670  1.00  0.00     0.049 C 
ENDBRANCH  20  21
ENDBRANCH  13  20
ENDBRANCH   7  12
BRANCH  11  23
ATOM     23  N   UNL A   1      35.171  24.098  25.730  1.00  0.00    -0.280 N 
ATOM     24  H   UNL A   1      35.389  23.954  26.679  1.00  0.00     0.180 HD
BRANCH  23  25
ATOM     25  S   UNL A   1      36.001  23.204  24.525  1.00  0.00     0.261 S 
ATOM     26  O   UNL A   1      35.484  23.625  23.241  1.00  0.00    -0.201 OA
ATOM     27  O   UNL A   1      37.407  23.370  24.838  1.00  0.00    -0.201 OA
BRANCH  25  28
ATOM     28  C   UNL A   1      35.603  21.483  24.729  1.00  0.00     0.088 A 
ATOM     29  C   UNL A   1      36.628  20.569  25.001  1.00  0.00     0.022 A 
ATOM     30  C   UNL A   1      34.279  21.043  24.629  1.00  0.00     0.026 A 
ATOM     31  C   UNL A   1      36.381  19.200  24.889  1.00  0.00     0.005 A 
ATOM     32  C   UNL A   1      34.020  19.669  24.624  1.00  0.00    -0.043 A 
ATOM     33  C   UNL A   1      35.087  18.753  24.625  1.00  0.00    -0.045 A 
ATOM     34  C   UNL A   1      32.628  19.100  24.639  1.00  0.00     0.036 C 
ATOM     35  C   UNL A   1      34.776  17.307  24.321  1.00  0.00     0.036 C 
ATOM     36  C   UNL A   1      32.442  18.074  23.523  1.00  0.00     0.005 C 
ATOM     37  C   UNL A   1      33.693  17.228  23.234  1.00  0.00     0.005 C 
ENDBRANCH  25  28
ENDBRANCH  23  25
ENDBRANCH  11  23
ENDBRANCH   3   6
ENDBRANCH   1   2
BRANCH   1  38
ATOM     38  C   UNL A   1      31.346  31.705  26.503  1.00  0.00     0.042 C 
BRANCH  38  39
ATOM     39  C   UNL A   1      32.519  32.505  27.043  1.00  0.00     0.118 C 
BRANCH  39  40
ATOM     40  N   UNL A   1      32.243  33.826  27.577  1.00  0.00    -0.352 N 
ATOM     41  C   UNL A   1      32.999  34.607  28.425  1.00  0.00     0.251 C 
ATOM     42  H   UNL A   1      31.388  34.224  27.292  1.00  0.00     0.163 HD
ATOM     43  O   UNL A   1      32.623  35.755  28.660  1.00  0.00    -0.269 OA
BRANCH  41  44
ATOM     44  C   UNL A   1      34.209  34.080  29.111  1.00  0.00     0.039 A 
ATOM     45  C   UNL A   1      34.031  33.129  30.125  1.00  0.00     0.014 A 
ATOM     46  C   UNL A   1      35.505  34.483  28.786  1.00  0.00     0.014 A 
ATOM     47  C   UNL A   1      35.125  32.495  30.712  1.00  0.00     0.010 A 
ATOM     48  C   UNL A   1      36.601  33.815  29.321  1.00  0.00     0.010 A 
ATOM     49  C   UNL A   1      36.414  32.822  30.291  1.00  0.00    -0.014 A 
BRANCH  49  50
ATOM     50  C   UNL A   1      37.598  32.288  30.988  1.00  0.00     0.031 A 
ATOM     51  C   UNL A   1      38.364  31.192  30.311  1.00  0.00     0.074 A 
ATOM     52  C   UNL A   1      37.942  32.736  32.208  1.00  0.00     0.049 A 
ATOM     53  N   UNL A   1      39.346  30.459  30.762  1.00  0.00    -0.248 NA
ATOM     54  C   UNL A   1      37.942  30.860  28.938  1.00  0.00     0.031 C 
ATOM     55  C   UNL A   1      37.270  33.811  32.937  1.00  0.00     0.029 A 
ATOM     56  N   UNL A   1      38.935  32.320  33.056  1.00  0.00    -0.354 N 
ATOM     57  C   UNL A   1      39.647  29.575  29.736  1.00  0.00     0.074 A 
ATOM     58  C   UNL A   1      38.716  29.825  28.661  1.00  0.00     0.031 C 
ATOM     59  C   UNL A   1      37.868  33.964  34.131  1.00  0.00     0.029 A 
ATOM     60  C   UNL A   1      38.934  32.973  34.263  1.00  0.00     0.049 A 
ATOM     61  H   UNL A   1      39.587  31.621  32.822  1.00  0.00     0.167 HD
ATOM     62  C   UNL A   1      40.629  28.647  29.695  1.00  0.00     0.037 A 
ATOM     63  C   UNL A   1      39.699  32.766  35.353  1.00  0.00     0.037 A 
ATOM     64  C   UNL A   1      41.545  28.412  30.776  1.00  0.00     0.049 A 
ATOM     65  C   UNL A   1      40.748  31.682  35.304  1.00  0.00     0.074 A 
ATOM     66  C   UNL A   1      42.587  27.508  30.846  1.00  0.00     0.029 A 
ATOM     67  N   UNL A   1      41.518  29.093  31.987  1.00  0.00    -0.354 N 
ATOM     68  N   UNL A   1      41.054  30.865  34.323  1.00  0.00    -0.248 NA
ATOM     69  C   UNL A   1      41.561  31.493  36.512  1.00  0.00     0.031 C 
ATOM     70  C   UNL A   1      43.154  27.601  32.121  1.00  0.00     0.029 A 
ATOM     71  C   UNL A   1      42.510  28.610  32.821  1.00  0.00     0.049 A 
ATOM     72  H   UNL A   1      40.886  29.812  32.218  1.00  0.00     0.167 HD
ATOM     73  C   UNL A   1      42.112  30.090  34.781  1.00  0.00     0.074 A 
ATOM     74  C   UNL A   1      42.404  30.546  36.125  1.00  0.00     0.031 C 
ATOM     75  C   UNL A   1      42.784  29.094  34.151  1.00  0.00     0.037 A 
BRANCH  62  76
ATOM     76  C   UNL A   1      40.730  27.810  28.454  1.00  0.00     0.064 A 
ATOM     77  C   UNL A   1      41.493  28.217  27.348  1.00  0.00     0.173 A 
ATOM     78  C   UNL A   1      40.046  26.589  28.365  1.00  0.00     0.173 A 
ATOM     79  F   UNL A   1      42.148  29.388  27.371  1.00  0.00    -0.203 F 
ATOM     80  C   UNL A   1      41.539  27.448  26.188  1.00  0.00     0.198 A 
ATOM     81  C   UNL A   1      40.123  25.807  27.216  1.00  0.00     0.198 A 
ATOM     82  F   UNL A   1      39.299  26.155  29.391  1.00  0.00    -0.203 F 
ATOM     83  F   UNL A   1      42.220  27.889  25.121  1.00  0.00    -0.200 F 
ATOM     84  C   UNL A   1      40.859  26.241  26.125  1.00  0.00     0.200 A 
ATOM     85  F   UNL A   1      39.472  24.637  27.161  1.00  0.00    -0.200 F 
ATOM     86  F   UNL A   1      40.904  25.503  25.008  1.00  0.00    -0.200 F 
ENDBRANCH  62  76
BRANCH  63  87
ATOM     87  C   UNL A   1      39.506  33.590  36.576  1.00  0.00     0.064 A 
ATOM     88  C   UNL A   1      38.696  33.141  37.629  1.00  0.00     0.173 A 
ATOM     89  C   UNL A   1      40.103  34.852  36.710  1.00  0.00     0.173 A 
ATOM     90  F   UNL A   1      38.082  31.952  37.542  1.00  0.00    -0.203 F 
ATOM     91  C   UNL A   1      38.472  33.932  38.755  1.00  0.00     0.198 A 
ATOM     92  C   UNL A   1      39.904  35.628  37.850  1.00  0.00     0.198 A 
ATOM     93  F   UNL A   1      40.887  35.333  35.733  1.00  0.00    -0.203 F 
ATOM     94  F   UNL A   1      37.649  33.501  39.721  1.00  0.00    -0.200 F 
ATOM     95  C   UNL A   1      39.080  35.173  38.868  1.00  0.00     0.200 A 
ATOM     96  F   UNL A   1      40.504  36.822  37.960  1.00  0.00    -0.200 F 
ATOM     97  F   UNL A   1      38.864  35.932  39.950  1.00  0.00    -0.200 F 
ENDBRANCH  63  87
BRANCH  75  98
ATOM     98  C   UNL A   1      43.931  28.464  34.888  1.00  0.00     0.064 A 
ATOM     99  C   UNL A   1      45.223  29.007  34.850  1.00  0.00     0.173 A 
ATOM    100  C   UNL A   1      43.717  27.332  35.690  1.00  0.00     0.173 A 
ATOM    101  F   UNL A   1      45.483  30.080  34.089  1.00  0.00    -0.203 F 
ATOM    102  C   UNL A   1      46.265  28.424  35.566  1.00  0.00     0.198 A 
ATOM    103  C   UNL A   1      44.751  26.774  36.434  1.00  0.00     0.198 A 
ATOM    104  F   UNL A   1      42.496  26.780  35.770  1.00  0.00    -0.203 F 
ATOM    105  F   UNL A   1      47.502  28.929  35.477  1.00  0.00    -0.200 F 
ATOM    106  C   UNL A   1      46.026  27.314  36.366  1.00  0.00     0.200 A 
ATOM    107  F   UNL A   1      44.513  25.715  37.220  1.00  0.00    -0.200 F 
ATOM    108  F   UNL A   1      47.026  26.764  37.066  1.00  0.00    -0.200 F 
ENDBRANCH  75  98
ENDBRANCH  49  50
ENDBRANCH  41  44
ENDBRANCH  39  40
ENDBRANCH  38  39
ENDBRANCH   1  38
TORSDOF 16
ENDMDL
MODEL 2
REMARK VINA RESULT:     -13.6      4.977     11.444
REMARK SMILES CCOC(=O)N1CCN(c2ccc(NS(=O)(=O)c3ccc4c(c3)CCCC4)cc2C(=O)NCCCNC(=O)c2ccc(-c3c4nc(c(-c5c(F)c(F)c(F)c(F)c5F)c5ccc([nH]5)c(-c5c(F)c(F)c(F)c(F)c5F)c5nc(c(-c6c(F)c(F)c(F)c(F)c6F)c6ccc3[nH]6)C=C5)C=C4)cc2)CC1
REMARK SMILES IDX 33 1 32 2 30 3 31 4 29 6 10 7 11 8 12 9 28 10 13 11 9 12
REMARK SMILES IDX 4 13 5 14 6 15 7 16 103 17 8 18 102 19 3 20 2 21 1 22 14 23
REMARK SMILES IDX 15 25 16 26 17 27 18 28 19 29 23 30 20 31 22 32 21 33 24 34
REMARK SMILES IDX 27 35 25 36 26 37 34 38 35 39 36 40 37 41 38 43 39 44 40 45
REMARK SMILES IDX 101 46 41 47 100 48 42 49 43 50 44 51 94 52 45 53 99 54
REMARK SMILES IDX 93 55 95 56 46 57 98 58 92 59 91 60 47 62 79 63 59 64 78 65
REMARK SMILES IDX 60 66 63 67 77 68 96 69 61 70 62 71 76 73 97 74 64 75 48 76
REMARK SMILES IDX 49 77 57 78 50 79 51 80 55 81 58 82 52 83 53 84 56 85 54 86
REMARK SMILES IDX 80 87 81 88 89 89 82 90 83 91 87 92 90 93 84 94 85 95 88 96
REMARK SMILES IDX 86 97 65 98 66 99 74 100 67 101 68 102 72 103 75 104 69 105
REMARK SMILES IDX 70 106 73 107 71 108
REMARK H PARENT 32 5 14 24 36 42 95 61 63 72
REMARK Flexibility Score: inf
ROOT
ATOM      1  C   UNL A   1      37.837  22.201  25.552  1.00  0.00     0.118 C 
ENDROOT
BRANCH   1   2
ATOM      2  N   UNL A   1      37.327  22.884  24.398  1.00  0.00    -0.352 N 
ATOM      3  C   UNL A   1      36.174  23.486  24.005  1.00  0.00     0.253 C 
ATOM      4  O   UNL A   1      36.322  24.027  22.896  1.00  0.00    -0.269 OA
ATOM      5  H   UNL A   1      38.008  22.930  23.687  1.00  0.00     0.163 HD
BRANCH   3   6
ATOM      6  C   UNL A   1      34.790  23.531  24.625  1.00  0.00     0.065 A 
ATOM      7  C   UNL A   1      33.686  22.637  24.574  1.00  0.00     0.050 A 
ATOM      8  C   UNL A   1      32.412  23.224  24.823  1.00  0.00     0.029 A 
ATOM      9  C   UNL A   1      32.212  24.562  25.154  1.00  0.00     0.029 A 
ATOM     10  C   UNL A   1      34.559  24.848  25.169  1.00  0.00     0.042 A 
ATOM     11  C   UNL A   1      33.293  25.354  25.447  1.00  0.00     0.050 A 
BRANCH   7  12
ATOM     12  N   UNL A   1      33.704  21.248  24.319  1.00  0.00    -0.367 N 
ATOM     13  C   UNL A   1      33.552  17.046  23.628  1.00  0.00     0.409 C 
ATOM     14  O   UNL A   1      32.796  16.634  22.745  1.00  0.00    -0.224 OA
ATOM     15  N   UNL A   1      33.515  18.354  24.084  1.00  0.00    -0.305 N 
ATOM     16  C   UNL A   1      32.505  19.210  23.480  1.00  0.00     0.144 C 
ATOM     17  C   UNL A   1      34.696  18.968  24.709  1.00  0.00     0.144 C 
ATOM     18  C   UNL A   1      32.380  20.593  24.106  1.00  0.00     0.138 C 
ATOM     19  C   UNL A   1      34.533  20.423  25.236  1.00  0.00     0.138 C 
BRANCH  13  20
ATOM     20  O   UNL A   1      34.487  16.300  24.255  1.00  0.00    -0.450 OA
BRANCH  20  21
ATOM     21  C   UNL A   1      34.134  15.557  25.437  1.00  0.00     0.231 C 
ATOM     22  C   UNL A   1      32.652  15.262  25.622  1.00  0.00     0.049 C 
ENDBRANCH  20  21
ENDBRANCH  13  20
ENDBRANCH   7  12
BRANCH  11  23
ATOM     23  N   UNL A   1      33.091  26.695  25.912  1.00  0.00    -0.280 N 
ATOM     24  H   UNL A   1      32.916  26.856  26.867  1.00  0.00     0.180 HD
BRANCH  23  25
ATOM     25  S   UNL A   1      33.148  28.020  24.826  1.00  0.00     0.261 S 
ATOM     26  O   UNL A   1      33.655  29.160  25.558  1.00  0.00    -0.201 OA
ATOM     27  O   UNL A   1      33.860  27.521  23.665  1.00  0.00    -0.201 OA
BRANCH  25  28
ATOM     28  C   UNL A   1      31.487  28.400  24.317  1.00  0.00     0.088 A 
ATOM     29  C   UNL A   1      30.635  27.362  23.922  1.00  0.00     0.022 A 
ATOM     30  C   UNL A   1      31.028  29.721  24.319  1.00  0.00     0.026 A 
ATOM     31  C   UNL A   1      29.441  27.659  23.265  1.00  0.00     0.005 A 
ATOM     32  C   UNL A   1      29.781  30.007  23.755  1.00  0.00    -0.043 A 
ATOM     33  C   UNL A   1      29.050  28.990  23.115  1.00  0.00    -0.045 A 
ATOM     34  C   UNL A   1      29.151  31.371  23.814  1.00  0.00     0.036 C 
ATOM     35  C   UNL A   1      27.867  29.396  22.270  1.00  0.00     0.036 C 
ATOM     36  C   UNL A   1      28.710  31.832  22.426  1.00  0.00     0.005 C 
ATOM     37  C   UNL A   1      28.185  30.702  21.526  1.00  0.00     0.005 C 
ENDBRANCH  25  28
ENDBRANCH  23  25
ENDBRANCH  11  23
ENDBRANCH   3   6
ENDBRANCH   1   2
BRANCH   1  38
ATOM     38  C   UNL A   1      38.347  20.820  25.216  1.00  0.00     0.042 C 
BRANCH  38  39
ATOM     39  C   UNL A   1      39.105  20.094  26.314  1.00  0.00     0.118 C 
BRANCH  39  40
ATOM     40  N   UNL A   1      40.213  19.245  25.918  1.00  0.00    -0.352 N 
ATOM     41  C   UNL A   1      41.570  19.478  25.995  1.00  0.00     0.251 C 
ATOM     42  H   UNL A   1      39.959  18.373  25.538  1.00  0.00     0.163 HD
ATOM     43  O   UNL A   1      42.342  18.565  25.706  1.00  0.00    -0.269 OA
BRANCH  41  44
ATOM     44  C   UNL A   1      42.119  20.815  26.348  1.00  0.00     0.039 A 
ATOM     45  C   UNL A   1      42.074  21.824  25.377  1.00  0.00     0.014 A 
ATOM     46  C   UNL A   1      42.668  21.106  27.597  1.00  0.00     0.014 A 
ATOM     47  C   UNL A   1      42.445  23.132  25.687  1.00  0.00     0.010 A 
ATOM     48  C   UNL A   1      42.985  22.417  27.935  1.00  0.00     0.010 A 
ATOM     49  C   UNL A   1      42.879  23.435  26.978  1.00  0.00    -0.014 A 
BRANCH  49  50
ATOM     50  C   UNL A   1      43.422  24.766  27.303  1.00  0.00     0.031 A 
ATOM     51  C   UNL A   1      42.477  25.776  27.880  1.00  0.00     0.074 A 
ATOM     52  C   UNL A   1      44.704  25.071  27.042  1.00  0.00     0.049 A 
ATOM     53  N   UNL A   1      42.659  27.046  28.121  1.00  0.00    -0.248 NA
ATOM     54  C   UNL A   1      41.126  25.286  28.208  1.00  0.00     0.031 C 
ATOM     55  C   UNL A   1      45.702  24.151  26.500  1.00  0.00     0.029 A 
ATOM     56  N   UNL A   1      45.377  26.257  27.180  1.00  0.00    -0.354 N 
ATOM     57  C   UNL A   1      41.446  27.506  28.612  1.00  0.00     0.074 A 
ATOM     58  C   UNL A   1      40.521  26.397  28.590  1.00  0.00     0.031 C 
ATOM     59  C   UNL A   1      46.862  24.812  26.343  1.00  0.00     0.029 A 
ATOM     60  C   UNL A   1      46.675  26.207  26.735  1.00  0.00     0.049 A 
ATOM     61  H   UNL A   1      44.969  27.068  27.562  1.00  0.00     0.167 HD
ATOM     62  C   UNL A   1      41.141  28.745  29.058  1.00  0.00     0.037 A 
ATOM     63  C   UNL A   1      47.589  27.192  26.639  1.00  0.00     0.037 A 
ATOM     64  C   UNL A   1      42.076  29.836  29.071  1.00  0.00     0.049 A 
ATOM     65  C   UNL A   1      47.205  28.581  27.086  1.00  0.00     0.074 A 
ATOM     66  C   UNL A   1      41.886  31.132  29.509  1.00  0.00     0.029 A 
ATOM     67  N   UNL A   1      43.385  29.750  28.614  1.00  0.00    -0.354 N 
ATOM     68  N   UNL A   1      46.066  29.010  27.579  1.00  0.00    -0.248 NA
ATOM     69  C   UNL A   1      48.232  29.623  26.966  1.00  0.00     0.031 C 
ATOM     70  C   UNL A   1      43.062  31.848  29.264  1.00  0.00     0.029 A 
ATOM     71  C   UNL A   1      44.007  30.980  28.736  1.00  0.00     0.049 A 
ATOM     72  H   UNL A   1      43.808  28.937  28.256  1.00  0.00     0.167 HD
ATOM     73  C   UNL A   1      46.251  30.358  27.859  1.00  0.00     0.074 A 
ATOM     74  C   UNL A   1      47.617  30.672  27.492  1.00  0.00     0.031 C 
ATOM     75  C   UNL A   1      45.375  31.257  28.373  1.00  0.00     0.037 A 
BRANCH  62  76
ATOM     76  C   UNL A   1      39.738  28.977  29.534  1.00  0.00     0.064 A 
ATOM     77  C   UNL A   1      38.721  29.397  28.661  1.00  0.00     0.173 A 
ATOM     78  C   UNL A   1      39.406  28.787  30.883  1.00  0.00     0.173 A 
ATOM     79  F   UNL A   1      38.990  29.618  27.365  1.00  0.00    -0.203 F 
ATOM     80  C   UNL A   1      37.435  29.651  29.130  1.00  0.00     0.198 A 
ATOM     81  C   UNL A   1      38.109  29.008  31.341  1.00  0.00     0.198 A 
ATOM     82  F   UNL A   1      40.340  28.390  31.761  1.00  0.00    -0.203 F 
ATOM     83  F   UNL A   1      36.498  30.115  28.292  1.00  0.00    -0.200 F 
ATOM     84  C   UNL A   1      37.128  29.450  30.467  1.00  0.00     0.200 A 
ATOM     85  F   UNL A   1      37.814  28.804  32.632  1.00  0.00    -0.200 F 
ATOM     86  F   UNL A   1      35.890  29.694  30.916  1.00  0.00    -0.200 F 
ENDBRANCH  62  76
BRANCH  63  87
ATOM     87  C   UNL A   1      48.946  26.909  26.098  1.00  0.00     0.064 A 
ATOM     88  C   UNL A   1      49.206  26.983  24.722  1.00  0.00     0.173 A 
ATOM     89  C   UNL A   1      50.004  26.534  26.939  1.00  0.00     0.173 A 
ATOM     90  F   UNL A   1      48.222  27.313  23.872  1.00  0.00    -0.203 F 
ATOM     91  C   UNL A   1      50.462  26.670  24.207  1.00  0.00     0.198 A 
ATOM     92  C   UNL A   1      51.269  26.252  26.425  1.00  0.00     0.198 A 
ATOM     93  F   UNL A   1      49.813  26.445  28.263  1.00  0.00    -0.203 F 
ATOM     94  F   UNL A   1      50.667  26.696  22.882  1.00  0.00    -0.200 F 
ATOM     95  C   UNL A   1      51.495  26.310  25.059  1.00  0.00     0.200 A 
ATOM     96  F   UNL A   1      52.267  25.916  27.254  1.00  0.00    -0.200 F 
ATOM     97  F   UNL A   1      52.702  26.008  24.563  1.00  0.00    -0.200 F 
ENDBRANCH  63  87
BRANCH  75  98
ATOM     98  C   UNL A   1      45.879  32.651  28.615  1.00  0.00     0.064 A 
ATOM     99  C   UNL A   1      46.520  33.009  29.810  1.00  0.00     0.173 A 
ATOM    100  C   UNL A   1      45.770  33.625  27.610  1.00  0.00     0.173 A 
ATOM    101  F   UNL A   1      46.639  32.119  30.806  1.00  0.00    -0.203 F 
ATOM    102  C   UNL A   1      47.009  34.299  30.000  1.00  0.00     0.198 A 
ATOM    103  C   UNL A   1      46.293  34.902  27.789  1.00  0.00     0.198 A 
ATOM    104  F   UNL A   1      45.176  33.330  26.444  1.00  0.00    -0.203 F 
ATOM    105  F   UNL A   1      47.573  34.633  31.168  1.00  0.00    -0.200 F 
ATOM    106  C   UNL A   1      46.904  35.240  28.986  1.00  0.00     0.200 A 
ATOM    107  F   UNL A   1      46.208  35.803  26.801  1.00  0.00    -0.200 F 
ATOM    108  F   UNL A   1      47.388  36.477  29.166  1.00  0.00    -0.200 F 
ENDBRANCH  75  98
ENDBRANCH  49  50
ENDBRANCH  41  44
ENDBRANCH  39  40
ENDBRANCH  38  39
ENDBRANCH   1  38
TORSDOF 16
ENDMDL
MODEL 3
REMARK VINA RESULT:     -13.5      4.657      9.530
REMARK SMILES CCOC(=O)N1CCN(c2ccc(NS(=O)(=O)c3ccc4c(c3)CCCC4)cc2C(=O)NCCCNC(=O)c2ccc(-c3c4nc(c(-c5c(F)c(F)c(F)c(F)c5F)c5ccc([nH]5)c(-c5c(F)c(F)c(F)c(F)c5F)c5nc(c(-c6c(F)c(F)c(F)c(F)c6F)c6ccc3[nH]6)C=C5)C=C4)cc2)CC1
REMARK SMILES IDX 33 1 32 2 30 3 31 4 29 6 10 7 11 8 12 9 28 10 13 11 9 12
REMARK SMILES IDX 4 13 5 14 6 15 7 16 103 17 8 18 102 19 3 20 2 21 1 22 14 23
REMARK SMILES IDX 15 25 16 26 17 27 18 28 19 29 23 30 20 31 22 32 21 33 24 34
REMARK SMILES IDX 27 35 25 36 26 37 34 38 35 39 36 40 37 41 38 43 39 44 40 45
REMARK SMILES IDX 101 46 41 47 100 48 42 49 43 50 44 51 94 52 45 53 99 54
REMARK SMILES IDX 93 55 95 56 46 57 98 58 92 59 91 60 47 62 79 63 59 64 78 65
REMARK SMILES IDX 60 66 63 67 77 68 96 69 61 70 62 71 76 73 97 74 64 75 48 76
REMARK SMILES IDX 49 77 57 78 50 79 51 80 55 81 58 82 52 83 53 84 56 85 54 86
REMARK SMILES IDX 80 87 81 88 89 89 82 90 83 91 87 92 90 93 84 94 85 95 88 96
REMARK SMILES IDX 86 97 65 98 66 99 74 100 67 101 68 102 72 103 75 104 69 105
REMARK SMILES IDX 70 106 73 107 71 108
REMARK H PARENT 32 5 14 24 36 42 95 61 63 72
REMARK Flexibility Score: inf
ROOT
ATOM      1  C   UNL A   1      36.824  21.937  23.863  1.00  0.00     0.118 C 
ENDROOT
BRANCH   1   2
ATOM      2  N   UNL A   1      36.550  23.103  24.653  1.00  0.00    -0.352 N 
ATOM      3  C   UNL A   1      35.526  23.974  24.852  1.00  0.00     0.253 C 
ATOM      4  O   UNL A   1      35.804  24.772  25.763  1.00  0.00    -0.269 OA
ATOM      5  H   UNL A   1      37.326  23.340  25.211  1.00  0.00     0.163 HD
BRANCH   3   6
ATOM      6  C   UNL A   1      34.207  24.173  24.129  1.00  0.00     0.065 A 
ATOM      7  C   UNL A   1      33.370  23.288  23.396  1.00  0.00     0.050 A 
ATOM      8  C   UNL A   1      32.513  23.906  22.441  1.00  0.00     0.029 A 
ATOM      9  C   UNL A   1      32.421  25.281  22.238  1.00  0.00     0.029 A 
ATOM     10  C   UNL A   1      33.929  25.587  24.033  1.00  0.00     0.042 A 
ATOM     11  C   UNL A   1      33.039  26.135  23.117  1.00  0.00     0.050 A 
BRANCH   7  12
ATOM     12  N   UNL A   1      33.283  21.883  23.510  1.00  0.00    -0.367 N 
ATOM     13  C   UNL A   1      32.799  17.660  23.812  1.00  0.00     0.409 C 
ATOM     14  O   UNL A   1      32.530  17.035  22.785  1.00  0.00    -0.224 OA
ATOM     15  N   UNL A   1      32.757  19.044  23.871  1.00  0.00    -0.305 N 
ATOM     16  C   UNL A   1      32.344  19.720  22.652  1.00  0.00     0.144 C 
ATOM     17  C   UNL A   1      33.551  19.779  24.867  1.00  0.00     0.144 C 
ATOM     18  C   UNL A   1      32.155  21.225  22.787  1.00  0.00     0.138 C 
ATOM     19  C   UNL A   1      33.391  21.327  24.885  1.00  0.00     0.138 C 
BRANCH  13  20
ATOM     20  O   UNL A   1      33.156  17.097  24.988  1.00  0.00    -0.450 OA
BRANCH  20  21
ATOM     21  C   UNL A   1      33.819  15.819  24.996  1.00  0.00     0.231 C 
ATOM     22  C   UNL A   1      35.292  15.834  25.376  1.00  0.00     0.049 C 
ENDBRANCH  20  21
ENDBRANCH  13  20
ENDBRANCH   7  12
BRANCH  11  23
ATOM     23  N   UNL A   1      32.844  27.550  22.991  1.00  0.00    -0.280 N 
ATOM     24  H   UNL A   1      33.479  28.081  22.459  1.00  0.00     0.180 HD
BRANCH  23  25
ATOM     25  S   UNL A   1      31.521  28.327  23.757  1.00  0.00     0.261 S 
ATOM     26  O   UNL A   1      31.004  29.312  22.834  1.00  0.00    -0.201 OA
ATOM     27  O   UNL A   1      30.674  27.247  24.226  1.00  0.00    -0.201 OA
BRANCH  25  28
ATOM     28  C   UNL A   1      32.131  29.194  25.186  1.00  0.00     0.088 A 
ATOM     29  C   UNL A   1      31.403  30.277  25.693  1.00  0.00     0.022 A 
ATOM     30  C   UNL A   1      33.319  28.796  25.805  1.00  0.00     0.026 A 
ATOM     31  C   UNL A   1      31.994  31.131  26.625  1.00  0.00     0.005 A 
ATOM     32  C   UNL A   1      33.859  29.597  26.815  1.00  0.00    -0.043 A 
ATOM     33  C   UNL A   1      33.258  30.829  27.131  1.00  0.00    -0.045 A 
ATOM     34  C   UNL A   1      35.065  29.197  27.620  1.00  0.00     0.036 C 
ATOM     35  C   UNL A   1      34.030  31.788  28.005  1.00  0.00     0.036 C 
ATOM     36  C   UNL A   1      36.113  30.308  27.627  1.00  0.00     0.005 C 
ATOM     37  C   UNL A   1      35.523  31.727  27.648  1.00  0.00     0.005 C 
ENDBRANCH  25  28
ENDBRANCH  23  25
ENDBRANCH  11  23
ENDBRANCH   3   6
ENDBRANCH   1   2
BRANCH   1  38
ATOM     38  C   UNL A   1      37.627  20.910  24.624  1.00  0.00     0.042 C 
BRANCH  38  39
ATOM     39  C   UNL A   1      38.479  21.433  25.769  1.00  0.00     0.118 C 
BRANCH  39  40
ATOM     40  N   UNL A   1      39.512  20.557  26.292  1.00  0.00    -0.352 N 
ATOM     41  C   UNL A   1      40.646  20.869  27.012  1.00  0.00     0.251 C 
ATOM     42  H   UNL A   1      39.385  19.599  26.105  1.00  0.00     0.163 HD
ATOM     43  O   UNL A   1      41.331  19.949  27.458  1.00  0.00    -0.269 OA
BRANCH  41  44
ATOM     44  C   UNL A   1      41.096  22.274  27.202  1.00  0.00     0.039 A 
ATOM     45  C   UNL A   1      40.612  23.247  26.317  1.00  0.00     0.014 A 
ATOM     46  C   UNL A   1      41.967  22.664  28.220  1.00  0.00     0.014 A 
ATOM     47  C   UNL A   1      40.884  24.599  26.522  1.00  0.00     0.010 A 
ATOM     48  C   UNL A   1      42.196  24.012  28.468  1.00  0.00     0.010 A 
ATOM     49  C   UNL A   1      41.659  24.985  27.615  1.00  0.00    -0.014 A 
BRANCH  49  50
ATOM     50  C   UNL A   1      42.094  26.383  27.782  1.00  0.00     0.031 A 
ATOM     51  C   UNL A   1      43.440  26.758  27.240  1.00  0.00     0.074 A 
ATOM     52  C   UNL A   1      41.330  27.270  28.441  1.00  0.00     0.049 A 
ATOM     53  N   UNL A   1      44.114  27.868  27.375  1.00  0.00    -0.248 NA
ATOM     54  C   UNL A   1      44.134  25.721  26.455  1.00  0.00     0.031 C 
ATOM     55  C   UNL A   1      39.999  27.005  28.986  1.00  0.00     0.029 A 
ATOM     56  N   UNL A   1      41.581  28.574  28.781  1.00  0.00    -0.354 N 
ATOM     57  C   UNL A   1      45.311  27.656  26.707  1.00  0.00     0.074 A 
ATOM     58  C   UNL A   1      45.297  26.300  26.210  1.00  0.00     0.031 C 
ATOM     59  C   UNL A   1      39.553  28.113  29.603  1.00  0.00     0.029 A 
ATOM     60  C   UNL A   1      40.582  29.148  29.528  1.00  0.00     0.049 A 
ATOM     61  H   UNL A   1      42.399  29.054  28.515  1.00  0.00     0.167 HD
ATOM     62  C   UNL A   1      46.325  28.529  26.513  1.00  0.00     0.037 A 
ATOM     63  C   UNL A   1      40.531  30.366  30.102  1.00  0.00     0.037 A 
ATOM     64  C   UNL A   1      46.322  29.874  27.017  1.00  0.00     0.049 A 
ATOM     65  C   UNL A   1      41.702  31.300  29.923  1.00  0.00     0.074 A 
ATOM     66  C   UNL A   1      47.286  30.853  26.875  1.00  0.00     0.029 A 
ATOM     67  N   UNL A   1      45.293  30.425  27.769  1.00  0.00    -0.354 N 
ATOM     68  N   UNL A   1      42.823  31.111  29.266  1.00  0.00    -0.248 NA
ATOM     69  C   UNL A   1      41.602  32.618  30.563  1.00  0.00     0.031 C 
ATOM     70  C   UNL A   1      46.867  31.978  27.591  1.00  0.00     0.029 A 
ATOM     71  C   UNL A   1      45.612  31.725  28.122  1.00  0.00     0.049 A 
ATOM     72  H   UNL A   1      44.460  29.961  28.016  1.00  0.00     0.167 HD
ATOM     73  C   UNL A   1      43.544  32.293  29.384  1.00  0.00     0.074 A 
ATOM     74  C   UNL A   1      42.725  33.198  30.166  1.00  0.00     0.031 C 
ATOM     75  C   UNL A   1      44.769  32.606  28.892  1.00  0.00     0.037 A 
BRANCH  62  76
ATOM     76  C   UNL A   1      47.520  28.034  25.753  1.00  0.00     0.064 A 
ATOM     77  C   UNL A   1      47.507  27.907  24.354  1.00  0.00     0.173 A 
ATOM     78  C   UNL A   1      48.692  27.670  26.433  1.00  0.00     0.173 A 
ATOM     79  F   UNL A   1      46.403  28.218  23.658  1.00  0.00    -0.203 F 
ATOM     80  C   UNL A   1      48.610  27.403  23.671  1.00  0.00     0.198 A 
ATOM     81  C   UNL A   1      49.805  27.200  25.741  1.00  0.00     0.198 A 
ATOM     82  F   UNL A   1      48.757  27.767  27.769  1.00  0.00    -0.203 F 
ATOM     83  F   UNL A   1      48.551  27.229  22.343  1.00  0.00    -0.200 F 
ATOM     84  C   UNL A   1      49.760  27.056  24.363  1.00  0.00     0.200 A 
ATOM     85  F   UNL A   1      50.918  26.874  26.412  1.00  0.00    -0.200 F 
ATOM     86  F   UNL A   1      50.821  26.572  23.704  1.00  0.00    -0.200 F 
ENDBRANCH  62  76
BRANCH  63  87
ATOM     87  C   UNL A   1      39.341  30.773  30.898  1.00  0.00     0.064 A 
ATOM     88  C   UNL A   1      38.353  31.602  30.348  1.00  0.00     0.173 A 
ATOM     89  C   UNL A   1      39.177  30.364  32.229  1.00  0.00     0.173 A 
ATOM     90  F   UNL A   1      38.473  32.042  29.087  1.00  0.00    -0.203 F 
ATOM     91  C   UNL A   1      37.263  32.026  31.107  1.00  0.00     0.198 A 
ATOM     92  C   UNL A   1      38.070  30.763  32.977  1.00  0.00     0.198 A 
ATOM     93  F   UNL A   1      40.092  29.571  32.807  1.00  0.00    -0.203 F 
ATOM     94  F   UNL A   1      36.363  32.864  30.572  1.00  0.00    -0.200 F 
ATOM     95  C   UNL A   1      37.119  31.602  32.419  1.00  0.00     0.200 A 
ATOM     96  F   UNL A   1      37.929  30.340  34.241  1.00  0.00    -0.200 F 
ATOM     97  F   UNL A   1      36.071  32.010  33.147  1.00  0.00    -0.200 F 
ENDBRANCH  63  87
BRANCH  75  98
ATOM     98  C   UNL A   1      45.277  33.996  29.141  1.00  0.00     0.064 A 
ATOM     99  C   UNL A   1      44.981  35.059  28.276  1.00  0.00     0.173 A 
ATOM    100  C   UNL A   1      46.024  34.277  30.296  1.00  0.00     0.173 A 
ATOM    101  F   UNL A   1      44.281  34.841  27.153  1.00  0.00    -0.203 F 
ATOM    102  C   UNL A   1      45.436  36.347  28.544  1.00  0.00     0.198 A 
ATOM    103  C   UNL A   1      46.446  35.572  30.580  1.00  0.00     0.198 A 
ATOM    104  F   UNL A   1      46.325  33.298  31.162  1.00  0.00    -0.203 F 
ATOM    105  F   UNL A   1      45.183  37.338  27.679  1.00  0.00    -0.200 F 
ATOM    106  C   UNL A   1      46.159  36.605  29.700  1.00  0.00     0.200 A 
ATOM    107  F   UNL A   1      47.126  35.821  31.707  1.00  0.00    -0.200 F 
ATOM    108  F   UNL A   1      46.583  37.847  29.964  1.00  0.00    -0.200 F 
ENDBRANCH  75  98
ENDBRANCH  49  50
ENDBRANCH  41  44
ENDBRANCH  39  40
ENDBRANCH  38  39
ENDBRANCH   1  38
TORSDOF 16
ENDMDL
