MODEL 1
REMARK VINA RESULT:     -12.2      0.000      0.000
REMARK SMILES O=C(NCCCNC(=O)[C@H]1[C@H]2CC[C@H](C2)[C@H]1NC(=O)c1ccncc1Cl)c1ccc(-c2c3nc(c(-c4c(F)c(F)c(F)c(F)c4F)c4ccc([nH]4)c(-c4c(F)c(F)c(F)c(F)c4F)c4nc(c(-c5c(F)c(F)c(F)c(F)c5F)c5ccc2[nH]5)C=C4)C=C3)cc1
REMARK SMILES IDX 5 1 4 2 3 3 1 4 2 5 27 7 28 8 89 9 29 10 88 11 30 12 31 13
REMARK SMILES IDX 32 14 82 15 33 16 87 17 81 18 83 19 34 20 86 21 80 22 79 23
REMARK SMILES IDX 35 25 67 26 47 27 66 28 48 29 51 30 65 31 84 32 49 33 50 34
REMARK SMILES IDX 64 36 85 37 52 38 36 39 37 40 45 41 38 42 39 43 43 44 46 45
REMARK SMILES IDX 40 46 41 47 44 48 42 49 68 50 69 51 77 52 70 53 71 54 75 55
REMARK SMILES IDX 78 56 72 57 73 58 76 59 74 60 53 61 54 62 62 63 55 64 56 65
REMARK SMILES IDX 60 66 63 67 57 68 58 69 61 70 59 71 6 72 7 73 8 74 9 76
REMARK SMILES IDX 10 77 11 78 16 79 12 80 15 81 14 82 13 83 17 84 18 85 19 87
REMARK SMILES IDX 20 88 21 89 25 90 22 91 24 92 26 93 23 94
REMARK H PARENT 3 6 83 24 51 35 7 75 17 86
REMARK Flexibility Score: inf
ROOT
ATOM      1  C   UNL A   1      32.276  31.782  27.449  1.00  0.00     0.042 C 
ENDROOT
BRANCH   1   2
ATOM      2  C   UNL A   1      32.820  33.059  26.819  1.00  0.00     0.118 C 
BRANCH   2   3
ATOM      3  N   UNL A   1      32.548  34.236  27.626  1.00  0.00    -0.352 N 
ATOM      4  O   UNL A   1      32.528  35.607  29.394  1.00  0.00    -0.269 OA
ATOM      5  C   UNL A   1      33.071  34.663  28.822  1.00  0.00     0.251 C 
ATOM      6  H   UNL A   1      31.864  34.835  27.248  1.00  0.00     0.163 HD
BRANCH   5   7
ATOM      7  C   UNL A   1      34.245  34.014  29.462  1.00  0.00     0.039 A 
ATOM      8  C   UNL A   1      34.130  32.941  30.346  1.00  0.00     0.014 A 
ATOM      9  C   UNL A   1      35.528  34.440  29.085  1.00  0.00     0.014 A 
ATOM     10  C   UNL A   1      35.264  32.398  30.954  1.00  0.00     0.010 A 
ATOM     11  C   UNL A   1      36.670  33.827  29.617  1.00  0.00     0.010 A 
ATOM     12  C   UNL A   1      36.551  32.819  30.582  1.00  0.00    -0.014 A 
BRANCH  12  13
ATOM     13  C   UNL A   1      37.745  32.145  31.166  1.00  0.00     0.031 A 
ATOM     14  C   UNL A   1      38.211  32.450  32.565  1.00  0.00     0.074 A 
ATOM     15  C   UNL A   1      38.412  31.232  30.430  1.00  0.00     0.049 A 
ATOM     16  N   UNL A   1      39.203  31.922  33.240  1.00  0.00    -0.248 NA
ATOM     17  C   UNL A   1      37.478  33.491  33.298  1.00  0.00     0.031 C 
ATOM     18  C   UNL A   1      38.090  30.867  29.049  1.00  0.00     0.029 A 
ATOM     19  N   UNL A   1      39.483  30.431  30.742  1.00  0.00    -0.354 N 
ATOM     20  C   UNL A   1      39.225  32.578  34.464  1.00  0.00     0.074 A 
ATOM     21  C   UNL A   1      38.168  33.566  34.429  1.00  0.00     0.031 C 
ATOM     22  C   UNL A   1      38.905  29.877  28.653  1.00  0.00     0.029 A 
ATOM     23  C   UNL A   1      39.840  29.572  29.731  1.00  0.00     0.049 A 
ATOM     24  H   UNL A   1      39.950  30.469  31.608  1.00  0.00     0.167 HD
ATOM     25  C   UNL A   1      40.044  32.369  35.523  1.00  0.00     0.037 A 
ATOM     26  C   UNL A   1      40.812  28.641  29.673  1.00  0.00     0.037 A 
ATOM     27  C   UNL A   1      41.079  31.367  35.573  1.00  0.00     0.049 A 
ATOM     28  C   UNL A   1      41.700  28.428  30.865  1.00  0.00     0.074 A 
ATOM     29  C   UNL A   1      41.919  31.044  36.627  1.00  0.00     0.029 A 
ATOM     30  N   UNL A   1      41.418  30.526  34.524  1.00  0.00    -0.354 N 
ATOM     31  N   UNL A   1      41.671  29.016  32.036  1.00  0.00    -0.248 NA
ATOM     32  C   UNL A   1      42.758  27.417  30.727  1.00  0.00     0.031 C 
ATOM     33  C   UNL A   1      42.795  30.041  36.200  1.00  0.00     0.029 A 
ATOM     34  C   UNL A   1      42.469  29.702  34.897  1.00  0.00     0.049 A 
ATOM     35  H   UNL A   1      40.976  30.516  33.644  1.00  0.00     0.167 HD
ATOM     36  C   UNL A   1      42.685  28.431  32.781  1.00  0.00     0.074 A 
ATOM     37  C   UNL A   1      43.302  27.430  31.936  1.00  0.00     0.031 C 
ATOM     38  C   UNL A   1      43.071  28.703  34.051  1.00  0.00     0.037 A 
BRANCH  25  39
ATOM     39  C   UNL A   1      39.865  33.251  36.727  1.00  0.00     0.064 A 
ATOM     40  C   UNL A   1      40.610  34.427  36.898  1.00  0.00     0.173 A 
ATOM     41  C   UNL A   1      38.901  32.937  37.698  1.00  0.00     0.173 A 
ATOM     42  F   UNL A   1      41.550  34.768  36.005  1.00  0.00    -0.203 F 
ATOM     43  C   UNL A   1      40.414  35.244  38.010  1.00  0.00     0.198 A 
ATOM     44  C   UNL A   1      38.689  33.771  38.793  1.00  0.00     0.198 A 
ATOM     45  F   UNL A   1      38.155  31.829  37.578  1.00  0.00    -0.203 F 
ATOM     46  F   UNL A   1      41.167  36.340  38.175  1.00  0.00    -0.200 F 
ATOM     47  C   UNL A   1      39.449  34.919  38.953  1.00  0.00     0.200 A 
ATOM     48  F   UNL A   1      37.747  33.462  39.697  1.00  0.00    -0.200 F 
ATOM     49  F   UNL A   1      39.257  35.709  40.017  1.00  0.00    -0.200 F 
ENDBRANCH  25  39
BRANCH  26  50
ATOM     50  C   UNL A   1      40.977  27.820  28.445  1.00  0.00     0.064 A 
ATOM     51  C   UNL A   1      41.822  28.242  27.409  1.00  0.00     0.173 A 
ATOM     52  C   UNL A   1      40.298  26.604  28.282  1.00  0.00     0.173 A 
ATOM     53  F   UNL A   1      42.476  29.409  27.511  1.00  0.00    -0.203 F 
ATOM     54  C   UNL A   1      41.969  27.485  26.249  1.00  0.00     0.198 A 
ATOM     55  C   UNL A   1      40.468  25.835  27.134  1.00  0.00     0.198 A 
ATOM     56  F   UNL A   1      39.480  26.158  29.246  1.00  0.00    -0.203 F 
ATOM     57  F   UNL A   1      42.749  27.931  25.255  1.00  0.00    -0.200 F 
ATOM     58  C   UNL A   1      41.298  26.279  26.115  1.00  0.00     0.200 A 
ATOM     59  F   UNL A   1      39.828  24.664  27.015  1.00  0.00    -0.200 F 
ATOM     60  F   UNL A   1      41.443  25.549  25.001  1.00  0.00    -0.200 F 
ENDBRANCH  26  50
BRANCH  38  61
ATOM     61  C   UNL A   1      44.189  27.877  34.619  1.00  0.00     0.064 A 
ATOM     62  C   UNL A   1      43.946  26.667  35.287  1.00  0.00     0.173 A 
ATOM     63  C   UNL A   1      45.521  28.294  34.477  1.00  0.00     0.173 A 
ATOM     64  F   UNL A   1      42.689  26.235  35.463  1.00  0.00    -0.203 F 
ATOM     65  C   UNL A   1      44.994  25.921  35.818  1.00  0.00     0.198 A 
ATOM     66  C   UNL A   1      46.569  27.530  34.983  1.00  0.00     0.198 A 
ATOM     67  F   UNL A   1      45.808  29.441  33.842  1.00  0.00    -0.203 F 
ATOM     68  F   UNL A   1      44.735  24.795  36.497  1.00  0.00    -0.200 F 
ATOM     69  C   UNL A   1      46.304  26.349  35.660  1.00  0.00     0.200 A 
ATOM     70  F   UNL A   1      47.834  27.940  34.822  1.00  0.00    -0.200 F 
ATOM     71  F   UNL A   1      47.313  25.628  36.172  1.00  0.00    -0.200 F 
ENDBRANCH  38  61
ENDBRANCH  12  13
ENDBRANCH   5   7
ENDBRANCH   2   3
ENDBRANCH   1   2
BRANCH   1  72
ATOM     72  C   UNL A   1      33.158  30.555  27.281  1.00  0.00     0.117 C 
BRANCH  72  73
ATOM     73  N   UNL A   1      32.345  29.365  27.112  1.00  0.00    -0.356 N 
ATOM     74  C   UNL A   1      31.855  28.767  25.992  1.00  0.00     0.225 C 
ATOM     75  H   UNL A   1      32.108  28.913  27.953  1.00  0.00     0.163 HD
ATOM     76  O   UNL A   1      31.028  27.875  26.170  1.00  0.00    -0.275 OA
BRANCH  74  77
ATOM     77  C   UNL A   1      32.377  29.161  24.618  1.00  0.00     0.104 C 
ATOM     78  C   UNL A   1      33.643  28.368  24.166  1.00  0.00     0.004 C 
ATOM     79  C   UNL A   1      31.453  29.074  23.369  1.00  0.00     0.098 C 
ATOM     80  C   UNL A   1      33.397  26.857  24.007  1.00  0.00     0.005 C 
ATOM     81  C   UNL A   1      33.730  28.782  22.694  1.00  0.00     0.010 C 
ATOM     82  C   UNL A   1      32.330  28.255  22.376  1.00  0.00     0.013 C 
ATOM     83  C   UNL A   1      32.452  26.782  22.809  1.00  0.00     0.006 C 
BRANCH  79  84
ATOM     84  N   UNL A   1      30.119  28.509  23.520  1.00  0.00    -0.348 N 
ATOM     85  C   UNL A   1      28.895  28.975  23.088  1.00  0.00     0.253 C 
ATOM     86  H   UNL A   1      30.087  27.657  24.011  1.00  0.00     0.164 HD
ATOM     87  O   UNL A   1      27.887  28.293  23.266  1.00  0.00    -0.269 OA
BRANCH  85  88
ATOM     88  C   UNL A   1      28.723  30.356  22.591  1.00  0.00     0.061 A 
ATOM     89  C   UNL A   1      28.331  30.481  21.251  1.00  0.00     0.035 A 
ATOM     90  C   UNL A   1      28.952  31.507  23.336  1.00  0.00     0.072 A 
ATOM     91  C   UNL A   1      28.028  31.735  20.758  1.00  0.00     0.112 A 
ATOM     92  C   UNL A   1      28.613  32.721  22.753  1.00  0.00     0.132 A 
ATOM     93  Cl  UNL A   1      29.719  31.520  24.869  1.00  0.00    -0.082 Cl
ATOM     94  N   UNL A   1      28.124  32.857  21.495  1.00  0.00    -0.263 NA
ENDBRANCH  85  88
ENDBRANCH  79  84
ENDBRANCH  74  77
ENDBRANCH  72  73
ENDBRANCH   1  72
TORSDOF 12
ENDMDL
MODEL 2
REMARK VINA RESULT:     -12.2      0.083      1.594
REMARK SMILES O=C(NCCCNC(=O)[C@H]1[C@H]2CC[C@H](C2)[C@H]1NC(=O)c1ccncc1Cl)c1ccc(-c2c3nc(c(-c4c(F)c(F)c(F)c(F)c4F)c4ccc([nH]4)c(-c4c(F)c(F)c(F)c(F)c4F)c4nc(c(-c5c(F)c(F)c(F)c(F)c5F)c5ccc2[nH]5)C=C4)C=C3)cc1
REMARK SMILES IDX 5 1 4 2 3 3 1 4 2 5 27 7 28 8 89 9 29 10 88 11 30 12 31 13
REMARK SMILES IDX 32 14 82 15 33 16 87 17 81 18 83 19 34 20 86 21 80 22 79 23
REMARK SMILES IDX 35 25 67 26 47 27 66 28 48 29 51 30 65 31 84 32 49 33 50 34
REMARK SMILES IDX 64 36 85 37 52 38 36 39 37 40 45 41 38 42 39 43 43 44 46 45
REMARK SMILES IDX 40 46 41 47 44 48 42 49 68 50 69 51 77 52 70 53 71 54 75 55
REMARK SMILES IDX 78 56 72 57 73 58 76 59 74 60 53 61 54 62 62 63 55 64 56 65
REMARK SMILES IDX 60 66 63 67 57 68 58 69 61 70 59 71 6 72 7 73 8 74 9 76
REMARK SMILES IDX 10 77 11 78 16 79 12 80 15 81 14 82 13 83 17 84 18 85 19 87
REMARK SMILES IDX 20 88 21 89 25 90 22 91 24 92 26 93 23 94
REMARK H PARENT 3 6 83 24 51 35 7 75 17 86
REMARK Flexibility Score: inf
ROOT
ATOM      1  C   UNL A   1      32.208  31.768  27.353  1.00  0.00     0.042 C 
ENDROOT
BRANCH   1   2
ATOM      2  C   UNL A   1      32.852  33.037  26.807  1.00  0.00     0.118 C 
BRANCH   2   3
ATOM      3  N   UNL A   1      32.567  34.203  27.627  1.00  0.00    -0.352 N 
ATOM      4  O   UNL A   1      32.528  35.552  29.411  1.00  0.00    -0.269 OA
ATOM      5  C   UNL A   1      33.081  34.618  28.831  1.00  0.00     0.251 C 
ATOM      6  H   UNL A   1      31.882  34.802  27.252  1.00  0.00     0.163 HD
BRANCH   5   7
ATOM      7  C   UNL A   1      34.255  33.969  29.471  1.00  0.00     0.039 A 
ATOM      8  C   UNL A   1      34.145  32.862  30.312  1.00  0.00     0.014 A 
ATOM      9  C   UNL A   1      35.536  34.434  29.135  1.00  0.00     0.014 A 
ATOM     10  C   UNL A   1      35.278  32.320  30.922  1.00  0.00     0.010 A 
ATOM     11  C   UNL A   1      36.680  33.825  29.667  1.00  0.00     0.010 A 
ATOM     12  C   UNL A   1      36.563  32.779  30.592  1.00  0.00    -0.014 A 
BRANCH  12  13
ATOM     13  C   UNL A   1      37.759  32.107  31.174  1.00  0.00     0.031 A 
ATOM     14  C   UNL A   1      38.225  32.413  32.573  1.00  0.00     0.074 A 
ATOM     15  C   UNL A   1      38.428  31.197  30.437  1.00  0.00     0.049 A 
ATOM     16  N   UNL A   1      39.219  31.887  33.247  1.00  0.00    -0.248 NA
ATOM     17  C   UNL A   1      37.490  33.452  33.308  1.00  0.00     0.031 C 
ATOM     18  C   UNL A   1      38.106  30.832  29.056  1.00  0.00     0.029 A 
ATOM     19  N   UNL A   1      39.501  30.398  30.748  1.00  0.00    -0.354 N 
ATOM     20  C   UNL A   1      39.240  32.541  34.472  1.00  0.00     0.074 A 
ATOM     21  C   UNL A   1      38.180  33.527  34.438  1.00  0.00     0.031 C 
ATOM     22  C   UNL A   1      38.923  29.845  28.658  1.00  0.00     0.029 A 
ATOM     23  C   UNL A   1      39.860  29.542  29.735  1.00  0.00     0.049 A 
ATOM     24  H   UNL A   1      39.969  30.436  31.613  1.00  0.00     0.167 HD
ATOM     25  C   UNL A   1      40.061  32.333  35.530  1.00  0.00     0.037 A 
ATOM     26  C   UNL A   1      40.834  28.613  29.676  1.00  0.00     0.037 A 
ATOM     27  C   UNL A   1      41.098  31.334  35.579  1.00  0.00     0.049 A 
ATOM     28  C   UNL A   1      41.724  28.401  30.867  1.00  0.00     0.074 A 
ATOM     29  C   UNL A   1      41.939  31.013  36.631  1.00  0.00     0.029 A 
ATOM     30  N   UNL A   1      41.438  30.495  34.528  1.00  0.00    -0.354 N 
ATOM     31  N   UNL A   1      41.694  28.988  32.039  1.00  0.00    -0.248 NA
ATOM     32  C   UNL A   1      42.784  27.393  30.728  1.00  0.00     0.031 C 
ATOM     33  C   UNL A   1      42.818  30.012  36.203  1.00  0.00     0.029 A 
ATOM     34  C   UNL A   1      42.492  29.673  34.900  1.00  0.00     0.049 A 
ATOM     35  H   UNL A   1      40.996  30.485  33.649  1.00  0.00     0.167 HD
ATOM     36  C   UNL A   1      42.709  28.405  32.783  1.00  0.00     0.074 A 
ATOM     37  C   UNL A   1      43.328  27.407  31.936  1.00  0.00     0.031 C 
ATOM     38  C   UNL A   1      43.096  28.676  34.053  1.00  0.00     0.037 A 
BRANCH  25  39
ATOM     39  C   UNL A   1      39.880  33.214  36.734  1.00  0.00     0.064 A 
ATOM     40  C   UNL A   1      38.942  32.917  37.734  1.00  0.00     0.173 A 
ATOM     41  C   UNL A   1      40.691  34.346  36.912  1.00  0.00     0.173 A 
ATOM     42  F   UNL A   1      38.137  31.852  37.609  1.00  0.00    -0.203 F 
ATOM     43  C   UNL A   1      38.805  33.733  38.854  1.00  0.00     0.198 A 
ATOM     44  C   UNL A   1      40.570  35.145  38.047  1.00  0.00     0.198 A 
ATOM     45  F   UNL A   1      41.610  34.671  35.991  1.00  0.00    -0.203 F 
ATOM     46  F   UNL A   1      37.873  33.454  39.776  1.00  0.00    -0.200 F 
ATOM     47  C   UNL A   1      39.623  34.843  39.013  1.00  0.00     0.200 A 
ATOM     48  F   UNL A   1      41.371  36.209  38.205  1.00  0.00    -0.200 F 
ATOM     49  F   UNL A   1      39.495  35.623  40.094  1.00  0.00    -0.200 F 
ENDBRANCH  25  39
BRANCH  26  50
ATOM     50  C   UNL A   1      41.000  27.794  28.448  1.00  0.00     0.064 A 
ATOM     51  C   UNL A   1      41.858  28.209  27.419  1.00  0.00     0.173 A 
ATOM     52  C   UNL A   1      40.310  26.585  28.276  1.00  0.00     0.173 A 
ATOM     53  F   UNL A   1      42.524  29.369  27.529  1.00  0.00    -0.203 F 
ATOM     54  C   UNL A   1      42.007  27.454  26.258  1.00  0.00     0.198 A 
ATOM     55  C   UNL A   1      40.481  25.817  27.127  1.00  0.00     0.198 A 
ATOM     56  F   UNL A   1      39.479  26.145  29.232  1.00  0.00    -0.203 F 
ATOM     57  F   UNL A   1      42.799  27.894  25.272  1.00  0.00    -0.200 F 
ATOM     58  C   UNL A   1      41.324  26.255  26.116  1.00  0.00     0.200 A 
ATOM     59  F   UNL A   1      39.830  24.653  27.000  1.00  0.00    -0.200 F 
ATOM     60  F   UNL A   1      41.470  25.526  25.001  1.00  0.00    -0.200 F 
ENDBRANCH  26  50
BRANCH  38  61
ATOM     61  C   UNL A   1      44.216  27.852  34.619  1.00  0.00     0.064 A 
ATOM     62  C   UNL A   1      45.549  28.283  34.563  1.00  0.00     0.173 A 
ATOM     63  C   UNL A   1      43.947  26.624  35.242  1.00  0.00     0.173 A 
ATOM     64  F   UNL A   1      45.859  29.442  33.963  1.00  0.00    -0.203 F 
ATOM     65  C   UNL A   1      46.577  27.500  35.082  1.00  0.00     0.198 A 
ATOM     66  C   UNL A   1      44.973  25.857  35.786  1.00  0.00     0.198 A 
ATOM     67  F   UNL A   1      42.688  26.168  35.326  1.00  0.00    -0.203 F 
ATOM     68  F   UNL A   1      47.848  27.907  34.970  1.00  0.00    -0.200 F 
ATOM     69  C   UNL A   1      46.287  26.291  35.698  1.00  0.00     0.200 A 
ATOM     70  F   UNL A   1      44.692  24.694  36.389  1.00  0.00    -0.200 F 
ATOM     71  F   UNL A   1      47.278  25.538  36.198  1.00  0.00    -0.200 F 
ENDBRANCH  38  61
ENDBRANCH  12  13
ENDBRANCH   5   7
ENDBRANCH   2   3
ENDBRANCH   1   2
BRANCH   1  72
ATOM     72  C   UNL A   1      33.101  30.539  27.347  1.00  0.00     0.117 C 
BRANCH  72  73
ATOM     73  N   UNL A   1      32.312  29.339  27.144  1.00  0.00    -0.356 N 
ATOM     74  C   UNL A   1      31.839  28.761  26.006  1.00  0.00     0.225 C 
ATOM     75  H   UNL A   1      32.079  28.861  27.972  1.00  0.00     0.163 HD
ATOM     76  O   UNL A   1      31.027  27.849  26.157  1.00  0.00    -0.275 OA
BRANCH  74  77
ATOM     77  C   UNL A   1      32.360  29.199  24.645  1.00  0.00     0.104 C 
ATOM     78  C   UNL A   1      33.629  28.426  24.170  1.00  0.00     0.004 C 
ATOM     79  C   UNL A   1      31.437  29.148  23.394  1.00  0.00     0.098 C 
ATOM     80  C   UNL A   1      33.389  26.920  23.963  1.00  0.00     0.005 C 
ATOM     81  C   UNL A   1      33.716  28.886  22.711  1.00  0.00     0.010 C 
ATOM     82  C   UNL A   1      32.318  28.363  22.376  1.00  0.00     0.013 C 
ATOM     83  C   UNL A   1      32.445  26.878  22.763  1.00  0.00     0.006 C 
BRANCH  79  84
ATOM     84  N   UNL A   1      30.106  28.574  23.526  1.00  0.00    -0.348 N 
ATOM     85  C   UNL A   1      28.884  29.032  23.079  1.00  0.00     0.253 C 
ATOM     86  H   UNL A   1      30.073  27.720  24.014  1.00  0.00     0.164 HD
ATOM     87  O   UNL A   1      27.879  28.344  23.243  1.00  0.00    -0.269 OA
BRANCH  85  88
ATOM     88  C   UNL A   1      28.708  30.414  22.585  1.00  0.00     0.061 A 
ATOM     89  C   UNL A   1      28.329  30.539  21.241  1.00  0.00     0.035 A 
ATOM     90  C   UNL A   1      28.923  31.564  23.334  1.00  0.00     0.072 A 
ATOM     91  C   UNL A   1      28.024  31.793  20.747  1.00  0.00     0.112 A 
ATOM     92  C   UNL A   1      28.583  32.777  22.751  1.00  0.00     0.132 A 
ATOM     93  Cl  UNL A   1      29.676  31.578  24.875  1.00  0.00    -0.082 Cl
ATOM     94  N   UNL A   1      28.106  32.914  21.489  1.00  0.00    -0.263 NA
ENDBRANCH  85  88
ENDBRANCH  79  84
ENDBRANCH  74  77
ENDBRANCH  72  73
ENDBRANCH   1  72
TORSDOF 12
ENDMDL
MODEL 3
REMARK VINA RESULT:     -12.2      3.152      5.490
REMARK SMILES O=C(NCCCNC(=O)[C@H]1[C@H]2CC[C@H](C2)[C@H]1NC(=O)c1ccncc1Cl)c1ccc(-c2c3nc(c(-c4c(F)c(F)c(F)c(F)c4F)c4ccc([nH]4)c(-c4c(F)c(F)c(F)c(F)c4F)c4nc(c(-c5c(F)c(F)c(F)c(F)c5F)c5ccc2[nH]5)C=C4)C=C3)cc1
REMARK SMILES IDX 5 1 4 2 3 3 1 4 2 5 27 7 28 8 89 9 29 10 88 11 30 12 31 13
REMARK SMILES IDX 32 14 82 15 33 16 87 17 81 18 83 19 34 20 86 21 80 22 79 23
REMARK SMILES IDX 35 25 67 26 47 27 66 28 48 29 51 30 65 31 84 32 49 33 50 34
REMARK SMILES IDX 64 36 85 37 52 38 36 39 37 40 45 41 38 42 39 43 43 44 46 45
REMARK SMILES IDX 40 46 41 47 44 48 42 49 68 50 69 51 77 52 70 53 71 54 75 55
REMARK SMILES IDX 78 56 72 57 73 58 76 59 74 60 53 61 54 62 62 63 55 64 56 65
REMARK SMILES IDX 60 66 63 67 57 68 58 69 61 70 59 71 6 72 7 73 8 74 9 76
REMARK SMILES IDX 10 77 11 78 16 79 12 80 15 81 14 82 13 83 17 84 18 85 19 87
REMARK SMILES IDX 20 88 21 89 25 90 22 91 24 92 26 93 23 94
REMARK H PARENT 3 6 83 24 51 35 7 75 17 86
REMARK Flexibility Score: inf
ROOT
ATOM      1  C   UNL A   1      31.809  28.437  26.046  1.00  0.00     0.042 C 
ENDROOT
BRANCH   1   2
ATOM      2  C   UNL A   1      33.004  29.351  25.802  1.00  0.00     0.118 C 
BRANCH   2   3
ATOM      3  N   UNL A   1      32.732  30.731  26.166  1.00  0.00    -0.352 N 
ATOM      4  O   UNL A   1      32.786  32.642  27.327  1.00  0.00    -0.269 OA
ATOM      5  C   UNL A   1      33.333  31.571  27.071  1.00  0.00     0.251 C 
ATOM      6  H   UNL A   1      31.981  31.136  25.676  1.00  0.00     0.163 HD
BRANCH   5   7
ATOM      7  C   UNL A   1      34.599  31.226  27.770  1.00  0.00     0.039 A 
ATOM      8  C   UNL A   1      35.601  32.162  28.030  1.00  0.00     0.014 A 
ATOM      9  C   UNL A   1      34.748  29.925  28.273  1.00  0.00     0.014 A 
ATOM     10  C   UNL A   1      36.789  31.773  28.650  1.00  0.00     0.010 A 
ATOM     11  C   UNL A   1      35.897  29.560  28.986  1.00  0.00     0.010 A 
ATOM     12  C   UNL A   1      36.947  30.473  29.156  1.00  0.00    -0.014 A 
BRANCH  12  13
ATOM     13  C   UNL A   1      38.182  30.118  29.911  1.00  0.00     0.031 A 
ATOM     14  C   UNL A   1      38.384  30.564  31.334  1.00  0.00     0.074 A 
ATOM     15  C   UNL A   1      39.130  29.371  29.309  1.00  0.00     0.049 A 
ATOM     16  N   UNL A   1      39.380  30.306  32.149  1.00  0.00    -0.248 NA
ATOM     17  C   UNL A   1      37.344  31.421  31.919  1.00  0.00     0.031 C 
ATOM     18  C   UNL A   1      39.078  28.902  27.923  1.00  0.00     0.029 A 
ATOM     19  N   UNL A   1      40.310  28.856  29.787  1.00  0.00    -0.354 N 
ATOM     20  C   UNL A   1      39.095  30.982  33.328  1.00  0.00     0.074 A 
ATOM     21  C   UNL A   1      37.850  31.688  33.116  1.00  0.00     0.031 C 
ATOM     22  C   UNL A   1      40.143  28.123  27.680  1.00  0.00     0.029 A 
ATOM     23  C   UNL A   1      40.981  28.080  28.874  1.00  0.00     0.049 A 
ATOM     24  H   UNL A   1      40.643  29.028  30.698  1.00  0.00     0.167 HD
ATOM     25  C   UNL A   1      39.801  31.002  34.485  1.00  0.00     0.037 A 
ATOM     26  C   UNL A   1      42.142  27.405  28.981  1.00  0.00     0.037 A 
ATOM     27  C   UNL A   1      41.026  30.277  34.710  1.00  0.00     0.049 A 
ATOM     28  C   UNL A   1      42.899  27.442  30.277  1.00  0.00     0.074 A 
ATOM     29  C   UNL A   1      41.779  30.192  35.870  1.00  0.00     0.029 A 
ATOM     30  N   UNL A   1      41.680  29.513  33.755  1.00  0.00    -0.354 N 
ATOM     31  N   UNL A   1      42.587  28.038  31.402  1.00  0.00    -0.248 NA
ATOM     32  C   UNL A   1      44.172  26.708  30.320  1.00  0.00     0.031 C 
ATOM     33  C   UNL A   1      42.911  29.415  35.604  1.00  0.00     0.029 A 
ATOM     34  C   UNL A   1      42.839  28.973  34.293  1.00  0.00     0.049 A 
ATOM     35  H   UNL A   1      41.366  29.374  32.833  1.00  0.00     0.167 HD
ATOM     36  C   UNL A   1      43.608  27.732  32.291  1.00  0.00     0.074 A 
ATOM     37  C   UNL A   1      44.541  26.884  31.580  1.00  0.00     0.031 C 
ATOM     38  C   UNL A   1      43.758  28.122  33.580  1.00  0.00     0.037 A 
BRANCH  25  39
ATOM     39  C   UNL A   1      39.272  31.849  35.608  1.00  0.00     0.064 A 
ATOM     40  C   UNL A   1      38.378  31.339  36.561  1.00  0.00     0.173 A 
ATOM     41  C   UNL A   1      39.704  33.177  35.757  1.00  0.00     0.173 A 
ATOM     42  F   UNL A   1      37.928  30.081  36.459  1.00  0.00    -0.203 F 
ATOM     43  C   UNL A   1      37.917  32.134  37.608  1.00  0.00     0.198 A 
ATOM     44  C   UNL A   1      39.261  33.959  36.821  1.00  0.00     0.198 A 
ATOM     45  F   UNL A   1      40.565  33.712  34.879  1.00  0.00    -0.203 F 
ATOM     46  F   UNL A   1      37.030  31.639  38.483  1.00  0.00    -0.200 F 
ATOM     47  C   UNL A   1      38.363  33.441  37.741  1.00  0.00     0.200 A 
ATOM     48  F   UNL A   1      39.704  35.218  36.956  1.00  0.00    -0.200 F 
ATOM     49  F   UNL A   1      37.924  34.202  38.753  1.00  0.00    -0.200 F 
ENDBRANCH  25  39
BRANCH  26  50
ATOM     50  C   UNL A   1      42.646  26.614  27.829  1.00  0.00     0.064 A 
ATOM     51  C   UNL A   1      42.342  25.251  27.705  1.00  0.00     0.173 A 
ATOM     52  C   UNL A   1      43.440  27.200  26.832  1.00  0.00     0.173 A 
ATOM     53  F   UNL A   1      41.604  24.641  28.645  1.00  0.00    -0.203 F 
ATOM     54  C   UNL A   1      42.825  24.501  26.636  1.00  0.00     0.198 A 
ATOM     55  C   UNL A   1      43.898  26.456  25.749  1.00  0.00     0.198 A 
ATOM     56  F   UNL A   1      43.756  28.501  26.905  1.00  0.00    -0.203 F 
ATOM     57  F   UNL A   1      42.556  23.190  26.563  1.00  0.00    -0.200 F 
ATOM     58  C   UNL A   1      43.597  25.105  25.655  1.00  0.00     0.200 A 
ATOM     59  F   UNL A   1      44.632  27.047  24.796  1.00  0.00    -0.200 F 
ATOM     60  F   UNL A   1      44.058  24.384  24.623  1.00  0.00    -0.200 F 
ENDBRANCH  26  50
BRANCH  38  61
ATOM     61  C   UNL A   1      44.957  27.602  34.319  1.00  0.00     0.064 A 
ATOM     62  C   UNL A   1      46.166  28.310  34.354  1.00  0.00     0.173 A 
ATOM     63  C   UNL A   1      44.887  26.385  35.014  1.00  0.00     0.173 A 
ATOM     64  F   UNL A   1      46.288  29.470  33.690  1.00  0.00    -0.203 F 
ATOM     65  C   UNL A   1      47.272  27.806  35.033  1.00  0.00     0.198 A 
ATOM     66  C   UNL A   1      45.985  25.897  35.717  1.00  0.00     0.198 A 
ATOM     67  F   UNL A   1      43.751  25.670  35.016  1.00  0.00    -0.203 F 
ATOM     68  F   UNL A   1      48.433  28.474  35.009  1.00  0.00    -0.200 F 
ATOM     69  C   UNL A   1      47.179  26.604  35.718  1.00  0.00     0.200 A 
ATOM     70  F   UNL A   1      45.891  24.741  36.387  1.00  0.00    -0.200 F 
ATOM     71  F   UNL A   1      48.244  26.120  36.373  1.00  0.00    -0.200 F 
ENDBRANCH  38  61
ENDBRANCH  12  13
ENDBRANCH   5   7
ENDBRANCH   2   3
ENDBRANCH   1   2
BRANCH   1  72
ATOM     72  C   UNL A   1      32.158  27.009  26.432  1.00  0.00     0.117 C 
BRANCH  72  73
ATOM     73  N   UNL A   1      31.986  26.120  25.299  1.00  0.00    -0.356 N 
ATOM     74  C   UNL A   1      32.489  24.880  25.050  1.00  0.00     0.225 C 
ATOM     75  H   UNL A   1      31.405  26.475  24.588  1.00  0.00     0.163 HD
ATOM     76  O   UNL A   1      32.328  24.448  23.910  1.00  0.00    -0.275 OA
BRANCH  74  77
ATOM     77  C   UNL A   1      33.146  24.077  26.163  1.00  0.00     0.104 C 
ATOM     78  C   UNL A   1      32.228  22.980  26.785  1.00  0.00     0.004 C 
ATOM     79  C   UNL A   1      34.473  23.308  25.903  1.00  0.00     0.098 C 
ATOM     80  C   UNL A   1      31.816  21.885  25.784  1.00  0.00     0.005 C 
ATOM     81  C   UNL A   1      33.241  22.203  27.631  1.00  0.00     0.010 C 
ATOM     82  C   UNL A   1      34.127  21.882  26.426  1.00  0.00     0.013 C 
ATOM     83  C   UNL A   1      33.131  21.163  25.497  1.00  0.00     0.006 C 
BRANCH  79  84
ATOM     84  N   UNL A   1      35.016  23.281  24.552  1.00  0.00    -0.348 N 
ATOM     85  C   UNL A   1      36.283  22.973  24.101  1.00  0.00     0.253 C 
ATOM     86  H   UNL A   1      34.374  23.522  23.846  1.00  0.00     0.164 HD
ATOM     87  O   UNL A   1      36.509  22.945  22.893  1.00  0.00    -0.269 OA
BRANCH  85  88
ATOM     88  C   UNL A   1      37.430  22.867  25.027  1.00  0.00     0.061 A 
ATOM     89  C   UNL A   1      37.916  24.077  25.541  1.00  0.00     0.035 A 
ATOM     90  C   UNL A   1      38.062  21.682  25.382  1.00  0.00     0.072 A 
ATOM     91  C   UNL A   1      38.902  24.044  26.508  1.00  0.00     0.112 A 
ATOM     92  C   UNL A   1      39.040  21.751  26.366  1.00  0.00     0.132 A 
ATOM     93  Cl  UNL A   1      37.785  20.177  24.608  1.00  0.00    -0.082 Cl
ATOM     94  N   UNL A   1      39.448  22.899  26.961  1.00  0.00    -0.263 NA
ENDBRANCH  85  88
ENDBRANCH  79  84
ENDBRANCH  74  77
ENDBRANCH  72  73
ENDBRANCH   1  72
TORSDOF 12
ENDMDL
