MODEL 1
REMARK VINA RESULT:     -12.8      0.000      0.000
REMARK SMILES COc1cccc(NC(=O)[C@@H]2[C@@H](C(=O)NCCCNC(=O)c3ccc(-c4c5nc(c(-c6c(F)c(F)c(F)c(F)c6F)c6ccc([nH]6)c(-c6c(F)c(F)c(F)c(F)c6F)c6nc(c(-c7c(F)c(F)c(F)c(F)c7F)c7ccc4[nH]7)C=C6)C=C5)cc3)[C@H]3C=C[C@@H]2C3)c1
REMARK SMILES IDX 16 1 15 2 13 3 14 4 12 6 11 7 88 8 85 9 87 10 89 11 86 12
REMARK SMILES IDX 9 13 8 14 10 16 7 17 3 18 4 19 90 20 5 21 6 22 2 23 1 24
REMARK SMILES IDX 17 25 18 26 19 27 20 28 21 30 22 31 23 32 84 33 24 34 83 35
REMARK SMILES IDX 25 36 26 37 27 38 77 39 28 40 82 41 76 42 78 43 29 44 81 45
REMARK SMILES IDX 75 46 74 47 30 49 62 50 42 51 61 52 43 53 46 54 60 55 79 56
REMARK SMILES IDX 44 57 45 58 59 60 80 61 47 62 31 63 32 64 40 65 33 66 34 67
REMARK SMILES IDX 38 68 41 69 35 70 36 71 39 72 37 73 63 74 64 75 72 76 65 77
REMARK SMILES IDX 66 78 70 79 73 80 67 81 68 82 71 83 69 84 48 85 49 86 57 87
REMARK SMILES IDX 50 88 51 89 55 90 58 91 52 92 53 93 56 94 54 95
REMARK H PARENT 15 5 8 15 19 29 78 48 46 59
REMARK Flexibility Score: inf
ROOT
ATOM      1  C   UNL A   1      34.540  24.819  25.354  1.00  0.00     0.117 C 
ENDROOT
BRANCH   1   2
ATOM      2  N   UNL A   1      33.375  24.858  26.203  1.00  0.00    -0.356 N 
ATOM      3  C   UNL A   1      32.245  25.598  26.155  1.00  0.00     0.224 C 
ATOM      4  O   UNL A   1      31.315  25.151  26.839  1.00  0.00    -0.275 OA
ATOM      5  H   UNL A   1      33.409  24.227  26.959  1.00  0.00     0.163 HD
BRANCH   3   6
ATOM      6  C   UNL A   1      32.058  26.834  25.261  1.00  0.00     0.098 C 
ATOM      7  C   UNL A   1      33.263  27.346  24.365  1.00  0.00     0.099 C 
ATOM      8  C   UNL A   1      33.615  28.677  25.020  1.00  0.00     0.025 C 
ATOM      9  C   UNL A   1      31.814  28.077  26.189  1.00  0.00     0.025 C 
ATOM     10  C   UNL A   1      34.059  28.494  26.448  1.00  0.00    -0.027 C 
ATOM     11  C   UNL A   1      32.203  29.233  25.277  1.00  0.00     0.017 C 
ATOM     12  C   UNL A   1      32.967  28.203  27.164  1.00  0.00    -0.027 C 
BRANCH   7  13
ATOM     13  C   UNL A   1      32.833  27.399  22.883  1.00  0.00     0.228 C 
ATOM     14  N   UNL A   1      31.740  27.909  22.271  1.00  0.00    -0.326 N 
ATOM     15  H   UNL A   1      31.921  27.939  21.304  1.00  0.00     0.169 HD
ATOM     16  O   UNL A   1      33.658  26.978  22.047  1.00  0.00    -0.274 OA
BRANCH  14  17
ATOM     17  C   UNL A   1      30.439  28.414  22.483  1.00  0.00     0.044 A 
ATOM     18  C   UNL A   1      28.956  30.318  22.097  1.00  0.00     0.120 A 
ATOM     19  C   UNL A   1      27.909  29.692  22.753  1.00  0.00     0.046 A 
ATOM     20  C   UNL A   1      30.215  29.717  21.999  1.00  0.00     0.072 A 
ATOM     21  C   UNL A   1      28.098  28.398  23.202  1.00  0.00     0.006 A 
ATOM     22  C   UNL A   1      29.336  27.761  23.020  1.00  0.00     0.026 A 
BRANCH  18  23
ATOM     23  O   UNL A   1      28.733  31.536  21.516  1.00  0.00    -0.497 OA
ATOM     24  C   UNL A   1      28.778  32.553  22.524  1.00  0.00     0.278 C 
ENDBRANCH  18  23
ENDBRANCH  14  17
ENDBRANCH   7  13
ENDBRANCH   3   6
ENDBRANCH   1   2
BRANCH   1  25
ATOM     25  C   UNL A   1      35.500  23.693  25.719  1.00  0.00     0.042 C 
BRANCH  25  26
ATOM     26  C   UNL A   1      36.809  23.693  24.931  1.00  0.00     0.118 C 
BRANCH  26  27
ATOM     27  N   UNL A   1      37.766  22.707  25.411  1.00  0.00    -0.352 N 
ATOM     28  C   UNL A   1      38.925  22.859  26.128  1.00  0.00     0.251 C 
ATOM     29  H   UNL A   1      37.543  21.775  25.182  1.00  0.00     0.163 HD
ATOM     30  O   UNL A   1      39.671  21.896  26.282  1.00  0.00    -0.269 OA
BRANCH  28  31
ATOM     31  C   UNL A   1      39.302  24.171  26.699  1.00  0.00     0.039 A 
ATOM     32  C   UNL A   1      38.916  24.459  28.011  1.00  0.00     0.014 A 
ATOM     33  C   UNL A   1      39.988  25.130  25.949  1.00  0.00     0.014 A 
ATOM     34  C   UNL A   1      39.269  25.679  28.589  1.00  0.00     0.010 A 
ATOM     35  C   UNL A   1      40.404  26.318  26.550  1.00  0.00     0.010 A 
ATOM     36  C   UNL A   1      40.047  26.605  27.876  1.00  0.00    -0.014 A 
BRANCH  36  37
ATOM     37  C   UNL A   1      40.508  27.859  28.524  1.00  0.00     0.031 A 
ATOM     38  C   UNL A   1      41.942  28.029  28.940  1.00  0.00     0.074 A 
ATOM     39  C   UNL A   1      39.613  28.832  28.778  1.00  0.00     0.049 A 
ATOM     40  N   UNL A   1      42.520  29.058  29.511  1.00  0.00    -0.248 NA
ATOM     41  C   UNL A   1      42.840  26.888  28.711  1.00  0.00     0.031 C 
ATOM     42  C   UNL A   1      38.180  28.756  28.487  1.00  0.00     0.029 A 
ATOM     43  N   UNL A   1      39.772  30.074  29.340  1.00  0.00    -0.354 N 
ATOM     44  C   UNL A   1      43.842  28.684  29.717  1.00  0.00     0.074 A 
ATOM     45  C   UNL A   1      43.969  27.317  29.258  1.00  0.00     0.031 C 
ATOM     46  C   UNL A   1      37.597  29.910  28.845  1.00  0.00     0.029 A 
ATOM     47  C   UNL A   1      38.607  30.795  29.417  1.00  0.00     0.049 A 
ATOM     48  H   UNL A   1      40.639  30.415  29.658  1.00  0.00     0.167 HD
ATOM     49  C   UNL A   1      44.861  29.422  30.221  1.00  0.00     0.037 A 
ATOM     50  C   UNL A   1      38.378  32.035  29.890  1.00  0.00     0.037 A 
ATOM     51  C   UNL A   1      44.735  30.789  30.655  1.00  0.00     0.049 A 
ATOM     52  C   UNL A   1      39.531  32.843  30.416  1.00  0.00     0.074 A 
ATOM     53  C   UNL A   1      45.722  31.647  31.108  1.00  0.00     0.029 A 
ATOM     54  N   UNL A   1      43.542  31.498  30.698  1.00  0.00    -0.354 N 
ATOM     55  N   UNL A   1      40.794  32.511  30.521  1.00  0.00    -0.248 NA
ATOM     56  C   UNL A   1      39.227  34.204  30.876  1.00  0.00     0.031 C 
ATOM     57  C   UNL A   1      45.120  32.859  31.468  1.00  0.00     0.029 A 
ATOM     58  C   UNL A   1      43.765  32.773  31.193  1.00  0.00     0.049 A 
ATOM     59  H   UNL A   1      42.666  31.146  30.416  1.00  0.00     0.167 HD
ATOM     60  C   UNL A   1      41.439  33.623  31.044  1.00  0.00     0.074 A 
ATOM     61  C   UNL A   1      40.430  34.650  31.207  1.00  0.00     0.031 C 
ATOM     62  C   UNL A   1      42.747  33.779  31.365  1.00  0.00     0.037 A 
BRANCH  49  63
ATOM     63  C   UNL A   1      46.206  28.763  30.331  1.00  0.00     0.064 A 
ATOM     64  C   UNL A   1      46.597  28.076  31.491  1.00  0.00     0.173 A 
ATOM     65  C   UNL A   1      47.100  28.786  29.251  1.00  0.00     0.173 A 
ATOM     66  F   UNL A   1      45.784  28.031  32.556  1.00  0.00    -0.203 F 
ATOM     67  C   UNL A   1      47.847  27.465  31.575  1.00  0.00     0.198 A 
ATOM     68  C   UNL A   1      48.336  28.148  29.328  1.00  0.00     0.198 A 
ATOM     69  F   UNL A   1      46.775  29.422  28.116  1.00  0.00    -0.203 F 
ATOM     70  F   UNL A   1      48.218  26.858  32.712  1.00  0.00    -0.200 F 
ATOM     71  C   UNL A   1      48.711  27.496  30.493  1.00  0.00     0.200 A 
ATOM     72  F   UNL A   1      49.166  28.168  28.276  1.00  0.00    -0.200 F 
ATOM     73  F   UNL A   1      49.911  26.903  30.574  1.00  0.00    -0.200 F 
ENDBRANCH  49  63
BRANCH  50  74
ATOM     74  C   UNL A   1      37.003  32.595  29.854  1.00  0.00     0.064 A 
ATOM     75  C   UNL A   1      36.140  32.459  30.950  1.00  0.00     0.173 A 
ATOM     76  C   UNL A   1      36.528  33.287  28.730  1.00  0.00     0.173 A 
ATOM     77  F   UNL A   1      36.542  31.788  32.039  1.00  0.00    -0.203 F 
ATOM     78  C   UNL A   1      34.847  32.978  30.917  1.00  0.00     0.198 A 
ATOM     79  C   UNL A   1      35.245  33.831  28.709  1.00  0.00     0.198 A 
ATOM     80  F   UNL A   1      37.318  33.451  27.659  1.00  0.00    -0.203 F 
ATOM     81  F   UNL A   1      34.028  32.798  31.962  1.00  0.00    -0.200 F 
ATOM     82  C   UNL A   1      34.403  33.669  29.799  1.00  0.00     0.200 A 
ATOM     83  F   UNL A   1      34.826  34.510  27.633  1.00  0.00    -0.200 F 
ATOM     84  F   UNL A   1      33.163  34.175  29.771  1.00  0.00    -0.200 F 
ENDBRANCH  50  74
BRANCH  62  85
ATOM     85  C   UNL A   1      43.156  35.115  31.915  1.00  0.00     0.064 A 
ATOM     86  C   UNL A   1      43.073  35.400  33.287  1.00  0.00     0.173 A 
ATOM     87  C   UNL A   1      43.644  36.119  31.065  1.00  0.00     0.173 A 
ATOM     88  F   UNL A   1      42.599  34.479  34.139  1.00  0.00    -0.203 F 
ATOM     89  C   UNL A   1      43.427  36.653  33.781  1.00  0.00     0.198 A 
ATOM     90  C   UNL A   1      44.026  37.360  31.567  1.00  0.00     0.198 A 
ATOM     91  F   UNL A   1      43.750  35.897  29.746  1.00  0.00    -0.203 F 
ATOM     92  F   UNL A   1      43.280  36.921  35.085  1.00  0.00    -0.200 F 
ATOM     93  C   UNL A   1      43.907  37.629  32.922  1.00  0.00     0.200 A 
ATOM     94  F   UNL A   1      44.502  38.299  30.738  1.00  0.00    -0.200 F 
ATOM     95  F   UNL A   1      44.244  38.835  33.399  1.00  0.00    -0.200 F 
ENDBRANCH  62  85
ENDBRANCH  36  37
ENDBRANCH  28  31
ENDBRANCH  26  27
ENDBRANCH  25  26
ENDBRANCH   1  25
TORSDOF 13
ENDMDL
MODEL 2
REMARK VINA RESULT:     -12.8      0.077      1.586
REMARK SMILES COc1cccc(NC(=O)[C@@H]2[C@@H](C(=O)NCCCNC(=O)c3ccc(-c4c5nc(c(-c6c(F)c(F)c(F)c(F)c6F)c6ccc([nH]6)c(-c6c(F)c(F)c(F)c(F)c6F)c6nc(c(-c7c(F)c(F)c(F)c(F)c7F)c7ccc4[nH]7)C=C6)C=C5)cc3)[C@H]3C=C[C@@H]2C3)c1
REMARK SMILES IDX 16 1 15 2 13 3 14 4 12 6 11 7 88 8 85 9 87 10 89 11 86 12
REMARK SMILES IDX 9 13 8 14 10 16 7 17 3 18 4 19 90 20 5 21 6 22 2 23 1 24
REMARK SMILES IDX 17 25 18 26 19 27 20 28 21 30 22 31 23 32 84 33 24 34 83 35
REMARK SMILES IDX 25 36 26 37 27 38 77 39 28 40 82 41 76 42 78 43 29 44 81 45
REMARK SMILES IDX 75 46 74 47 30 49 62 50 42 51 61 52 43 53 46 54 60 55 79 56
REMARK SMILES IDX 44 57 45 58 59 60 80 61 47 62 31 63 32 64 40 65 33 66 34 67
REMARK SMILES IDX 38 68 41 69 35 70 36 71 39 72 37 73 63 74 64 75 72 76 65 77
REMARK SMILES IDX 66 78 70 79 73 80 67 81 68 82 71 83 69 84 48 85 49 86 57 87
REMARK SMILES IDX 50 88 51 89 55 90 58 91 52 92 53 93 56 94 54 95
REMARK H PARENT 15 5 8 15 19 29 78 48 46 59
REMARK Flexibility Score: inf
ROOT
ATOM      1  C   UNL A   1      34.508  24.702  25.239  1.00  0.00     0.117 C 
ENDROOT
BRANCH   1   2
ATOM      2  N   UNL A   1      33.378  24.772  26.133  1.00  0.00    -0.356 N 
ATOM      3  C   UNL A   1      32.267  25.540  26.128  1.00  0.00     0.224 C 
ATOM      4  O   UNL A   1      31.353  25.118  26.849  1.00  0.00    -0.275 OA
ATOM      5  H   UNL A   1      33.426  24.142  26.889  1.00  0.00     0.163 HD
BRANCH   3   6
ATOM      6  C   UNL A   1      32.076  26.780  25.240  1.00  0.00     0.098 C 
ATOM      7  C   UNL A   1      33.279  27.297  24.343  1.00  0.00     0.099 C 
ATOM      8  C   UNL A   1      33.630  28.625  25.002  1.00  0.00     0.025 C 
ATOM      9  C   UNL A   1      31.833  28.019  26.173  1.00  0.00     0.025 C 
ATOM     10  C   UNL A   1      34.078  28.437  26.429  1.00  0.00    -0.027 C 
ATOM     11  C   UNL A   1      32.218  29.179  25.265  1.00  0.00     0.017 C 
ATOM     12  C   UNL A   1      32.988  28.142  27.146  1.00  0.00    -0.027 C 
BRANCH   7  13
ATOM     13  C   UNL A   1      32.846  27.356  22.862  1.00  0.00     0.228 C 
ATOM     14  N   UNL A   1      31.754  27.875  22.254  1.00  0.00    -0.326 N 
ATOM     15  H   UNL A   1      31.934  27.905  21.287  1.00  0.00     0.169 HD
ATOM     16  O   UNL A   1      33.664  26.929  22.024  1.00  0.00    -0.274 OA
BRANCH  14  17
ATOM     17  C   UNL A   1      30.458  28.390  22.469  1.00  0.00     0.044 A 
ATOM     18  C   UNL A   1      28.994  30.313  22.102  1.00  0.00     0.120 A 
ATOM     19  C   UNL A   1      27.941  29.690  22.751  1.00  0.00     0.046 A 
ATOM     20  C   UNL A   1      30.248  29.700  22.000  1.00  0.00     0.072 A 
ATOM     21  C   UNL A   1      28.117  28.390  23.187  1.00  0.00     0.006 A 
ATOM     22  C   UNL A   1      29.348  27.743  22.999  1.00  0.00     0.026 A 
BRANCH  18  23
ATOM     23  O   UNL A   1      28.784  31.539  21.533  1.00  0.00    -0.497 OA
ATOM     24  C   UNL A   1      28.463  32.485  22.561  1.00  0.00     0.278 C 
ENDBRANCH  18  23
ENDBRANCH  14  17
ENDBRANCH   7  13
ENDBRANCH   3   6
ENDBRANCH   1   2
BRANCH   1  25
ATOM     25  C   UNL A   1      35.711  24.004  25.862  1.00  0.00     0.042 C 
BRANCH  25  26
ATOM     26  C   UNL A   1      36.835  23.678  24.879  1.00  0.00     0.118 C 
BRANCH  26  27
ATOM     27  N   UNL A   1      37.771  22.687  25.389  1.00  0.00    -0.352 N 
ATOM     28  C   UNL A   1      38.917  22.835  26.128  1.00  0.00     0.251 C 
ATOM     29  H   UNL A   1      37.544  21.755  25.166  1.00  0.00     0.163 HD
ATOM     30  O   UNL A   1      39.650  21.867  26.308  1.00  0.00    -0.269 OA
BRANCH  28  31
ATOM     31  C   UNL A   1      39.297  24.150  26.692  1.00  0.00     0.039 A 
ATOM     32  C   UNL A   1      38.906  24.448  28.001  1.00  0.00     0.014 A 
ATOM     33  C   UNL A   1      39.989  25.102  25.938  1.00  0.00     0.014 A 
ATOM     34  C   UNL A   1      39.261  25.670  28.572  1.00  0.00     0.010 A 
ATOM     35  C   UNL A   1      40.406  26.293  26.533  1.00  0.00     0.010 A 
ATOM     36  C   UNL A   1      40.045  26.589  27.856  1.00  0.00    -0.014 A 
BRANCH  36  37
ATOM     37  C   UNL A   1      40.508  27.846  28.498  1.00  0.00     0.031 A 
ATOM     38  C   UNL A   1      41.944  28.019  28.906  1.00  0.00     0.074 A 
ATOM     39  C   UNL A   1      39.613  28.819  28.753  1.00  0.00     0.049 A 
ATOM     40  N   UNL A   1      42.523  29.051  29.470  1.00  0.00    -0.248 NA
ATOM     41  C   UNL A   1      42.842  26.879  28.675  1.00  0.00     0.031 C 
ATOM     42  C   UNL A   1      38.178  28.740  28.469  1.00  0.00     0.029 A 
ATOM     43  N   UNL A   1      39.773  30.063  29.311  1.00  0.00    -0.354 N 
ATOM     44  C   UNL A   1      43.846  28.679  29.671  1.00  0.00     0.074 A 
ATOM     45  C   UNL A   1      43.973  27.311  29.215  1.00  0.00     0.031 C 
ATOM     46  C   UNL A   1      37.595  29.894  28.827  1.00  0.00     0.029 A 
ATOM     47  C   UNL A   1      38.608  30.783  29.391  1.00  0.00     0.049 A 
ATOM     48  H   UNL A   1      40.641  30.405  29.623  1.00  0.00     0.167 HD
ATOM     49  C   UNL A   1      44.867  29.419  30.168  1.00  0.00     0.037 A 
ATOM     50  C   UNL A   1      38.379  32.023  29.862  1.00  0.00     0.037 A 
ATOM     51  C   UNL A   1      44.741  30.788  30.598  1.00  0.00     0.049 A 
ATOM     52  C   UNL A   1      39.534  32.835  30.379  1.00  0.00     0.074 A 
ATOM     53  C   UNL A   1      45.729  31.648  31.043  1.00  0.00     0.029 A 
ATOM     54  N   UNL A   1      43.548  31.496  30.644  1.00  0.00    -0.354 N 
ATOM     55  N   UNL A   1      40.798  32.504  30.479  1.00  0.00    -0.248 NA
ATOM     56  C   UNL A   1      39.230  34.197  30.836  1.00  0.00     0.031 C 
ATOM     57  C   UNL A   1      45.128  32.861  31.403  1.00  0.00     0.029 A 
ATOM     58  C   UNL A   1      43.772  32.773  31.134  1.00  0.00     0.049 A 
ATOM     59  H   UNL A   1      42.671  31.142  30.369  1.00  0.00     0.167 HD
ATOM     60  C   UNL A   1      41.444  33.619  30.994  1.00  0.00     0.074 A 
ATOM     61  C   UNL A   1      40.435  34.645  31.159  1.00  0.00     0.031 C 
ATOM     62  C   UNL A   1      42.754  33.778  31.308  1.00  0.00     0.037 A 
BRANCH  49  63
ATOM     63  C   UNL A   1      46.213  28.763  30.273  1.00  0.00     0.064 A 
ATOM     64  C   UNL A   1      47.138  28.805  29.218  1.00  0.00     0.173 A 
ATOM     65  C   UNL A   1      46.599  28.114  31.456  1.00  0.00     0.173 A 
ATOM     66  F   UNL A   1      46.816  29.403  28.062  1.00  0.00    -0.203 F 
ATOM     67  C   UNL A   1      48.386  28.195  29.333  1.00  0.00     0.198 A 
ATOM     68  C   UNL A   1      47.859  27.533  31.578  1.00  0.00     0.198 A 
ATOM     69  F   UNL A   1      45.757  28.050  32.498  1.00  0.00    -0.203 F 
ATOM     70  F   UNL A   1      49.232  28.206  28.293  1.00  0.00    -0.200 F 
ATOM     71  C   UNL A   1      48.747  27.566  30.514  1.00  0.00     0.200 A 
ATOM     72  F   UNL A   1      48.212  26.936  32.725  1.00  0.00    -0.200 F 
ATOM     73  F   UNL A   1      49.950  26.985  30.624  1.00  0.00    -0.200 F 
ENDBRANCH  49  63
BRANCH  50  74
ATOM     74  C   UNL A   1      37.003  32.582  29.831  1.00  0.00     0.064 A 
ATOM     75  C   UNL A   1      36.142  32.439  30.927  1.00  0.00     0.173 A 
ATOM     76  C   UNL A   1      36.526  33.279  28.711  1.00  0.00     0.173 A 
ATOM     77  F   UNL A   1      36.547  31.762  32.012  1.00  0.00    -0.203 F 
ATOM     78  C   UNL A   1      34.849  32.956  30.899  1.00  0.00     0.198 A 
ATOM     79  C   UNL A   1      35.242  33.821  28.695  1.00  0.00     0.198 A 
ATOM     80  F   UNL A   1      37.314  33.450  27.640  1.00  0.00    -0.203 F 
ATOM     81  F   UNL A   1      34.032  32.768  31.944  1.00  0.00    -0.200 F 
ATOM     82  C   UNL A   1      34.402  33.652  29.785  1.00  0.00     0.200 A 
ATOM     83  F   UNL A   1      34.820  34.505  27.623  1.00  0.00    -0.200 F 
ATOM     84  F   UNL A   1      33.161  34.156  29.762  1.00  0.00    -0.200 F 
ENDBRANCH  50  74
BRANCH  62  85
ATOM     85  C   UNL A   1      43.164  35.116  31.852  1.00  0.00     0.064 A 
ATOM     86  C   UNL A   1      43.633  36.137  31.012  1.00  0.00     0.173 A 
ATOM     87  C   UNL A   1      43.079  35.384  33.226  1.00  0.00     0.173 A 
ATOM     88  F   UNL A   1      43.748  35.925  29.692  1.00  0.00    -0.203 F 
ATOM     89  C   UNL A   1      44.039  37.363  31.532  1.00  0.00     0.198 A 
ATOM     90  C   UNL A   1      43.457  36.622  33.740  1.00  0.00     0.198 A 
ATOM     91  F   UNL A   1      42.631  34.445  34.074  1.00  0.00    -0.203 F 
ATOM     92  F   UNL A   1      44.542  38.301  30.718  1.00  0.00    -0.200 F 
ATOM     93  C   UNL A   1      43.946  37.606  32.894  1.00  0.00     0.200 A 
ATOM     94  F   UNL A   1      43.355  36.860  35.055  1.00  0.00    -0.200 F 
ATOM     95  F   UNL A   1      44.340  38.785  33.394  1.00  0.00    -0.200 F 
ENDBRANCH  62  85
ENDBRANCH  36  37
ENDBRANCH  28  31
ENDBRANCH  26  27
ENDBRANCH  25  26
ENDBRANCH   1  25
TORSDOF 13
ENDMDL
MODEL 3
REMARK VINA RESULT:     -12.5      2.357      4.855
REMARK SMILES COc1cccc(NC(=O)[C@@H]2[C@@H](C(=O)NCCCNC(=O)c3ccc(-c4c5nc(c(-c6c(F)c(F)c(F)c(F)c6F)c6ccc([nH]6)c(-c6c(F)c(F)c(F)c(F)c6F)c6nc(c(-c7c(F)c(F)c(F)c(F)c7F)c7ccc4[nH]7)C=C6)C=C5)cc3)[C@H]3C=C[C@@H]2C3)c1
REMARK SMILES IDX 16 1 15 2 13 3 14 4 12 6 11 7 88 8 85 9 87 10 89 11 86 12
REMARK SMILES IDX 9 13 8 14 10 16 7 17 3 18 4 19 90 20 5 21 6 22 2 23 1 24
REMARK SMILES IDX 17 25 18 26 19 27 20 28 21 30 22 31 23 32 84 33 24 34 83 35
REMARK SMILES IDX 25 36 26 37 27 38 77 39 28 40 82 41 76 42 78 43 29 44 81 45
REMARK SMILES IDX 75 46 74 47 30 49 62 50 42 51 61 52 43 53 46 54 60 55 79 56
REMARK SMILES IDX 44 57 45 58 59 60 80 61 47 62 31 63 32 64 40 65 33 66 34 67
REMARK SMILES IDX 38 68 41 69 35 70 36 71 39 72 37 73 63 74 64 75 72 76 65 77
REMARK SMILES IDX 66 78 70 79 73 80 67 81 68 82 71 83 69 84 48 85 49 86 57 87
REMARK SMILES IDX 50 88 51 89 55 90 58 91 52 92 53 93 56 94 54 95
REMARK H PARENT 15 5 8 15 19 29 78 48 46 59
REMARK Flexibility Score: inf
ROOT
ATOM      1  C   UNL A   1      35.057  23.926  23.900  1.00  0.00     0.117 C 
ENDROOT
BRANCH   1   2
ATOM      2  N   UNL A   1      34.483  25.051  24.597  1.00  0.00    -0.356 N 
ATOM      3  C   UNL A   1      33.695  25.130  25.692  1.00  0.00     0.224 C 
ATOM      4  O   UNL A   1      33.656  26.253  26.211  1.00  0.00    -0.275 OA
ATOM      5  H   UNL A   1      34.706  25.924  24.201  1.00  0.00     0.163 HD
BRANCH   3   6
ATOM      6  C   UNL A   1      32.976  23.930  26.329  1.00  0.00     0.098 C 
ATOM      7  C   UNL A   1      32.768  22.600  25.489  1.00  0.00     0.099 C 
ATOM      8  C   UNL A   1      31.257  22.572  25.291  1.00  0.00     0.025 C 
ATOM      9  C   UNL A   1      31.490  24.347  26.620  1.00  0.00     0.025 C 
ATOM     10  C   UNL A   1      30.776  23.770  24.514  1.00  0.00    -0.027 C 
ATOM     11  C   UNL A   1      30.793  22.995  26.696  1.00  0.00     0.017 C 
ATOM     12  C   UNL A   1      30.848  24.824  25.333  1.00  0.00    -0.027 C 
BRANCH   7  13
ATOM     13  C   UNL A   1      33.388  21.400  26.237  1.00  0.00     0.228 C 
ATOM     14  N   UNL A   1      33.665  20.133  25.851  1.00  0.00    -0.326 N 
ATOM     15  H   UNL A   1      34.245  19.730  26.536  1.00  0.00     0.169 HD
ATOM     16  O   UNL A   1      33.803  21.617  27.392  1.00  0.00    -0.274 OA
BRANCH  14  17
ATOM     17  C   UNL A   1      33.444  19.167  24.847  1.00  0.00     0.044 A 
ATOM     18  C   UNL A   1      33.914  16.869  24.159  1.00  0.00     0.120 A 
ATOM     19  C   UNL A   1      33.174  17.019  22.997  1.00  0.00     0.046 A 
ATOM     20  C   UNL A   1      34.089  17.933  25.051  1.00  0.00     0.072 A 
ATOM     21  C   UNL A   1      32.503  18.211  22.798  1.00  0.00     0.006 A 
ATOM     22  C   UNL A   1      32.605  19.245  23.742  1.00  0.00     0.026 A 
BRANCH  18  23
ATOM     23  O   UNL A   1      34.456  15.645  24.440  1.00  0.00    -0.497 OA
ATOM     24  C   UNL A   1      35.544  15.812  25.358  1.00  0.00     0.278 C 
ENDBRANCH  18  23
ENDBRANCH  14  17
ENDBRANCH   7  13
ENDBRANCH   3   6
ENDBRANCH   1   2
BRANCH   1  25
ATOM     25  C   UNL A   1      36.513  23.679  24.276  1.00  0.00     0.042 C 
BRANCH  25  26
ATOM     26  C   UNL A   1      36.739  23.338  25.748  1.00  0.00     0.118 C 
BRANCH  26  27
ATOM     27  N   UNL A   1      37.883  22.463  25.963  1.00  0.00    -0.352 N 
ATOM     28  C   UNL A   1      39.152  22.741  26.402  1.00  0.00     0.251 C 
ATOM     29  H   UNL A   1      37.717  21.514  25.761  1.00  0.00     0.163 HD
ATOM     30  O   UNL A   1      40.014  21.869  26.349  1.00  0.00    -0.269 OA
BRANCH  28  31
ATOM     31  C   UNL A   1      39.506  24.084  26.915  1.00  0.00     0.039 A 
ATOM     32  C   UNL A   1      39.201  24.386  28.245  1.00  0.00     0.014 A 
ATOM     33  C   UNL A   1      40.089  25.055  26.096  1.00  0.00     0.014 A 
ATOM     34  C   UNL A   1      39.535  25.636  28.769  1.00  0.00     0.010 A 
ATOM     35  C   UNL A   1      40.489  26.275  26.639  1.00  0.00     0.010 A 
ATOM     36  C   UNL A   1      40.214  26.578  27.981  1.00  0.00    -0.014 A 
BRANCH  36  37
ATOM     37  C   UNL A   1      40.659  27.869  28.566  1.00  0.00     0.031 A 
ATOM     38  C   UNL A   1      42.097  28.088  28.947  1.00  0.00     0.074 A 
ATOM     39  C   UNL A   1      39.748  28.833  28.796  1.00  0.00     0.049 A 
ATOM     40  N   UNL A   1      42.662  29.152  29.461  1.00  0.00    -0.248 NA
ATOM     41  C   UNL A   1      43.015  26.957  28.748  1.00  0.00     0.031 C 
ATOM     42  C   UNL A   1      38.311  28.714  28.536  1.00  0.00     0.029 A 
ATOM     43  N   UNL A   1      39.889  30.101  29.302  1.00  0.00    -0.354 N 
ATOM     44  C   UNL A   1      43.995  28.815  29.657  1.00  0.00     0.074 A 
ATOM     45  C   UNL A   1      44.144  27.434  29.254  1.00  0.00     0.031 C 
ATOM     46  C   UNL A   1      37.709  29.869  28.857  1.00  0.00     0.029 A 
ATOM     47  C   UNL A   1      38.710  30.800  29.371  1.00  0.00     0.049 A 
ATOM     48  H   UNL A   1      40.755  30.473  29.588  1.00  0.00     0.167 HD
ATOM     49  C   UNL A   1      45.007  29.596  30.110  1.00  0.00     0.037 A 
ATOM     50  C   UNL A   1      38.462  32.052  29.796  1.00  0.00     0.037 A 
ATOM     51  C   UNL A   1      44.858  30.978  30.488  1.00  0.00     0.049 A 
ATOM     52  C   UNL A   1      39.607  32.908  30.264  1.00  0.00     0.074 A 
ATOM     53  C   UNL A   1      45.834  31.875  30.884  1.00  0.00     0.029 A 
ATOM     54  N   UNL A   1      43.651  31.662  30.524  1.00  0.00    -0.354 N 
ATOM     55  N   UNL A   1      40.879  32.607  30.358  1.00  0.00    -0.248 NA
ATOM     56  C   UNL A   1      39.281  34.280  30.672  1.00  0.00     0.031 C 
ATOM     57  C   UNL A   1      45.213  33.088  31.205  1.00  0.00     0.029 A 
ATOM     58  C   UNL A   1      43.855  32.962  30.960  1.00  0.00     0.049 A 
ATOM     59  H   UNL A   1      42.778  31.280  30.275  1.00  0.00     0.167 HD
ATOM     60  C   UNL A   1      41.508  33.755  30.821  1.00  0.00     0.074 A 
ATOM     61  C   UNL A   1      40.480  34.765  30.960  1.00  0.00     0.031 C 
ATOM     62  C   UNL A   1      42.819  33.952  31.109  1.00  0.00     0.037 A 
BRANCH  49  63
ATOM     63  C   UNL A   1      46.368  28.971  30.221  1.00  0.00     0.064 A 
ATOM     64  C   UNL A   1      47.273  28.982  29.149  1.00  0.00     0.173 A 
ATOM     65  C   UNL A   1      46.787  28.387  31.426  1.00  0.00     0.173 A 
ATOM     66  F   UNL A   1      46.920  29.519  27.972  1.00  0.00    -0.203 F 
ATOM     67  C   UNL A   1      48.535  28.403  29.269  1.00  0.00     0.198 A 
ATOM     68  C   UNL A   1      48.060  27.837  31.552  1.00  0.00     0.198 A 
ATOM     69  F   UNL A   1      45.965  28.356  32.485  1.00  0.00    -0.203 F 
ATOM     70  F   UNL A   1      49.363  28.381  28.215  1.00  0.00    -0.200 F 
ATOM     71  C   UNL A   1      48.929  27.837  30.472  1.00  0.00     0.200 A 
ATOM     72  F   UNL A   1      48.445  27.302  32.719  1.00  0.00    -0.200 F 
ATOM     73  F   UNL A   1      50.146  27.286  30.587  1.00  0.00    -0.200 F 
ENDBRANCH  49  63
BRANCH  50  74
ATOM     74  C   UNL A   1      37.075  32.581  29.763  1.00  0.00     0.064 A 
ATOM     75  C   UNL A   1      36.213  32.413  30.855  1.00  0.00     0.173 A 
ATOM     76  C   UNL A   1      36.587  33.275  28.646  1.00  0.00     0.173 A 
ATOM     77  F   UNL A   1      36.628  31.739  31.938  1.00  0.00    -0.203 F 
ATOM     78  C   UNL A   1      34.909  32.902  30.825  1.00  0.00     0.198 A 
ATOM     79  C   UNL A   1      35.291  33.789  28.628  1.00  0.00     0.198 A 
ATOM     80  F   UNL A   1      37.375  33.470  27.579  1.00  0.00    -0.203 F 
ATOM     81  F   UNL A   1      34.092  32.690  31.866  1.00  0.00    -0.200 F 
ATOM     82  C   UNL A   1      34.451  33.595  29.714  1.00  0.00     0.200 A 
ATOM     83  F   UNL A   1      34.859  34.471  27.559  1.00  0.00    -0.200 F 
ATOM     84  F   UNL A   1      33.200  34.072  29.689  1.00  0.00    -0.200 F 
ENDBRANCH  50  74
BRANCH  62  85
ATOM     85  C   UNL A   1      43.208  35.319  31.594  1.00  0.00     0.064 A 
ATOM     86  C   UNL A   1      43.657  36.311  30.709  1.00  0.00     0.173 A 
ATOM     87  C   UNL A   1      43.124  35.643  32.956  1.00  0.00     0.173 A 
ATOM     88  F   UNL A   1      43.770  36.045  29.399  1.00  0.00    -0.203 F 
ATOM     89  C   UNL A   1      44.044  37.565  31.176  1.00  0.00     0.198 A 
ATOM     90  C   UNL A   1      43.482  36.908  33.415  1.00  0.00     0.198 A 
ATOM     91  F   UNL A   1      42.695  34.734  33.844  1.00  0.00    -0.203 F 
ATOM     92  F   UNL A   1      44.528  38.475  30.320  1.00  0.00    -0.200 F 
ATOM     93  C   UNL A   1      43.952  37.863  32.526  1.00  0.00     0.200 A 
ATOM     94  F   UNL A   1      43.381  37.200  34.719  1.00  0.00    -0.200 F 
ATOM     95  F   UNL A   1      44.327  39.069  32.974  1.00  0.00    -0.200 F 
ENDBRANCH  62  85
ENDBRANCH  36  37
ENDBRANCH  28  31
ENDBRANCH  26  27
ENDBRANCH  25  26
ENDBRANCH   1  25
TORSDOF 13
ENDMDL
