MODEL 1
REMARK VINA RESULT:     -13.6      0.000      0.000
REMARK SMILES CC(/C=C1\SC(=S)N(CC(=O)NCC(=O)NCCCNC(=O)c2ccc(-c3c4nc(c(-c5c(F)c(F)c(F)c(F)c5F)c5ccc([nH]5)c(-c5c(F)c(F)c(F)c(F)c5F)c5nc(c(-c6c(F)c(F)c(F)c(F)c6F)c6ccc3[nH]6)C=C5)C=C4)cc2)C1=O)=C\c1ccccc1
REMARK SMILES IDX 14 1 15 2 16 3 13 5 12 6 10 7 11 8 9 10 8 11 3 12 4 13 5 14
REMARK SMILES IDX 86 15 6 16 87 17 7 18 2 19 1 20 88 21 89 22 90 23 94 24
REMARK SMILES IDX 91 25 93 26 92 27 17 28 18 29 19 30 20 31 21 32 22 34 23 35
REMARK SMILES IDX 24 36 85 37 25 38 84 39 26 40 27 41 28 42 78 43 29 44 83 45
REMARK SMILES IDX 77 46 79 47 30 48 82 49 76 50 75 51 31 53 63 54 43 55 62 56
REMARK SMILES IDX 44 57 47 58 61 59 80 60 45 61 46 62 60 64 81 65 48 66 32 67
REMARK SMILES IDX 33 68 41 69 34 70 35 71 39 72 42 73 36 74 37 75 40 76 38 77
REMARK SMILES IDX 64 78 65 79 73 80 66 81 67 82 71 83 74 84 68 85 69 86 72 87
REMARK SMILES IDX 70 88 49 89 50 90 58 91 51 92 52 93 56 94 59 95 53 96 54 97
REMARK SMILES IDX 57 98 55 99
REMARK H PARENT 16 4 12 9 20 33 79 52 47 63
REMARK Flexibility Score: inf
ROOT
ATOM      1  C   UNL A   1      32.989  19.936  25.391  1.00  0.00     0.239 C 
ATOM      2  O   UNL A   1      32.507  18.820  25.590  1.00  0.00    -0.273 OA
ATOM      3  N   UNL A   1      34.352  20.046  25.343  1.00  0.00    -0.355 N 
ATOM      4  H   UNL A   1      34.868  19.301  25.727  1.00  0.00     0.163 HD
ENDROOT
BRANCH   1   5
ATOM      5  C   UNL A   1      32.103  21.144  25.035  1.00  0.00     0.216 C 
BRANCH   5   6
ATOM      6  N   UNL A   1      31.695  21.918  26.199  1.00  0.00    -0.345 N 
ATOM      7  C   UNL A   1      31.937  23.196  26.593  1.00  0.00     0.240 C 
ATOM      8  O   UNL A   1      31.320  23.573  27.595  1.00  0.00    -0.273 OA
ATOM      9  H   UNL A   1      31.129  21.413  26.827  1.00  0.00     0.164 HD
BRANCH   7  10
ATOM     10  C   UNL A   1      32.784  24.202  25.788  1.00  0.00     0.227 C 
BRANCH  10  11
ATOM     11  N   UNL A   1      32.115  25.415  25.300  1.00  0.00    -0.283 N 
ATOM     12  C   UNL A   1      29.250  26.724  23.498  1.00  0.00     0.024 C 
ATOM     13  C   UNL A   1      30.423  26.603  24.140  1.00  0.00     0.080 C 
ATOM     14  S   UNL A   1      31.390  27.844  24.821  1.00  0.00    -0.054 SA
ATOM     15  C   UNL A   1      31.019  25.271  24.462  1.00  0.00     0.266 C 
ATOM     16  C   UNL A   1      32.558  26.706  25.487  1.00  0.00     0.148 C 
ATOM     17  O   UNL A   1      30.545  24.208  24.087  1.00  0.00    -0.268 OA
ATOM     18  S   UNL A   1      33.964  27.221  26.223  1.00  0.00    -0.052 S 
BRANCH  12  19
ATOM     19  C   UNL A   1      28.486  27.931  23.173  1.00  0.00    -0.049 C 
ATOM     20  C   UNL A   1      27.058  27.976  23.634  1.00  0.00     0.044 C 
ATOM     21  C   UNL A   1      29.112  28.965  22.568  1.00  0.00     0.011 C 
BRANCH  21  22
ATOM     22  C   UNL A   1      28.662  30.352  22.340  1.00  0.00    -0.025 A 
ATOM     23  C   UNL A   1      28.313  30.749  21.040  1.00  0.00     0.008 A 
ATOM     24  C   UNL A   1      28.742  31.335  23.334  1.00  0.00     0.008 A 
ATOM     25  C   UNL A   1      28.002  32.083  20.756  1.00  0.00     0.001 A 
ATOM     26  C   UNL A   1      28.420  32.666  23.055  1.00  0.00     0.001 A 
ATOM     27  C   UNL A   1      28.044  33.039  21.767  1.00  0.00     0.000 A 
ENDBRANCH  21  22
ENDBRANCH  12  19
ENDBRANCH  10  11
ENDBRANCH   7  10
ENDBRANCH   5   6
ENDBRANCH   1   5
BRANCH   3  28
ATOM     28  C   UNL A   1      35.115  21.136  24.790  1.00  0.00     0.117 C 
BRANCH  28  29
ATOM     29  C   UNL A   1      36.200  21.666  25.719  1.00  0.00     0.042 C 
BRANCH  29  30
ATOM     30  C   UNL A   1      37.554  21.752  25.029  1.00  0.00     0.118 C 
BRANCH  30  31
ATOM     31  N   UNL A   1      38.521  20.840  25.628  1.00  0.00    -0.352 N 
ATOM     32  C   UNL A   1      39.645  21.062  26.376  1.00  0.00     0.251 C 
ATOM     33  H   UNL A   1      38.329  19.887  25.465  1.00  0.00     0.163 HD
ATOM     34  O   UNL A   1      40.410  20.135  26.623  1.00  0.00    -0.269 OA
BRANCH  32  35
ATOM     35  C   UNL A   1      39.994  22.405  26.842  1.00  0.00     0.039 A 
ATOM     36  C   UNL A   1      41.078  22.517  27.720  1.00  0.00     0.014 A 
ATOM     37  C   UNL A   1      39.296  23.533  26.416  1.00  0.00     0.014 A 
ATOM     38  C   UNL A   1      41.531  23.773  28.086  1.00  0.00     0.010 A 
ATOM     39  C   UNL A   1      39.814  24.784  26.690  1.00  0.00     0.010 A 
ATOM     40  C   UNL A   1      40.940  24.906  27.514  1.00  0.00    -0.014 A 
BRANCH  40  41
ATOM     41  C   UNL A   1      41.510  26.243  27.736  1.00  0.00     0.031 A 
ATOM     42  C   UNL A   1      42.886  26.539  27.233  1.00  0.00     0.074 A 
ATOM     43  C   UNL A   1      40.807  27.121  28.473  1.00  0.00     0.049 A 
ATOM     44  N   UNL A   1      43.628  27.594  27.435  1.00  0.00    -0.248 NA
ATOM     45  C   UNL A   1      43.535  25.487  26.432  1.00  0.00     0.031 C 
ATOM     46  C   UNL A   1      39.480  26.872  29.048  1.00  0.00     0.029 A 
ATOM     47  N   UNL A   1      41.109  28.390  28.878  1.00  0.00    -0.354 N 
ATOM     48  C   UNL A   1      44.836  27.321  26.811  1.00  0.00     0.074 A 
ATOM     49  C   UNL A   1      44.752  25.983  26.273  1.00  0.00     0.031 C 
ATOM     50  C   UNL A   1      39.070  27.968  29.704  1.00  0.00     0.029 A 
ATOM     51  C   UNL A   1      40.123  28.972  29.637  1.00  0.00     0.049 A 
ATOM     52  H   UNL A   1      41.952  28.844  28.649  1.00  0.00     0.167 HD
ATOM     53  C   UNL A   1      45.906  28.138  26.685  1.00  0.00     0.037 A 
ATOM     54  C   UNL A   1      40.090  30.185  30.215  1.00  0.00     0.037 A 
ATOM     55  C   UNL A   1      45.938  29.476  27.209  1.00  0.00     0.049 A 
ATOM     56  C   UNL A   1      41.282  31.081  30.033  1.00  0.00     0.074 A 
ATOM     57  C   UNL A   1      46.939  30.423  27.110  1.00  0.00     0.029 A 
ATOM     58  N   UNL A   1      44.903  30.058  27.933  1.00  0.00    -0.354 N 
ATOM     59  N   UNL A   1      42.406  30.841  29.397  1.00  0.00    -0.248 NA
ATOM     60  C   UNL A   1      41.204  32.414  30.638  1.00  0.00     0.031 C 
ATOM     61  C   UNL A   1      46.524  31.564  27.803  1.00  0.00     0.029 A 
ATOM     62  C   UNL A   1      45.245  31.349  28.296  1.00  0.00     0.049 A 
ATOM     63  H   UNL A   1      44.051  29.616  28.156  1.00  0.00     0.167 HD
ATOM     64  C   UNL A   1      43.160  31.999  29.505  1.00  0.00     0.074 A 
ATOM     65  C   UNL A   1      42.356  32.946  30.252  1.00  0.00     0.031 C 
ATOM     66  C   UNL A   1      44.405  32.259  29.035  1.00  0.00     0.037 A 
BRANCH  53  67
ATOM     67  C   UNL A   1      47.105  27.600  25.960  1.00  0.00     0.064 A 
ATOM     68  C   UNL A   1      48.176  27.006  26.647  1.00  0.00     0.173 A 
ATOM     69  C   UNL A   1      47.190  27.680  24.562  1.00  0.00     0.173 A 
ATOM     70  F   UNL A   1      48.157  26.923  27.986  1.00  0.00    -0.203 F 
ATOM     71  C   UNL A   1      49.302  26.549  25.965  1.00  0.00     0.198 A 
ATOM     72  C   UNL A   1      48.302  27.193  23.882  1.00  0.00     0.198 A 
ATOM     73  F   UNL A   1      46.197  28.240  23.855  1.00  0.00    -0.203 F 
ATOM     74  F   UNL A   1      50.339  26.046  26.649  1.00  0.00    -0.200 F 
ATOM     75  C   UNL A   1      49.361  26.636  24.584  1.00  0.00     0.200 A 
ATOM     76  F   UNL A   1      48.355  27.270  22.544  1.00  0.00    -0.200 F 
ATOM     77  F   UNL A   1      50.444  26.196  23.929  1.00  0.00    -0.200 F 
ENDBRANCH  53  67
BRANCH  54  78
ATOM     78  C   UNL A   1      38.890  30.617  30.974  1.00  0.00     0.064 A 
ATOM     79  C   UNL A   1      37.780  31.158  30.311  1.00  0.00     0.173 A 
ATOM     80  C   UNL A   1      38.809  30.476  32.367  1.00  0.00     0.173 A 
ATOM     81  F   UNL A   1      37.810  31.322  28.980  1.00  0.00    -0.203 F 
ATOM     82  C   UNL A   1      36.646  31.563  31.012  1.00  0.00     0.198 A 
ATOM     83  C   UNL A   1      37.663  30.855  33.065  1.00  0.00     0.198 A 
ATOM     84  F   UNL A   1      39.837  29.950  33.049  1.00  0.00    -0.203 F 
ATOM     85  F   UNL A   1      35.616  32.116  30.356  1.00  0.00    -0.200 F 
ATOM     86  C   UNL A   1      36.586  31.406  32.389  1.00  0.00     0.200 A 
ATOM     87  F   UNL A   1      37.604  30.684  34.393  1.00  0.00    -0.200 F 
ATOM     88  F   UNL A   1      35.494  31.791  33.062  1.00  0.00    -0.200 F 
ENDBRANCH  54  78
BRANCH  66  89
ATOM     89  C   UNL A   1      44.947  33.631  29.292  1.00  0.00     0.064 A 
ATOM     90  C   UNL A   1      44.703  34.693  28.411  1.00  0.00     0.173 A 
ATOM     91  C   UNL A   1      45.683  33.892  30.457  1.00  0.00     0.173 A 
ATOM     92  F   UNL A   1      44.018  34.485  27.276  1.00  0.00    -0.203 F 
ATOM     93  C   UNL A   1      45.200  35.965  28.675  1.00  0.00     0.198 A 
ATOM     94  C   UNL A   1      46.151  35.171  30.733  1.00  0.00     0.198 A 
ATOM     95  F   UNL A   1      45.935  32.907  31.333  1.00  0.00    -0.203 F 
ATOM     96  F   UNL A   1      44.997  36.957  27.796  1.00  0.00    -0.200 F 
ATOM     97  C   UNL A   1      45.915  36.205  29.839  1.00  0.00     0.200 A 
ATOM     98  F   UNL A   1      46.830  35.405  31.865  1.00  0.00    -0.200 F 
ATOM     99  F   UNL A   1      46.386  37.432  30.096  1.00  0.00    -0.200 F 
ENDBRANCH  66  89
ENDBRANCH  40  41
ENDBRANCH  32  35
ENDBRANCH  30  31
ENDBRANCH  29  30
ENDBRANCH  28  29
ENDBRANCH   3  28
TORSDOF 15
ENDMDL
MODEL 2
REMARK VINA RESULT:     -13.3      4.784     10.780
REMARK SMILES CC(/C=C1\SC(=S)N(CC(=O)NCC(=O)NCCCNC(=O)c2ccc(-c3c4nc(c(-c5c(F)c(F)c(F)c(F)c5F)c5ccc([nH]5)c(-c5c(F)c(F)c(F)c(F)c5F)c5nc(c(-c6c(F)c(F)c(F)c(F)c6F)c6ccc3[nH]6)C=C5)C=C4)cc2)C1=O)=C\c1ccccc1
REMARK SMILES IDX 14 1 15 2 16 3 13 5 12 6 10 7 11 8 9 10 8 11 3 12 4 13 5 14
REMARK SMILES IDX 86 15 6 16 87 17 7 18 2 19 1 20 88 21 89 22 90 23 94 24
REMARK SMILES IDX 91 25 93 26 92 27 17 28 18 29 19 30 20 31 21 32 22 34 23 35
REMARK SMILES IDX 24 36 85 37 25 38 84 39 26 40 27 41 28 42 78 43 29 44 83 45
REMARK SMILES IDX 77 46 79 47 30 48 82 49 76 50 75 51 31 53 63 54 43 55 62 56
REMARK SMILES IDX 44 57 47 58 61 59 80 60 45 61 46 62 60 64 81 65 48 66 32 67
REMARK SMILES IDX 33 68 41 69 34 70 35 71 39 72 42 73 36 74 37 75 40 76 38 77
REMARK SMILES IDX 64 78 65 79 73 80 66 81 67 82 71 83 74 84 68 85 69 86 72 87
REMARK SMILES IDX 70 88 49 89 50 90 58 91 51 92 52 93 56 94 59 95 53 96 54 97
REMARK SMILES IDX 57 98 55 99
REMARK H PARENT 16 4 12 9 20 33 79 52 47 63
REMARK Flexibility Score: inf
ROOT
ATOM      1  C   UNL A   1      32.118  28.445  27.201  1.00  0.00     0.239 C 
ATOM      2  O   UNL A   1      31.419  27.810  27.992  1.00  0.00    -0.273 OA
ATOM      3  N   UNL A   1      32.735  29.578  27.656  1.00  0.00    -0.355 N 
ATOM      4  H   UNL A   1      32.383  29.966  28.490  1.00  0.00     0.163 HD
ENDROOT
BRANCH   1   5
ATOM      5  C   UNL A   1      32.439  27.903  25.795  1.00  0.00     0.216 C 
BRANCH   5   6
ATOM      6  N   UNL A   1      31.557  28.430  24.763  1.00  0.00    -0.345 N 
ATOM      7  C   UNL A   1      30.486  27.911  24.106  1.00  0.00     0.240 C 
ATOM      8  O   UNL A   1      29.882  28.694  23.364  1.00  0.00    -0.273 OA
ATOM      9  H   UNL A   1      31.782  29.348  24.486  1.00  0.00     0.164 HD
BRANCH   7  10
ATOM     10  C   UNL A   1      29.921  26.499  24.357  1.00  0.00     0.227 C 
BRANCH  10  11
ATOM     11  N   UNL A   1      30.820  25.359  24.138  1.00  0.00    -0.283 N 
ATOM     12  C   UNL A   1      32.166  22.303  25.557  1.00  0.00     0.024 C 
ATOM     13  C   UNL A   1      31.932  23.362  24.766  1.00  0.00     0.080 C 
ATOM     14  S   UNL A   1      32.413  23.594  23.137  1.00  0.00    -0.054 SA
ATOM     15  C   UNL A   1      31.068  24.502  25.199  1.00  0.00     0.266 C 
ATOM     16  C   UNL A   1      31.561  25.128  22.998  1.00  0.00     0.148 C 
ATOM     17  O   UNL A   1      30.596  24.605  26.323  1.00  0.00    -0.268 OA
ATOM     18  S   UNL A   1      31.695  26.088  21.640  1.00  0.00    -0.052 S 
BRANCH  12  19
ATOM     19  C   UNL A   1      32.912  21.074  25.272  1.00  0.00    -0.049 C 
ATOM     20  C   UNL A   1      34.363  21.056  25.657  1.00  0.00     0.044 C 
ATOM     21  C   UNL A   1      32.255  20.004  24.773  1.00  0.00     0.011 C 
BRANCH  21  22
ATOM     22  C   UNL A   1      32.693  18.603  24.614  1.00  0.00    -0.025 A 
ATOM     23  C   UNL A   1      32.642  17.744  25.723  1.00  0.00     0.008 A 
ATOM     24  C   UNL A   1      33.327  18.147  23.452  1.00  0.00     0.008 A 
ATOM     25  C   UNL A   1      33.163  16.448  25.652  1.00  0.00     0.001 A 
ATOM     26  C   UNL A   1      33.837  16.849  23.374  1.00  0.00     0.001 A 
ATOM     27  C   UNL A   1      33.750  15.997  24.473  1.00  0.00     0.000 A 
ENDBRANCH  21  22
ENDBRANCH  12  19
ENDBRANCH  10  11
ENDBRANCH   7  10
ENDBRANCH   5   6
ENDBRANCH   1   5
BRANCH   3  28
ATOM     28  C   UNL A   1      33.845  30.266  27.048  1.00  0.00     0.117 C 
BRANCH  28  29
ATOM     29  C   UNL A   1      33.843  31.771  27.281  1.00  0.00     0.042 C 
BRANCH  29  30
ATOM     30  C   UNL A   1      32.448  32.305  27.576  1.00  0.00     0.118 C 
BRANCH  30  31
ATOM     31  N   UNL A   1      32.440  33.759  27.681  1.00  0.00    -0.352 N 
ATOM     32  C   UNL A   1      33.186  34.624  28.435  1.00  0.00     0.251 C 
ATOM     33  H   UNL A   1      31.776  34.200  27.103  1.00  0.00     0.163 HD
ATOM     34  O   UNL A   1      32.877  35.810  28.491  1.00  0.00    -0.269 OA
BRANCH  32  35
ATOM     35  C   UNL A   1      34.319  34.153  29.233  1.00  0.00     0.039 A 
ATOM     36  C   UNL A   1      34.030  33.360  30.349  1.00  0.00     0.014 A 
ATOM     37  C   UNL A   1      35.634  34.457  28.890  1.00  0.00     0.014 A 
ATOM     38  C   UNL A   1      35.068  32.781  31.060  1.00  0.00     0.010 A 
ATOM     39  C   UNL A   1      36.664  33.793  29.528  1.00  0.00     0.010 A 
ATOM     40  C   UNL A   1      36.382  32.943  30.605  1.00  0.00    -0.014 A 
BRANCH  40  41
ATOM     41  C   UNL A   1      37.488  32.198  31.223  1.00  0.00     0.031 A 
ATOM     42  C   UNL A   1      37.945  32.580  32.594  1.00  0.00     0.074 A 
ATOM     43  C   UNL A   1      38.113  31.260  30.488  1.00  0.00     0.049 A 
ATOM     44  N   UNL A   1      38.979  32.153  33.266  1.00  0.00    -0.248 NA
ATOM     45  C   UNL A   1      37.160  33.617  33.284  1.00  0.00     0.031 C 
ATOM     46  C   UNL A   1      37.755  30.881  29.118  1.00  0.00     0.029 A 
ATOM     47  N   UNL A   1      39.186  30.466  30.781  1.00  0.00    -0.354 N 
ATOM     48  C   UNL A   1      38.984  32.886  34.442  1.00  0.00     0.074 A 
ATOM     49  C   UNL A   1      37.887  33.824  34.371  1.00  0.00     0.031 C 
ATOM     50  C   UNL A   1      38.574  29.904  28.701  1.00  0.00     0.029 A 
ATOM     51  C   UNL A   1      39.541  29.626  29.754  1.00  0.00     0.049 A 
ATOM     52  H   UNL A   1      39.660  30.494  31.644  1.00  0.00     0.167 HD
ATOM     53  C   UNL A   1      39.823  32.758  35.495  1.00  0.00     0.037 A 
ATOM     54  C   UNL A   1      40.547  28.737  29.683  1.00  0.00     0.037 A 
ATOM     55  C   UNL A   1      40.885  31.790  35.540  1.00  0.00     0.049 A 
ATOM     56  C   UNL A   1      41.445  28.598  30.879  1.00  0.00     0.074 A 
ATOM     57  C   UNL A   1      41.775  31.525  36.562  1.00  0.00     0.029 A 
ATOM     58  N   UNL A   1      41.191  30.916  34.502  1.00  0.00    -0.354 N 
ATOM     59  N   UNL A   1      41.417  29.258  32.014  1.00  0.00    -0.248 NA
ATOM     60  C   UNL A   1      42.509  27.592  30.792  1.00  0.00     0.031 C 
ATOM     61  C   UNL A   1      42.641  30.516  36.130  1.00  0.00     0.029 A 
ATOM     62  C   UNL A   1      42.264  30.118  34.856  1.00  0.00     0.049 A 
ATOM     63  H   UNL A   1      40.714  30.873  33.641  1.00  0.00     0.167 HD
ATOM     64  C   UNL A   1      42.440  28.733  32.787  1.00  0.00     0.074 A 
ATOM     65  C   UNL A   1      43.059  27.687  31.995  1.00  0.00     0.031 C 
ATOM     66  C   UNL A   1      42.840  29.082  34.035  1.00  0.00     0.037 A 
BRANCH  53  67
ATOM     67  C   UNL A   1      39.618  33.684  36.659  1.00  0.00     0.064 A 
ATOM     68  C   UNL A   1      40.236  34.943  36.717  1.00  0.00     0.173 A 
ATOM     69  C   UNL A   1      38.797  33.308  37.733  1.00  0.00     0.173 A 
ATOM     70  F   UNL A   1      41.049  35.344  35.727  1.00  0.00    -0.203 F 
ATOM     71  C   UNL A   1      40.071  35.775  37.823  1.00  0.00     0.198 A 
ATOM     72  C   UNL A   1      38.608  34.156  38.822  1.00  0.00     0.198 A 
ATOM     73  F   UNL A   1      38.184  32.115  37.732  1.00  0.00    -0.203 F 
ATOM     74  F   UNL A   1      40.723  36.943  37.884  1.00  0.00    -0.200 F 
ATOM     75  C   UNL A   1      39.252  35.383  38.870  1.00  0.00     0.200 A 
ATOM     76  F   UNL A   1      37.810  33.780  39.831  1.00  0.00    -0.200 F 
ATOM     77  F   UNL A   1      39.094  36.184  39.933  1.00  0.00    -0.200 F 
ENDBRANCH  53  67
BRANCH  54  78
ATOM     78  C   UNL A   1      40.722  27.906  28.466  1.00  0.00     0.064 A 
ATOM     79  C   UNL A   1      41.516  28.353  27.400  1.00  0.00     0.173 A 
ATOM     80  C   UNL A   1      40.130  26.640  28.348  1.00  0.00     0.173 A 
ATOM     81  F   UNL A   1      42.097  29.561  27.460  1.00  0.00    -0.203 F 
ATOM     82  C   UNL A   1      41.691  27.579  26.255  1.00  0.00     0.198 A 
ATOM     83  C   UNL A   1      40.329  25.853  27.214  1.00  0.00     0.198 A 
ATOM     84  F   UNL A   1      39.374  26.157  29.344  1.00  0.00    -0.203 F 
ATOM     85  F   UNL A   1      42.421  28.051  25.235  1.00  0.00    -0.200 F 
ATOM     86  C   UNL A   1      41.102  26.327  26.165  1.00  0.00     0.200 A 
ATOM     87  F   UNL A   1      39.773  24.637  27.139  1.00  0.00    -0.200 F 
ATOM     88  F   UNL A   1      41.275  25.581  25.066  1.00  0.00    -0.200 F 
ENDBRANCH  54  78
BRANCH  66  89
ATOM     89  C   UNL A   1      43.975  28.300  34.619  1.00  0.00     0.064 A 
ATOM     90  C   UNL A   1      43.759  27.103  35.316  1.00  0.00     0.173 A 
ATOM     91  C   UNL A   1      45.297  28.735  34.443  1.00  0.00     0.173 A 
ATOM     92  F   UNL A   1      42.511  26.658  35.523  1.00  0.00    -0.203 F 
ATOM     93  C   UNL A   1      44.828  26.380  35.838  1.00  0.00     0.198 A 
ATOM     94  C   UNL A   1      46.363  27.994  34.938  1.00  0.00     0.198 A 
ATOM     95  F   UNL A   1      45.551  29.871  33.776  1.00  0.00    -0.203 F 
ATOM     96  F   UNL A   1      44.598  25.264  36.542  1.00  0.00    -0.200 F 
ATOM     97  C   UNL A   1      46.128  26.822  35.641  1.00  0.00     0.200 A 
ATOM     98  F   UNL A   1      47.620  28.414  34.735  1.00  0.00    -0.200 F 
ATOM     99  F   UNL A   1      47.156  26.121  36.137  1.00  0.00    -0.200 F 
ENDBRANCH  66  89
ENDBRANCH  40  41
ENDBRANCH  32  35
ENDBRANCH  30  31
ENDBRANCH  29  30
ENDBRANCH  28  29
ENDBRANCH   3  28
TORSDOF 15
ENDMDL
MODEL 3
REMARK VINA RESULT:     -13.1      5.933     11.796
REMARK SMILES CC(/C=C1\SC(=S)N(CC(=O)NCC(=O)NCCCNC(=O)c2ccc(-c3c4nc(c(-c5c(F)c(F)c(F)c(F)c5F)c5ccc([nH]5)c(-c5c(F)c(F)c(F)c(F)c5F)c5nc(c(-c6c(F)c(F)c(F)c(F)c6F)c6ccc3[nH]6)C=C5)C=C4)cc2)C1=O)=C\c1ccccc1
REMARK SMILES IDX 14 1 15 2 16 3 13 5 12 6 10 7 11 8 9 10 8 11 3 12 4 13 5 14
REMARK SMILES IDX 86 15 6 16 87 17 7 18 2 19 1 20 88 21 89 22 90 23 94 24
REMARK SMILES IDX 91 25 93 26 92 27 17 28 18 29 19 30 20 31 21 32 22 34 23 35
REMARK SMILES IDX 24 36 85 37 25 38 84 39 26 40 27 41 28 42 78 43 29 44 83 45
REMARK SMILES IDX 77 46 79 47 30 48 82 49 76 50 75 51 31 53 63 54 43 55 62 56
REMARK SMILES IDX 44 57 47 58 61 59 80 60 45 61 46 62 60 64 81 65 48 66 32 67
REMARK SMILES IDX 33 68 41 69 34 70 35 71 39 72 42 73 36 74 37 75 40 76 38 77
REMARK SMILES IDX 64 78 65 79 73 80 66 81 67 82 71 83 74 84 68 85 69 86 72 87
REMARK SMILES IDX 70 88 49 89 50 90 58 91 51 92 52 93 56 94 59 95 53 96 54 97
REMARK SMILES IDX 57 98 55 99
REMARK H PARENT 16 4 12 9 20 33 79 52 47 63
REMARK Flexibility Score: inf
ROOT
ATOM      1  C   UNL A   1      34.301  35.402  32.358  1.00  0.00     0.239 C 
ATOM      2  O   UNL A   1      34.641  36.379  33.028  1.00  0.00    -0.273 OA
ATOM      3  N   UNL A   1      34.317  35.523  30.995  1.00  0.00    -0.355 N 
ATOM      4  H   UNL A   1      34.338  36.438  30.635  1.00  0.00     0.163 HD
ENDROOT
BRANCH   1   5
ATOM      5  C   UNL A   1      34.033  34.033  33.009  1.00  0.00     0.216 C 
BRANCH   5   6
ATOM      6  N   UNL A   1      34.629  33.901  34.332  1.00  0.00    -0.345 N 
ATOM      7  C   UNL A   1      35.915  33.827  34.765  1.00  0.00     0.240 C 
ATOM      8  O   UNL A   1      36.068  33.846  35.992  1.00  0.00    -0.273 OA
ATOM      9  H   UNL A   1      33.966  33.857  35.059  1.00  0.00     0.164 HD
BRANCH   7  10
ATOM     10  C   UNL A   1      37.143  33.883  33.835  1.00  0.00     0.227 C 
BRANCH  10  11
ATOM     11  N   UNL A   1      38.343  33.145  34.251  1.00  0.00    -0.283 N 
ATOM     12  C   UNL A   1      40.014  29.924  34.255  1.00  0.00     0.024 C 
ATOM     13  C   UNL A   1      39.684  31.204  34.487  1.00  0.00     0.080 C 
ATOM     14  S   UNL A   1      40.671  32.454  35.122  1.00  0.00    -0.054 SA
ATOM     15  C   UNL A   1      38.358  31.767  34.091  1.00  0.00     0.266 C 
ATOM     16  C   UNL A   1      39.423  33.679  34.920  1.00  0.00     0.148 C 
ATOM     17  O   UNL A   1      37.449  31.096  33.623  1.00  0.00    -0.268 OA
ATOM     18  S   UNL A   1      39.620  35.235  35.491  1.00  0.00    -0.052 S 
BRANCH  12  19
ATOM     19  C   UNL A   1      41.281  29.229  34.500  1.00  0.00    -0.049 C 
ATOM     20  C   UNL A   1      41.531  28.747  35.899  1.00  0.00     0.044 C 
ATOM     21  C   UNL A   1      42.106  28.977  33.460  1.00  0.00     0.011 C 
BRANCH  21  22
ATOM     22  C   UNL A   1      43.302  28.114  33.378  1.00  0.00    -0.025 A 
ATOM     23  C   UNL A   1      44.501  28.557  33.955  1.00  0.00     0.008 A 
ATOM     24  C   UNL A   1      43.333  26.957  32.590  1.00  0.00     0.008 A 
ATOM     25  C   UNL A   1      45.686  27.832  33.794  1.00  0.00     0.001 A 
ATOM     26  C   UNL A   1      44.513  26.224  32.438  1.00  0.00     0.001 A 
ATOM     27  C   UNL A   1      45.689  26.659  33.044  1.00  0.00     0.000 A 
ENDBRANCH  21  22
ENDBRANCH  12  19
ENDBRANCH  10  11
ENDBRANCH   7  10
ENDBRANCH   5   6
ENDBRANCH   1   5
BRANCH   3  28
ATOM     28  C   UNL A   1      34.307  34.454  30.030  1.00  0.00     0.117 C 
BRANCH  28  29
ATOM     29  C   UNL A   1      35.691  33.921  29.683  1.00  0.00     0.042 C 
BRANCH  29  30
ATOM     30  C   UNL A   1      35.870  32.469  30.104  1.00  0.00     0.118 C 
BRANCH  30  31
ATOM     31  N   UNL A   1      35.049  31.571  29.301  1.00  0.00    -0.352 N 
ATOM     32  C   UNL A   1      35.348  30.420  28.624  1.00  0.00     0.251 C 
ATOM     33  H   UNL A   1      34.104  31.843  29.233  1.00  0.00     0.163 HD
ATOM     34  O   UNL A   1      34.523  29.927  27.862  1.00  0.00    -0.269 OA
BRANCH  32  35
ATOM     35  C   UNL A   1      36.664  29.790  28.742  1.00  0.00     0.039 A 
ATOM     36  C   UNL A   1      37.529  29.905  27.648  1.00  0.00     0.014 A 
ATOM     37  C   UNL A   1      37.055  29.122  29.899  1.00  0.00     0.014 A 
ATOM     38  C   UNL A   1      38.829  29.443  27.756  1.00  0.00     0.010 A 
ATOM     39  C   UNL A   1      38.380  28.760  30.049  1.00  0.00     0.010 A 
ATOM     40  C   UNL A   1      39.273  28.933  28.983  1.00  0.00    -0.014 A 
BRANCH  40  41
ATOM     41  C   UNL A   1      40.690  28.603  29.190  1.00  0.00     0.031 A 
ATOM     42  C   UNL A   1      41.580  29.603  29.856  1.00  0.00     0.074 A 
ATOM     43  C   UNL A   1      41.156  27.449  28.681  1.00  0.00     0.049 A 
ATOM     44  N   UNL A   1      42.875  29.576  30.015  1.00  0.00    -0.248 NA
ATOM     45  C   UNL A   1      40.931  30.819  30.373  1.00  0.00     0.031 C 
ATOM     46  C   UNL A   1      40.351  26.454  27.963  1.00  0.00     0.029 A 
ATOM     47  N   UNL A   1      42.417  26.921  28.674  1.00  0.00    -0.354 N 
ATOM     48  C   UNL A   1      43.197  30.779  30.624  1.00  0.00     0.074 A 
ATOM     49  C   UNL A   1      41.975  31.539  30.754  1.00  0.00     0.031 C 
ATOM     50  C   UNL A   1      41.133  25.421  27.615  1.00  0.00     0.029 A 
ATOM     51  C   UNL A   1      42.497  25.705  28.040  1.00  0.00     0.049 A 
ATOM     52  H   UNL A   1      43.192  27.368  29.084  1.00  0.00     0.167 HD
ATOM     53  C   UNL A   1      44.412  31.191  31.054  1.00  0.00     0.037 A 
ATOM     54  C   UNL A   1      43.566  24.919  27.826  1.00  0.00     0.037 A 
ATOM     55  C   UNL A   1      45.600  30.392  30.933  1.00  0.00     0.049 A 
ATOM     56  C   UNL A   1      44.897  25.390  28.342  1.00  0.00     0.074 A 
ATOM     57  C   UNL A   1      46.881  30.670  31.369  1.00  0.00     0.029 A 
ATOM     58  N   UNL A   1      45.642  29.140  30.328  1.00  0.00    -0.354 N 
ATOM     59  N   UNL A   1      45.192  26.508  28.964  1.00  0.00    -0.248 NA
ATOM     60  C   UNL A   1      46.040  24.495  28.133  1.00  0.00     0.031 C 
ATOM     61  C   UNL A   1      47.705  29.602  30.997  1.00  0.00     0.029 A 
ATOM     62  C   UNL A   1      46.930  28.636  30.370  1.00  0.00     0.049 A 
ATOM     63  H   UNL A   1      44.869  28.680  29.928  1.00  0.00     0.167 HD
ATOM     64  C   UNL A   1      46.548  26.442  29.244  1.00  0.00     0.074 A 
ATOM     65  C   UNL A   1      47.011  25.165  28.738  1.00  0.00     0.031 C 
ATOM     66  C   UNL A   1      47.342  27.353  29.859  1.00  0.00     0.037 A 
BRANCH  53  67
ATOM     67  C   UNL A   1      44.497  32.551  31.684  1.00  0.00     0.064 A 
ATOM     68  C   UNL A   1      44.867  33.685  30.942  1.00  0.00     0.173 A 
ATOM     69  C   UNL A   1      44.211  32.726  33.045  1.00  0.00     0.173 A 
ATOM     70  F   UNL A   1      45.172  33.570  29.640  1.00  0.00    -0.203 F 
ATOM     71  C   UNL A   1      44.984  34.934  31.549  1.00  0.00     0.198 A 
ATOM     72  C   UNL A   1      44.297  33.982  33.641  1.00  0.00     0.198 A 
ATOM     73  F   UNL A   1      43.856  31.678  33.803  1.00  0.00    -0.203 F 
ATOM     74  F   UNL A   1      45.401  35.987  30.834  1.00  0.00    -0.200 F 
ATOM     75  C   UNL A   1      44.692  35.082  32.895  1.00  0.00     0.200 A 
ATOM     76  F   UNL A   1      44.007  34.127  34.942  1.00  0.00    -0.200 F 
ATOM     77  F   UNL A   1      44.805  36.284  33.477  1.00  0.00    -0.200 F 
ENDBRANCH  53  67
BRANCH  54  78
ATOM     78  C   UNL A   1      43.407  23.615  27.134  1.00  0.00     0.064 A 
ATOM     79  C   UNL A   1      42.820  22.523  27.788  1.00  0.00     0.173 A 
ATOM     80  C   UNL A   1      43.809  23.435  25.802  1.00  0.00     0.173 A 
ATOM     81  F   UNL A   1      42.427  22.641  29.066  1.00  0.00    -0.203 F 
ATOM     82  C   UNL A   1      42.661  21.297  27.147  1.00  0.00     0.198 A 
ATOM     83  C   UNL A   1      43.625  22.216  25.152  1.00  0.00     0.198 A 
ATOM     84  F   UNL A   1      44.363  24.451  25.125  1.00  0.00    -0.203 F 
ATOM     85  F   UNL A   1      42.135  20.259  27.811  1.00  0.00    -0.200 F 
ATOM     86  C   UNL A   1      43.059  21.145  25.827  1.00  0.00     0.200 A 
ATOM     87  F   UNL A   1      43.994  22.080  23.871  1.00  0.00    -0.200 F 
ATOM     88  F   UNL A   1      42.902  19.967  25.209  1.00  0.00    -0.200 F 
ENDBRANCH  54  78
BRANCH  66  89
ATOM     89  C   UNL A   1      48.780  26.975  30.039  1.00  0.00     0.064 A 
ATOM     90  C   UNL A   1      49.763  27.370  29.121  1.00  0.00     0.173 A 
ATOM     91  C   UNL A   1      49.182  26.244  31.167  1.00  0.00     0.173 A 
ATOM     92  F   UNL A   1      49.421  28.056  28.020  1.00  0.00    -0.203 F 
ATOM     93  C   UNL A   1      51.097  27.024  29.314  1.00  0.00     0.198 A 
ATOM     94  C   UNL A   1      50.519  25.928  31.372  1.00  0.00     0.198 A 
ATOM     95  F   UNL A   1      48.276  25.851  32.076  1.00  0.00    -0.203 F 
ATOM     96  F   UNL A   1      52.014  27.370  28.400  1.00  0.00    -0.200 F 
ATOM     97  C   UNL A   1      51.474  26.312  30.442  1.00  0.00     0.200 A 
ATOM     98  F   UNL A   1      50.886  25.252  32.470  1.00  0.00    -0.200 F 
ATOM     99  F   UNL A   1      52.760  25.987  30.630  1.00  0.00    -0.200 F 
ENDBRANCH  66  89
ENDBRANCH  40  41
ENDBRANCH  32  35
ENDBRANCH  30  31
ENDBRANCH  29  30
ENDBRANCH  28  29
ENDBRANCH   3  28
TORSDOF 15
ENDMDL
