MODEL 1
REMARK VINA RESULT:     -12.8      0.000      0.000
REMARK SMILES O=C(NCCCNC(=O)c1c(F)cccc1N1CC[C@@H]([NH+]2CCCCC2)C1)c1ccc(-c2c3nc(c(-c4c(F)c(F)c(F)c(F)c4F)c4ccc([nH]4)c(-c4c(F)c(F)c(F)c(F)c4F)c4nc(c(-c5c(F)c(F)c(F)c(F)c5F)c5ccc2[nH]5)C=C4)C=C3)cc1
REMARK SMILES IDX 5 1 4 2 3 3 1 4 2 5 28 7 29 8 90 9 30 10 89 11 31 12 32 13
REMARK SMILES IDX 33 14 83 15 34 16 88 17 82 18 84 19 35 20 87 21 81 22 80 23
REMARK SMILES IDX 36 25 68 26 48 27 67 28 49 29 52 30 66 31 85 32 50 33 51 34
REMARK SMILES IDX 65 36 86 37 53 38 37 39 38 40 46 41 39 42 40 43 44 44 47 45
REMARK SMILES IDX 41 46 42 47 45 48 43 49 69 50 70 51 78 52 71 53 72 54 76 55
REMARK SMILES IDX 79 56 73 57 74 58 77 59 75 60 54 61 55 62 63 63 56 64 57 65
REMARK SMILES IDX 61 66 64 67 58 68 59 69 62 70 60 71 6 72 7 73 8 74 9 76
REMARK SMILES IDX 10 77 11 78 16 79 12 80 13 81 15 82 14 83 17 84 18 85 27 86
REMARK SMILES IDX 19 87 20 88 21 89 22 90 26 91 23 93 25 94 24 95
REMARK H PARENT 3 6 84 24 52 35 7 75 21 92
REMARK Flexibility Score: inf
ROOT
ATOM      1  C   UNL A   1      37.705  19.695  24.871  1.00  0.00     0.042 C 
ENDROOT
BRANCH   1   2
ATOM      2  C   UNL A   1      38.809  20.127  25.823  1.00  0.00     0.118 C 
BRANCH   2   3
ATOM      3  N   UNL A   1      39.935  19.201  25.855  1.00  0.00    -0.352 N 
ATOM      4  O   UNL A   1      42.074  18.502  25.880  1.00  0.00    -0.269 OA
ATOM      5  C   UNL A   1      41.274  19.419  26.059  1.00  0.00     0.251 C 
ATOM      6  H   UNL A   1      39.693  18.259  25.704  1.00  0.00     0.163 HD
BRANCH   5   7
ATOM      7  C   UNL A   1      41.773  20.748  26.476  1.00  0.00     0.039 A 
ATOM      8  C   UNL A   1      42.051  21.737  25.533  1.00  0.00     0.014 A 
ATOM      9  C   UNL A   1      41.921  21.028  27.839  1.00  0.00     0.014 A 
ATOM     10  C   UNL A   1      42.631  22.934  25.934  1.00  0.00     0.010 A 
ATOM     11  C   UNL A   1      42.399  22.277  28.250  1.00  0.00     0.010 A 
ATOM     12  C   UNL A   1      42.781  23.233  27.297  1.00  0.00    -0.014 A 
BRANCH  12  13
ATOM     13  C   UNL A   1      43.238  24.591  27.688  1.00  0.00     0.031 A 
ATOM     14  C   UNL A   1      44.694  24.956  27.708  1.00  0.00     0.074 A 
ATOM     15  C   UNL A   1      42.302  25.513  27.994  1.00  0.00     0.049 A 
ATOM     16  N   UNL A   1      45.247  26.104  28.010  1.00  0.00    -0.248 NA
ATOM     17  C   UNL A   1      45.659  23.906  27.348  1.00  0.00     0.031 C 
ATOM     18  C   UNL A   1      40.858  25.265  28.018  1.00  0.00     0.029 A 
ATOM     19  N   UNL A   1      42.413  26.839  28.324  1.00  0.00    -0.354 N 
ATOM     20  C   UNL A   1      46.617  25.914  27.889  1.00  0.00     0.074 A 
ATOM     21  C   UNL A   1      46.819  24.532  27.507  1.00  0.00     0.031 C 
ATOM     22  C   UNL A   1      40.217  26.409  28.291  1.00  0.00     0.029 A 
ATOM     23  C   UNL A   1      41.203  27.453  28.542  1.00  0.00     0.049 A 
ATOM     24  H   UNL A   1      43.276  27.307  28.397  1.00  0.00     0.167 HD
ATOM     25  C   UNL A   1      47.608  26.818  28.071  1.00  0.00     0.037 A 
ATOM     26  C   UNL A   1      40.913  28.709  28.928  1.00  0.00     0.037 A 
ATOM     27  C   UNL A   1      47.394  28.197  28.431  1.00  0.00     0.049 A 
ATOM     28  C   UNL A   1      42.040  29.675  29.160  1.00  0.00     0.074 A 
ATOM     29  C   UNL A   1      48.337  29.198  28.596  1.00  0.00     0.029 A 
ATOM     30  N   UNL A   1      46.155  28.769  28.686  1.00  0.00    -0.354 N 
ATOM     31  N   UNL A   1      43.328  29.489  29.005  1.00  0.00    -0.248 NA
ATOM     32  C   UNL A   1      41.678  31.018  29.629  1.00  0.00     0.031 C 
ATOM     33  C   UNL A   1      47.677  30.358  29.007  1.00  0.00     0.029 A 
ATOM     34  C   UNL A   1      46.316  30.101  29.038  1.00  0.00     0.049 A 
ATOM     35  H   UNL A   1      45.292  28.300  28.625  1.00  0.00     0.167 HD
ATOM     36  C   UNL A   1      43.928  30.693  29.343  1.00  0.00     0.074 A 
ATOM     37  C   UNL A   1      42.862  31.610  29.687  1.00  0.00     0.031 C 
ATOM     38  C   UNL A   1      45.246  31.004  29.374  1.00  0.00     0.037 A 
BRANCH  25  39
ATOM     39  C   UNL A   1      49.030  26.373  27.888  1.00  0.00     0.064 A 
ATOM     40  C   UNL A   1      49.856  26.169  29.005  1.00  0.00     0.173 A 
ATOM     41  C   UNL A   1      49.614  26.289  26.616  1.00  0.00     0.173 A 
ATOM     42  F   UNL A   1      49.348  26.247  30.244  1.00  0.00    -0.203 F 
ATOM     43  C   UNL A   1      51.219  25.930  28.856  1.00  0.00     0.198 A 
ATOM     44  C   UNL A   1      50.974  26.025  26.469  1.00  0.00     0.198 A 
ATOM     45  F   UNL A   1      48.867  26.471  25.517  1.00  0.00    -0.203 F 
ATOM     46  F   UNL A   1      51.997  25.791  29.938  1.00  0.00    -0.200 F 
ATOM     47  C   UNL A   1      51.778  25.861  27.587  1.00  0.00     0.200 A 
ATOM     48  F   UNL A   1      51.510  25.943  25.244  1.00  0.00    -0.200 F 
ATOM     49  F   UNL A   1      53.092  25.642  27.445  1.00  0.00    -0.200 F 
ENDBRANCH  25  39
BRANCH  26  50
ATOM     50  C   UNL A   1      39.497  29.108  29.135  1.00  0.00     0.064 A 
ATOM     51  C   UNL A   1      38.902  29.042  30.405  1.00  0.00     0.173 A 
ATOM     52  C   UNL A   1      38.701  29.543  28.066  1.00  0.00     0.173 A 
ATOM     53  F   UNL A   1      39.617  28.628  31.462  1.00  0.00    -0.203 F 
ATOM     54  C   UNL A   1      37.562  29.373  30.593  1.00  0.00     0.198 A 
ATOM     55  C   UNL A   1      37.371  29.909  28.263  1.00  0.00     0.198 A 
ATOM     56  F   UNL A   1      39.228  29.641  26.837  1.00  0.00    -0.203 F 
ATOM     57  F   UNL A   1      37.011  29.258  31.808  1.00  0.00    -0.200 F 
ATOM     58  C   UNL A   1      36.800  29.815  29.523  1.00  0.00     0.200 A 
ATOM     59  F   UNL A   1      36.645  30.361  27.232  1.00  0.00    -0.200 F 
ATOM     60  F   UNL A   1      35.517  30.153  29.707  1.00  0.00    -0.200 F 
ENDBRANCH  26  50
BRANCH  38  61
ATOM     61  C   UNL A   1      45.619  32.399  29.779  1.00  0.00     0.064 A 
ATOM     62  C   UNL A   1      45.734  33.413  28.815  1.00  0.00     0.173 A 
ATOM     63  C   UNL A   1      45.938  32.715  31.108  1.00  0.00     0.173 A 
ATOM     64  F   UNL A   1      45.448  33.159  27.529  1.00  0.00    -0.203 F 
ATOM     65  C   UNL A   1      46.175  34.686  29.164  1.00  0.00     0.198 A 
ATOM     66  C   UNL A   1      46.347  33.999  31.459  1.00  0.00     0.198 A 
ATOM     67  F   UNL A   1      45.828  31.784  32.068  1.00  0.00    -0.203 F 
ATOM     68  F   UNL A   1      46.317  35.626  28.219  1.00  0.00    -0.200 F 
ATOM     69  C   UNL A   1      46.477  34.979  30.485  1.00  0.00     0.200 A 
ATOM     70  F   UNL A   1      46.612  34.288  32.740  1.00  0.00    -0.200 F 
ATOM     71  F   UNL A   1      46.891  36.208  30.822  1.00  0.00    -0.200 F 
ENDBRANCH  38  61
ENDBRANCH  12  13
ENDBRANCH   5   7
ENDBRANCH   2   3
ENDBRANCH   1   2
BRANCH   1  72
ATOM     72  C   UNL A   1      36.606  20.729  24.678  1.00  0.00     0.118 C 
BRANCH  72  73
ATOM     73  N   UNL A   1      35.813  20.958  25.876  1.00  0.00    -0.352 N 
ATOM     74  C   UNL A   1      34.444  21.024  26.016  1.00  0.00     0.256 C 
ATOM     75  H   UNL A   1      36.329  21.083  26.705  1.00  0.00     0.163 HD
ATOM     76  O   UNL A   1      33.960  21.188  27.134  1.00  0.00    -0.269 OA
BRANCH  74  77
ATOM     77  C   UNL A   1      33.583  20.948  24.819  1.00  0.00     0.098 A 
ATOM     78  C   UNL A   1      33.267  19.665  24.359  1.00  0.00     0.138 A 
ATOM     79  C   UNL A   1      33.047  22.098  24.195  1.00  0.00     0.053 A 
ATOM     80  F   UNL A   1      33.746  18.575  24.980  1.00  0.00    -0.206 F 
ATOM     81  C   UNL A   1      32.498  19.480  23.219  1.00  0.00     0.040 A 
ATOM     82  C   UNL A   1      32.227  21.875  23.072  1.00  0.00     0.027 A 
ATOM     83  C   UNL A   1      31.979  20.590  22.570  1.00  0.00     0.005 A 
BRANCH  79  84
ATOM     84  N   UNL A   1      33.302  23.392  24.580  1.00  0.00    -0.365 N 
ATOM     85  C   UNL A   1      34.491  24.132  24.218  1.00  0.00     0.123 C 
ATOM     86  C   UNL A   1      32.452  24.169  25.494  1.00  0.00     0.181 C 
ATOM     87  C   UNL A   1      34.707  25.050  25.406  1.00  0.00     0.088 C 
ATOM     88  C   UNL A   1      33.300  25.437  25.873  1.00  0.00     0.205 C 
BRANCH  88  89
ATOM     89  N   UNL A   1      32.744  26.731  25.425  1.00  0.00    -0.331 N 
ATOM     90  C   UNL A   1      33.659  27.848  25.208  1.00  0.00     0.262 C 
ATOM     91  C   UNL A   1      31.527  27.159  26.124  1.00  0.00     0.262 C 
ATOM     92  H   UNL A   1      32.482  26.459  24.478  1.00  0.00     0.348 HD
ATOM     93  C   UNL A   1      33.989  28.671  26.455  1.00  0.00     0.062 C 
ATOM     94  C   UNL A   1      31.761  27.923  27.429  1.00  0.00     0.062 C 
ATOM     95  C   UNL A   1      32.759  29.063  27.264  1.00  0.00     0.012 C 
ENDBRANCH  88  89
ENDBRANCH  79  84
ENDBRANCH  74  77
ENDBRANCH  72  73
ENDBRANCH   1  72
TORSDOF 12
ENDMDL
MODEL 2
REMARK VINA RESULT:     -12.8      5.213     10.478
REMARK SMILES O=C(NCCCNC(=O)c1c(F)cccc1N1CC[C@@H]([NH+]2CCCCC2)C1)c1ccc(-c2c3nc(c(-c4c(F)c(F)c(F)c(F)c4F)c4ccc([nH]4)c(-c4c(F)c(F)c(F)c(F)c4F)c4nc(c(-c5c(F)c(F)c(F)c(F)c5F)c5ccc2[nH]5)C=C4)C=C3)cc1
REMARK SMILES IDX 5 1 4 2 3 3 1 4 2 5 28 7 29 8 90 9 30 10 89 11 31 12 32 13
REMARK SMILES IDX 33 14 83 15 34 16 88 17 82 18 84 19 35 20 87 21 81 22 80 23
REMARK SMILES IDX 36 25 68 26 48 27 67 28 49 29 52 30 66 31 85 32 50 33 51 34
REMARK SMILES IDX 65 36 86 37 53 38 37 39 38 40 46 41 39 42 40 43 44 44 47 45
REMARK SMILES IDX 41 46 42 47 45 48 43 49 69 50 70 51 78 52 71 53 72 54 76 55
REMARK SMILES IDX 79 56 73 57 74 58 77 59 75 60 54 61 55 62 63 63 56 64 57 65
REMARK SMILES IDX 61 66 64 67 58 68 59 69 62 70 60 71 6 72 7 73 8 74 9 76
REMARK SMILES IDX 10 77 11 78 16 79 12 80 13 81 15 82 14 83 17 84 18 85 27 86
REMARK SMILES IDX 19 87 20 88 21 89 22 90 26 91 23 93 25 94 24 95
REMARK H PARENT 3 6 84 24 52 35 7 75 21 92
REMARK Flexibility Score: inf
ROOT
ATOM      1  C   UNL A   1      31.347  31.716  26.578  1.00  0.00     0.042 C 
ENDROOT
BRANCH   1   2
ATOM      2  C   UNL A   1      32.652  32.430  26.890  1.00  0.00     0.118 C 
BRANCH   2   3
ATOM      3  N   UNL A   1      32.459  33.770  27.432  1.00  0.00    -0.352 N 
ATOM      4  O   UNL A   1      32.649  35.504  28.855  1.00  0.00    -0.269 OA
ATOM      5  C   UNL A   1      33.090  34.425  28.460  1.00  0.00     0.251 C 
ATOM      6  H   UNL A   1      31.756  34.294  26.984  1.00  0.00     0.163 HD
BRANCH   5   7
ATOM      7  C   UNL A   1      34.284  33.844  29.112  1.00  0.00     0.039 A 
ATOM      8  C   UNL A   1      34.165  32.788  30.015  1.00  0.00     0.014 A 
ATOM      9  C   UNL A   1      35.553  34.332  28.780  1.00  0.00     0.014 A 
ATOM     10  C   UNL A   1      35.282  32.337  30.706  1.00  0.00     0.010 A 
ATOM     11  C   UNL A   1      36.691  33.799  29.394  1.00  0.00     0.010 A 
ATOM     12  C   UNL A   1      36.562  32.812  30.381  1.00  0.00    -0.014 A 
BRANCH  12  13
ATOM     13  C   UNL A   1      37.745  32.177  31.016  1.00  0.00     0.031 A 
ATOM     14  C   UNL A   1      38.196  32.557  32.396  1.00  0.00     0.074 A 
ATOM     15  C   UNL A   1      38.394  31.213  30.331  1.00  0.00     0.049 A 
ATOM     16  N   UNL A   1      39.199  32.081  33.092  1.00  0.00    -0.248 NA
ATOM     17  C   UNL A   1      37.433  33.605  33.093  1.00  0.00     0.031 C 
ATOM     18  C   UNL A   1      38.048  30.771  28.977  1.00  0.00     0.029 A 
ATOM     19  N   UNL A   1      39.457  30.419  30.674  1.00  0.00    -0.354 N 
ATOM     20  C   UNL A   1      39.196  32.774  34.294  1.00  0.00     0.074 A 
ATOM     21  C   UNL A   1      38.105  33.723  34.231  1.00  0.00     0.031 C 
ATOM     22  C   UNL A   1      38.847  29.754  28.626  1.00  0.00     0.029 A 
ATOM     23  C   UNL A   1      39.813  29.523  29.694  1.00  0.00     0.049 A 
ATOM     24  H   UNL A   1      39.923  30.485  31.539  1.00  0.00     0.167 HD
ATOM     25  C   UNL A   1      40.025  32.619  35.353  1.00  0.00     0.037 A 
ATOM     26  C   UNL A   1      40.819  28.633  29.642  1.00  0.00     0.037 A 
ATOM     27  C   UNL A   1      41.096  31.656  35.412  1.00  0.00     0.049 A 
ATOM     28  C   UNL A   1      41.745  28.516  30.819  1.00  0.00     0.074 A 
ATOM     29  C   UNL A   1      41.962  31.398  36.462  1.00  0.00     0.029 A 
ATOM     30  N   UNL A   1      41.451  30.797  34.382  1.00  0.00    -0.354 N 
ATOM     31  N   UNL A   1      41.705  29.152  31.964  1.00  0.00    -0.248 NA
ATOM     32  C   UNL A   1      42.859  27.566  30.696  1.00  0.00     0.031 C 
ATOM     33  C   UNL A   1      42.876  30.427  36.047  1.00  0.00     0.029 A 
ATOM     34  C   UNL A   1      42.543  30.032  34.762  1.00  0.00     0.049 A 
ATOM     35  H   UNL A   1      40.995  30.739  33.511  1.00  0.00     0.167 HD
ATOM     36  C   UNL A   1      42.778  28.673  32.702  1.00  0.00     0.074 A 
ATOM     37  C   UNL A   1      43.434  27.673  31.886  1.00  0.00     0.031 C 
ATOM     38  C   UNL A   1      43.184  29.037  33.941  1.00  0.00     0.037 A 
BRANCH  25  39
ATOM     39  C   UNL A   1      39.830  33.498  36.554  1.00  0.00     0.064 A 
ATOM     40  C   UNL A   1      38.928  33.125  37.564  1.00  0.00     0.173 A 
ATOM     41  C   UNL A   1      40.420  34.767  36.636  1.00  0.00     0.173 A 
ATOM     42  F   UNL A   1      38.330  31.926  37.528  1.00  0.00    -0.203 F 
ATOM     43  C   UNL A   1      38.602  34.004  38.594  1.00  0.00     0.198 A 
ATOM     44  C   UNL A   1      40.110  35.634  37.681  1.00  0.00     0.198 A 
ATOM     45  F   UNL A   1      41.291  35.169  35.699  1.00  0.00    -0.203 F 
ATOM     46  F   UNL A   1      37.699  33.646  39.518  1.00  0.00    -0.200 F 
ATOM     47  C   UNL A   1      39.191  35.259  38.650  1.00  0.00     0.200 A 
ATOM     48  F   UNL A   1      40.690  36.840  37.744  1.00  0.00    -0.200 F 
ATOM     49  F   UNL A   1      38.866  36.108  39.635  1.00  0.00    -0.200 F 
ENDBRANCH  25  39
BRANCH  26  50
ATOM     50  C   UNL A   1      41.007  27.803  28.424  1.00  0.00     0.064 A 
ATOM     51  C   UNL A   1      41.824  28.237  27.368  1.00  0.00     0.173 A 
ATOM     52  C   UNL A   1      40.359  26.569  28.279  1.00  0.00     0.173 A 
ATOM     53  F   UNL A   1      42.464  29.413  27.452  1.00  0.00    -0.203 F 
ATOM     54  C   UNL A   1      41.966  27.482  26.207  1.00  0.00     0.198 A 
ATOM     55  C   UNL A   1      40.531  25.797  27.132  1.00  0.00     0.198 A 
ATOM     56  F   UNL A   1      39.582  26.101  29.267  1.00  0.00    -0.203 F 
ATOM     57  F   UNL A   1      42.717  27.943  25.198  1.00  0.00    -0.200 F 
ATOM     58  C   UNL A   1      41.326  26.258  26.093  1.00  0.00     0.200 A 
ATOM     59  F   UNL A   1      39.933  24.602  27.037  1.00  0.00    -0.200 F 
ATOM     60  F   UNL A   1      41.479  25.521  24.985  1.00  0.00    -0.200 F 
ENDBRANCH  26  50
BRANCH  38  61
ATOM     61  C   UNL A   1      44.388  28.344  34.507  1.00  0.00     0.064 A 
ATOM     62  C   UNL A   1      44.245  27.160  35.248  1.00  0.00     0.173 A 
ATOM     63  C   UNL A   1      45.674  28.891  34.383  1.00  0.00     0.173 A 
ATOM     64  F   UNL A   1      43.035  26.601  35.402  1.00  0.00    -0.203 F 
ATOM     65  C   UNL A   1      45.342  26.562  35.860  1.00  0.00     0.198 A 
ATOM     66  C   UNL A   1      46.773  28.273  34.970  1.00  0.00     0.198 A 
ATOM     67  F   UNL A   1      45.863  30.013  33.672  1.00  0.00    -0.203 F 
ATOM     68  F   UNL A   1      45.174  25.455  36.597  1.00  0.00    -0.200 F 
ATOM     69  C   UNL A   1      46.605  27.116  35.718  1.00  0.00     0.200 A 
ATOM     70  F   UNL A   1      47.997  28.794  34.809  1.00  0.00    -0.200 F 
ATOM     71  F   UNL A   1      47.662  26.533  36.300  1.00  0.00    -0.200 F 
ENDBRANCH  38  61
ENDBRANCH  12  13
ENDBRANCH   5   7
ENDBRANCH   2   3
ENDBRANCH   1   2
BRANCH   1  72
ATOM     72  C   UNL A   1      31.506  30.244  26.233  1.00  0.00     0.118 C 
BRANCH  72  73
ATOM     73  N   UNL A   1      32.403  30.009  25.112  1.00  0.00    -0.352 N 
ATOM     74  C   UNL A   1      32.219  29.217  23.999  1.00  0.00     0.256 C 
ATOM     75  H   UNL A   1      33.264  30.483  25.154  1.00  0.00     0.163 HD
ATOM     76  O   UNL A   1      33.091  29.183  23.133  1.00  0.00    -0.269 OA
BRANCH  74  77
ATOM     77  C   UNL A   1      31.003  28.387  23.886  1.00  0.00     0.098 A 
ATOM     78  C   UNL A   1      29.851  29.028  23.417  1.00  0.00     0.138 A 
ATOM     79  C   UNL A   1      31.000  27.003  24.175  1.00  0.00     0.053 A 
ATOM     80  F   UNL A   1      29.870  30.334  23.106  1.00  0.00    -0.206 F 
ATOM     81  C   UNL A   1      28.645  28.351  23.311  1.00  0.00     0.040 A 
ATOM     82  C   UNL A   1      29.773  26.332  24.007  1.00  0.00     0.027 A 
ATOM     83  C   UNL A   1      28.604  26.997  23.612  1.00  0.00     0.005 A 
BRANCH  79  84
ATOM     84  N   UNL A   1      32.082  26.294  24.637  1.00  0.00    -0.365 N 
ATOM     85  C   UNL A   1      32.498  26.250  26.022  1.00  0.00     0.123 C 
ATOM     86  C   UNL A   1      33.026  25.565  23.777  1.00  0.00     0.181 C 
ATOM     87  C   UNL A   1      34.003  26.090  25.930  1.00  0.00     0.088 C 
ATOM     88  C   UNL A   1      34.237  25.196  24.709  1.00  0.00     0.205 C 
BRANCH  88  89
ATOM     89  N   UNL A   1      34.453  23.751  24.928  1.00  0.00    -0.331 N 
ATOM     90  C   UNL A   1      35.314  23.333  26.031  1.00  0.00     0.262 C 
ATOM     91  C   UNL A   1      34.715  22.970  23.713  1.00  0.00     0.262 C 
ATOM     92  H   UNL A   1      33.519  23.510  25.260  1.00  0.00     0.348 HD
ATOM     93  C   UNL A   1      36.809  23.283  25.707  1.00  0.00     0.062 C 
ATOM     94  C   UNL A   1      36.177  22.932  23.268  1.00  0.00     0.062 C 
ATOM     95  C   UNL A   1      37.123  22.558  24.404  1.00  0.00     0.012 C 
ENDBRANCH  88  89
ENDBRANCH  79  84
ENDBRANCH  74  77
ENDBRANCH  72  73
ENDBRANCH   1  72
TORSDOF 12
ENDMDL
MODEL 3
REMARK VINA RESULT:     -12.8      0.126      1.126
REMARK SMILES O=C(NCCCNC(=O)c1c(F)cccc1N1CC[C@@H]([NH+]2CCCCC2)C1)c1ccc(-c2c3nc(c(-c4c(F)c(F)c(F)c(F)c4F)c4ccc([nH]4)c(-c4c(F)c(F)c(F)c(F)c4F)c4nc(c(-c5c(F)c(F)c(F)c(F)c5F)c5ccc2[nH]5)C=C4)C=C3)cc1
REMARK SMILES IDX 5 1 4 2 3 3 1 4 2 5 28 7 29 8 90 9 30 10 89 11 31 12 32 13
REMARK SMILES IDX 33 14 83 15 34 16 88 17 82 18 84 19 35 20 87 21 81 22 80 23
REMARK SMILES IDX 36 25 68 26 48 27 67 28 49 29 52 30 66 31 85 32 50 33 51 34
REMARK SMILES IDX 65 36 86 37 53 38 37 39 38 40 46 41 39 42 40 43 44 44 47 45
REMARK SMILES IDX 41 46 42 47 45 48 43 49 69 50 70 51 78 52 71 53 72 54 76 55
REMARK SMILES IDX 79 56 73 57 74 58 77 59 75 60 54 61 55 62 63 63 56 64 57 65
REMARK SMILES IDX 61 66 64 67 58 68 59 69 62 70 60 71 6 72 7 73 8 74 9 76
REMARK SMILES IDX 10 77 11 78 16 79 12 80 13 81 15 82 14 83 17 84 18 85 27 86
REMARK SMILES IDX 19 87 20 88 21 89 22 90 26 91 23 93 25 94 24 95
REMARK H PARENT 3 6 84 24 52 35 7 75 21 92
REMARK Flexibility Score: inf
ROOT
ATOM      1  C   UNL A   1      37.656  19.587  24.973  1.00  0.00     0.042 C 
ENDROOT
BRANCH   1   2
ATOM      2  C   UNL A   1      38.835  20.116  25.775  1.00  0.00     0.118 C 
BRANCH   2   3
ATOM      3  N   UNL A   1      39.968  19.199  25.803  1.00  0.00    -0.352 N 
ATOM      4  O   UNL A   1      42.113  18.517  25.833  1.00  0.00    -0.269 OA
ATOM      5  C   UNL A   1      41.305  19.426  26.018  1.00  0.00     0.251 C 
ATOM      6  H   UNL A   1      39.735  18.257  25.639  1.00  0.00     0.163 HD
BRANCH   5   7
ATOM      7  C   UNL A   1      41.789  20.754  26.454  1.00  0.00     0.039 A 
ATOM      8  C   UNL A   1      42.075  21.753  25.524  1.00  0.00     0.014 A 
ATOM      9  C   UNL A   1      41.916  21.023  27.822  1.00  0.00     0.014 A 
ATOM     10  C   UNL A   1      42.643  22.950  25.944  1.00  0.00     0.010 A 
ATOM     11  C   UNL A   1      42.381  22.271  28.250  1.00  0.00     0.010 A 
ATOM     12  C   UNL A   1      42.771  23.237  27.312  1.00  0.00    -0.014 A 
BRANCH  12  13
ATOM     13  C   UNL A   1      43.215  24.594  27.721  1.00  0.00     0.031 A 
ATOM     14  C   UNL A   1      44.668  24.968  27.763  1.00  0.00     0.074 A 
ATOM     15  C   UNL A   1      42.269  25.508  28.023  1.00  0.00     0.049 A 
ATOM     16  N   UNL A   1      45.210  26.117  28.082  1.00  0.00    -0.248 NA
ATOM     17  C   UNL A   1      45.644  23.927  27.406  1.00  0.00     0.031 C 
ATOM     18  C   UNL A   1      40.826  25.251  28.026  1.00  0.00     0.029 A 
ATOM     19  N   UNL A   1      42.367  26.831  28.366  1.00  0.00    -0.354 N 
ATOM     20  C   UNL A   1      46.582  25.936  27.978  1.00  0.00     0.074 A 
ATOM     21  C   UNL A   1      46.797  24.559  27.586  1.00  0.00     0.031 C 
ATOM     22  C   UNL A   1      40.174  26.388  28.301  1.00  0.00     0.029 A 
ATOM     23  C   UNL A   1      41.150  27.436  28.574  1.00  0.00     0.049 A 
ATOM     24  H   UNL A   1      43.227  27.303  28.455  1.00  0.00     0.167 HD
ATOM     25  C   UNL A   1      47.565  26.844  28.181  1.00  0.00     0.037 A 
ATOM     26  C   UNL A   1      40.848  28.686  28.969  1.00  0.00     0.037 A 
ATOM     27  C   UNL A   1      47.337  28.219  28.551  1.00  0.00     0.049 A 
ATOM     28  C   UNL A   1      41.965  29.656  29.225  1.00  0.00     0.074 A 
ATOM     29  C   UNL A   1      48.272  29.223  28.738  1.00  0.00     0.029 A 
ATOM     30  N   UNL A   1      46.092  28.781  28.795  1.00  0.00    -0.354 N 
ATOM     31  N   UNL A   1      43.256  29.480  29.084  1.00  0.00    -0.248 NA
ATOM     32  C   UNL A   1      41.589  30.993  29.702  1.00  0.00     0.031 C 
ATOM     33  C   UNL A   1      47.599  30.376  29.151  1.00  0.00     0.029 A 
ATOM     34  C   UNL A   1      46.240  30.110  29.162  1.00  0.00     0.049 A 
ATOM     35  H   UNL A   1      45.233  28.307  28.719  1.00  0.00     0.167 HD
ATOM     36  C   UNL A   1      43.845  30.685  29.442  1.00  0.00     0.074 A 
ATOM     37  C   UNL A   1      42.769  31.591  29.781  1.00  0.00     0.031 C 
ATOM     38  C   UNL A   1      45.160  31.004  29.492  1.00  0.00     0.037 A 
BRANCH  25  39
ATOM     39  C   UNL A   1      48.992  26.410  28.013  1.00  0.00     0.064 A 
ATOM     40  C   UNL A   1      49.800  26.184  29.139  1.00  0.00     0.173 A 
ATOM     41  C   UNL A   1      49.598  26.358  26.749  1.00  0.00     0.173 A 
ATOM     42  F   UNL A   1      49.271  26.231  30.370  1.00  0.00    -0.203 F 
ATOM     43  C   UNL A   1      51.166  25.954  29.007  1.00  0.00     0.198 A 
ATOM     44  C   UNL A   1      50.961  26.103  26.619  1.00  0.00     0.198 A 
ATOM     45  F   UNL A   1      48.869  26.561  25.642  1.00  0.00    -0.203 F 
ATOM     46  F   UNL A   1      51.926  25.794  30.099  1.00  0.00    -0.200 F 
ATOM     47  C   UNL A   1      51.747  25.917  27.748  1.00  0.00     0.200 A 
ATOM     48  F   UNL A   1      51.519  26.052  25.402  1.00  0.00    -0.200 F 
ATOM     49  F   UNL A   1      53.065  25.707  27.622  1.00  0.00    -0.200 F 
ENDBRANCH  25  39
BRANCH  26  50
ATOM     50  C   UNL A   1      39.427  29.074  29.161  1.00  0.00     0.064 A 
ATOM     51  C   UNL A   1      38.653  29.553  28.091  1.00  0.00     0.173 A 
ATOM     52  C   UNL A   1      38.816  28.996  30.420  1.00  0.00     0.173 A 
ATOM     53  F   UNL A   1      39.189  29.653  26.865  1.00  0.00    -0.203 F 
ATOM     54  C   UNL A   1      37.334  29.960  28.278  1.00  0.00     0.198 A 
ATOM     55  C   UNL A   1      37.486  29.369  30.598  1.00  0.00     0.198 A 
ATOM     56  F   UNL A   1      39.507  28.529  31.470  1.00  0.00    -0.203 F 
ATOM     57  F   UNL A   1      36.636  30.454  27.248  1.00  0.00    -0.200 F 
ATOM     58  C   UNL A   1      36.749  29.859  29.530  1.00  0.00     0.200 A 
ATOM     59  F   UNL A   1      36.915  29.245  31.804  1.00  0.00    -0.200 F 
ATOM     60  F   UNL A   1      35.474  30.231  29.707  1.00  0.00    -0.200 F 
ENDBRANCH  26  50
BRANCH  38  61
ATOM     61  C   UNL A   1      45.519  32.397  29.915  1.00  0.00     0.064 A 
ATOM     62  C   UNL A   1      45.643  33.420  28.962  1.00  0.00     0.173 A 
ATOM     63  C   UNL A   1      45.816  32.703  31.251  1.00  0.00     0.173 A 
ATOM     64  F   UNL A   1      45.378  33.176  27.669  1.00  0.00    -0.203 F 
ATOM     65  C   UNL A   1      46.071  34.692  29.328  1.00  0.00     0.198 A 
ATOM     66  C   UNL A   1      46.213  33.985  31.620  1.00  0.00     0.198 A 
ATOM     67  F   UNL A   1      45.698  31.763  32.201  1.00  0.00    -0.203 F 
ATOM     68  F   UNL A   1      46.222  35.642  28.395  1.00  0.00    -0.200 F 
ATOM     69  C   UNL A   1      46.352  34.975  30.657  1.00  0.00     0.200 A 
ATOM     70  F   UNL A   1      46.457  34.265  32.907  1.00  0.00    -0.200 F 
ATOM     71  F   UNL A   1      46.754  36.203  31.010  1.00  0.00    -0.200 F 
ENDBRANCH  38  61
ENDBRANCH  12  13
ENDBRANCH   5   7
ENDBRANCH   2   3
ENDBRANCH   1   2
BRANCH   1  72
ATOM     72  C   UNL A   1      36.561  20.612  24.720  1.00  0.00     0.118 C 
BRANCH  72  73
ATOM     73  N   UNL A   1      35.723  20.859  25.884  1.00  0.00    -0.352 N 
ATOM     74  C   UNL A   1      34.351  20.954  25.966  1.00  0.00     0.256 C 
ATOM     75  H   UNL A   1      36.206  20.974  26.734  1.00  0.00     0.163 HD
ATOM     76  O   UNL A   1      33.824  21.130  27.062  1.00  0.00    -0.269 OA
BRANCH  74  77
ATOM     77  C   UNL A   1      33.540  20.895  24.733  1.00  0.00     0.098 A 
ATOM     78  C   UNL A   1      33.225  19.618  24.255  1.00  0.00     0.138 A 
ATOM     79  C   UNL A   1      33.049  22.055  24.091  1.00  0.00     0.053 A 
ATOM     80  F   UNL A   1      33.661  18.519  24.892  1.00  0.00    -0.206 F 
ATOM     81  C   UNL A   1      32.502  19.448  23.084  1.00  0.00     0.040 A 
ATOM     82  C   UNL A   1      32.274  21.848  22.934  1.00  0.00     0.027 A 
ATOM     83  C   UNL A   1      32.028  20.569  22.417  1.00  0.00     0.005 A 
BRANCH  79  84
ATOM     84  N   UNL A   1      33.306  23.344  24.491  1.00  0.00    -0.365 N 
ATOM     85  C   UNL A   1      34.507  24.077  24.156  1.00  0.00     0.123 C 
ATOM     86  C   UNL A   1      32.447  24.120  25.397  1.00  0.00     0.181 C 
ATOM     87  C   UNL A   1      34.709  24.983  25.356  1.00  0.00     0.088 C 
ATOM     88  C   UNL A   1      33.297  25.378  25.801  1.00  0.00     0.205 C 
BRANCH  88  89
ATOM     89  N   UNL A   1      32.758  26.680  25.355  1.00  0.00    -0.331 N 
ATOM     90  C   UNL A   1      33.689  27.783  25.138  1.00  0.00     0.262 C 
ATOM     91  C   UNL A   1      31.548  27.124  26.056  1.00  0.00     0.262 C 
ATOM     92  H   UNL A   1      32.491  26.412  24.407  1.00  0.00     0.348 HD
ATOM     93  C   UNL A   1      34.032  28.601  26.384  1.00  0.00     0.062 C 
ATOM     94  C   UNL A   1      31.794  27.883  27.360  1.00  0.00     0.062 C 
ATOM     95  C   UNL A   1      32.808  29.010  27.196  1.00  0.00     0.012 C 
ENDBRANCH  88  89
ENDBRANCH  79  84
ENDBRANCH  74  77
ENDBRANCH  72  73
ENDBRANCH   1  72
TORSDOF 12
ENDMDL
