MODEL 1
REMARK VINA RESULT:     -12.1      0.000      0.000
REMARK SMILES CC[C@@H]1SC[C@H](C(=O)NCCCNC(=O)c2ccc(-c3c4nc(c(-c5c(F)c(F)c(F)c(F)c5F)c5ccc([nH]5)c(-c5c(F)c(F)c(F)c(F)c5F)c5nc(c(-c6c(F)c(F)c(F)c(F)c6F)c6ccc3[nH]6)C=C5)C=C4)cc2)N1C(=O)c1ccc(C)cc1F
REMARK SMILES IDX 11 1 10 2 9 3 7 4 8 5 6 7 3 8 4 9 79 10 5 11 2 12 1 13 80 14
REMARK SMILES IDX 81 15 82 16 83 17 88 18 84 19 87 20 89 21 85 22 86 23 12 24
REMARK SMILES IDX 13 25 14 26 15 28 16 29 17 30 78 31 18 32 77 33 19 34 20 35
REMARK SMILES IDX 21 36 71 37 22 38 76 39 70 40 72 41 23 42 75 43 69 44 68 45
REMARK SMILES IDX 24 47 56 48 36 49 55 50 37 51 40 52 54 53 73 54 38 55 39 56
REMARK SMILES IDX 53 58 74 59 41 60 25 61 26 62 34 63 27 64 28 65 32 66 35 67
REMARK SMILES IDX 29 68 30 69 33 70 31 71 57 72 58 73 66 74 59 75 60 76 64 77
REMARK SMILES IDX 67 78 61 79 62 80 65 81 63 82 42 83 43 84 51 85 44 86 45 87
REMARK SMILES IDX 49 88 52 89 46 90 47 91 50 92 48 93
REMARK H PARENT 9 6 13 27 72 46 40 57
REMARK Flexibility Score: inf
ROOT
ATOM      1  C   UNL A   1      38.465  19.849  24.967  1.00  0.00     0.042 C 
ENDROOT
BRANCH   1   2
ATOM      2  C   UNL A   1      37.761  21.187  24.757  1.00  0.00     0.117 C 
BRANCH   2   3
ATOM      3  N   UNL A   1      36.875  21.531  25.855  1.00  0.00    -0.354 N 
ATOM      4  C   UNL A   1      35.511  21.669  25.865  1.00  0.00     0.243 C 
ATOM      5  O   UNL A   1      34.975  22.033  26.914  1.00  0.00    -0.273 OA
ATOM      6  H   UNL A   1      37.319  21.689  26.720  1.00  0.00     0.163 HD
BRANCH   4   7
ATOM      7  C   UNL A   1      34.703  21.259  24.617  1.00  0.00     0.185 C 
ATOM      8  C   UNL A   1      32.725  21.806  23.296  1.00  0.00     0.144 C 
ATOM      9  S   UNL A   1      32.297  20.216  24.088  1.00  0.00    -0.134 SA
ATOM     10  N   UNL A   1      33.887  22.330  24.028  1.00  0.00    -0.314 N 
ATOM     11  C   UNL A   1      33.811  20.102  25.055  1.00  0.00     0.107 C 
BRANCH   8  12
ATOM     12  C   UNL A   1      31.472  22.677  23.126  1.00  0.00     0.033 C 
ATOM     13  C   UNL A   1      30.974  23.334  24.412  1.00  0.00     0.007 C 
ENDBRANCH   8  12
BRANCH  10  14
ATOM     14  C   UNL A   1      34.618  23.463  23.642  1.00  0.00     0.258 C 
ATOM     15  O   UNL A   1      35.618  23.397  22.926  1.00  0.00    -0.269 OA
BRANCH  14  16
ATOM     16  C   UNL A   1      34.185  24.804  24.039  1.00  0.00     0.075 A 
ATOM     17  C   UNL A   1      34.327  25.187  25.375  1.00  0.00     0.017 A 
ATOM     18  C   UNL A   1      33.638  25.689  23.112  1.00  0.00     0.136 A 
ATOM     19  C   UNL A   1      34.028  26.496  25.751  1.00  0.00     0.004 A 
ATOM     20  C   UNL A   1      33.348  27.000  23.484  1.00  0.00     0.043 A 
ATOM     21  F   UNL A   1      33.460  25.326  21.835  1.00  0.00    -0.206 F 
ATOM     22  C   UNL A   1      33.583  27.425  24.798  1.00  0.00    -0.048 A 
ATOM     23  C   UNL A   1      33.352  28.853  25.197  1.00  0.00     0.044 C 
ENDBRANCH  14  16
ENDBRANCH  10  14
ENDBRANCH   4   7
ENDBRANCH   2   3
ENDBRANCH   1   2
BRANCH   1  24
ATOM     24  C   UNL A   1      39.316  19.781  26.233  1.00  0.00     0.118 C 
BRANCH  24  25
ATOM     25  N   UNL A   1      40.471  18.903  26.089  1.00  0.00    -0.352 N 
ATOM     26  C   UNL A   1      41.814  19.185  26.053  1.00  0.00     0.251 C 
ATOM     27  H   UNL A   1      40.250  17.948  26.003  1.00  0.00     0.163 HD
ATOM     28  O   UNL A   1      42.605  18.297  25.750  1.00  0.00    -0.269 OA
BRANCH  26  29
ATOM     29  C   UNL A   1      42.322  20.541  26.355  1.00  0.00     0.039 A 
ATOM     30  C   UNL A   1      42.609  21.400  25.288  1.00  0.00     0.014 A 
ATOM     31  C   UNL A   1      42.566  20.958  27.665  1.00  0.00     0.014 A 
ATOM     32  C   UNL A   1      43.081  22.692  25.537  1.00  0.00     0.010 A 
ATOM     33  C   UNL A   1      42.968  22.270  27.916  1.00  0.00     0.010 A 
ATOM     34  C   UNL A   1      43.233  23.149  26.855  1.00  0.00    -0.014 A 
BRANCH  34  35
ATOM     35  C   UNL A   1      43.666  24.542  27.144  1.00  0.00     0.031 A 
ATOM     36  C   UNL A   1      42.679  25.556  27.648  1.00  0.00     0.074 A 
ATOM     37  C   UNL A   1      44.938  24.910  26.889  1.00  0.00     0.049 A 
ATOM     38  N   UNL A   1      42.846  26.835  27.877  1.00  0.00    -0.248 NA
ATOM     39  C   UNL A   1      41.313  25.076  27.907  1.00  0.00     0.031 C 
ATOM     40  C   UNL A   1      45.982  24.032  26.361  1.00  0.00     0.029 A 
ATOM     41  N   UNL A   1      45.563  26.125  27.027  1.00  0.00    -0.354 N 
ATOM     42  C   UNL A   1      41.608  27.313  28.287  1.00  0.00     0.074 A 
ATOM     43  C   UNL A   1      40.686  26.199  28.229  1.00  0.00     0.031 C 
ATOM     44  C   UNL A   1      47.122  24.731  26.234  1.00  0.00     0.029 A 
ATOM     45  C   UNL A   1      46.879  26.114  26.632  1.00  0.00     0.049 A 
ATOM     46  H   UNL A   1      45.112  26.927  27.375  1.00  0.00     0.167 HD
ATOM     47  C   UNL A   1      41.274  28.562  28.693  1.00  0.00     0.037 A 
ATOM     48  C   UNL A   1      47.785  27.110  26.586  1.00  0.00     0.037 A 
ATOM     49  C   UNL A   1      42.199  29.663  28.772  1.00  0.00     0.049 A 
ATOM     50  C   UNL A   1      47.386  28.489  27.036  1.00  0.00     0.074 A 
ATOM     51  C   UNL A   1      41.970  30.951  29.226  1.00  0.00     0.029 A 
ATOM     52  N   UNL A   1      43.529  29.607  28.385  1.00  0.00    -0.354 N 
ATOM     53  N   UNL A   1      46.230  28.914  27.482  1.00  0.00    -0.248 NA
ATOM     54  C   UNL A   1      48.425  29.528  26.983  1.00  0.00     0.031 C 
ATOM     55  C   UNL A   1      43.149  31.687  29.068  1.00  0.00     0.029 A 
ATOM     56  C   UNL A   1      44.128  30.844  28.570  1.00  0.00     0.049 A 
ATOM     57  H   UNL A   1      43.983  28.808  28.031  1.00  0.00     0.167 HD
ATOM     58  C   UNL A   1      46.408  30.255  27.793  1.00  0.00     0.074 A 
ATOM     59  C   UNL A   1      47.789  30.572  27.496  1.00  0.00     0.031 C 
ATOM     60  C   UNL A   1      45.508  31.143  28.283  1.00  0.00     0.037 A 
BRANCH  47  61
ATOM     61  C   UNL A   1      39.845  28.807  29.085  1.00  0.00     0.064 A 
ATOM     62  C   UNL A   1      39.408  28.648  30.409  1.00  0.00     0.173 A 
ATOM     63  C   UNL A   1      38.911  29.245  28.134  1.00  0.00     0.173 A 
ATOM     64  F   UNL A   1      40.258  28.223  31.355  1.00  0.00    -0.203 F 
ATOM     65  C   UNL A   1      38.082  28.889  30.760  1.00  0.00     0.198 A 
ATOM     66  C   UNL A   1      37.593  29.515  28.495  1.00  0.00     0.198 A 
ATOM     67  F   UNL A   1      39.278  29.421  26.856  1.00  0.00    -0.203 F 
ATOM     68  F   UNL A   1      37.676  28.681  32.020  1.00  0.00    -0.200 F 
ATOM     69  C   UNL A   1      37.177  29.328  29.804  1.00  0.00     0.200 A 
ATOM     70  F   UNL A   1      36.725  29.955  27.574  1.00  0.00    -0.200 F 
ATOM     71  F   UNL A   1      35.904  29.567  30.145  1.00  0.00    -0.200 F 
ENDBRANCH  47  61
BRANCH  48  72
ATOM     72  C   UNL A   1      49.167  26.833  26.114  1.00  0.00     0.064 A 
ATOM     73  C   UNL A   1      49.518  27.024  24.770  1.00  0.00     0.173 A 
ATOM     74  C   UNL A   1      50.160  26.369  26.988  1.00  0.00     0.173 A 
ATOM     75  F   UNL A   1      48.597  27.447  23.891  1.00  0.00    -0.203 F 
ATOM     76  C   UNL A   1      50.803  26.738  24.314  1.00  0.00     0.198 A 
ATOM     77  C   UNL A   1      51.453  26.112  26.536  1.00  0.00     0.198 A 
ATOM     78  F   UNL A   1      49.877  26.174  28.284  1.00  0.00    -0.203 F 
ATOM     79  F   UNL A   1      51.098  26.884  23.015  1.00  0.00    -0.200 F 
ATOM     80  C   UNL A   1      51.771  26.289  25.199  1.00  0.00     0.200 A 
ATOM     81  F   UNL A   1      52.390  25.692  27.398  1.00  0.00    -0.200 F 
ATOM     82  F   UNL A   1      53.009  26.018  24.761  1.00  0.00    -0.200 F 
ENDBRANCH  48  72
BRANCH  60  83
ATOM     83  C   UNL A   1      45.998  32.532  28.573  1.00  0.00     0.064 A 
ATOM     84  C   UNL A   1      46.561  32.875  29.811  1.00  0.00     0.173 A 
ATOM     85  C   UNL A   1      45.936  33.525  27.582  1.00  0.00     0.173 A 
ATOM     86  F   UNL A   1      46.629  31.967  30.796  1.00  0.00    -0.203 F 
ATOM     87  C   UNL A   1      47.022  34.166  30.054  1.00  0.00     0.198 A 
ATOM     88  C   UNL A   1      46.426  34.806  27.819  1.00  0.00     0.198 A 
ATOM     89  F   UNL A   1      45.412  33.248  26.380  1.00  0.00    -0.203 F 
ATOM     90  F   UNL A   1      47.511  34.484  31.261  1.00  0.00    -0.200 F 
ATOM     91  C   UNL A   1      46.961  35.127  29.057  1.00  0.00     0.200 A 
ATOM     92  F   UNL A   1      46.379  35.730  26.849  1.00  0.00    -0.200 F 
ATOM     93  F   UNL A   1      47.412  36.367  29.291  1.00  0.00    -0.200 F 
ENDBRANCH  60  83
ENDBRANCH  34  35
ENDBRANCH  26  29
ENDBRANCH  24  25
ENDBRANCH   1  24
TORSDOF 13
ENDMDL
MODEL 2
REMARK VINA RESULT:     -12.0      0.158      1.137
REMARK SMILES CC[C@@H]1SC[C@H](C(=O)NCCCNC(=O)c2ccc(-c3c4nc(c(-c5c(F)c(F)c(F)c(F)c5F)c5ccc([nH]5)c(-c5c(F)c(F)c(F)c(F)c5F)c5nc(c(-c6c(F)c(F)c(F)c(F)c6F)c6ccc3[nH]6)C=C5)C=C4)cc2)N1C(=O)c1ccc(C)cc1F
REMARK SMILES IDX 11 1 10 2 9 3 7 4 8 5 6 7 3 8 4 9 79 10 5 11 2 12 1 13 80 14
REMARK SMILES IDX 81 15 82 16 83 17 88 18 84 19 87 20 89 21 85 22 86 23 12 24
REMARK SMILES IDX 13 25 14 26 15 28 16 29 17 30 78 31 18 32 77 33 19 34 20 35
REMARK SMILES IDX 21 36 71 37 22 38 76 39 70 40 72 41 23 42 75 43 69 44 68 45
REMARK SMILES IDX 24 47 56 48 36 49 55 50 37 51 40 52 54 53 73 54 38 55 39 56
REMARK SMILES IDX 53 58 74 59 41 60 25 61 26 62 34 63 27 64 28 65 32 66 35 67
REMARK SMILES IDX 29 68 30 69 33 70 31 71 57 72 58 73 66 74 59 75 60 76 64 77
REMARK SMILES IDX 67 78 61 79 62 80 65 81 63 82 42 83 43 84 51 85 44 86 45 87
REMARK SMILES IDX 49 88 52 89 46 90 47 91 50 92 48 93
REMARK H PARENT 9 6 13 27 72 46 40 57
REMARK Flexibility Score: inf
ROOT
ATOM      1  C   UNL A   1      38.378  19.628  25.001  1.00  0.00     0.042 C 
ENDROOT
BRANCH   1   2
ATOM      2  C   UNL A   1      37.650  20.918  24.635  1.00  0.00     0.117 C 
BRANCH   2   3
ATOM      3  N   UNL A   1      36.874  21.455  25.739  1.00  0.00    -0.354 N 
ATOM      4  C   UNL A   1      35.544  21.783  25.792  1.00  0.00     0.243 C 
ATOM      5  O   UNL A   1      35.115  22.288  26.832  1.00  0.00    -0.273 OA
ATOM      6  H   UNL A   1      37.377  21.606  26.572  1.00  0.00     0.163 HD
BRANCH   4   7
ATOM      7  C   UNL A   1      34.628  21.408  24.610  1.00  0.00     0.185 C 
ATOM      8  C   UNL A   1      32.568  22.026  23.454  1.00  0.00     0.144 C 
ATOM      9  S   UNL A   1      32.157  20.442  24.268  1.00  0.00    -0.134 SA
ATOM     10  N   UNL A   1      33.801  22.508  24.094  1.00  0.00    -0.314 N 
ATOM     11  C   UNL A   1      33.738  20.275  25.111  1.00  0.00     0.107 C 
BRANCH   8  12
ATOM     12  C   UNL A   1      31.333  22.935  23.389  1.00  0.00     0.033 C 
ATOM     13  C   UNL A   1      30.917  23.541  24.728  1.00  0.00     0.007 C 
ENDBRANCH   8  12
BRANCH  10  14
ATOM     14  C   UNL A   1      34.534  23.621  23.657  1.00  0.00     0.258 C 
ATOM     15  O   UNL A   1      35.518  23.524  22.924  1.00  0.00    -0.269 OA
BRANCH  14  16
ATOM     16  C   UNL A   1      34.120  24.979  24.020  1.00  0.00     0.075 A 
ATOM     17  C   UNL A   1      34.253  25.387  25.350  1.00  0.00     0.017 A 
ATOM     18  C   UNL A   1      33.601  25.852  23.068  1.00  0.00     0.136 A 
ATOM     19  C   UNL A   1      33.973  26.709  25.694  1.00  0.00     0.004 A 
ATOM     20  C   UNL A   1      33.329  27.177  23.408  1.00  0.00     0.043 A 
ATOM     21  F   UNL A   1      33.432  25.466  21.796  1.00  0.00    -0.206 F 
ATOM     22  C   UNL A   1      33.557  27.626  24.716  1.00  0.00    -0.048 A 
ATOM     23  C   UNL A   1      33.346  29.066  25.081  1.00  0.00     0.044 C 
ENDBRANCH  14  16
ENDBRANCH  10  14
ENDBRANCH   4   7
ENDBRANCH   2   3
ENDBRANCH   1   2
BRANCH   1  24
ATOM     24  C   UNL A   1      39.354  19.770  26.167  1.00  0.00     0.118 C 
BRANCH  24  25
ATOM     25  N   UNL A   1      40.505  18.882  26.049  1.00  0.00    -0.352 N 
ATOM     26  C   UNL A   1      41.850  19.154  26.033  1.00  0.00     0.251 C 
ATOM     27  H   UNL A   1      40.279  17.928  25.967  1.00  0.00     0.163 HD
ATOM     28  O   UNL A   1      42.641  18.258  25.751  1.00  0.00    -0.269 OA
BRANCH  26  29
ATOM     29  C   UNL A   1      42.363  20.509  26.333  1.00  0.00     0.039 A 
ATOM     30  C   UNL A   1      42.691  21.351  25.265  1.00  0.00     0.014 A 
ATOM     31  C   UNL A   1      42.572  20.941  27.644  1.00  0.00     0.014 A 
ATOM     32  C   UNL A   1      43.170  22.641  25.511  1.00  0.00     0.010 A 
ATOM     33  C   UNL A   1      42.980  22.252  27.891  1.00  0.00     0.010 A 
ATOM     34  C   UNL A   1      43.286  23.114  26.827  1.00  0.00    -0.014 A 
BRANCH  34  35
ATOM     35  C   UNL A   1      43.725  24.506  27.111  1.00  0.00     0.031 A 
ATOM     36  C   UNL A   1      42.745  25.523  27.626  1.00  0.00     0.074 A 
ATOM     37  C   UNL A   1      44.994  24.873  26.842  1.00  0.00     0.049 A 
ATOM     38  N   UNL A   1      42.917  26.801  27.853  1.00  0.00    -0.248 NA
ATOM     39  C   UNL A   1      41.381  25.045  27.899  1.00  0.00     0.031 C 
ATOM     40  C   UNL A   1      46.031  23.992  26.302  1.00  0.00     0.029 A 
ATOM     41  N   UNL A   1      45.623  26.086  26.972  1.00  0.00    -0.354 N 
ATOM     42  C   UNL A   1      41.685  27.281  28.275  1.00  0.00     0.074 A 
ATOM     43  C   UNL A   1      40.760  26.168  28.228  1.00  0.00     0.031 C 
ATOM     44  C   UNL A   1      47.171  24.689  26.163  1.00  0.00     0.029 A 
ATOM     45  C   UNL A   1      46.934  26.073  26.563  1.00  0.00     0.049 A 
ATOM     46  H   UNL A   1      45.177  26.889  27.325  1.00  0.00     0.167 HD
ATOM     47  C   UNL A   1      41.357  28.530  28.685  1.00  0.00     0.037 A 
ATOM     48  C   UNL A   1      47.841  27.067  26.507  1.00  0.00     0.037 A 
ATOM     49  C   UNL A   1      42.285  29.631  28.754  1.00  0.00     0.049 A 
ATOM     50  C   UNL A   1      47.451  28.447  26.961  1.00  0.00     0.074 A 
ATOM     51  C   UNL A   1      42.063  30.918  29.210  1.00  0.00     0.029 A 
ATOM     52  N   UNL A   1      43.611  29.572  28.352  1.00  0.00    -0.354 N 
ATOM     53  N   UNL A   1      46.300  28.874  27.420  1.00  0.00    -0.248 NA
ATOM     54  C   UNL A   1      48.490  29.484  26.897  1.00  0.00     0.031 C 
ATOM     55  C   UNL A   1      43.241  31.653  29.039  1.00  0.00     0.029 A 
ATOM     56  C   UNL A   1      44.214  30.808  28.530  1.00  0.00     0.049 A 
ATOM     57  H   UNL A   1      44.058  28.772  27.993  1.00  0.00     0.167 HD
ATOM     58  C   UNL A   1      46.484  30.214  27.729  1.00  0.00     0.074 A 
ATOM     59  C   UNL A   1      47.862  30.529  27.416  1.00  0.00     0.031 C 
ATOM     60  C   UNL A   1      45.591  31.104  28.228  1.00  0.00     0.037 A 
BRANCH  47  61
ATOM     61  C   UNL A   1      39.933  28.779  29.093  1.00  0.00     0.064 A 
ATOM     62  C   UNL A   1      38.954  29.150  28.158  1.00  0.00     0.173 A 
ATOM     63  C   UNL A   1      39.533  28.605  30.426  1.00  0.00     0.173 A 
ATOM     64  F   UNL A   1      39.285  29.338  26.872  1.00  0.00    -0.203 F 
ATOM     65  C   UNL A   1      37.635  29.368  28.549  1.00  0.00     0.198 A 
ATOM     66  C   UNL A   1      38.207  28.792  30.807  1.00  0.00     0.198 A 
ATOM     67  F   UNL A   1      40.426  28.242  31.358  1.00  0.00    -0.203 F 
ATOM     68  F   UNL A   1      36.729  29.771  27.648  1.00  0.00    -0.200 F 
ATOM     69  C   UNL A   1      37.262  29.182  29.872  1.00  0.00     0.200 A 
ATOM     70  F   UNL A   1      37.844  28.596  32.083  1.00  0.00    -0.200 F 
ATOM     71  F   UNL A   1      35.990  29.383  30.245  1.00  0.00    -0.200 F 
ENDBRANCH  47  61
BRANCH  48  72
ATOM     72  C   UNL A   1      49.218  26.788  26.019  1.00  0.00     0.064 A 
ATOM     73  C   UNL A   1      49.562  27.005  24.678  1.00  0.00     0.173 A 
ATOM     74  C   UNL A   1      50.212  26.295  26.877  1.00  0.00     0.173 A 
ATOM     75  F   UNL A   1      48.640  27.456  23.815  1.00  0.00    -0.203 F 
ATOM     76  C   UNL A   1      50.842  26.718  24.207  1.00  0.00     0.198 A 
ATOM     77  C   UNL A   1      51.500  26.036  26.411  1.00  0.00     0.198 A 
ATOM     78  F   UNL A   1      49.936  26.074  28.170  1.00  0.00    -0.203 F 
ATOM     79  F   UNL A   1      51.130  26.889  22.910  1.00  0.00    -0.200 F 
ATOM     80  C   UNL A   1      51.811  26.240  25.076  1.00  0.00     0.200 A 
ATOM     81  F   UNL A   1      52.438  25.588  27.257  1.00  0.00    -0.200 F 
ATOM     82  F   UNL A   1      53.043  25.967  24.623  1.00  0.00    -0.200 F 
ENDBRANCH  48  72
BRANCH  60  83
ATOM     83  C   UNL A   1      46.086  32.492  28.512  1.00  0.00     0.064 A 
ATOM     84  C   UNL A   1      46.656  32.837  29.748  1.00  0.00     0.173 A 
ATOM     85  C   UNL A   1      46.023  33.483  27.519  1.00  0.00     0.173 A 
ATOM     86  F   UNL A   1      46.725  31.931  30.735  1.00  0.00    -0.203 F 
ATOM     87  C   UNL A   1      47.121  34.127  29.985  1.00  0.00     0.198 A 
ATOM     88  C   UNL A   1      46.518  34.763  27.751  1.00  0.00     0.198 A 
ATOM     89  F   UNL A   1      45.493  33.205  26.320  1.00  0.00    -0.203 F 
ATOM     90  F   UNL A   1      47.617  34.447  31.189  1.00  0.00    -0.200 F 
ATOM     91  C   UNL A   1      47.059  35.086  28.986  1.00  0.00     0.200 A 
ATOM     92  F   UNL A   1      46.470  35.685  26.779  1.00  0.00    -0.200 F 
ATOM     93  F   UNL A   1      47.515  36.325  29.215  1.00  0.00    -0.200 F 
ENDBRANCH  60  83
ENDBRANCH  34  35
ENDBRANCH  26  29
ENDBRANCH  24  25
ENDBRANCH   1  24
TORSDOF 13
ENDMDL
MODEL 3
REMARK VINA RESULT:     -12.0      6.004     11.213
REMARK SMILES CC[C@@H]1SC[C@H](C(=O)NCCCNC(=O)c2ccc(-c3c4nc(c(-c5c(F)c(F)c(F)c(F)c5F)c5ccc([nH]5)c(-c5c(F)c(F)c(F)c(F)c5F)c5nc(c(-c6c(F)c(F)c(F)c(F)c6F)c6ccc3[nH]6)C=C5)C=C4)cc2)N1C(=O)c1ccc(C)cc1F
REMARK SMILES IDX 11 1 10 2 9 3 7 4 8 5 6 7 3 8 4 9 79 10 5 11 2 12 1 13 80 14
REMARK SMILES IDX 81 15 82 16 83 17 88 18 84 19 87 20 89 21 85 22 86 23 12 24
REMARK SMILES IDX 13 25 14 26 15 28 16 29 17 30 78 31 18 32 77 33 19 34 20 35
REMARK SMILES IDX 21 36 71 37 22 38 76 39 70 40 72 41 23 42 75 43 69 44 68 45
REMARK SMILES IDX 24 47 56 48 36 49 55 50 37 51 40 52 54 53 73 54 38 55 39 56
REMARK SMILES IDX 53 58 74 59 41 60 25 61 26 62 34 63 27 64 28 65 32 66 35 67
REMARK SMILES IDX 29 68 30 69 33 70 31 71 57 72 58 73 66 74 59 75 60 76 64 77
REMARK SMILES IDX 67 78 61 79 62 80 65 81 63 82 42 83 43 84 51 85 44 86 45 87
REMARK SMILES IDX 49 88 52 89 46 90 47 91 50 92 48 93
REMARK H PARENT 9 6 13 27 72 46 40 57
REMARK Flexibility Score: inf
ROOT
ATOM      1  C   UNL A   1      31.508  32.295  26.894  1.00  0.00     0.042 C 
ENDROOT
BRANCH   1   2
ATOM      2  C   UNL A   1      31.748  30.788  26.934  1.00  0.00     0.117 C 
BRANCH   2   3
ATOM      3  N   UNL A   1      32.646  30.336  25.886  1.00  0.00    -0.354 N 
ATOM      4  C   UNL A   1      32.477  29.337  24.963  1.00  0.00     0.243 C 
ATOM      5  O   UNL A   1      33.414  29.090  24.201  1.00  0.00    -0.273 OA
ATOM      6  H   UNL A   1      33.503  30.818  25.830  1.00  0.00     0.163 HD
BRANCH   4   7
ATOM      7  C   UNL A   1      31.101  28.652  24.838  1.00  0.00     0.185 C 
ATOM      8  C   UNL A   1      29.998  26.577  24.177  1.00  0.00     0.144 C 
ATOM      9  S   UNL A   1      29.517  27.764  22.874  1.00  0.00    -0.134 SA
ATOM     10  N   UNL A   1      31.135  27.183  24.886  1.00  0.00    -0.314 N 
ATOM     11  C   UNL A   1      30.516  29.119  23.509  1.00  0.00     0.107 C 
BRANCH   8  12
ATOM     12  C   UNL A   1      30.126  25.162  23.595  1.00  0.00     0.033 C 
ATOM     13  C   UNL A   1      31.391  24.922  22.774  1.00  0.00     0.007 C 
ENDBRANCH   8  12
BRANCH  10  14
ATOM     14  C   UNL A   1      31.707  26.659  26.054  1.00  0.00     0.258 C 
ATOM     15  O   UNL A   1      31.397  27.049  27.180  1.00  0.00    -0.269 OA
BRANCH  14  16
ATOM     16  C   UNL A   1      32.680  25.566  25.985  1.00  0.00     0.075 A 
ATOM     17  C   UNL A   1      33.936  25.821  25.429  1.00  0.00     0.017 A 
ATOM     18  C   UNL A   1      32.369  24.294  26.459  1.00  0.00     0.136 A 
ATOM     19  C   UNL A   1      34.915  24.828  25.459  1.00  0.00     0.004 A 
ATOM     20  C   UNL A   1      33.349  23.303  26.497  1.00  0.00     0.043 A 
ATOM     21  F   UNL A   1      31.157  24.022  26.961  1.00  0.00    -0.206 F 
ATOM     22  C   UNL A   1      34.643  23.578  26.037  1.00  0.00    -0.048 A 
ATOM     23  C   UNL A   1      35.731  22.551  26.144  1.00  0.00     0.044 C 
ENDBRANCH  14  16
ENDBRANCH  10  14
ENDBRANCH   4   7
ENDBRANCH   2   3
ENDBRANCH   1   2
BRANCH   1  24
ATOM     24  C   UNL A   1      32.765  33.135  27.106  1.00  0.00     0.118 C 
BRANCH  24  25
ATOM     25  N   UNL A   1      32.482  34.425  27.723  1.00  0.00    -0.352 N 
ATOM     26  C   UNL A   1      33.025  35.030  28.829  1.00  0.00     0.251 C 
ATOM     27  H   UNL A   1      31.784  34.951  27.270  1.00  0.00     0.163 HD
ATOM     28  O   UNL A   1      32.509  36.054  29.267  1.00  0.00    -0.269 OA
BRANCH  26  29
ATOM     29  C   UNL A   1      34.209  34.462  29.511  1.00  0.00     0.039 A 
ATOM     30  C   UNL A   1      34.025  33.810  30.736  1.00  0.00     0.014 A 
ATOM     31  C   UNL A   1      35.496  34.605  28.989  1.00  0.00     0.014 A 
ATOM     32  C   UNL A   1      35.120  33.253  31.403  1.00  0.00     0.010 A 
ATOM     33  C   UNL A   1      36.577  33.988  29.618  1.00  0.00     0.010 A 
ATOM     34  C   UNL A   1      36.400  33.308  30.833  1.00  0.00    -0.014 A 
BRANCH  34  35
ATOM     35  C   UNL A   1      37.567  32.661  31.490  1.00  0.00     0.031 A 
ATOM     36  C   UNL A   1      38.273  31.512  30.827  1.00  0.00     0.074 A 
ATOM     37  C   UNL A   1      37.949  33.066  32.718  1.00  0.00     0.049 A 
ATOM     38  N   UNL A   1      39.252  30.768  31.277  1.00  0.00    -0.248 NA
ATOM     39  C   UNL A   1      37.800  31.132  29.486  1.00  0.00     0.031 C 
ATOM     40  C   UNL A   1      37.321  34.142  33.486  1.00  0.00     0.029 A 
ATOM     41  N   UNL A   1      38.949  32.610  33.540  1.00  0.00    -0.354 N 
ATOM     42  C   UNL A   1      39.499  29.824  30.288  1.00  0.00     0.074 A 
ATOM     43  C   UNL A   1      38.535  30.059  29.234  1.00  0.00     0.031 C 
ATOM     44  C   UNL A   1      37.959  34.275  34.660  1.00  0.00     0.029 A 
ATOM     45  C   UNL A   1      39.013  33.268  34.745  1.00  0.00     0.049 A 
ATOM     46  H   UNL A   1      39.562  31.881  33.291  1.00  0.00     0.167 HD
ATOM     47  C   UNL A   1      40.453  28.864  30.253  1.00  0.00     0.037 A 
ATOM     48  C   UNL A   1      39.823  33.074  35.803  1.00  0.00     0.037 A 
ATOM     49  C   UNL A   1      41.426  28.648  31.293  1.00  0.00     0.049 A 
ATOM     50  C   UNL A   1      40.870  31.995  35.742  1.00  0.00     0.074 A 
ATOM     51  C   UNL A   1      42.468  27.739  31.324  1.00  0.00     0.029 A 
ATOM     52  N   UNL A   1      41.472  29.350  32.488  1.00  0.00    -0.354 N 
ATOM     53  N   UNL A   1      41.135  31.152  34.774  1.00  0.00    -0.248 NA
ATOM     54  C   UNL A   1      41.738  31.847  36.919  1.00  0.00     0.031 C 
ATOM     55  C   UNL A   1      43.116  27.856  32.558  1.00  0.00     0.029 A 
ATOM     56  C   UNL A   1      42.514  28.878  33.273  1.00  0.00     0.049 A 
ATOM     57  H   UNL A   1      40.858  30.075  32.743  1.00  0.00     0.167 HD
ATOM     58  C   UNL A   1      42.216  30.398  35.210  1.00  0.00     0.074 A 
ATOM     59  C   UNL A   1      42.567  30.891  36.525  1.00  0.00     0.031 C 
ATOM     60  C   UNL A   1      42.861  29.388  34.575  1.00  0.00     0.037 A 
BRANCH  47  61
ATOM     61  C   UNL A   1      40.494  27.968  29.048  1.00  0.00     0.064 A 
ATOM     62  C   UNL A   1      39.743  26.784  28.985  1.00  0.00     0.173 A 
ATOM     63  C   UNL A   1      41.263  28.317  27.927  1.00  0.00     0.173 A 
ATOM     64  F   UNL A   1      38.999  26.400  30.032  1.00  0.00    -0.203 F 
ATOM     65  C   UNL A   1      39.785  25.968  27.857  1.00  0.00     0.198 A 
ATOM     66  C   UNL A   1      41.277  27.515  26.789  1.00  0.00     0.198 A 
ATOM     67  F   UNL A   1      41.993  29.442  27.931  1.00  0.00    -0.203 F 
ATOM     68  F   UNL A   1      39.099  24.817  27.839  1.00  0.00    -0.200 F 
ATOM     69  C   UNL A   1      40.546  26.337  26.758  1.00  0.00     0.200 A 
ATOM     70  F   UNL A   1      42.000  27.882  25.721  1.00  0.00    -0.200 F 
ATOM     71  F   UNL A   1      40.578  25.555  25.670  1.00  0.00    -0.200 F 
ENDBRANCH  47  61
BRANCH  48  72
ATOM     72  C   UNL A   1      39.690  33.936  37.008  1.00  0.00     0.064 A 
ATOM     73  C   UNL A   1      38.915  33.526  38.102  1.00  0.00     0.173 A 
ATOM     74  C   UNL A   1      40.323  35.184  37.087  1.00  0.00     0.173 A 
ATOM     75  F   UNL A   1      38.273  32.349  38.064  1.00  0.00    -0.203 F 
ATOM     76  C   UNL A   1      38.761  34.342  39.221  1.00  0.00     0.198 A 
ATOM     77  C   UNL A   1      40.192  35.986  38.220  1.00  0.00     0.198 A 
ATOM     78  F   UNL A   1      41.078  35.622  36.070  1.00  0.00    -0.203 F 
ATOM     79  F   UNL A   1      37.977  33.946  40.232  1.00  0.00    -0.200 F 
ATOM     80  C   UNL A   1      39.405  35.568  39.281  1.00  0.00     0.200 A 
ATOM     81  F   UNL A   1      40.828  37.165  38.280  1.00  0.00    -0.200 F 
ATOM     82  F   UNL A   1      39.260  36.351  40.360  1.00  0.00    -0.200 F 
ENDBRANCH  48  72
BRANCH  60  83
ATOM     83  C   UNL A   1      44.042  28.777  35.273  1.00  0.00     0.064 A 
ATOM     84  C   UNL A   1      43.908  27.667  36.121  1.00  0.00     0.173 A 
ATOM     85  C   UNL A   1      45.332  29.287  35.058  1.00  0.00     0.173 A 
ATOM     86  F   UNL A   1      42.695  27.152  36.371  1.00  0.00    -0.203 F 
ATOM     87  C   UNL A   1      45.019  27.108  36.747  1.00  0.00     0.198 A 
ATOM     88  C   UNL A   1      46.443  28.706  35.661  1.00  0.00     0.198 A 
ATOM     89  F   UNL A   1      45.515  30.343  34.252  1.00  0.00    -0.203 F 
ATOM     90  F   UNL A   1      44.862  26.080  37.592  1.00  0.00    -0.200 F 
ATOM     91  C   UNL A   1      46.285  27.623  36.511  1.00  0.00     0.200 A 
ATOM     92  F   UNL A   1      47.668  29.196  35.421  1.00  0.00    -0.200 F 
ATOM     93  F   UNL A   1      47.353  27.078  37.110  1.00  0.00    -0.200 F 
ENDBRANCH  60  83
ENDBRANCH  34  35
ENDBRANCH  26  29
ENDBRANCH  24  25
ENDBRANCH   1  24
TORSDOF 13
ENDMDL
