MODEL 1
REMARK VINA RESULT:     -13.8      0.000      0.000
REMARK SMILES Cc1ccc(F)c(-c2ncccc2C(=O)NCCCNC(=O)c2ccc(-c3c4nc(c(-c5c(F)c(F)c(F)c(F)c5F)c5ccc([nH]5)c(-c5c(F)c(F)c(F)c(F)c5F)c5nc(c(-c6c(F)c(F)c(F)c(F)c6F)c6ccc3[nH]6)C=C5)C=C4)cc2)c1
REMARK SMILES IDX 18 1 17 2 16 3 14 4 15 5 13 7 8 8 9 9 10 10 12 11 11 12 7 13
REMARK SMILES IDX 1 14 2 15 3 16 86 17 4 18 5 19 6 20 19 21 20 22 21 23 22 25
REMARK SMILES IDX 23 26 24 27 85 28 25 29 84 30 26 31 27 32 28 33 78 34 29 35
REMARK SMILES IDX 83 36 77 37 79 38 30 39 82 40 76 41 75 42 31 44 63 45 43 46
REMARK SMILES IDX 62 47 44 48 47 49 61 50 80 51 45 52 46 53 60 55 81 56 48 57
REMARK SMILES IDX 32 58 33 59 41 60 34 61 35 62 39 63 42 64 36 65 37 66 40 67
REMARK SMILES IDX 38 68 64 69 65 70 73 71 66 72 67 73 71 74 74 75 68 76 69 77
REMARK SMILES IDX 72 78 70 79 49 80 50 81 58 82 51 83 52 84 56 85 59 86 53 87
REMARK SMILES IDX 54 88 57 89 55 90
REMARK H PARENT 16 6 20 24 79 43 47 54
REMARK Flexibility Score: inf
ROOT
ATOM      1  C   UNL A   1      33.216  28.510  27.521  1.00  0.00     0.042 C 
ENDROOT
BRANCH   1   2
ATOM      2  C   UNL A   1      31.781  28.846  27.096  1.00  0.00     0.118 C 
BRANCH   2   3
ATOM      3  N   UNL A   1      30.996  27.638  27.014  1.00  0.00    -0.352 N 
ATOM      4  C   UNL A   1      30.851  26.690  26.037  1.00  0.00     0.253 C 
ATOM      5  O   UNL A   1      30.007  25.836  26.298  1.00  0.00    -0.269 OA
ATOM      6  H   UNL A   1      30.457  27.462  27.819  1.00  0.00     0.163 HD
BRANCH   4   7
ATOM      7  C   UNL A   1      31.670  26.662  24.776  1.00  0.00     0.066 A 
ATOM      8  C   UNL A   1      31.166  27.192  23.576  1.00  0.00     0.086 A 
ATOM      9  N   UNL A   1      31.819  27.055  22.381  1.00  0.00    -0.255 NA
ATOM     10  C   UNL A   1      32.998  26.406  22.359  1.00  0.00     0.112 A 
ATOM     11  C   UNL A   1      32.951  26.097  24.704  1.00  0.00     0.018 A 
ATOM     12  C   UNL A   1      33.615  25.938  23.492  1.00  0.00     0.021 A 
BRANCH   8  13
ATOM     13  C   UNL A   1      29.947  27.998  23.465  1.00  0.00     0.037 A 
ATOM     14  C   UNL A   1      28.959  31.690  23.511  1.00  0.00     0.044 C 
ATOM     15  C   UNL A   1      28.860  30.196  23.414  1.00  0.00    -0.050 A 
ATOM     16  C   UNL A   1      27.610  29.570  23.375  1.00  0.00     0.006 A 
ATOM     17  C   UNL A   1      30.017  29.406  23.408  1.00  0.00     0.016 A 
ATOM     18  C   UNL A   1      27.524  28.177  23.374  1.00  0.00     0.040 A 
ATOM     19  C   UNL A   1      28.682  27.406  23.434  1.00  0.00     0.132 A 
ATOM     20  F   UNL A   1      28.556  26.071  23.497  1.00  0.00    -0.206 F 
ENDBRANCH   8  13
ENDBRANCH   4   7
ENDBRANCH   2   3
ENDBRANCH   1   2
BRANCH   1  21
ATOM     21  C   UNL A   1      34.185  29.224  26.618  1.00  0.00     0.118 C 
BRANCH  21  22
ATOM     22  N   UNL A   1      34.375  30.599  27.073  1.00  0.00    -0.352 N 
ATOM     23  C   UNL A   1      35.214  31.065  28.056  1.00  0.00     0.251 C 
ATOM     24  H   UNL A   1      33.829  31.281  26.617  1.00  0.00     0.163 HD
ATOM     25  O   UNL A   1      35.005  32.129  28.607  1.00  0.00    -0.269 OA
BRANCH  23  26
ATOM     26  C   UNL A   1      36.406  30.269  28.369  1.00  0.00     0.039 A 
ATOM     27  C   UNL A   1      36.525  29.570  29.575  1.00  0.00     0.014 A 
ATOM     28  C   UNL A   1      37.459  30.323  27.463  1.00  0.00     0.014 A 
ATOM     29  C   UNL A   1      37.737  28.962  29.873  1.00  0.00     0.010 A 
ATOM     30  C   UNL A   1      38.539  29.536  27.637  1.00  0.00     0.010 A 
ATOM     31  C   UNL A   1      38.730  28.988  28.897  1.00  0.00    -0.014 A 
BRANCH  31  32
ATOM     32  C   UNL A   1      40.081  28.515  29.046  1.00  0.00     0.031 A 
ATOM     33  C   UNL A   1      40.345  27.128  28.699  1.00  0.00     0.074 A 
ATOM     34  C   UNL A   1      40.996  29.500  29.196  1.00  0.00     0.049 A 
ATOM     35  N   UNL A   1      41.353  26.465  29.122  1.00  0.00    -0.248 NA
ATOM     36  C   UNL A   1      39.449  26.348  27.849  1.00  0.00     0.031 C 
ATOM     37  C   UNL A   1      42.428  29.523  28.975  1.00  0.00     0.029 A 
ATOM     38  N   UNL A   1      40.721  30.792  29.685  1.00  0.00    -0.354 N 
ATOM     39  C   UNL A   1      41.456  25.360  28.308  1.00  0.00     0.074 A 
ATOM     40  C   UNL A   1      40.162  25.229  27.681  1.00  0.00     0.031 C 
ATOM     41  C   UNL A   1      42.941  30.579  29.642  1.00  0.00     0.029 A 
ATOM     42  C   UNL A   1      41.859  31.179  30.413  1.00  0.00     0.049 A 
ATOM     43  H   UNL A   1      39.899  31.316  29.547  1.00  0.00     0.167 HD
ATOM     44  C   UNL A   1      42.697  24.833  28.109  1.00  0.00     0.037 A 
ATOM     45  C   UNL A   1      41.734  31.182  31.777  1.00  0.00     0.037 A 
ATOM     46  C   UNL A   1      43.694  25.643  28.826  1.00  0.00     0.049 A 
ATOM     47  C   UNL A   1      42.456  30.012  32.415  1.00  0.00     0.074 A 
ATOM     48  C   UNL A   1      44.563  26.657  28.453  1.00  0.00     0.029 A 
ATOM     49  N   UNL A   1      43.586  25.739  30.200  1.00  0.00    -0.354 N 
ATOM     50  N   UNL A   1      42.997  29.031  31.743  1.00  0.00    -0.248 NA
ATOM     51  C   UNL A   1      42.595  29.835  33.855  1.00  0.00     0.031 C 
ATOM     52  C   UNL A   1      44.949  27.369  29.636  1.00  0.00     0.029 A 
ATOM     53  C   UNL A   1      44.320  26.784  30.721  1.00  0.00     0.049 A 
ATOM     54  H   UNL A   1      43.045  25.126  30.748  1.00  0.00     0.167 HD
ATOM     55  C   UNL A   1      43.561  28.129  32.594  1.00  0.00     0.074 A 
ATOM     56  C   UNL A   1      43.247  28.659  33.913  1.00  0.00     0.031 C 
ATOM     57  C   UNL A   1      44.239  27.023  32.157  1.00  0.00     0.037 A 
BRANCH  44  58
ATOM     58  C   UNL A   1      43.057  23.785  27.083  1.00  0.00     0.064 A 
ATOM     59  C   UNL A   1      42.732  22.431  27.314  1.00  0.00     0.173 A 
ATOM     60  C   UNL A   1      43.697  24.031  25.851  1.00  0.00     0.173 A 
ATOM     61  F   UNL A   1      42.048  22.051  28.401  1.00  0.00    -0.203 F 
ATOM     62  C   UNL A   1      43.083  21.409  26.429  1.00  0.00     0.198 A 
ATOM     63  C   UNL A   1      44.087  23.002  24.985  1.00  0.00     0.198 A 
ATOM     64  F   UNL A   1      43.913  25.271  25.402  1.00  0.00    -0.203 F 
ATOM     65  F   UNL A   1      42.736  20.144  26.707  1.00  0.00    -0.200 F 
ATOM     66  C   UNL A   1      43.782  21.690  25.275  1.00  0.00     0.200 A 
ATOM     67  F   UNL A   1      44.747  23.300  23.855  1.00  0.00    -0.200 F 
ATOM     68  F   UNL A   1      44.130  20.709  24.433  1.00  0.00    -0.200 F 
ENDBRANCH  44  58
BRANCH  45  69
ATOM     69  C   UNL A   1      40.392  31.741  32.177  1.00  0.00     0.064 A 
ATOM     70  C   UNL A   1      39.487  30.833  32.776  1.00  0.00     0.173 A 
ATOM     71  C   UNL A   1      40.224  33.100  32.482  1.00  0.00     0.173 A 
ATOM     72  F   UNL A   1      39.573  29.522  32.498  1.00  0.00    -0.203 F 
ATOM     73  C   UNL A   1      38.625  31.234  33.796  1.00  0.00     0.198 A 
ATOM     74  C   UNL A   1      39.320  33.503  33.472  1.00  0.00     0.198 A 
ATOM     75  F   UNL A   1      41.023  34.022  31.929  1.00  0.00    -0.203 F 
ATOM     76  F   UNL A   1      37.927  30.317  34.482  1.00  0.00    -0.200 F 
ATOM     77  C   UNL A   1      38.574  32.564  34.172  1.00  0.00     0.200 A 
ATOM     78  F   UNL A   1      39.237  34.798  33.811  1.00  0.00    -0.200 F 
ATOM     79  F   UNL A   1      37.839  32.929  35.233  1.00  0.00    -0.200 F 
ENDBRANCH  45  69
BRANCH  57  80
ATOM     80  C   UNL A   1      44.866  26.024  33.095  1.00  0.00     0.064 A 
ATOM     81  C   UNL A   1      46.237  25.739  33.069  1.00  0.00     0.173 A 
ATOM     82  C   UNL A   1      44.098  25.260  34.004  1.00  0.00     0.173 A 
ATOM     83  F   UNL A   1      47.038  26.290  32.146  1.00  0.00    -0.203 F 
ATOM     84  C   UNL A   1      46.817  24.861  33.985  1.00  0.00     0.198 A 
ATOM     85  C   UNL A   1      44.669  24.332  34.866  1.00  0.00     0.198 A 
ATOM     86  F   UNL A   1      42.772  25.398  34.124  1.00  0.00    -0.203 F 
ATOM     87  F   UNL A   1      48.147  24.701  33.994  1.00  0.00    -0.200 F 
ATOM     88  C   UNL A   1      46.034  24.161  34.885  1.00  0.00     0.200 A 
ATOM     89  F   UNL A   1      43.883  23.625  35.691  1.00  0.00    -0.200 F 
ATOM     90  F   UNL A   1      46.593  23.322  35.766  1.00  0.00    -0.200 F 
ENDBRANCH  57  80
ENDBRANCH  31  32
ENDBRANCH  23  26
ENDBRANCH  21  22
ENDBRANCH   1  21
TORSDOF 11
ENDMDL
MODEL 2
REMARK VINA RESULT:     -13.6      1.571      2.893
REMARK SMILES Cc1ccc(F)c(-c2ncccc2C(=O)NCCCNC(=O)c2ccc(-c3c4nc(c(-c5c(F)c(F)c(F)c(F)c5F)c5ccc([nH]5)c(-c5c(F)c(F)c(F)c(F)c5F)c5nc(c(-c6c(F)c(F)c(F)c(F)c6F)c6ccc3[nH]6)C=C5)C=C4)cc2)c1
REMARK SMILES IDX 18 1 17 2 16 3 14 4 15 5 13 7 8 8 9 9 10 10 12 11 11 12 7 13
REMARK SMILES IDX 1 14 2 15 3 16 86 17 4 18 5 19 6 20 19 21 20 22 21 23 22 25
REMARK SMILES IDX 23 26 24 27 85 28 25 29 84 30 26 31 27 32 28 33 78 34 29 35
REMARK SMILES IDX 83 36 77 37 79 38 30 39 82 40 76 41 75 42 31 44 63 45 43 46
REMARK SMILES IDX 62 47 44 48 47 49 61 50 80 51 45 52 46 53 60 55 81 56 48 57
REMARK SMILES IDX 32 58 33 59 41 60 34 61 35 62 39 63 42 64 36 65 37 66 40 67
REMARK SMILES IDX 38 68 64 69 65 70 73 71 66 72 67 73 71 74 74 75 68 76 69 77
REMARK SMILES IDX 72 78 70 79 49 80 50 81 58 82 51 83 52 84 56 85 59 86 53 87
REMARK SMILES IDX 54 88 57 89 55 90
REMARK H PARENT 16 6 20 24 79 43 47 54
REMARK Flexibility Score: inf
ROOT
ATOM      1  C   UNL A   1      33.341  28.913  26.993  1.00  0.00     0.042 C 
ENDROOT
BRANCH   1   2
ATOM      2  C   UNL A   1      32.738  29.915  26.001  1.00  0.00     0.118 C 
BRANCH   2   3
ATOM      3  N   UNL A   1      33.208  29.631  24.667  1.00  0.00    -0.352 N 
ATOM      4  C   UNL A   1      32.615  29.053  23.578  1.00  0.00     0.253 C 
ATOM      5  O   UNL A   1      33.375  28.896  22.626  1.00  0.00    -0.269 OA
ATOM      6  H   UNL A   1      34.141  29.907  24.510  1.00  0.00     0.163 HD
BRANCH   4   7
ATOM      7  C   UNL A   1      31.160  28.675  23.524  1.00  0.00     0.066 A 
ATOM      8  C   UNL A   1      30.739  27.375  23.849  1.00  0.00     0.086 A 
ATOM      9  N   UNL A   1      29.447  26.955  23.673  1.00  0.00    -0.255 NA
ATOM     10  C   UNL A   1      28.544  27.829  23.190  1.00  0.00     0.112 A 
ATOM     11  C   UNL A   1      30.150  29.565  23.132  1.00  0.00     0.018 A 
ATOM     12  C   UNL A   1      28.838  29.144  22.934  1.00  0.00     0.021 A 
BRANCH   8  13
ATOM     13  C   UNL A   1      31.587  26.351  24.467  1.00  0.00     0.037 A 
ATOM     14  C   UNL A   1      33.908  23.525  23.356  1.00  0.00     0.044 C 
ATOM     15  C   UNL A   1      33.152  24.478  24.235  1.00  0.00    -0.050 A 
ATOM     16  C   UNL A   1      33.129  24.296  25.622  1.00  0.00     0.006 A 
ATOM     17  C   UNL A   1      32.420  25.533  23.676  1.00  0.00     0.016 A 
ATOM     18  C   UNL A   1      32.352  25.131  26.426  1.00  0.00     0.040 A 
ATOM     19  C   UNL A   1      31.580  26.136  25.847  1.00  0.00     0.132 A 
ATOM     20  F   UNL A   1      30.796  26.877  26.646  1.00  0.00    -0.206 F 
ENDBRANCH   8  13
ENDBRANCH   4   7
ENDBRANCH   2   3
ENDBRANCH   1   2
BRANCH   1  21
ATOM     21  C   UNL A   1      34.842  28.966  26.908  1.00  0.00     0.118 C 
BRANCH  21  22
ATOM     22  N   UNL A   1      35.311  30.326  27.157  1.00  0.00    -0.352 N 
ATOM     23  C   UNL A   1      36.326  30.741  27.986  1.00  0.00     0.251 C 
ATOM     24  H   UNL A   1      34.838  31.040  26.670  1.00  0.00     0.163 HD
ATOM     25  O   UNL A   1      36.365  31.880  28.409  1.00  0.00    -0.269 OA
BRANCH  23  26
ATOM     26  C   UNL A   1      37.396  29.783  28.285  1.00  0.00     0.039 A 
ATOM     27  C   UNL A   1      37.411  29.049  29.476  1.00  0.00     0.014 A 
ATOM     28  C   UNL A   1      38.453  29.712  27.384  1.00  0.00     0.014 A 
ATOM     29  C   UNL A   1      38.527  28.274  29.765  1.00  0.00     0.010 A 
ATOM     30  C   UNL A   1      39.415  28.781  27.544  1.00  0.00     0.010 A 
ATOM     31  C   UNL A   1      39.520  28.186  28.793  1.00  0.00    -0.014 A 
BRANCH  31  32
ATOM     32  C   UNL A   1      40.793  27.529  28.936  1.00  0.00     0.031 A 
ATOM     33  C   UNL A   1      40.847  26.106  28.646  1.00  0.00     0.074 A 
ATOM     34  C   UNL A   1      41.843  28.378  29.024  1.00  0.00     0.049 A 
ATOM     35  N   UNL A   1      41.761  25.323  29.078  1.00  0.00    -0.248 NA
ATOM     36  C   UNL A   1      39.827  25.428  27.850  1.00  0.00     0.031 C 
ATOM     37  C   UNL A   1      43.258  28.185  28.773  1.00  0.00     0.029 A 
ATOM     38  N   UNL A   1      41.769  29.715  29.460  1.00  0.00    -0.354 N 
ATOM     39  C   UNL A   1      41.683  24.182  28.313  1.00  0.00     0.074 A 
ATOM     40  C   UNL A   1      40.368  24.213  27.718  1.00  0.00     0.031 C 
ATOM     41  C   UNL A   1      43.934  29.183  29.381  1.00  0.00     0.029 A 
ATOM     42  C   UNL A   1      42.969  29.964  30.146  1.00  0.00     0.049 A 
ATOM     43  H   UNL A   1      41.027  30.346  29.315  1.00  0.00     0.167 HD
ATOM     44  C   UNL A   1      42.830  23.474  28.113  1.00  0.00     0.037 A 
ATOM     45  C   UNL A   1      42.881  30.042  31.511  1.00  0.00     0.037 A 
ATOM     46  C   UNL A   1      43.951  24.160  28.774  1.00  0.00     0.049 A 
ATOM     47  C   UNL A   1      43.445  28.807  32.186  1.00  0.00     0.074 A 
ATOM     48  C   UNL A   1      44.946  25.022  28.338  1.00  0.00     0.029 A 
ATOM     49  N   UNL A   1      43.894  24.328  30.143  1.00  0.00    -0.354 N 
ATOM     50  N   UNL A   1      43.823  27.732  31.548  1.00  0.00    -0.248 NA
ATOM     51  C   UNL A   1      43.595  28.672  33.630  1.00  0.00     0.031 C 
ATOM     52  C   UNL A   1      45.461  25.719  29.480  1.00  0.00     0.029 A 
ATOM     53  C   UNL A   1      44.783  25.277  30.602  1.00  0.00     0.049 A 
ATOM     54  H   UNL A   1      43.285  23.823  30.729  1.00  0.00     0.167 HD
ATOM     55  C   UNL A   1      44.274  26.794  32.427  1.00  0.00     0.074 A 
ATOM     56  C   UNL A   1      44.074  27.418  33.728  1.00  0.00     0.031 C 
ATOM     57  C   UNL A   1      44.775  25.584  32.028  1.00  0.00     0.037 A 
BRANCH  44  58
ATOM     58  C   UNL A   1      43.009  22.342  27.128  1.00  0.00     0.064 A 
ATOM     59  C   UNL A   1      42.238  21.167  27.256  1.00  0.00     0.173 A 
ATOM     60  C   UNL A   1      43.896  22.345  26.031  1.00  0.00     0.173 A 
ATOM     61  F   UNL A   1      41.293  21.049  28.198  1.00  0.00    -0.203 F 
ATOM     62  C   UNL A   1      42.393  20.067  26.409  1.00  0.00     0.198 A 
ATOM     63  C   UNL A   1      44.082  21.227  25.209  1.00  0.00     0.198 A 
ATOM     64  F   UNL A   1      44.566  23.442  25.667  1.00  0.00    -0.203 F 
ATOM     65  F   UNL A   1      41.622  18.985  26.582  1.00  0.00    -0.200 F 
ATOM     66  C   UNL A   1      43.332  20.086  25.400  1.00  0.00     0.200 A 
ATOM     67  F   UNL A   1      44.985  21.274  24.219  1.00  0.00    -0.200 F 
ATOM     68  F   UNL A   1      43.490  19.027  24.597  1.00  0.00    -0.200 F 
ENDBRANCH  44  58
BRANCH  45  69
ATOM     69  C   UNL A   1      41.644  30.804  31.912  1.00  0.00     0.064 A 
ATOM     70  C   UNL A   1      40.615  30.053  32.527  1.00  0.00     0.173 A 
ATOM     71  C   UNL A   1      41.689  32.176  32.202  1.00  0.00     0.173 A 
ATOM     72  F   UNL A   1      40.497  28.741  32.264  1.00  0.00    -0.203 F 
ATOM     73  C   UNL A   1      39.833  30.592  33.548  1.00  0.00     0.198 A 
ATOM     74  C   UNL A   1      40.865  32.724  33.193  1.00  0.00     0.198 A 
ATOM     75  F   UNL A   1      42.616  32.959  31.633  1.00  0.00    -0.203 F 
ATOM     76  F   UNL A   1      39.008  29.801  34.249  1.00  0.00    -0.200 F 
ATOM     77  C   UNL A   1      39.989  31.919  33.908  1.00  0.00     0.200 A 
ATOM     78  F   UNL A   1      40.984  34.020  33.516  1.00  0.00    -0.200 F 
ATOM     79  F   UNL A   1      39.328  32.403  34.968  1.00  0.00    -0.200 F 
ENDBRANCH  45  69
BRANCH  57  80
ATOM     80  C   UNL A   1      45.276  24.546  32.996  1.00  0.00     0.064 A 
ATOM     81  C   UNL A   1      44.467  23.492  33.441  1.00  0.00     0.173 A 
ATOM     82  C   UNL A   1      46.567  24.612  33.572  1.00  0.00     0.173 A 
ATOM     83  F   UNL A   1      43.178  23.414  33.082  1.00  0.00    -0.203 F 
ATOM     84  C   UNL A   1      44.961  22.500  34.287  1.00  0.00     0.198 A 
ATOM     85  C   UNL A   1      47.032  23.661  34.472  1.00  0.00     0.198 A 
ATOM     86  F   UNL A   1      47.444  25.577  33.268  1.00  0.00    -0.203 F 
ATOM     87  F   UNL A   1      44.185  21.453  34.601  1.00  0.00    -0.200 F 
ATOM     88  C   UNL A   1      46.243  22.582  34.800  1.00  0.00     0.200 A 
ATOM     89  F   UNL A   1      48.258  23.793  34.998  1.00  0.00    -0.200 F 
ATOM     90  F   UNL A   1      46.718  21.626  35.608  1.00  0.00    -0.200 F 
ENDBRANCH  57  80
ENDBRANCH  31  32
ENDBRANCH  23  26
ENDBRANCH  21  22
ENDBRANCH   1  21
TORSDOF 11
ENDMDL
MODEL 3
REMARK VINA RESULT:     -13.6      1.034      2.401
REMARK SMILES Cc1ccc(F)c(-c2ncccc2C(=O)NCCCNC(=O)c2ccc(-c3c4nc(c(-c5c(F)c(F)c(F)c(F)c5F)c5ccc([nH]5)c(-c5c(F)c(F)c(F)c(F)c5F)c5nc(c(-c6c(F)c(F)c(F)c(F)c6F)c6ccc3[nH]6)C=C5)C=C4)cc2)c1
REMARK SMILES IDX 18 1 17 2 16 3 14 4 15 5 13 7 8 8 9 9 10 10 12 11 11 12 7 13
REMARK SMILES IDX 1 14 2 15 3 16 86 17 4 18 5 19 6 20 19 21 20 22 21 23 22 25
REMARK SMILES IDX 23 26 24 27 85 28 25 29 84 30 26 31 27 32 28 33 78 34 29 35
REMARK SMILES IDX 83 36 77 37 79 38 30 39 82 40 76 41 75 42 31 44 63 45 43 46
REMARK SMILES IDX 62 47 44 48 47 49 61 50 80 51 45 52 46 53 60 55 81 56 48 57
REMARK SMILES IDX 32 58 33 59 41 60 34 61 35 62 39 63 42 64 36 65 37 66 40 67
REMARK SMILES IDX 38 68 64 69 65 70 73 71 66 72 67 73 71 74 74 75 68 76 69 77
REMARK SMILES IDX 72 78 70 79 49 80 50 81 58 82 51 83 52 84 56 85 59 86 53 87
REMARK SMILES IDX 54 88 57 89 55 90
REMARK H PARENT 16 6 20 24 79 43 47 54
REMARK Flexibility Score: inf
ROOT
ATOM      1  C   UNL A   1      33.322  28.199  27.251  1.00  0.00     0.042 C 
ENDROOT
BRANCH   1   2
ATOM      2  C   UNL A   1      31.820  28.424  27.038  1.00  0.00     0.118 C 
BRANCH   2   3
ATOM      3  N   UNL A   1      31.123  27.161  27.070  1.00  0.00    -0.352 N 
ATOM      4  C   UNL A   1      30.652  26.336  26.084  1.00  0.00     0.253 C 
ATOM      5  O   UNL A   1      30.018  25.373  26.507  1.00  0.00    -0.269 OA
ATOM      6  H   UNL A   1      30.950  26.828  27.981  1.00  0.00     0.163 HD
BRANCH   4   7
ATOM      7  C   UNL A   1      30.913  26.556  24.620  1.00  0.00     0.066 A 
ATOM      8  C   UNL A   1      31.952  25.876  23.962  1.00  0.00     0.086 A 
ATOM      9  N   UNL A   1      32.311  26.157  22.670  1.00  0.00    -0.255 NA
ATOM     10  C   UNL A   1      31.629  27.106  22.001  1.00  0.00     0.112 A 
ATOM     11  C   UNL A   1      30.173  27.450  23.833  1.00  0.00     0.018 A 
ATOM     12  C   UNL A   1      30.541  27.755  22.527  1.00  0.00     0.021 A 
BRANCH   8  13
ATOM     13  C   UNL A   1      32.716  24.762  24.531  1.00  0.00     0.037 A 
ATOM     14  C   UNL A   1      36.272  24.078  25.751  1.00  0.00     0.044 C 
ATOM     15  C   UNL A   1      34.821  23.879  25.425  1.00  0.00    -0.050 A 
ATOM     16  C   UNL A   1      34.243  22.609  25.513  1.00  0.00     0.006 A 
ATOM     17  C   UNL A   1      34.039  24.953  24.982  1.00  0.00     0.016 A 
ATOM     18  C   UNL A   1      32.917  22.413  25.124  1.00  0.00     0.040 A 
ATOM     19  C   UNL A   1      32.172  23.479  24.625  1.00  0.00     0.132 A 
ATOM     20  F   UNL A   1      30.922  23.239  24.199  1.00  0.00    -0.206 F 
ENDBRANCH   8  13
ENDBRANCH   4   7
ENDBRANCH   2   3
ENDBRANCH   1   2
BRANCH   1  21
ATOM     21  C   UNL A   1      34.099  29.115  26.346  1.00  0.00     0.118 C 
BRANCH  21  22
ATOM     22  N   UNL A   1      34.166  30.454  26.926  1.00  0.00    -0.352 N 
ATOM     23  C   UNL A   1      34.906  30.883  28.001  1.00  0.00     0.251 C 
ATOM     24  H   UNL A   1      33.607  31.139  26.490  1.00  0.00     0.163 HD
ATOM     25  O   UNL A   1      34.591  31.879  28.622  1.00  0.00    -0.269 OA
BRANCH  23  26
ATOM     26  C   UNL A   1      36.125  30.136  28.330  1.00  0.00     0.039 A 
ATOM     27  C   UNL A   1      36.291  29.513  29.571  1.00  0.00     0.014 A 
ATOM     28  C   UNL A   1      37.155  30.163  27.397  1.00  0.00     0.014 A 
ATOM     29  C   UNL A   1      37.524  28.953  29.875  1.00  0.00     0.010 A 
ATOM     30  C   UNL A   1      38.260  29.415  27.590  1.00  0.00     0.010 A 
ATOM     31  C   UNL A   1      38.493  28.947  28.875  1.00  0.00    -0.014 A 
BRANCH  31  32
ATOM     32  C   UNL A   1      39.860  28.517  29.018  1.00  0.00     0.031 A 
ATOM     33  C   UNL A   1      40.161  27.131  28.700  1.00  0.00     0.074 A 
ATOM     34  C   UNL A   1      40.747  29.532  29.133  1.00  0.00     0.049 A 
ATOM     35  N   UNL A   1      41.193  26.508  29.126  1.00  0.00    -0.248 NA
ATOM     36  C   UNL A   1      39.278  26.304  27.880  1.00  0.00     0.031 C 
ATOM     37  C   UNL A   1      42.175  29.592  28.894  1.00  0.00     0.029 A 
ATOM     38  N   UNL A   1      40.439  30.827  29.595  1.00  0.00    -0.354 N 
ATOM     39  C   UNL A   1      41.318  25.387  28.338  1.00  0.00     0.074 A 
ATOM     40  C   UNL A   1      40.022  25.204  27.729  1.00  0.00     0.031 C 
ATOM     41  C   UNL A   1      42.665  30.678  29.529  1.00  0.00     0.029 A 
ATOM     42  C   UNL A   1      41.574  31.264  30.299  1.00  0.00     0.049 A 
ATOM     43  H   UNL A   1      39.601  31.324  29.455  1.00  0.00     0.167 HD
ATOM     44  C   UNL A   1      42.572  24.892  28.135  1.00  0.00     0.037 A 
ATOM     45  C   UNL A   1      41.465  31.296  31.664  1.00  0.00     0.037 A 
ATOM     46  C   UNL A   1      43.553  25.747  28.821  1.00  0.00     0.049 A 
ATOM     47  C   UNL A   1      42.229  30.163  32.320  1.00  0.00     0.074 A 
ATOM     48  C   UNL A   1      44.387  26.777  28.413  1.00  0.00     0.029 A 
ATOM     49  N   UNL A   1      43.459  25.873  30.193  1.00  0.00    -0.354 N 
ATOM     50  N   UNL A   1      42.791  29.183  31.665  1.00  0.00    -0.248 NA
ATOM     51  C   UNL A   1      42.391  30.025  33.763  1.00  0.00     0.031 C 
ATOM     52  C   UNL A   1      44.766  27.529  29.574  1.00  0.00     0.029 A 
ATOM     53  C   UNL A   1      44.167  26.952  30.680  1.00  0.00     0.049 A 
ATOM     54  H   UNL A   1      42.942  25.258  30.762  1.00  0.00     0.167 HD
ATOM     55  C   UNL A   1      43.392  28.319  32.530  1.00  0.00     0.074 A 
ATOM     56  C   UNL A   1      43.078  28.871  33.840  1.00  0.00     0.031 C 
ATOM     57  C   UNL A   1      44.097  27.222  32.111  1.00  0.00     0.037 A 
BRANCH  44  58
ATOM     58  C   UNL A   1      42.950  23.830  27.129  1.00  0.00     0.064 A 
ATOM     59  C   UNL A   1      42.629  22.478  27.377  1.00  0.00     0.173 A 
ATOM     60  C   UNL A   1      43.606  24.062  25.903  1.00  0.00     0.173 A 
ATOM     61  F   UNL A   1      41.933  22.112  28.460  1.00  0.00    -0.203 F 
ATOM     62  C   UNL A   1      42.997  21.445  26.512  1.00  0.00     0.198 A 
ATOM     63  C   UNL A   1      44.012  23.022  25.057  1.00  0.00     0.198 A 
ATOM     64  F   UNL A   1      43.821  25.296  25.437  1.00  0.00    -0.203 F 
ATOM     65  F   UNL A   1      42.653  20.183  26.805  1.00  0.00    -0.200 F 
ATOM     66  C   UNL A   1      43.710  21.713  25.363  1.00  0.00     0.200 A 
ATOM     67  F   UNL A   1      44.685  23.306  23.932  1.00  0.00    -0.200 F 
ATOM     68  F   UNL A   1      44.074  20.721  24.540  1.00  0.00    -0.200 F 
ENDBRANCH  44  58
BRANCH  45  69
ATOM     69  C   UNL A   1      40.112  31.825  32.068  1.00  0.00     0.064 A 
ATOM     70  C   UNL A   1      39.245  30.909  32.708  1.00  0.00     0.173 A 
ATOM     71  C   UNL A   1      39.906  33.187  32.334  1.00  0.00     0.173 A 
ATOM     72  F   UNL A   1      39.369  29.593  32.469  1.00  0.00    -0.203 F 
ATOM     73  C   UNL A   1      38.386  31.314  33.729  1.00  0.00     0.198 A 
ATOM     74  C   UNL A   1      39.004  33.593  33.325  1.00  0.00     0.198 A 
ATOM     75  F   UNL A   1      40.667  34.116  31.740  1.00  0.00    -0.203 F 
ATOM     76  F   UNL A   1      37.728  30.397  34.454  1.00  0.00    -0.200 F 
ATOM     77  C   UNL A   1      38.298  32.653  34.065  1.00  0.00     0.200 A 
ATOM     78  F   UNL A   1      38.885  34.894  33.624  1.00  0.00    -0.200 F 
ATOM     79  F   UNL A   1      37.568  33.027  35.125  1.00  0.00    -0.200 F 
ENDBRANCH  45  69
BRANCH  57  80
ATOM     80  C   UNL A   1      44.763  26.265  33.064  1.00  0.00     0.064 A 
ATOM     81  C   UNL A   1      46.146  26.042  33.047  1.00  0.00     0.173 A 
ATOM     82  C   UNL A   1      44.027  25.479  33.981  1.00  0.00     0.173 A 
ATOM     83  F   UNL A   1      46.926  26.615  32.119  1.00  0.00    -0.203 F 
ATOM     84  C   UNL A   1      46.761  25.203  33.976  1.00  0.00     0.198 A 
ATOM     85  C   UNL A   1      44.635  24.589  34.857  1.00  0.00     0.198 A 
ATOM     86  F   UNL A   1      42.695  25.560  34.094  1.00  0.00    -0.203 F 
ATOM     87  F   UNL A   1      48.097  25.102  33.992  1.00  0.00    -0.200 F 
ATOM     88  C   UNL A   1      46.007  24.480  34.882  1.00  0.00     0.200 A 
ATOM     89  F   UNL A   1      43.879  23.859  35.688  1.00  0.00    -0.200 F 
ATOM     90  F   UNL A   1      46.599  23.678  35.777  1.00  0.00    -0.200 F 
ENDBRANCH  57  80
ENDBRANCH  31  32
ENDBRANCH  23  26
ENDBRANCH  21  22
ENDBRANCH   1  21
TORSDOF 11
ENDMDL
