MODEL 1
REMARK VINA RESULT:     -13.8      0.000      0.000
REMARK SMILES Cc1ccc(Cn2c(C)c(C[NH2+]C[C@@H]3CCCO3)c(C(=O)NCCCNC(=O)c3ccc(-c4c5nc(c(-c6c(F)c(F)c(F)c(F)c6F)c6ccc([nH]6)c(-c6c(F)c(F)c(F)c(F)c6F)c6nc(c(-c7c(F)c(F)c(F)c(F)c7F)c7ccc4[nH]7)C=C6)C=C5)cc3)c2C)cc1
REMARK SMILES IDX 23 1 22 2 20 3 21 4 19 6 7 7 8 8 92 9 9 10 10 11 93 12 6 13
REMARK SMILES IDX 5 14 1 15 2 16 3 17 95 18 4 19 94 20 11 21 12 22 13 25 14 26
REMARK SMILES IDX 15 27 18 28 16 29 17 30 24 31 25 32 26 33 27 34 28 36 29 37
REMARK SMILES IDX 30 38 91 39 31 40 90 41 32 42 33 43 34 44 84 45 35 46 89 47
REMARK SMILES IDX 83 48 85 49 36 50 88 51 82 52 81 53 37 55 69 56 49 57 68 58
REMARK SMILES IDX 50 59 53 60 67 61 86 62 51 63 52 64 66 66 87 67 54 68 38 69
REMARK SMILES IDX 39 70 47 71 40 72 41 73 45 74 48 75 42 76 43 77 46 78 44 79
REMARK SMILES IDX 70 80 71 81 79 82 72 83 73 84 77 85 80 86 74 87 75 88 78 89
REMARK SMILES IDX 76 90 55 91 56 92 64 93 57 94 58 95 62 96 65 97 59 98 60 99
REMARK SMILES IDX 63 100 61 101
REMARK H PARENT 22 5 12 23 12 24 26 35 85 54 53 65
REMARK Flexibility Score: inf
ROOT
ATOM      1  C   UNL A   1      36.068  21.431  25.128  1.00  0.00     0.118 C 
ENDROOT
BRANCH   1   2
ATOM      2  N   UNL A   1      35.556  21.900  26.401  1.00  0.00    -0.352 N 
ATOM      3  C   UNL A   1      34.447  22.664  26.689  1.00  0.00     0.253 C 
ATOM      4  O   UNL A   1      34.097  22.665  27.870  1.00  0.00    -0.269 OA
ATOM      5  H   UNL A   1      36.085  21.628  27.186  1.00  0.00     0.163 HD
BRANCH   3   6
ATOM      6  C   UNL A   1      33.679  23.338  25.633  1.00  0.00     0.069 A 
ATOM      7  N   UNL A   1      33.109  24.679  23.940  1.00  0.00    -0.343 N 
ATOM      8  C   UNL A   1      32.043  23.813  24.094  1.00  0.00     0.025 A 
ATOM      9  C   UNL A   1      33.816  24.634  25.133  1.00  0.00     0.028 A 
ATOM     10  C   UNL A   1      30.744  23.898  23.368  1.00  0.00     0.065 C 
ATOM     11  C   UNL A   1      32.379  22.941  25.133  1.00  0.00     0.040 A 
ATOM     12  C   UNL A   1      34.378  25.857  25.762  1.00  0.00     0.065 C 
BRANCH   7  13
ATOM     13  C   UNL A   1      33.288  25.691  22.891  1.00  0.00     0.157 C 
BRANCH  13  14
ATOM     14  C   UNL A   1      32.363  26.888  23.022  1.00  0.00    -0.028 A 
ATOM     15  C   UNL A   1      29.604  30.195  23.558  1.00  0.00     0.044 C 
ATOM     16  C   UNL A   1      30.542  29.039  23.377  1.00  0.00    -0.051 A 
ATOM     17  C   UNL A   1      31.732  28.988  24.102  1.00  0.00     0.004 A 
ATOM     18  C   UNL A   1      30.274  28.020  22.458  1.00  0.00     0.004 A 
ATOM     19  C   UNL A   1      32.618  27.921  23.936  1.00  0.00     0.006 A 
ATOM     20  C   UNL A   1      31.173  26.958  22.281  1.00  0.00     0.006 A 
ENDBRANCH  13  14
ENDBRANCH   7  13
BRANCH  11  21
ATOM     21  C   UNL A   1      31.469  21.902  25.749  1.00  0.00     0.300 C 
BRANCH  21  22
ATOM     22  N   UNL A   1      32.273  20.679  25.854  1.00  0.00    -0.340 N 
ATOM     23  H   UNL A   1      31.790  20.033  26.478  1.00  0.00     0.346 HD
ATOM     24  H   UNL A   1      33.189  20.960  26.205  1.00  0.00     0.346 HD
BRANCH  22  25
ATOM     25  C   UNL A   1      32.505  19.997  24.574  1.00  0.00     0.293 C 
BRANCH  25  26
ATOM     26  C   UNL A   1      33.137  18.607  24.748  1.00  0.00     0.173 C 
ATOM     27  C   UNL A   1      33.130  17.745  23.499  1.00  0.00     0.040 C 
ATOM     28  O   UNL A   1      32.374  17.809  25.675  1.00  0.00    -0.372 OA
ATOM     29  C   UNL A   1      33.392  16.372  24.084  1.00  0.00     0.031 C 
ATOM     30  C   UNL A   1      32.773  16.446  25.471  1.00  0.00     0.161 C 
ENDBRANCH  25  26
ENDBRANCH  22  25
ENDBRANCH  21  22
ENDBRANCH  11  21
ENDBRANCH   3   6
ENDBRANCH   1   2
BRANCH   1  31
ATOM     31  C   UNL A   1      37.530  21.813  24.924  1.00  0.00     0.042 C 
BRANCH  31  32
ATOM     32  C   UNL A   1      38.058  22.886  25.862  1.00  0.00     0.118 C 
BRANCH  32  33
ATOM     33  N   UNL A   1      39.513  22.787  26.046  1.00  0.00    -0.352 N 
ATOM     34  C   UNL A   1      40.408  23.707  26.564  1.00  0.00     0.251 C 
ATOM     35  H   UNL A   1      39.911  21.934  25.756  1.00  0.00     0.163 HD
ATOM     36  O   UNL A   1      41.563  23.437  26.752  1.00  0.00    -0.269 OA
BRANCH  34  37
ATOM     37  C   UNL A   1      39.850  25.010  26.993  1.00  0.00     0.039 A 
ATOM     38  C   UNL A   1      40.324  26.154  26.344  1.00  0.00     0.014 A 
ATOM     39  C   UNL A   1      39.187  25.086  28.213  1.00  0.00     0.014 A 
ATOM     40  C   UNL A   1      40.373  27.346  27.054  1.00  0.00     0.010 A 
ATOM     41  C   UNL A   1      39.335  26.242  28.953  1.00  0.00     0.010 A 
ATOM     42  C   UNL A   1      39.998  27.346  28.399  1.00  0.00    -0.014 A 
BRANCH  42  43
ATOM     43  C   UNL A   1      40.389  28.407  29.320  1.00  0.00     0.031 A 
ATOM     44  C   UNL A   1      39.424  29.460  29.694  1.00  0.00     0.074 A 
ATOM     45  C   UNL A   1      41.626  28.418  29.870  1.00  0.00     0.049 A 
ATOM     46  N   UNL A   1      39.766  30.658  30.034  1.00  0.00    -0.248 NA
ATOM     47  C   UNL A   1      37.982  29.255  29.680  1.00  0.00     0.031 C 
ATOM     48  C   UNL A   1      42.089  29.266  30.967  1.00  0.00     0.029 A 
ATOM     49  N   UNL A   1      42.793  27.787  29.404  1.00  0.00    -0.354 N 
ATOM     50  C   UNL A   1      38.651  31.281  30.540  1.00  0.00     0.074 A 
ATOM     51  C   UNL A   1      37.554  30.389  30.243  1.00  0.00     0.031 C 
ATOM     52  C   UNL A   1      43.425  29.364  30.906  1.00  0.00     0.029 A 
ATOM     53  C   UNL A   1      43.852  28.678  29.701  1.00  0.00     0.049 A 
ATOM     54  H   UNL A   1      42.860  26.909  28.963  1.00  0.00     0.167 HD
ATOM     55  C   UNL A   1      38.795  32.420  31.276  1.00  0.00     0.037 A 
ATOM     56  C   UNL A   1      44.648  29.213  28.733  1.00  0.00     0.037 A 
ATOM     57  C   UNL A   1      40.194  32.824  31.373  1.00  0.00     0.049 A 
ATOM     58  C   UNL A   1      44.658  30.722  28.705  1.00  0.00     0.074 A 
ATOM     59  C   UNL A   1      41.153  32.656  32.360  1.00  0.00     0.029 A 
ATOM     60  N   UNL A   1      40.874  33.233  30.231  1.00  0.00    -0.354 N 
ATOM     61  N   UNL A   1      43.751  31.462  29.276  1.00  0.00    -0.248 NA
ATOM     62  C   UNL A   1      45.661  31.515  28.001  1.00  0.00     0.031 C 
ATOM     63  C   UNL A   1      42.418  32.964  31.807  1.00  0.00     0.029 A 
ATOM     64  C   UNL A   1      42.230  33.323  30.484  1.00  0.00     0.049 A 
ATOM     65  H   UNL A   1      40.451  33.430  29.365  1.00  0.00     0.167 HD
ATOM     66  C   UNL A   1      44.002  32.787  29.012  1.00  0.00     0.074 A 
ATOM     67  C   UNL A   1      45.225  32.766  28.232  1.00  0.00     0.031 C 
ATOM     68  C   UNL A   1      43.159  33.768  29.456  1.00  0.00     0.037 A 
BRANCH  55  69
ATOM     69  C   UNL A   1      37.697  32.978  32.151  1.00  0.00     0.064 A 
ATOM     70  C   UNL A   1      36.683  33.804  31.618  1.00  0.00     0.173 A 
ATOM     71  C   UNL A   1      37.624  32.779  33.542  1.00  0.00     0.173 A 
ATOM     72  F   UNL A   1      36.545  33.986  30.300  1.00  0.00    -0.203 F 
ATOM     73  C   UNL A   1      35.769  34.484  32.426  1.00  0.00     0.198 A 
ATOM     74  C   UNL A   1      36.749  33.505  34.356  1.00  0.00     0.198 A 
ATOM     75  F   UNL A   1      38.371  31.843  34.144  1.00  0.00    -0.203 F 
ATOM     76  F   UNL A   1      34.838  35.268  31.861  1.00  0.00    -0.200 F 
ATOM     77  C   UNL A   1      35.830  34.370  33.798  1.00  0.00     0.200 A 
ATOM     78  F   UNL A   1      36.807  33.360  35.687  1.00  0.00    -0.200 F 
ATOM     79  F   UNL A   1      34.994  35.069  34.575  1.00  0.00    -0.200 F 
ENDBRANCH  55  69
BRANCH  56  80
ATOM     80  C   UNL A   1      44.809  28.329  27.553  1.00  0.00     0.064 A 
ATOM     81  C   UNL A   1      45.592  27.166  27.700  1.00  0.00     0.173 A 
ATOM     82  C   UNL A   1      43.926  28.385  26.470  1.00  0.00     0.173 A 
ATOM     83  F   UNL A   1      46.452  27.064  28.725  1.00  0.00    -0.203 F 
ATOM     84  C   UNL A   1      45.404  26.060  26.875  1.00  0.00     0.198 A 
ATOM     85  C   UNL A   1      43.752  27.278  25.637  1.00  0.00     0.198 A 
ATOM     86  F   UNL A   1      43.141  29.456  26.292  1.00  0.00    -0.203 F 
ATOM     87  F   UNL A   1      46.075  24.925  27.118  1.00  0.00    -0.200 F 
ATOM     88  C   UNL A   1      44.462  26.106  25.863  1.00  0.00     0.200 A 
ATOM     89  F   UNL A   1      42.820  27.310  24.674  1.00  0.00    -0.200 F 
ATOM     90  F   UNL A   1      44.205  25.010  25.136  1.00  0.00    -0.200 F 
ENDBRANCH  56  80
BRANCH  68  91
ATOM     91  C   UNL A   1      43.156  35.236  29.074  1.00  0.00     0.064 A 
ATOM     92  C   UNL A   1      42.683  35.745  27.853  1.00  0.00     0.173 A 
ATOM     93  C   UNL A   1      43.522  36.223  30.029  1.00  0.00     0.173 A 
ATOM     94  F   UNL A   1      42.192  34.943  26.903  1.00  0.00    -0.203 F 
ATOM     95  C   UNL A   1      42.636  37.120  27.587  1.00  0.00     0.198 A 
ATOM     96  C   UNL A   1      43.415  37.592  29.783  1.00  0.00     0.198 A 
ATOM     97  F   UNL A   1      43.971  35.894  31.249  1.00  0.00    -0.203 F 
ATOM     98  F   UNL A   1      42.214  37.546  26.389  1.00  0.00    -0.200 F 
ATOM     99  C   UNL A   1      42.987  38.041  28.554  1.00  0.00     0.200 A 
ATOM    100  F   UNL A   1      43.709  38.467  30.754  1.00  0.00    -0.200 F 
ATOM    101  F   UNL A   1      42.890  39.355  28.312  1.00  0.00    -0.200 F 
ENDBRANCH  68  91
ENDBRANCH  42  43
ENDBRANCH  34  37
ENDBRANCH  32  33
ENDBRANCH  31  32
ENDBRANCH   1  31
TORSDOF 16
ENDMDL
MODEL 2
REMARK VINA RESULT:     -13.7      2.097      3.068
REMARK SMILES Cc1ccc(Cn2c(C)c(C[NH2+]C[C@@H]3CCCO3)c(C(=O)NCCCNC(=O)c3ccc(-c4c5nc(c(-c6c(F)c(F)c(F)c(F)c6F)c6ccc([nH]6)c(-c6c(F)c(F)c(F)c(F)c6F)c6nc(c(-c7c(F)c(F)c(F)c(F)c7F)c7ccc4[nH]7)C=C6)C=C5)cc3)c2C)cc1
REMARK SMILES IDX 23 1 22 2 20 3 21 4 19 6 7 7 8 8 92 9 9 10 10 11 93 12 6 13
REMARK SMILES IDX 5 14 1 15 2 16 3 17 95 18 4 19 94 20 11 21 12 22 13 25 14 26
REMARK SMILES IDX 15 27 18 28 16 29 17 30 24 31 25 32 26 33 27 34 28 36 29 37
REMARK SMILES IDX 30 38 91 39 31 40 90 41 32 42 33 43 34 44 84 45 35 46 89 47
REMARK SMILES IDX 83 48 85 49 36 50 88 51 82 52 81 53 37 55 69 56 49 57 68 58
REMARK SMILES IDX 50 59 53 60 67 61 86 62 51 63 52 64 66 66 87 67 54 68 38 69
REMARK SMILES IDX 39 70 47 71 40 72 41 73 45 74 48 75 42 76 43 77 46 78 44 79
REMARK SMILES IDX 70 80 71 81 79 82 72 83 73 84 77 85 80 86 74 87 75 88 78 89
REMARK SMILES IDX 76 90 55 91 56 92 64 93 57 94 58 95 62 96 65 97 59 98 60 99
REMARK SMILES IDX 63 100 61 101
REMARK H PARENT 22 5 12 23 12 24 26 35 85 54 53 65
REMARK Flexibility Score: inf
ROOT
ATOM      1  C   UNL A   1      36.493  23.323  25.665  1.00  0.00     0.118 C 
ENDROOT
BRANCH   1   2
ATOM      2  N   UNL A   1      35.998  23.289  24.302  1.00  0.00    -0.352 N 
ATOM      3  C   UNL A   1      34.761  23.622  23.795  1.00  0.00     0.253 C 
ATOM      4  O   UNL A   1      34.713  23.770  22.573  1.00  0.00    -0.269 OA
ATOM      5  H   UNL A   1      36.649  22.979  23.633  1.00  0.00     0.163 HD
BRANCH   3   6
ATOM      6  C   UNL A   1      33.612  23.886  24.673  1.00  0.00     0.069 A 
ATOM      7  N   UNL A   1      31.963  24.918  25.769  1.00  0.00    -0.343 N 
ATOM      8  C   UNL A   1      31.759  23.569  25.990  1.00  0.00     0.025 A 
ATOM      9  C   UNL A   1      33.286  25.047  25.374  1.00  0.00     0.028 A 
ATOM     10  C   UNL A   1      30.738  22.984  26.905  1.00  0.00     0.065 C 
ATOM     11  C   UNL A   1      32.764  22.890  25.295  1.00  0.00     0.040 A 
ATOM     12  C   UNL A   1      34.149  26.154  25.861  1.00  0.00     0.065 C 
BRANCH   7  13
ATOM     13  C   UNL A   1      31.093  26.027  26.180  1.00  0.00     0.157 C 
BRANCH  13  14
ATOM     14  C   UNL A   1      30.759  26.999  25.062  1.00  0.00    -0.028 A 
ATOM     15  C   UNL A   1      29.638  29.864  22.002  1.00  0.00     0.044 C 
ATOM     16  C   UNL A   1      30.006  28.873  23.065  1.00  0.00    -0.051 A 
ATOM     17  C   UNL A   1      30.997  29.185  23.995  1.00  0.00     0.004 A 
ATOM     18  C   UNL A   1      29.405  27.611  23.124  1.00  0.00     0.004 A 
ATOM     19  C   UNL A   1      31.354  28.266  24.985  1.00  0.00     0.006 A 
ATOM     20  C   UNL A   1      29.778  26.685  24.109  1.00  0.00     0.006 A 
ENDBRANCH  13  14
ENDBRANCH   7  13
BRANCH  11  21
ATOM     21  C   UNL A   1      33.028  21.402  25.346  1.00  0.00     0.300 C 
BRANCH  21  22
ATOM     22  N   UNL A   1      32.037  20.790  24.454  1.00  0.00    -0.340 N 
ATOM     23  H   UNL A   1      31.737  21.493  23.779  1.00  0.00     0.346 HD
ATOM     24  H   UNL A   1      31.274  20.460  25.047  1.00  0.00     0.346 HD
BRANCH  22  25
ATOM     25  C   UNL A   1      32.530  19.621  23.715  1.00  0.00     0.293 C 
BRANCH  25  26
ATOM     26  C   UNL A   1      33.162  18.562  24.632  1.00  0.00     0.173 C 
ATOM     27  C   UNL A   1      34.061  17.564  23.925  1.00  0.00     0.040 C 
ATOM     28  O   UNL A   1      32.150  17.708  25.204  1.00  0.00    -0.372 OA
ATOM     29  C   UNL A   1      34.155  16.463  24.960  1.00  0.00     0.031 C 
ATOM     30  C   UNL A   1      32.823  16.540  25.691  1.00  0.00     0.161 C 
ENDBRANCH  25  26
ENDBRANCH  22  25
ENDBRANCH  21  22
ENDBRANCH  11  21
ENDBRANCH   3   6
ENDBRANCH   1   2
BRANCH   1  31
ATOM     31  C   UNL A   1      37.844  24.021  25.765  1.00  0.00     0.042 C 
BRANCH  31  32
ATOM     32  C   UNL A   1      38.843  23.369  26.708  1.00  0.00     0.118 C 
BRANCH  32  33
ATOM     33  N   UNL A   1      39.431  22.153  26.129  1.00  0.00    -0.352 N 
ATOM     34  C   UNL A   1      40.745  21.716  26.126  1.00  0.00     0.251 C 
ATOM     35  H   UNL A   1      38.792  21.559  25.672  1.00  0.00     0.163 HD
ATOM     36  O   UNL A   1      41.057  20.636  25.701  1.00  0.00    -0.269 OA
BRANCH  34  37
ATOM     37  C   UNL A   1      41.740  22.592  26.786  1.00  0.00     0.039 A 
ATOM     38  C   UNL A   1      41.932  22.421  28.159  1.00  0.00     0.014 A 
ATOM     39  C   UNL A   1      42.159  23.744  26.129  1.00  0.00     0.014 A 
ATOM     40  C   UNL A   1      42.297  23.523  28.920  1.00  0.00     0.010 A 
ATOM     41  C   UNL A   1      42.414  24.863  26.897  1.00  0.00     0.010 A 
ATOM     42  C   UNL A   1      42.406  24.767  28.295  1.00  0.00    -0.014 A 
BRANCH  42  43
ATOM     43  C   UNL A   1      42.376  26.021  29.039  1.00  0.00     0.031 A 
ATOM     44  C   UNL A   1      41.177  26.881  28.999  1.00  0.00     0.074 A 
ATOM     45  C   UNL A   1      43.431  26.393  29.802  1.00  0.00     0.049 A 
ATOM     46  N   UNL A   1      41.208  28.163  29.148  1.00  0.00    -0.248 NA
ATOM     47  C   UNL A   1      39.838  26.363  28.751  1.00  0.00     0.031 C 
ATOM     48  C   UNL A   1      43.468  27.485  30.772  1.00  0.00     0.029 A 
ATOM     49  N   UNL A   1      44.769  25.969  29.706  1.00  0.00    -0.354 N 
ATOM     50  C   UNL A   1      39.913  28.598  29.294  1.00  0.00     0.074 A 
ATOM     51  C   UNL A   1      39.094  27.449  28.980  1.00  0.00     0.031 C 
ATOM     52  C   UNL A   1      44.743  27.865  30.949  1.00  0.00     0.029 A 
ATOM     53  C   UNL A   1      45.552  27.108  30.013  1.00  0.00     0.049 A 
ATOM     54  H   UNL A   1      45.093  25.069  29.474  1.00  0.00     0.167 HD
ATOM     55  C   UNL A   1      39.675  29.843  29.797  1.00  0.00     0.037 A 
ATOM     56  C   UNL A   1      46.438  27.644  29.127  1.00  0.00     0.037 A 
ATOM     57  C   UNL A   1      40.918  30.556  30.075  1.00  0.00     0.049 A 
ATOM     58  C   UNL A   1      46.180  29.094  28.795  1.00  0.00     0.074 A 
ATOM     59  C   UNL A   1      41.639  30.763  31.241  1.00  0.00     0.029 A 
ATOM     60  N   UNL A   1      41.756  30.917  29.027  1.00  0.00    -0.354 N 
ATOM     61  N   UNL A   1      45.047  29.696  29.020  1.00  0.00    -0.248 NA
ATOM     62  C   UNL A   1      47.156  29.965  28.150  1.00  0.00     0.031 C 
ATOM     63  C   UNL A   1      42.920  31.251  30.890  1.00  0.00     0.029 A 
ATOM     64  C   UNL A   1      42.978  31.343  29.511  1.00  0.00     0.049 A 
ATOM     65  H   UNL A   1      41.514  30.875  28.073  1.00  0.00     0.167 HD
ATOM     66  C   UNL A   1      45.107  30.984  28.545  1.00  0.00     0.074 A 
ATOM     67  C   UNL A   1      46.459  31.109  28.035  1.00  0.00     0.031 C 
ATOM     68  C   UNL A   1      44.021  31.813  28.611  1.00  0.00     0.037 A 
BRANCH  55  69
ATOM     69  C   UNL A   1      38.323  30.276  30.314  1.00  0.00     0.064 A 
ATOM     70  C   UNL A   1      37.290  30.657  29.430  1.00  0.00     0.173 A 
ATOM     71  C   UNL A   1      38.006  30.392  31.679  1.00  0.00     0.173 A 
ATOM     72  F   UNL A   1      37.396  30.487  28.108  1.00  0.00    -0.203 F 
ATOM     73  C   UNL A   1      36.100  31.239  29.876  1.00  0.00     0.198 A 
ATOM     74  C   UNL A   1      36.842  31.028  32.124  1.00  0.00     0.198 A 
ATOM     75  F   UNL A   1      38.794  29.853  32.618  1.00  0.00    -0.203 F 
ATOM     76  F   UNL A   1      35.161  31.596  28.987  1.00  0.00    -0.200 F 
ATOM     77  C   UNL A   1      35.895  31.466  31.220  1.00  0.00     0.200 A 
ATOM     78  F   UNL A   1      36.649  31.216  33.437  1.00  0.00    -0.200 F 
ATOM     79  F   UNL A   1      34.783  32.079  31.643  1.00  0.00    -0.200 F 
ENDBRANCH  55  69
BRANCH  56  80
ATOM     80  C   UNL A   1      47.023  26.640  28.205  1.00  0.00     0.064 A 
ATOM     81  C   UNL A   1      46.449  26.504  26.926  1.00  0.00     0.173 A 
ATOM     82  C   UNL A   1      48.314  26.136  28.395  1.00  0.00     0.173 A 
ATOM     83  F   UNL A   1      45.214  26.974  26.693  1.00  0.00    -0.203 F 
ATOM     84  C   UNL A   1      47.183  26.002  25.854  1.00  0.00     0.198 A 
ATOM     85  C   UNL A   1      49.040  25.620  27.320  1.00  0.00     0.198 A 
ATOM     86  F   UNL A   1      48.919  26.256  29.584  1.00  0.00    -0.203 F 
ATOM     87  F   UNL A   1      46.651  26.000  24.623  1.00  0.00    -0.200 F 
ATOM     88  C   UNL A   1      48.489  25.588  26.046  1.00  0.00     0.200 A 
ATOM     89  F   UNL A   1      50.316  25.245  27.498  1.00  0.00    -0.200 F 
ATOM     90  F   UNL A   1      49.231  25.203  24.999  1.00  0.00    -0.200 F 
ENDBRANCH  56  80
BRANCH  68  91
ATOM     91  C   UNL A   1      43.839  33.164  27.945  1.00  0.00     0.064 A 
ATOM     92  C   UNL A   1      43.725  33.365  26.560  1.00  0.00     0.173 A 
ATOM     93  C   UNL A   1      43.631  34.327  28.735  1.00  0.00     0.173 A 
ATOM     94  F   UNL A   1      43.778  32.345  25.697  1.00  0.00    -0.203 F 
ATOM     95  C   UNL A   1      43.482  34.630  26.008  1.00  0.00     0.198 A 
ATOM     96  C   UNL A   1      43.328  35.572  28.185  1.00  0.00     0.198 A 
ATOM     97  F   UNL A   1      43.686  34.291  30.074  1.00  0.00    -0.203 F 
ATOM     98  F   UNL A   1      43.423  34.769  24.676  1.00  0.00    -0.200 F 
ATOM     99  C   UNL A   1      43.270  35.728  26.819  1.00  0.00     0.200 A 
ATOM    100  F   UNL A   1      43.072  36.611  28.992  1.00  0.00    -0.200 F 
ATOM    101  F   UNL A   1      42.986  36.924  26.286  1.00  0.00    -0.200 F 
ENDBRANCH  68  91
ENDBRANCH  42  43
ENDBRANCH  34  37
ENDBRANCH  32  33
ENDBRANCH  31  32
ENDBRANCH   1  31
TORSDOF 16
ENDMDL
MODEL 3
REMARK VINA RESULT:     -13.7      3.924      9.773
REMARK SMILES Cc1ccc(Cn2c(C)c(C[NH2+]C[C@@H]3CCCO3)c(C(=O)NCCCNC(=O)c3ccc(-c4c5nc(c(-c6c(F)c(F)c(F)c(F)c6F)c6ccc([nH]6)c(-c6c(F)c(F)c(F)c(F)c6F)c6nc(c(-c7c(F)c(F)c(F)c(F)c7F)c7ccc4[nH]7)C=C6)C=C5)cc3)c2C)cc1
REMARK SMILES IDX 23 1 22 2 20 3 21 4 19 6 7 7 8 8 92 9 9 10 10 11 93 12 6 13
REMARK SMILES IDX 5 14 1 15 2 16 3 17 95 18 4 19 94 20 11 21 12 22 13 25 14 26
REMARK SMILES IDX 15 27 18 28 16 29 17 30 24 31 25 32 26 33 27 34 28 36 29 37
REMARK SMILES IDX 30 38 91 39 31 40 90 41 32 42 33 43 34 44 84 45 35 46 89 47
REMARK SMILES IDX 83 48 85 49 36 50 88 51 82 52 81 53 37 55 69 56 49 57 68 58
REMARK SMILES IDX 50 59 53 60 67 61 86 62 51 63 52 64 66 66 87 67 54 68 38 69
REMARK SMILES IDX 39 70 47 71 40 72 41 73 45 74 48 75 42 76 43 77 46 78 44 79
REMARK SMILES IDX 70 80 71 81 79 82 72 83 73 84 77 85 80 86 74 87 75 88 78 89
REMARK SMILES IDX 76 90 55 91 56 92 64 93 57 94 58 95 62 96 65 97 59 98 60 99
REMARK SMILES IDX 63 100 61 101
REMARK H PARENT 22 5 12 23 12 24 26 35 85 54 53 65
REMARK Flexibility Score: inf
ROOT
ATOM      1  C   UNL A   1      33.432  28.293  26.481  1.00  0.00     0.118 C 
ENDROOT
BRANCH   1   2
ATOM      2  N   UNL A   1      32.641  29.091  25.564  1.00  0.00    -0.352 N 
ATOM      3  C   UNL A   1      31.845  28.708  24.508  1.00  0.00     0.253 C 
ATOM      4  O   UNL A   1      31.070  29.570  24.090  1.00  0.00    -0.269 OA
ATOM      5  H   UNL A   1      32.680  30.062  25.722  1.00  0.00     0.163 HD
BRANCH   3   6
ATOM      6  C   UNL A   1      31.851  27.330  23.996  1.00  0.00     0.069 A 
ATOM      7  N   UNL A   1      32.530  25.360  23.192  1.00  0.00    -0.343 N 
ATOM      8  C   UNL A   1      31.194  25.186  23.504  1.00  0.00     0.025 A 
ATOM      9  C   UNL A   1      32.724  26.730  23.088  1.00  0.00     0.028 A 
ATOM     10  C   UNL A   1      30.383  23.973  23.200  1.00  0.00     0.065 C 
ATOM     11  C   UNL A   1      30.743  26.398  24.035  1.00  0.00     0.040 A 
ATOM     12  C   UNL A   1      33.566  27.328  22.020  1.00  0.00     0.065 C 
BRANCH   7  13
ATOM     13  C   UNL A   1      33.475  24.337  22.729  1.00  0.00     0.157 C 
BRANCH  13  14
ATOM     14  C   UNL A   1      34.624  24.076  23.687  1.00  0.00    -0.028 A 
ATOM     15  C   UNL A   1      38.009  23.520  26.345  1.00  0.00     0.044 C 
ATOM     16  C   UNL A   1      36.851  23.720  25.412  1.00  0.00    -0.051 A 
ATOM     17  C   UNL A   1      35.732  24.437  25.836  1.00  0.00     0.004 A 
ATOM     18  C   UNL A   1      36.846  23.165  24.129  1.00  0.00     0.004 A 
ATOM     19  C   UNL A   1      34.644  24.622  24.978  1.00  0.00     0.006 A 
ATOM     20  C   UNL A   1      35.745  23.339  23.277  1.00  0.00     0.006 A 
ENDBRANCH  13  14
ENDBRANCH   7  13
BRANCH  11  21
ATOM     21  C   UNL A   1      29.314  26.729  24.400  1.00  0.00     0.300 C 
BRANCH  21  22
ATOM     22  N   UNL A   1      28.772  27.473  23.257  1.00  0.00    -0.340 N 
ATOM     23  H   UNL A   1      28.672  26.827  22.474  1.00  0.00     0.346 HD
ATOM     24  H   UNL A   1      29.428  28.231  23.064  1.00  0.00     0.346 HD
BRANCH  22  25
ATOM     25  C   UNL A   1      27.468  28.099  23.508  1.00  0.00     0.293 C 
BRANCH  25  26
ATOM     26  C   UNL A   1      27.327  29.469  22.825  1.00  0.00     0.173 C 
ATOM     27  C   UNL A   1      28.468  29.836  21.895  1.00  0.00     0.040 C 
ATOM     28  O   UNL A   1      27.371  30.534  23.797  1.00  0.00    -0.372 OA
ATOM     29  C   UNL A   1      28.263  31.330  21.747  1.00  0.00     0.031 C 
ATOM     30  C   UNL A   1      27.642  31.742  23.073  1.00  0.00     0.161 C 
ENDBRANCH  25  26
ENDBRANCH  22  25
ENDBRANCH  21  22
ENDBRANCH  11  21
ENDBRANCH   3   6
ENDBRANCH   1   2
BRANCH   1  31
ATOM     31  C   UNL A   1      34.826  28.873  26.690  1.00  0.00     0.042 C 
BRANCH  31  32
ATOM     32  C   UNL A   1      35.002  29.697  27.955  1.00  0.00     0.118 C 
BRANCH  32  33
ATOM     33  N   UNL A   1      34.087  30.847  27.993  1.00  0.00    -0.352 N 
ATOM     34  C   UNL A   1      34.254  32.097  28.566  1.00  0.00     0.251 C 
ATOM     35  H   UNL A   1      33.223  30.706  27.543  1.00  0.00     0.163 HD
ATOM     36  O   UNL A   1      33.451  32.978  28.418  1.00  0.00    -0.269 OA
BRANCH  34  37
ATOM     37  C   UNL A   1      35.534  32.342  29.270  1.00  0.00     0.039 A 
ATOM     38  C   UNL A   1      36.508  33.075  28.589  1.00  0.00     0.014 A 
ATOM     39  C   UNL A   1      35.849  31.561  30.378  1.00  0.00     0.014 A 
ATOM     40  C   UNL A   1      37.845  32.808  28.854  1.00  0.00     0.010 A 
ATOM     41  C   UNL A   1      37.173  31.218  30.563  1.00  0.00     0.010 A 
ATOM     42  C   UNL A   1      38.163  31.784  29.748  1.00  0.00    -0.014 A 
BRANCH  42  43
ATOM     43  C   UNL A   1      39.481  31.160  29.786  1.00  0.00     0.031 A 
ATOM     44  C   UNL A   1      39.689  29.825  29.193  1.00  0.00     0.074 A 
ATOM     45  C   UNL A   1      40.534  31.813  30.332  1.00  0.00     0.049 A 
ATOM     46  N   UNL A   1      40.585  28.991  29.601  1.00  0.00    -0.248 NA
ATOM     47  C   UNL A   1      38.871  29.305  28.105  1.00  0.00     0.031 C 
ATOM     48  C   UNL A   1      41.942  31.430  30.245  1.00  0.00     0.029 A 
ATOM     49  N   UNL A   1      40.520  32.869  31.261  1.00  0.00    -0.354 N 
ATOM     50  C   UNL A   1      40.655  27.971  28.683  1.00  0.00     0.074 A 
ATOM     51  C   UNL A   1      39.528  28.181  27.802  1.00  0.00     0.031 C 
ATOM     52  C   UNL A   1      42.606  31.982  31.270  1.00  0.00     0.029 A 
ATOM     53  C   UNL A   1      41.627  32.641  32.113  1.00  0.00     0.049 A 
ATOM     54  H   UNL A   1      39.874  33.611  31.308  1.00  0.00     0.167 HD
ATOM     55  C   UNL A   1      41.735  27.138  28.684  1.00  0.00     0.037 A 
ATOM     56  C   UNL A   1      41.487  32.448  33.455  1.00  0.00     0.037 A 
ATOM     57  C   UNL A   1      42.671  27.474  29.752  1.00  0.00     0.049 A 
ATOM     58  C   UNL A   1      42.052  31.139  33.953  1.00  0.00     0.074 A 
ATOM     59  C   UNL A   1      43.852  28.199  29.769  1.00  0.00     0.029 A 
ATOM     60  N   UNL A   1      42.289  27.314  31.079  1.00  0.00    -0.354 N 
ATOM     61  N   UNL A   1      42.320  30.127  33.179  1.00  0.00    -0.248 NA
ATOM     62  C   UNL A   1      42.319  30.853  35.358  1.00  0.00     0.031 C 
ATOM     63  C   UNL A   1      44.182  28.478  31.117  1.00  0.00     0.029 A 
ATOM     64  C   UNL A   1      43.203  27.920  31.920  1.00  0.00     0.049 A 
ATOM     65  H   UNL A   1      41.482  26.837  31.378  1.00  0.00     0.167 HD
ATOM     66  C   UNL A   1      42.753  29.067  33.938  1.00  0.00     0.074 A 
ATOM     67  C   UNL A   1      42.759  29.584  35.294  1.00  0.00     0.031 C 
ATOM     68  C   UNL A   1      43.049  27.861  33.366  1.00  0.00     0.037 A 
BRANCH  55  69
ATOM     69  C   UNL A   1      42.071  26.227  27.526  1.00  0.00     0.064 A 
ATOM     70  C   UNL A   1      41.486  24.948  27.407  1.00  0.00     0.173 A 
ATOM     71  C   UNL A   1      43.014  26.540  26.531  1.00  0.00     0.173 A 
ATOM     72  F   UNL A   1      40.486  24.555  28.204  1.00  0.00    -0.203 F 
ATOM     73  C   UNL A   1      41.915  24.013  26.461  1.00  0.00     0.198 A 
ATOM     74  C   UNL A   1      43.485  25.587  25.622  1.00  0.00     0.198 A 
ATOM     75  F   UNL A   1      43.472  27.790  26.383  1.00  0.00    -0.203 F 
ATOM     76  F   UNL A   1      41.331  22.807  26.407  1.00  0.00    -0.200 F 
ATOM     77  C   UNL A   1      42.946  24.317  25.598  1.00  0.00     0.200 A 
ATOM     78  F   UNL A   1      44.471  25.910  24.772  1.00  0.00    -0.200 F 
ATOM     79  F   UNL A   1      43.398  23.401  24.732  1.00  0.00    -0.200 F 
ENDBRANCH  55  69
BRANCH  56  80
ATOM     80  C   UNL A   1      40.316  33.154  34.029  1.00  0.00     0.064 A 
ATOM     81  C   UNL A   1      39.119  32.429  34.189  1.00  0.00     0.173 A 
ATOM     82  C   UNL A   1      40.461  34.338  34.759  1.00  0.00     0.173 A 
ATOM     83  F   UNL A   1      38.934  31.285  33.511  1.00  0.00    -0.203 F 
ATOM     84  C   UNL A   1      38.168  32.804  35.134  1.00  0.00     0.198 A 
ATOM     85  C   UNL A   1      39.497  34.718  35.696  1.00  0.00     0.198 A 
ATOM     86  F   UNL A   1      41.586  35.060  34.664  1.00  0.00    -0.203 F 
ATOM     87  F   UNL A   1      37.098  32.024  35.351  1.00  0.00    -0.200 F 
ATOM     88  C   UNL A   1      38.372  33.933  35.909  1.00  0.00     0.200 A 
ATOM     89  F   UNL A   1      39.706  35.795  36.467  1.00  0.00    -0.200 F 
ATOM     90  F   UNL A   1      37.511  34.237  36.890  1.00  0.00    -0.200 F 
ENDBRANCH  56  80
BRANCH  68  91
ATOM     91  C   UNL A   1      43.318  26.541  34.062  1.00  0.00     0.064 A 
ATOM     92  C   UNL A   1      42.354  25.789  34.755  1.00  0.00     0.173 A 
ATOM     93  C   UNL A   1      44.583  25.906  33.926  1.00  0.00     0.173 A 
ATOM     94  F   UNL A   1      41.087  26.203  34.860  1.00  0.00    -0.203 F 
ATOM     95  C   UNL A   1      42.645  24.538  35.314  1.00  0.00     0.198 A 
ATOM     96  C   UNL A   1      44.850  24.634  34.431  1.00  0.00     0.198 A 
ATOM     97  F   UNL A   1      45.598  26.487  33.272  1.00  0.00    -0.203 F 
ATOM     98  F   UNL A   1      41.696  23.885  35.999  1.00  0.00    -0.200 F 
ATOM     99  C   UNL A   1      43.885  23.955  35.140  1.00  0.00     0.200 A 
ATOM    100  F   UNL A   1      46.042  24.065  34.204  1.00  0.00    -0.200 F 
ATOM    101  F   UNL A   1      44.140  22.736  35.632  1.00  0.00    -0.200 F 
ENDBRANCH  68  91
ENDBRANCH  42  43
ENDBRANCH  34  37
ENDBRANCH  32  33
ENDBRANCH  31  32
ENDBRANCH   1  31
TORSDOF 16
ENDMDL
