MODEL 1
REMARK VINA RESULT:     -14.4      0.000      0.000
REMARK SMILES C[C@H](C(=O)Nc1ccc(C(F)(F)F)cc1)n1nc(C(=O)NCCCNC(=O)c2ccc(-c3c4nc(c(-c5c(F)c(F)c(F)c(F)c5F)c5ccc([nH]5)c(-c5c(F)c(F)c(F)c(F)c5F)c5nc(c(-c6c(F)c(F)c(F)c(F)c6F)c6ccc3[nH]6)C=C5)C=C4)cc2)c2ccccc2c1=O
REMARK SMILES IDX 22 1 21 2 19 3 20 4 18 6 16 7 17 8 97 9 96 10 98 11 91 12
REMARK SMILES IDX 95 13 92 14 94 15 93 16 2 17 1 18 3 19 4 20 5 21 6 23 7 24
REMARK SMILES IDX 15 25 8 26 14 27 9 28 10 29 11 30 12 31 13 32 23 33 24 34
REMARK SMILES IDX 25 35 26 36 27 38 28 39 29 40 90 41 30 42 89 43 31 44 32 45
REMARK SMILES IDX 33 46 83 47 34 48 88 49 82 50 84 51 35 52 87 53 81 54 80 55
REMARK SMILES IDX 36 57 68 58 48 59 67 60 49 61 52 62 66 63 85 64 50 65 51 66
REMARK SMILES IDX 65 68 86 69 53 70 37 71 38 72 46 73 39 74 40 75 44 76 47 77
REMARK SMILES IDX 41 78 42 79 45 80 43 81 69 82 70 83 78 84 71 85 72 86 76 87
REMARK SMILES IDX 79 88 73 89 74 90 77 91 75 92 54 93 55 94 63 95 56 96 57 97
REMARK SMILES IDX 61 98 64 99 58 100 59 101 62 102 60 103
REMARK H PARENT 21 5 5 22 25 37 84 56 52 67
REMARK Flexibility Score: inf
ROOT
ATOM      1  C   UNL A   1      37.816  21.788  25.520  1.00  0.00     0.118 C 
ENDROOT
BRANCH   1   2
ATOM      2  N   UNL A   1      37.598  22.396  24.213  1.00  0.00    -0.351 N 
ATOM      3  C   UNL A   1      36.375  22.610  23.597  1.00  0.00     0.272 C 
ATOM      4  O   UNL A   1      36.283  22.965  22.432  1.00  0.00    -0.267 OA
ATOM      5  H   UNL A   1      38.399  22.684  23.717  1.00  0.00     0.163 HD
BRANCH   3   6
ATOM      6  C   UNL A   1      35.147  22.530  24.498  1.00  0.00     0.156 A 
ATOM      7  N   UNL A   1      33.267  23.703  25.142  1.00  0.00    -0.216 N 
ATOM      8  N   UNL A   1      34.657  23.636  24.977  1.00  0.00    -0.163 NA
ATOM      9  C   UNL A   1      32.474  22.761  24.453  1.00  0.00     0.275 A 
ATOM     10  C   UNL A   1      33.044  21.397  24.405  1.00  0.00     0.051 A 
ATOM     11  O   UNL A   1      31.371  22.976  23.966  1.00  0.00    -0.267 OA
ATOM     12  C   UNL A   1      34.417  21.270  24.526  1.00  0.00     0.020 A 
ATOM     13  C   UNL A   1      32.249  20.256  24.310  1.00  0.00     0.014 A 
ATOM     14  C   UNL A   1      35.023  20.020  24.650  1.00  0.00     0.011 A 
ATOM     15  C   UNL A   1      32.844  18.996  24.425  1.00  0.00     0.001 A 
ATOM     16  C   UNL A   1      34.224  18.880  24.617  1.00  0.00     0.001 A 
BRANCH   7  17
ATOM     17  C   UNL A   1      32.745  25.072  25.380  1.00  0.00     0.197 C 
ATOM     18  C   UNL A   1      33.864  26.075  25.714  1.00  0.00     0.044 C 
BRANCH  17  19
ATOM     19  C   UNL A   1      31.569  25.278  26.371  1.00  0.00     0.249 C 
ATOM     20  O   UNL A   1      31.423  24.478  27.307  1.00  0.00    -0.272 OA
ATOM     21  N   UNL A   1      30.639  26.272  26.246  1.00  0.00    -0.324 N 
ATOM     22  H   UNL A   1      30.049  26.405  27.023  1.00  0.00     0.170 HD
BRANCH  21  23
ATOM     23  C   UNL A   1      30.416  27.125  25.166  1.00  0.00     0.041 A 
ATOM     24  C   UNL A   1      29.483  26.746  24.202  1.00  0.00     0.027 A 
ATOM     25  C   UNL A   1      31.066  28.351  25.063  1.00  0.00     0.027 A 
ATOM     26  C   UNL A   1      29.095  27.664  23.222  1.00  0.00     0.015 A 
ATOM     27  C   UNL A   1      30.691  29.262  24.079  1.00  0.00     0.015 A 
ATOM     28  C   UNL A   1      29.672  28.943  23.173  1.00  0.00     0.056 A 
BRANCH  28  29
ATOM     29  C   UNL A   1      29.184  29.961  22.173  1.00  0.00     0.416 C 
ATOM     30  F   UNL A   1      28.047  29.568  21.539  1.00  0.00    -0.166 F 
ATOM     31  F   UNL A   1      28.893  31.159  22.752  1.00  0.00    -0.166 F 
ATOM     32  F   UNL A   1      30.089  30.236  21.192  1.00  0.00    -0.166 F 
ENDBRANCH  28  29
ENDBRANCH  21  23
ENDBRANCH  17  19
ENDBRANCH   7  17
ENDBRANCH   3   6
ENDBRANCH   1   2
BRANCH   1  33
ATOM     33  C   UNL A   1      38.624  20.501  25.378  1.00  0.00     0.042 C 
BRANCH  33  34
ATOM     34  C   UNL A   1      39.674  20.378  26.460  1.00  0.00     0.118 C 
BRANCH  34  35
ATOM     35  N   UNL A   1      40.604  19.291  26.189  1.00  0.00    -0.352 N 
ATOM     36  C   UNL A   1      41.970  19.369  26.065  1.00  0.00     0.251 C 
ATOM     37  H   UNL A   1      40.207  18.395  26.084  1.00  0.00     0.163 HD
ATOM     38  O   UNL A   1      42.624  18.411  25.667  1.00  0.00    -0.269 OA
BRANCH  36  39
ATOM     39  C   UNL A   1      42.632  20.649  26.387  1.00  0.00     0.039 A 
ATOM     40  C   UNL A   1      43.110  21.453  25.350  1.00  0.00     0.014 A 
ATOM     41  C   UNL A   1      42.700  21.079  27.714  1.00  0.00     0.014 A 
ATOM     42  C   UNL A   1      43.599  22.726  25.643  1.00  0.00     0.010 A 
ATOM     43  C   UNL A   1      43.089  22.380  27.989  1.00  0.00     0.010 A 
ATOM     44  C   UNL A   1      43.555  23.212  26.959  1.00  0.00    -0.014 A 
BRANCH  44  45
ATOM     45  C   UNL A   1      44.025  24.572  27.319  1.00  0.00     0.031 A 
ATOM     46  C   UNL A   1      43.026  25.580  27.812  1.00  0.00     0.074 A 
ATOM     47  C   UNL A   1      45.305  24.926  27.102  1.00  0.00     0.049 A 
ATOM     48  N   UNL A   1      43.164  26.866  27.998  1.00  0.00    -0.248 NA
ATOM     49  C   UNL A   1      41.670  25.074  28.085  1.00  0.00     0.031 C 
ATOM     50  C   UNL A   1      46.358  24.043  26.600  1.00  0.00     0.029 A 
ATOM     51  N   UNL A   1      45.932  26.136  27.259  1.00  0.00    -0.354 N 
ATOM     52  C   UNL A   1      41.909  27.326  28.376  1.00  0.00     0.074 A 
ATOM     53  C   UNL A   1      41.008  26.195  28.327  1.00  0.00     0.031 C 
ATOM     54  C   UNL A   1      47.506  24.734  26.513  1.00  0.00     0.029 A 
ATOM     55  C   UNL A   1      47.258  26.119  26.902  1.00  0.00     0.049 A 
ATOM     56  H   UNL A   1      45.475  26.940  27.597  1.00  0.00     0.167 HD
ATOM     57  C   UNL A   1      41.545  28.573  28.756  1.00  0.00     0.037 A 
ATOM     58  C   UNL A   1      48.163  27.115  26.879  1.00  0.00     0.037 A 
ATOM     59  C   UNL A   1      42.458  29.682  28.832  1.00  0.00     0.049 A 
ATOM     60  C   UNL A   1      47.733  28.500  27.286  1.00  0.00     0.074 A 
ATOM     61  C   UNL A   1      42.212  30.977  29.246  1.00  0.00     0.029 A 
ATOM     62  N   UNL A   1      43.801  29.619  28.486  1.00  0.00    -0.354 N 
ATOM     63  N   UNL A   1      46.555  28.919  27.681  1.00  0.00    -0.248 NA
ATOM     64  C   UNL A   1      48.759  29.551  27.243  1.00  0.00     0.031 C 
ATOM     65  C   UNL A   1      43.396  31.710  29.112  1.00  0.00     0.029 A 
ATOM     66  C   UNL A   1      44.394  30.856  28.666  1.00  0.00     0.049 A 
ATOM     67  H   UNL A   1      44.263  28.812  28.161  1.00  0.00     0.167 HD
ATOM     68  C   UNL A   1      46.706  30.268  27.972  1.00  0.00     0.074 A 
ATOM     69  C   UNL A   1      48.093  30.597  27.709  1.00  0.00     0.031 C 
ATOM     70  C   UNL A   1      45.784  31.153  28.421  1.00  0.00     0.037 A 
BRANCH  57  71
ATOM     71  C   UNL A   1      40.103  28.791  29.114  1.00  0.00     0.064 A 
ATOM     72  C   UNL A   1      39.633  28.612  30.425  1.00  0.00     0.173 A 
ATOM     73  C   UNL A   1      39.175  29.178  28.135  1.00  0.00     0.173 A 
ATOM     74  F   UNL A   1      40.475  28.230  31.399  1.00  0.00    -0.203 F 
ATOM     75  C   UNL A   1      38.284  28.763  30.733  1.00  0.00     0.198 A 
ATOM     76  C   UNL A   1      37.832  29.365  28.455  1.00  0.00     0.198 A 
ATOM     77  F   UNL A   1      39.568  29.368  26.867  1.00  0.00    -0.203 F 
ATOM     78  F   UNL A   1      37.850  28.514  31.976  1.00  0.00    -0.200 F 
ATOM     79  C   UNL A   1      37.386  29.145  29.749  1.00  0.00     0.200 A 
ATOM     80  F   UNL A   1      36.967  29.747  27.505  1.00  0.00    -0.200 F 
ATOM     81  F   UNL A   1      36.086  29.289  30.045  1.00  0.00    -0.200 F 
ENDBRANCH  57  71
BRANCH  58  82
ATOM     82  C   UNL A   1      49.570  26.834  26.492  1.00  0.00     0.064 A 
ATOM     83  C   UNL A   1      50.508  26.438  27.457  1.00  0.00     0.173 A 
ATOM     84  C   UNL A   1      50.009  26.945  25.165  1.00  0.00     0.173 A 
ATOM     85  F   UNL A   1      50.141  26.335  28.743  1.00  0.00    -0.203 F 
ATOM     86  C   UNL A   1      51.833  26.182  27.112  1.00  0.00     0.198 A 
ATOM     87  C   UNL A   1      51.328  26.663  24.815  1.00  0.00     0.198 A 
ATOM     88  F   UNL A   1      49.151  27.315  24.202  1.00  0.00    -0.203 F 
ATOM     89  F   UNL A   1      52.717  25.846  28.061  1.00  0.00    -0.200 F 
ATOM     90  C   UNL A   1      52.241  26.288  25.791  1.00  0.00     0.200 A 
ATOM     91  F   UNL A   1      51.715  26.752  23.537  1.00  0.00    -0.200 F 
ATOM     92  F   UNL A   1      53.514  26.036  25.459  1.00  0.00    -0.200 F 
ENDBRANCH  58  82
BRANCH  70  93
ATOM     93  C   UNL A   1      46.251  32.547  28.722  1.00  0.00     0.064 A 
ATOM     94  C   UNL A   1      46.198  33.568  27.763  1.00  0.00     0.173 A 
ATOM     95  C   UNL A   1      46.698  32.875  30.011  1.00  0.00     0.173 A 
ATOM     96  F   UNL A   1      45.793  33.300  26.513  1.00  0.00    -0.203 F 
ATOM     97  C   UNL A   1      46.593  34.865  28.080  1.00  0.00     0.198 A 
ATOM     98  C   UNL A   1      47.062  34.179  30.332  1.00  0.00     0.198 A 
ATOM     99  F   UNL A   1      46.761  31.934  30.965  1.00  0.00    -0.203 F 
ATOM    100  F   UNL A   1      46.572  35.818  27.138  1.00  0.00    -0.200 F 
ATOM    101  C   UNL A   1      47.014  35.171  29.365  1.00  0.00     0.200 A 
ATOM    102  F   UNL A   1      47.455  34.476  31.579  1.00  0.00    -0.200 F 
ATOM    103  F   UNL A   1      47.378  36.424  29.672  1.00  0.00    -0.200 F 
ENDBRANCH  70  93
ENDBRANCH  44  45
ENDBRANCH  36  39
ENDBRANCH  34  35
ENDBRANCH  33  34
ENDBRANCH   1  33
TORSDOF 14
ENDMDL
MODEL 2
REMARK VINA RESULT:     -14.3      4.408      8.419
REMARK SMILES C[C@H](C(=O)Nc1ccc(C(F)(F)F)cc1)n1nc(C(=O)NCCCNC(=O)c2ccc(-c3c4nc(c(-c5c(F)c(F)c(F)c(F)c5F)c5ccc([nH]5)c(-c5c(F)c(F)c(F)c(F)c5F)c5nc(c(-c6c(F)c(F)c(F)c(F)c6F)c6ccc3[nH]6)C=C5)C=C4)cc2)c2ccccc2c1=O
REMARK SMILES IDX 22 1 21 2 19 3 20 4 18 6 16 7 17 8 97 9 96 10 98 11 91 12
REMARK SMILES IDX 95 13 92 14 94 15 93 16 2 17 1 18 3 19 4 20 5 21 6 23 7 24
REMARK SMILES IDX 15 25 8 26 14 27 9 28 10 29 11 30 12 31 13 32 23 33 24 34
REMARK SMILES IDX 25 35 26 36 27 38 28 39 29 40 90 41 30 42 89 43 31 44 32 45
REMARK SMILES IDX 33 46 83 47 34 48 88 49 82 50 84 51 35 52 87 53 81 54 80 55
REMARK SMILES IDX 36 57 68 58 48 59 67 60 49 61 52 62 66 63 85 64 50 65 51 66
REMARK SMILES IDX 65 68 86 69 53 70 37 71 38 72 46 73 39 74 40 75 44 76 47 77
REMARK SMILES IDX 41 78 42 79 45 80 43 81 69 82 70 83 78 84 71 85 72 86 76 87
REMARK SMILES IDX 79 88 73 89 74 90 77 91 75 92 54 93 55 94 63 95 56 96 57 97
REMARK SMILES IDX 61 98 64 99 58 100 59 101 62 102 60 103
REMARK H PARENT 21 5 5 22 25 37 84 56 52 67
REMARK Flexibility Score: inf
ROOT
ATOM      1  C   UNL A   1      37.997  22.135  25.756  1.00  0.00     0.118 C 
ENDROOT
BRANCH   1   2
ATOM      2  N   UNL A   1      37.769  22.601  24.392  1.00  0.00    -0.351 N 
ATOM      3  C   UNL A   1      36.555  22.638  23.727  1.00  0.00     0.272 C 
ATOM      4  O   UNL A   1      36.470  22.877  22.532  1.00  0.00    -0.267 OA
ATOM      5  H   UNL A   1      38.556  22.920  23.894  1.00  0.00     0.163 HD
BRANCH   3   6
ATOM      6  C   UNL A   1      35.308  22.519  24.597  1.00  0.00     0.156 A 
ATOM      7  N   UNL A   1      33.372  23.626  25.189  1.00  0.00    -0.216 N 
ATOM      8  N   UNL A   1      34.767  23.608  25.059  1.00  0.00    -0.163 NA
ATOM      9  C   UNL A   1      32.630  22.653  24.486  1.00  0.00     0.275 A 
ATOM     10  C   UNL A   1      33.249  21.310  24.459  1.00  0.00     0.051 A 
ATOM     11  O   UNL A   1      31.532  22.826  23.971  1.00  0.00    -0.267 OA
ATOM     12  C   UNL A   1      34.623  21.233  24.614  1.00  0.00     0.020 A 
ATOM     13  C   UNL A   1      32.499  20.141  24.351  1.00  0.00     0.014 A 
ATOM     14  C   UNL A   1      35.270  20.006  24.760  1.00  0.00     0.011 A 
ATOM     15  C   UNL A   1      33.135  18.903  24.488  1.00  0.00     0.001 A 
ATOM     16  C   UNL A   1      34.513  18.838  24.715  1.00  0.00     0.001 A 
BRANCH   7  17
ATOM     17  C   UNL A   1      32.796  24.976  25.406  1.00  0.00     0.197 C 
ATOM     18  C   UNL A   1      33.871  26.023  25.750  1.00  0.00     0.044 C 
BRANCH  17  19
ATOM     19  C   UNL A   1      31.596  25.146  26.374  1.00  0.00     0.249 C 
ATOM     20  O   UNL A   1      31.442  24.327  27.292  1.00  0.00    -0.272 OA
ATOM     21  N   UNL A   1      30.655  26.130  26.249  1.00  0.00    -0.324 N 
ATOM     22  H   UNL A   1      30.046  26.239  27.015  1.00  0.00     0.170 HD
BRANCH  21  23
ATOM     23  C   UNL A   1      30.442  27.000  25.181  1.00  0.00     0.041 A 
ATOM     24  C   UNL A   1      29.488  26.657  24.224  1.00  0.00     0.027 A 
ATOM     25  C   UNL A   1      31.124  28.209  25.083  1.00  0.00     0.027 A 
ATOM     26  C   UNL A   1      29.113  27.596  23.259  1.00  0.00     0.015 A 
ATOM     27  C   UNL A   1      30.762  29.141  24.114  1.00  0.00     0.015 A 
ATOM     28  C   UNL A   1      29.725  28.859  23.216  1.00  0.00     0.056 A 
BRANCH  28  29
ATOM     29  C   UNL A   1      29.253  29.901  22.233  1.00  0.00     0.416 C 
ATOM     30  F   UNL A   1      30.131  30.092  21.212  1.00  0.00    -0.166 F 
ATOM     31  F   UNL A   1      28.069  29.567  21.650  1.00  0.00    -0.166 F 
ATOM     32  F   UNL A   1      29.054  31.127  22.795  1.00  0.00    -0.166 F 
ENDBRANCH  28  29
ENDBRANCH  21  23
ENDBRANCH  17  19
ENDBRANCH   7  17
ENDBRANCH   3   6
ENDBRANCH   1   2
BRANCH   1  33
ATOM     33  C   UNL A   1      39.239  21.249  25.812  1.00  0.00     0.042 C 
BRANCH  33  34
ATOM     34  C   UNL A   1      40.409  21.969  26.444  1.00  0.00     0.118 C 
BRANCH  34  35
ATOM     35  N   UNL A   1      41.544  22.054  25.535  1.00  0.00    -0.352 N 
ATOM     36  C   UNL A   1      42.444  23.086  25.413  1.00  0.00     0.251 C 
ATOM     37  H   UNL A   1      41.684  21.282  24.940  1.00  0.00     0.163 HD
ATOM     38  O   UNL A   1      43.254  23.113  24.493  1.00  0.00    -0.269 OA
BRANCH  36  39
ATOM     39  C   UNL A   1      42.388  24.185  26.397  1.00  0.00     0.039 A 
ATOM     40  C   UNL A   1      42.756  25.474  26.006  1.00  0.00     0.014 A 
ATOM     41  C   UNL A   1      41.893  23.942  27.680  1.00  0.00     0.014 A 
ATOM     42  C   UNL A   1      42.562  26.538  26.888  1.00  0.00     0.010 A 
ATOM     43  C   UNL A   1      41.607  25.012  28.513  1.00  0.00     0.010 A 
ATOM     44  C   UNL A   1      41.951  26.318  28.132  1.00  0.00    -0.014 A 
BRANCH  44  45
ATOM     45  C   UNL A   1      41.686  27.417  29.091  1.00  0.00     0.031 A 
ATOM     46  C   UNL A   1      42.582  27.570  30.288  1.00  0.00     0.074 A 
ATOM     47  C   UNL A   1      40.595  28.192  28.950  1.00  0.00     0.049 A 
ATOM     48  N   UNL A   1      42.434  28.320  31.348  1.00  0.00    -0.248 NA
ATOM     49  C   UNL A   1      43.787  26.724  30.313  1.00  0.00     0.031 C 
ATOM     50  C   UNL A   1      39.637  28.117  27.846  1.00  0.00     0.029 A 
ATOM     51  N   UNL A   1      40.098  29.185  29.755  1.00  0.00    -0.354 N 
ATOM     52  C   UNL A   1      43.504  28.010  32.177  1.00  0.00     0.074 A 
ATOM     53  C   UNL A   1      44.256  26.958  31.528  1.00  0.00     0.031 C 
ATOM     54  C   UNL A   1      38.681  29.042  28.031  1.00  0.00     0.029 A 
ATOM     55  C   UNL A   1      38.929  29.737  29.291  1.00  0.00     0.049 A 
ATOM     56  H   UNL A   1      40.538  29.476  30.587  1.00  0.00     0.167 HD
ATOM     57  C   UNL A   1      43.846  28.572  33.361  1.00  0.00     0.037 A 
ATOM     58  C   UNL A   1      38.143  30.687  29.832  1.00  0.00     0.037 A 
ATOM     59  C   UNL A   1      43.109  29.640  33.979  1.00  0.00     0.049 A 
ATOM     60  C   UNL A   1      38.531  31.284  31.159  1.00  0.00     0.074 A 
ATOM     61  C   UNL A   1      43.387  30.316  35.153  1.00  0.00     0.029 A 
ATOM     62  N   UNL A   1      41.943  30.191  33.465  1.00  0.00    -0.354 N 
ATOM     63  N   UNL A   1      39.566  31.016  31.918  1.00  0.00    -0.248 NA
ATOM     64  C   UNL A   1      37.639  32.316  31.706  1.00  0.00     0.031 C 
ATOM     65  C   UNL A   1      42.367  31.248  35.370  1.00  0.00     0.029 A 
ATOM     66  C   UNL A   1      41.482  31.190  34.304  1.00  0.00     0.049 A 
ATOM     67  H   UNL A   1      41.509  29.911  32.626  1.00  0.00     0.167 HD
ATOM     68  C   UNL A   1      39.474  31.871  33.008  1.00  0.00     0.074 A 
ATOM     69  C   UNL A   1      38.281  32.668  32.810  1.00  0.00     0.031 C 
ATOM     70  C   UNL A   1      40.304  31.989  34.072  1.00  0.00     0.037 A 
BRANCH  57  71
ATOM     71  C   UNL A   1      45.068  28.034  34.050  1.00  0.00     0.064 A 
ATOM     72  C   UNL A   1      44.991  26.974  34.968  1.00  0.00     0.173 A 
ATOM     73  C   UNL A   1      46.332  28.588  33.797  1.00  0.00     0.173 A 
ATOM     74  F   UNL A   1      43.805  26.416  35.258  1.00  0.00    -0.203 F 
ATOM     75  C   UNL A   1      46.122  26.523  35.641  1.00  0.00     0.198 A 
ATOM     76  C   UNL A   1      47.468  28.108  34.444  1.00  0.00     0.198 A 
ATOM     77  F   UNL A   1      46.466  29.599  32.926  1.00  0.00    -0.203 F 
ATOM     78  F   UNL A   1      46.010  25.560  36.566  1.00  0.00    -0.200 F 
ATOM     79  C   UNL A   1      47.361  27.086  35.375  1.00  0.00     0.200 A 
ATOM     80  F   UNL A   1      48.666  28.644  34.175  1.00  0.00    -0.200 F 
ATOM     81  F   UNL A   1      48.450  26.652  36.025  1.00  0.00    -0.200 F 
ENDBRANCH  57  71
BRANCH  58  82
ATOM     82  C   UNL A   1      36.936  31.156  29.105  1.00  0.00     0.064 A 
ATOM     83  C   UNL A   1      35.829  30.310  28.942  1.00  0.00     0.173 A 
ATOM     84  C   UNL A   1      36.851  32.449  28.567  1.00  0.00     0.173 A 
ATOM     85  F   UNL A   1      35.868  29.059  29.423  1.00  0.00    -0.203 F 
ATOM     86  C   UNL A   1      34.694  30.731  28.254  1.00  0.00     0.198 A 
ATOM     87  C   UNL A   1      35.705  32.879  27.902  1.00  0.00     0.198 A 
ATOM     88  F   UNL A   1      37.879  33.299  28.699  1.00  0.00    -0.203 F 
ATOM     89  F   UNL A   1      33.669  29.887  28.077  1.00  0.00    -0.200 F 
ATOM     90  C   UNL A   1      34.629  32.017  27.740  1.00  0.00     0.200 A 
ATOM     91  F   UNL A   1      35.640  34.127  27.419  1.00  0.00    -0.200 F 
ATOM     92  F   UNL A   1      33.535  32.424  27.083  1.00  0.00    -0.200 F 
ENDBRANCH  58  82
BRANCH  70  93
ATOM     93  C   UNL A   1      39.993  33.060  35.076  1.00  0.00     0.064 A 
ATOM     94  C   UNL A   1      39.252  32.794  36.236  1.00  0.00     0.173 A 
ATOM     95  C   UNL A   1      40.502  34.356  34.901  1.00  0.00     0.173 A 
ATOM     96  F   UNL A   1      38.731  31.576  36.441  1.00  0.00    -0.203 F 
ATOM     97  C   UNL A   1      39.017  33.794  37.176  1.00  0.00     0.198 A 
ATOM     98  C   UNL A   1      40.292  35.343  35.858  1.00  0.00     0.198 A 
ATOM     99  F   UNL A   1      41.223  34.658  33.811  1.00  0.00    -0.203 F 
ATOM    100  F   UNL A   1      38.272  33.531  38.259  1.00  0.00    -0.200 F 
ATOM    101  C   UNL A   1      39.544  35.063  36.992  1.00  0.00     0.200 A 
ATOM    102  F   UNL A   1      40.816  36.565  35.685  1.00  0.00    -0.200 F 
ATOM    103  F   UNL A   1      39.331  36.019  37.907  1.00  0.00    -0.200 F 
ENDBRANCH  70  93
ENDBRANCH  44  45
ENDBRANCH  36  39
ENDBRANCH  34  35
ENDBRANCH  33  34
ENDBRANCH   1  33
TORSDOF 14
ENDMDL
MODEL 3
REMARK VINA RESULT:     -14.1      0.634      2.054
REMARK SMILES C[C@H](C(=O)Nc1ccc(C(F)(F)F)cc1)n1nc(C(=O)NCCCNC(=O)c2ccc(-c3c4nc(c(-c5c(F)c(F)c(F)c(F)c5F)c5ccc([nH]5)c(-c5c(F)c(F)c(F)c(F)c5F)c5nc(c(-c6c(F)c(F)c(F)c(F)c6F)c6ccc3[nH]6)C=C5)C=C4)cc2)c2ccccc2c1=O
REMARK SMILES IDX 22 1 21 2 19 3 20 4 18 6 16 7 17 8 97 9 96 10 98 11 91 12
REMARK SMILES IDX 95 13 92 14 94 15 93 16 2 17 1 18 3 19 4 20 5 21 6 23 7 24
REMARK SMILES IDX 15 25 8 26 14 27 9 28 10 29 11 30 12 31 13 32 23 33 24 34
REMARK SMILES IDX 25 35 26 36 27 38 28 39 29 40 90 41 30 42 89 43 31 44 32 45
REMARK SMILES IDX 33 46 83 47 34 48 88 49 82 50 84 51 35 52 87 53 81 54 80 55
REMARK SMILES IDX 36 57 68 58 48 59 67 60 49 61 52 62 66 63 85 64 50 65 51 66
REMARK SMILES IDX 65 68 86 69 53 70 37 71 38 72 46 73 39 74 40 75 44 76 47 77
REMARK SMILES IDX 41 78 42 79 45 80 43 81 69 82 70 83 78 84 71 85 72 86 76 87
REMARK SMILES IDX 79 88 73 89 74 90 77 91 75 92 54 93 55 94 63 95 56 96 57 97
REMARK SMILES IDX 61 98 64 99 58 100 59 101 62 102 60 103
REMARK H PARENT 21 5 5 22 25 37 84 56 52 67
REMARK Flexibility Score: inf
ROOT
ATOM      1  C   UNL A   1      37.914  21.585  25.551  1.00  0.00     0.118 C 
ENDROOT
BRANCH   1   2
ATOM      2  N   UNL A   1      37.726  22.267  24.275  1.00  0.00    -0.351 N 
ATOM      3  C   UNL A   1      36.518  22.534  23.654  1.00  0.00     0.272 C 
ATOM      4  O   UNL A   1      36.449  22.952  22.509  1.00  0.00    -0.267 OA
ATOM      5  H   UNL A   1      38.540  22.566  23.808  1.00  0.00     0.163 HD
BRANCH   3   6
ATOM      6  C   UNL A   1      35.274  22.427  24.531  1.00  0.00     0.156 A 
ATOM      7  N   UNL A   1      33.362  23.562  25.146  1.00  0.00    -0.216 N 
ATOM      8  N   UNL A   1      34.756  23.521  25.008  1.00  0.00    -0.163 NA
ATOM      9  C   UNL A   1      32.599  22.610  24.437  1.00  0.00     0.275 A 
ATOM     10  C   UNL A   1      33.193  21.257  24.392  1.00  0.00     0.051 A 
ATOM     11  O   UNL A   1      31.501  22.809  23.930  1.00  0.00    -0.267 OA
ATOM     12  C   UNL A   1      34.566  21.154  24.538  1.00  0.00     0.020 A 
ATOM     13  C   UNL A   1      32.421  20.103  24.275  1.00  0.00     0.014 A 
ATOM     14  C   UNL A   1      35.192  19.914  24.666  1.00  0.00     0.011 A 
ATOM     15  C   UNL A   1      33.036  18.853  24.394  1.00  0.00     0.001 A 
ATOM     16  C   UNL A   1      34.414  18.760  24.612  1.00  0.00     0.001 A 
BRANCH   7  17
ATOM     17  C   UNL A   1      32.811  24.920  25.382  1.00  0.00     0.197 C 
ATOM     18  C   UNL A   1      33.906  25.942  25.740  1.00  0.00     0.044 C 
BRANCH  17  19
ATOM     19  C   UNL A   1      31.614  25.099  26.353  1.00  0.00     0.249 C 
ATOM     20  O   UNL A   1      31.437  24.263  27.251  1.00  0.00    -0.272 OA
ATOM     21  N   UNL A   1      30.700  26.110  26.250  1.00  0.00    -0.324 N 
ATOM     22  H   UNL A   1      30.094  26.218  27.018  1.00  0.00     0.170 HD
BRANCH  21  23
ATOM     23  C   UNL A   1      30.513  27.011  25.203  1.00  0.00     0.041 A 
ATOM     24  C   UNL A   1      29.673  26.644  24.152  1.00  0.00     0.027 A 
ATOM     25  C   UNL A   1      31.105  28.270  25.214  1.00  0.00     0.027 A 
ATOM     26  C   UNL A   1      29.311  27.596  23.196  1.00  0.00     0.015 A 
ATOM     27  C   UNL A   1      30.757  29.217  24.254  1.00  0.00     0.015 A 
ATOM     28  C   UNL A   1      29.825  28.902  23.258  1.00  0.00     0.056 A 
BRANCH  28  29
ATOM     29  C   UNL A   1      29.359  29.951  22.279  1.00  0.00     0.416 C 
ATOM     30  F   UNL A   1      29.210  31.174  22.855  1.00  0.00    -0.166 F 
ATOM     31  F   UNL A   1      30.234  30.126  21.251  1.00  0.00    -0.166 F 
ATOM     32  F   UNL A   1      28.161  29.658  21.699  1.00  0.00    -0.166 F 
ENDBRANCH  28  29
ENDBRANCH  21  23
ENDBRANCH  17  19
ENDBRANCH   7  17
ENDBRANCH   3   6
ENDBRANCH   1   2
BRANCH   1  33
ATOM     33  C   UNL A   1      38.643  20.260  25.343  1.00  0.00     0.042 C 
BRANCH  33  34
ATOM     34  C   UNL A   1      39.555  19.936  26.505  1.00  0.00     0.118 C 
BRANCH  34  35
ATOM     35  N   UNL A   1      40.738  19.202  26.075  1.00  0.00    -0.352 N 
ATOM     36  C   UNL A   1      42.008  19.693  25.894  1.00  0.00     0.251 C 
ATOM     37  H   UNL A   1      40.612  18.242  25.893  1.00  0.00     0.163 HD
ATOM     38  O   UNL A   1      42.879  19.012  25.365  1.00  0.00    -0.269 OA
BRANCH  36  39
ATOM     39  C   UNL A   1      42.292  21.078  26.319  1.00  0.00     0.039 A 
ATOM     40  C   UNL A   1      42.650  21.329  27.645  1.00  0.00     0.014 A 
ATOM     41  C   UNL A   1      42.279  22.108  25.376  1.00  0.00     0.014 A 
ATOM     42  C   UNL A   1      43.063  22.611  28.011  1.00  0.00     0.010 A 
ATOM     43  C   UNL A   1      42.787  23.351  25.718  1.00  0.00     0.010 A 
ATOM     44  C   UNL A   1      43.170  23.619  27.042  1.00  0.00    -0.014 A 
BRANCH  44  45
ATOM     45  C   UNL A   1      43.640  24.987  27.368  1.00  0.00     0.031 A 
ATOM     46  C   UNL A   1      42.669  25.967  27.964  1.00  0.00     0.074 A 
ATOM     47  C   UNL A   1      44.884  25.375  27.032  1.00  0.00     0.049 A 
ATOM     48  N   UNL A   1      42.793  27.255  28.147  1.00  0.00    -0.248 NA
ATOM     49  C   UNL A   1      41.358  25.427  28.361  1.00  0.00     0.031 C 
ATOM     50  C   UNL A   1      45.905  24.521  26.423  1.00  0.00     0.029 A 
ATOM     51  N   UNL A   1      45.494  26.598  27.139  1.00  0.00    -0.354 N 
ATOM     52  C   UNL A   1      41.570  27.681  28.648  1.00  0.00     0.074 A 
ATOM     53  C   UNL A   1      40.696  26.529  28.676  1.00  0.00     0.031 C 
ATOM     54  C   UNL A   1      47.023  25.241  26.233  1.00  0.00     0.029 A 
ATOM     55  C   UNL A   1      46.780  26.617  26.656  1.00  0.00     0.049 A 
ATOM     56  H   UNL A   1      45.053  27.389  27.527  1.00  0.00     0.167 HD
ATOM     57  C   UNL A   1      41.215  28.917  29.072  1.00  0.00     0.037 A 
ATOM     58  C   UNL A   1      47.654  27.635  26.555  1.00  0.00     0.037 A 
ATOM     59  C   UNL A   1      42.104  30.047  29.071  1.00  0.00     0.049 A 
ATOM     60  C   UNL A   1      47.232  29.006  27.015  1.00  0.00     0.074 A 
ATOM     61  C   UNL A   1      41.868  31.333  29.519  1.00  0.00     0.029 A 
ATOM     62  N   UNL A   1      43.408  30.019  28.597  1.00  0.00    -0.354 N 
ATOM     63  N   UNL A   1      46.088  29.393  27.524  1.00  0.00    -0.248 NA
ATOM     64  C   UNL A   1      48.224  30.082  26.882  1.00  0.00     0.031 C 
ATOM     65  C   UNL A   1      43.015  32.095  29.278  1.00  0.00     0.029 A 
ATOM     66  C   UNL A   1      43.986  31.270  28.730  1.00  0.00     0.049 A 
ATOM     67  H   UNL A   1      43.856  29.227  28.222  1.00  0.00     0.167 HD
ATOM     68  C   UNL A   1      46.234  30.744  27.812  1.00  0.00     0.074 A 
ATOM     69  C   UNL A   1      47.581  31.108  27.420  1.00  0.00     0.031 C 
ATOM     70  C   UNL A   1      45.338  31.602  28.356  1.00  0.00     0.037 A 
BRANCH  57  71
ATOM     71  C   UNL A   1      39.809  29.096  29.570  1.00  0.00     0.064 A 
ATOM     72  C   UNL A   1      38.766  29.479  28.712  1.00  0.00     0.173 A 
ATOM     73  C   UNL A   1      39.499  28.889  30.923  1.00  0.00     0.173 A 
ATOM     74  F   UNL A   1      39.009  29.703  27.411  1.00  0.00    -0.203 F 
ATOM     75  C   UNL A   1      37.479  29.695  29.196  1.00  0.00     0.198 A 
ATOM     76  C   UNL A   1      38.202  29.070  31.397  1.00  0.00     0.198 A 
ATOM     77  F   UNL A   1      40.454  28.518  31.787  1.00  0.00    -0.203 F 
ATOM     78  F   UNL A   1      36.518  30.131  28.370  1.00  0.00    -0.200 F 
ATOM     79  C   UNL A   1      37.196  29.485  30.537  1.00  0.00     0.200 A 
ATOM     80  F   UNL A   1      37.927  28.853  32.690  1.00  0.00    -0.200 F 
ATOM     81  F   UNL A   1      35.957  29.695  31.003  1.00  0.00    -0.200 F 
ENDBRANCH  57  71
BRANCH  58  82
ATOM     82  C   UNL A   1      49.023  27.392  26.032  1.00  0.00     0.064 A 
ATOM     83  C   UNL A   1      49.278  27.444  24.654  1.00  0.00     0.173 A 
ATOM     84  C   UNL A   1      50.102  27.111  26.884  1.00  0.00     0.173 A 
ATOM     85  F   UNL A   1      48.277  27.691  23.798  1.00  0.00    -0.203 F 
ATOM     86  C   UNL A   1      50.554  27.207  24.147  1.00  0.00     0.198 A 
ATOM     87  C   UNL A   1      51.384  26.900  26.378  1.00  0.00     0.198 A 
ATOM     88  F   UNL A   1      49.913  27.054  28.210  1.00  0.00    -0.203 F 
ATOM     89  F   UNL A   1      50.760  27.222  22.824  1.00  0.00    -0.200 F 
ATOM     90  C   UNL A   1      51.607  26.941  25.009  1.00  0.00     0.200 A 
ATOM     91  F   UNL A   1      52.401  26.659  27.214  1.00  0.00    -0.200 F 
ATOM     92  F   UNL A   1      52.835  26.719  24.522  1.00  0.00    -0.200 F 
ENDBRANCH  58  82
BRANCH  70  93
ATOM     93  C   UNL A   1      45.799  33.005  28.623  1.00  0.00     0.064 A 
ATOM     94  C   UNL A   1      46.447  33.357  29.815  1.00  0.00     0.173 A 
ATOM     95  C   UNL A   1      45.644  33.995  27.640  1.00  0.00     0.173 A 
ATOM     96  F   UNL A   1      46.604  32.452  30.791  1.00  0.00    -0.203 F 
ATOM     97  C   UNL A   1      46.907  34.656  30.020  1.00  0.00     0.198 A 
ATOM     98  C   UNL A   1      46.133  35.281  27.835  1.00  0.00     0.198 A 
ATOM     99  F   UNL A   1      45.036  33.705  26.479  1.00  0.00    -0.203 F 
ATOM    100  F   UNL A   1      47.489  34.982  31.182  1.00  0.00    -0.200 F 
ATOM    101  C   UNL A   1      46.760  35.613  29.027  1.00  0.00     0.200 A 
ATOM    102  F   UNL A   1      46.004  36.201  26.868  1.00  0.00    -0.200 F 
ATOM    103  F   UNL A   1      47.219  36.857  29.220  1.00  0.00    -0.200 F 
ENDBRANCH  70  93
ENDBRANCH  44  45
ENDBRANCH  36  39
ENDBRANCH  34  35
ENDBRANCH  33  34
ENDBRANCH   1  33
TORSDOF 14
ENDMDL
