MODEL 1
REMARK VINA RESULT:     -12.4      0.000      0.000
REMARK SMILES N#CCC(=O)N/N=C/c1ccc(OCc2ccc(C(=O)NCCCNC(=O)c3ccc(-c4c5nc(c(-c6c(F)c(F)c(F)c(F)c6F)c6ccc([nH]6)c(-c6c(F)c(F)c(F)c(F)c6F)c6nc(c(-c7c(F)c(F)c(F)c(F)c7F)c7ccc4[nH]7)C=C6)C=C5)cc3)cc2)c(Br)c1
REMARK SMILES IDX 15 1 16 2 17 3 18 4 91 5 92 6 14 7 13 8 12 9 9 10 10 11
REMARK SMILES IDX 95 12 11 13 93 14 94 15 8 16 7 17 6 18 4 19 5 20 3 22 2 23
REMARK SMILES IDX 1 24 19 25 20 26 21 27 22 29 23 30 24 31 25 32 26 33 27 35
REMARK SMILES IDX 28 36 29 37 90 38 30 39 89 40 31 41 32 42 33 43 83 44 34 45
REMARK SMILES IDX 88 46 82 47 84 48 35 49 87 50 81 51 80 52 36 54 68 55 48 56
REMARK SMILES IDX 67 57 49 58 52 59 66 60 85 61 50 62 51 63 65 65 86 66 53 67
REMARK SMILES IDX 37 68 38 69 46 70 39 71 40 72 44 73 47 74 41 75 42 76 45 77
REMARK SMILES IDX 43 78 69 79 70 80 78 81 71 82 72 83 76 84 79 85 73 86 74 87
REMARK SMILES IDX 77 88 75 89 54 90 55 91 63 92 56 93 57 94 61 95 64 96 58 97
REMARK SMILES IDX 59 98 62 99 60 100
REMARK H PARENT 6 21 21 28 25 34 84 53 52 64
REMARK Flexibility Score: inf
ROOT
ATOM      1  C   UNL A   1      32.988  25.673  25.442  1.00  0.00    -0.011 A 
ATOM      2  C   UNL A   1      33.658  26.669  24.725  1.00  0.00     0.008 A 
ATOM      3  C   UNL A   1      33.000  27.850  24.358  1.00  0.00     0.014 A 
ATOM      4  C   UNL A   1      31.673  28.086  24.743  1.00  0.00     0.039 A 
ATOM      5  C   UNL A   1      31.052  27.151  25.569  1.00  0.00     0.014 A 
ATOM      6  C   UNL A   1      31.690  25.950  25.894  1.00  0.00     0.008 A 
ENDROOT
BRANCH   1   7
ATOM      7  C   UNL A   1      33.578  24.315  25.772  1.00  0.00     0.265 C 
BRANCH   7   8
ATOM      8  O   UNL A   1      34.363  23.640  24.792  1.00  0.00    -0.488 OA
BRANCH   8   9
ATOM      9  C   UNL A   1      35.419  22.837  25.105  1.00  0.00     0.134 A 
ATOM     10  C   UNL A   1      37.917  21.653  25.594  1.00  0.00    -0.004 A 
ATOM     11  C   UNL A   1      37.800  23.034  25.632  1.00  0.00     0.013 A 
ATOM     12  C   UNL A   1      36.789  20.858  25.379  1.00  0.00     0.029 A 
ATOM     13  C   UNL A   1      36.553  23.613  25.414  1.00  0.00     0.048 A 
ATOM     14  C   UNL A   1      35.534  21.443  25.132  1.00  0.00     0.060 A 
ATOM     15  Br  UNL A   1      34.102  20.217  24.900  1.00  0.00    -0.047 Br
BRANCH  10  16
ATOM     16  C   UNL A   1      39.261  21.078  25.751  1.00  0.00     0.141 C 
ATOM     17  N   UNL A   1      40.131  21.581  26.565  1.00  0.00    -0.181 NA
BRANCH  17  18
ATOM     18  N   UNL A   1      41.318  20.916  26.612  1.00  0.00    -0.246 N 
ATOM     19  C   UNL A   1      42.470  21.356  25.998  1.00  0.00     0.254 C 
ATOM     20  O   UNL A   1      43.452  20.613  25.933  1.00  0.00    -0.272 OA
ATOM     21  H   UNL A   1      41.355  20.070  27.114  1.00  0.00     0.193 HD
BRANCH  19  22
ATOM     22  C   UNL A   1      42.541  22.787  25.521  1.00  0.00     0.221 C 
BRANCH  22  23
ATOM     23  C   UNL A   1      43.747  23.008  24.622  1.00  0.00     0.072 C 
ATOM     24  N   UNL A   1      44.747  23.191  23.877  1.00  0.00    -0.198 NA
ENDBRANCH  22  23
ENDBRANCH  19  22
ENDBRANCH  17  18
ENDBRANCH  10  16
ENDBRANCH   8   9
ENDBRANCH   7   8
ENDBRANCH   1   7
BRANCH   4  25
ATOM     25  C   UNL A   1      31.045  29.352  24.267  1.00  0.00     0.251 C 
ATOM     26  O   UNL A   1      30.484  29.365  23.170  1.00  0.00    -0.269 OA
ATOM     27  N   UNL A   1      31.010  30.507  25.006  1.00  0.00    -0.352 N 
ATOM     28  H   UNL A   1      30.569  31.258  24.548  1.00  0.00     0.163 HD
BRANCH  27  29
ATOM     29  C   UNL A   1      31.499  30.835  26.332  1.00  0.00     0.118 C 
BRANCH  29  30
ATOM     30  C   UNL A   1      31.403  32.337  26.601  1.00  0.00     0.042 C 
BRANCH  30  31
ATOM     31  C   UNL A   1      32.675  32.936  27.193  1.00  0.00     0.118 C 
BRANCH  31  32
ATOM     32  N   UNL A   1      32.481  34.308  27.626  1.00  0.00    -0.352 N 
ATOM     33  C   UNL A   1      32.997  34.982  28.702  1.00  0.00     0.251 C 
ATOM     34  H   UNL A   1      31.880  34.840  27.055  1.00  0.00     0.163 HD
ATOM     35  O   UNL A   1      32.529  36.078  28.997  1.00  0.00    -0.269 OA
BRANCH  33  36
ATOM     36  C   UNL A   1      34.106  34.422  29.512  1.00  0.00     0.039 A 
ATOM     37  C   UNL A   1      35.400  34.476  28.983  1.00  0.00     0.014 A 
ATOM     38  C   UNL A   1      33.883  33.762  30.725  1.00  0.00     0.014 A 
ATOM     39  C   UNL A   1      36.462  33.878  29.664  1.00  0.00     0.010 A 
ATOM     40  C   UNL A   1      34.955  33.227  31.439  1.00  0.00     0.010 A 
ATOM     41  C   UNL A   1      36.250  33.251  30.900  1.00  0.00    -0.014 A 
BRANCH  41  42
ATOM     42  C   UNL A   1      37.365  32.561  31.598  1.00  0.00     0.031 A 
ATOM     43  C   UNL A   1      38.080  31.417  30.931  1.00  0.00     0.074 A 
ATOM     44  C   UNL A   1      37.726  32.954  32.834  1.00  0.00     0.049 A 
ATOM     45  N   UNL A   1      39.077  30.691  31.374  1.00  0.00    -0.248 NA
ATOM     46  C   UNL A   1      37.597  31.019  29.600  1.00  0.00     0.031 C 
ATOM     47  C   UNL A   1      37.083  34.019  33.604  1.00  0.00     0.029 A 
ATOM     48  N   UNL A   1      38.726  32.503  33.659  1.00  0.00    -0.354 N 
ATOM     49  C   UNL A   1      39.325  29.746  30.385  1.00  0.00     0.074 A 
ATOM     50  C   UNL A   1      38.344  29.957  29.344  1.00  0.00     0.031 C 
ATOM     51  C   UNL A   1      37.720  34.157  34.777  1.00  0.00     0.029 A 
ATOM     52  C   UNL A   1      38.800  33.179  34.852  1.00  0.00     0.049 A 
ATOM     53  H   UNL A   1      39.332  31.765  33.419  1.00  0.00     0.167 HD
ATOM     54  C   UNL A   1      40.300  28.806  30.337  1.00  0.00     0.037 A 
ATOM     55  C   UNL A   1      39.653  33.030  35.884  1.00  0.00     0.037 A 
ATOM     56  C   UNL A   1      41.296  28.618  31.359  1.00  0.00     0.049 A 
ATOM     57  C   UNL A   1      40.749  32.004  35.789  1.00  0.00     0.074 A 
ATOM     58  C   UNL A   1      42.350  27.722  31.388  1.00  0.00     0.029 A 
ATOM     59  N   UNL A   1      41.363  29.352  32.535  1.00  0.00    -0.354 N 
ATOM     60  N   UNL A   1      41.010  31.157  34.823  1.00  0.00    -0.248 NA
ATOM     61  C   UNL A   1      41.681  31.928  36.923  1.00  0.00     0.031 C 
ATOM     62  C   UNL A   1      43.037  27.892  32.595  1.00  0.00     0.029 A 
ATOM     63  C   UNL A   1      42.438  28.924  33.299  1.00  0.00     0.049 A 
ATOM     64  H   UNL A   1      40.739  30.068  32.790  1.00  0.00     0.167 HD
ATOM     65  C   UNL A   1      42.153  30.473  35.215  1.00  0.00     0.074 A 
ATOM     66  C   UNL A   1      42.542  31.014  36.501  1.00  0.00     0.031 C 
ATOM     67  C   UNL A   1      42.820  29.485  34.569  1.00  0.00     0.037 A 
BRANCH  54  68
ATOM     68  C   UNL A   1      40.337  27.908  29.134  1.00  0.00     0.064 A 
ATOM     69  C   UNL A   1      41.089  28.236  27.995  1.00  0.00     0.173 A 
ATOM     70  C   UNL A   1      39.633  26.694  29.126  1.00  0.00     0.173 A 
ATOM     71  F   UNL A   1      41.769  29.392  27.946  1.00  0.00    -0.203 F 
ATOM     72  C   UNL A   1      41.112  27.398  26.884  1.00  0.00     0.198 A 
ATOM     73  C   UNL A   1      39.683  25.844  28.025  1.00  0.00     0.198 A 
ATOM     74  F   UNL A   1      38.903  26.328  30.190  1.00  0.00    -0.203 F 
ATOM     75  F   UNL A   1      41.797  27.758  25.789  1.00  0.00    -0.200 F 
ATOM     76  C   UNL A   1      40.414  26.200  26.902  1.00  0.00     0.200 A 
ATOM     77  F   UNL A   1      39.017  24.681  28.047  1.00  0.00    -0.200 F 
ATOM     78  F   UNL A   1      40.440  25.392  25.832  1.00  0.00    -0.200 F 
ENDBRANCH  54  68
BRANCH  55  79
ATOM     79  C   UNL A   1      39.535  33.910  37.074  1.00  0.00     0.064 A 
ATOM     80  C   UNL A   1      38.818  33.497  38.206  1.00  0.00     0.173 A 
ATOM     81  C   UNL A   1      40.128  35.180  37.105  1.00  0.00     0.173 A 
ATOM     82  F   UNL A   1      38.218  32.297  38.217  1.00  0.00    -0.203 F 
ATOM     83  C   UNL A   1      38.680  34.329  39.315  1.00  0.00     0.198 A 
ATOM     84  C   UNL A   1      40.012  36.002  38.225  1.00  0.00     0.198 A 
ATOM     85  F   UNL A   1      40.829  35.619  36.050  1.00  0.00    -0.203 F 
ATOM     86  F   UNL A   1      37.951  33.927  40.365  1.00  0.00    -0.200 F 
ATOM     87  C   UNL A   1      39.280  35.578  39.325  1.00  0.00     0.200 A 
ATOM     88  F   UNL A   1      40.605  37.202  38.237  1.00  0.00    -0.200 F 
ATOM     89  F   UNL A   1      39.149  36.378  40.393  1.00  0.00    -0.200 F 
ENDBRANCH  55  79
BRANCH  67  90
ATOM     90  C   UNL A   1      44.065  28.961  35.221  1.00  0.00     0.064 A 
ATOM     91  C   UNL A   1      44.040  27.850  36.077  1.00  0.00     0.173 A 
ATOM     92  C   UNL A   1      45.304  29.572  34.973  1.00  0.00     0.173 A 
ATOM     93  F   UNL A   1      42.878  27.241  36.358  1.00  0.00    -0.203 F 
ATOM     94  C   UNL A   1      45.204  27.392  36.688  1.00  0.00     0.198 A 
ATOM     95  C   UNL A   1      46.470  29.094  35.562  1.00  0.00     0.198 A 
ATOM     96  F   UNL A   1      45.383  30.633  34.155  1.00  0.00    -0.203 F 
ATOM     97  F   UNL A   1      45.147  26.365  37.546  1.00  0.00    -0.200 F 
ATOM     98  C   UNL A   1      46.417  28.011  36.427  1.00  0.00     0.200 A 
ATOM     99  F   UNL A   1      47.644  29.684  35.299  1.00  0.00    -0.200 F 
ATOM    100  F   UNL A   1      47.537  27.569  37.017  1.00  0.00    -0.200 F 
ENDBRANCH  67  90
ENDBRANCH  41  42
ENDBRANCH  33  36
ENDBRANCH  31  32
ENDBRANCH  30  31
ENDBRANCH  29  30
ENDBRANCH  27  29
ENDBRANCH   4  25
TORSDOF 17
ENDMDL
MODEL 2
REMARK VINA RESULT:     -12.3      4.796      9.995
REMARK SMILES N#CCC(=O)N/N=C/c1ccc(OCc2ccc(C(=O)NCCCNC(=O)c3ccc(-c4c5nc(c(-c6c(F)c(F)c(F)c(F)c6F)c6ccc([nH]6)c(-c6c(F)c(F)c(F)c(F)c6F)c6nc(c(-c7c(F)c(F)c(F)c(F)c7F)c7ccc4[nH]7)C=C6)C=C5)cc3)cc2)c(Br)c1
REMARK SMILES IDX 15 1 16 2 17 3 18 4 91 5 92 6 14 7 13 8 12 9 9 10 10 11
REMARK SMILES IDX 95 12 11 13 93 14 94 15 8 16 7 17 6 18 4 19 5 20 3 22 2 23
REMARK SMILES IDX 1 24 19 25 20 26 21 27 22 29 23 30 24 31 25 32 26 33 27 35
REMARK SMILES IDX 28 36 29 37 90 38 30 39 89 40 31 41 32 42 33 43 83 44 34 45
REMARK SMILES IDX 88 46 82 47 84 48 35 49 87 50 81 51 80 52 36 54 68 55 48 56
REMARK SMILES IDX 67 57 49 58 52 59 66 60 85 61 50 62 51 63 65 65 86 66 53 67
REMARK SMILES IDX 37 68 38 69 46 70 39 71 40 72 44 73 47 74 41 75 42 76 45 77
REMARK SMILES IDX 43 78 69 79 70 80 78 81 71 82 72 83 76 84 79 85 73 86 74 87
REMARK SMILES IDX 77 88 75 89 54 90 55 91 63 92 56 93 57 94 61 95 64 96 58 97
REMARK SMILES IDX 59 98 62 99 60 100
REMARK H PARENT 6 21 21 28 25 34 84 53 52 64
REMARK Flexibility Score: inf
ROOT
ATOM      1  C   UNL A   1      33.275  27.308  24.641  1.00  0.00    -0.011 A 
ATOM      2  C   UNL A   1      33.312  27.156  23.252  1.00  0.00     0.008 A 
ATOM      3  C   UNL A   1      33.522  25.897  22.677  1.00  0.00     0.014 A 
ATOM      4  C   UNL A   1      33.648  24.751  23.474  1.00  0.00     0.039 A 
ATOM      5  C   UNL A   1      33.480  24.886  24.851  1.00  0.00     0.014 A 
ATOM      6  C   UNL A   1      33.320  26.149  25.430  1.00  0.00     0.008 A 
ENDROOT
BRANCH   1   7
ATOM      7  C   UNL A   1      33.179  28.644  25.353  1.00  0.00     0.265 C 
BRANCH   7   8
ATOM      8  O   UNL A   1      33.917  28.848  26.555  1.00  0.00    -0.488 OA
BRANCH   8   9
ATOM      9  C   UNL A   1      34.093  30.074  27.124  1.00  0.00     0.134 A 
ATOM     10  C   UNL A   1      33.962  32.735  28.006  1.00  0.00    -0.004 A 
ATOM     11  C   UNL A   1      32.801  32.095  27.600  1.00  0.00     0.013 A 
ATOM     12  C   UNL A   1      35.174  32.041  28.036  1.00  0.00     0.029 A 
ATOM     13  C   UNL A   1      32.870  30.767  27.188  1.00  0.00     0.048 A 
ATOM     14  C   UNL A   1      35.248  30.708  27.595  1.00  0.00     0.060 A 
ATOM     15  Br  UNL A   1      36.963  29.903  27.743  1.00  0.00    -0.047 Br
BRANCH  10  16
ATOM     16  C   UNL A   1      33.868  34.159  28.359  1.00  0.00     0.141 C 
ATOM     17  N   UNL A   1      32.823  34.653  28.940  1.00  0.00    -0.181 NA
BRANCH  17  18
ATOM     18  N   UNL A   1      32.904  35.983  29.223  1.00  0.00    -0.246 N 
ATOM     19  C   UNL A   1      33.017  36.492  30.499  1.00  0.00     0.254 C 
ATOM     20  O   UNL A   1      32.903  37.705  30.686  1.00  0.00    -0.272 OA
ATOM     21  H   UNL A   1      32.881  36.618  28.471  1.00  0.00     0.193 HD
BRANCH  19  22
ATOM     22  C   UNL A   1      33.396  35.560  31.625  1.00  0.00     0.221 C 
BRANCH  22  23
ATOM     23  C   UNL A   1      33.741  36.334  32.886  1.00  0.00     0.072 C 
ATOM     24  N   UNL A   1      34.028  36.976  33.933  1.00  0.00    -0.198 NA
ENDBRANCH  22  23
ENDBRANCH  19  22
ENDBRANCH  17  18
ENDBRANCH  10  16
ENDBRANCH   8   9
ENDBRANCH   7   8
ENDBRANCH   1   7
BRANCH   4  25
ATOM     25  C   UNL A   1      33.915  23.463  22.770  1.00  0.00     0.251 C 
ATOM     26  O   UNL A   1      33.035  22.979  22.056  1.00  0.00    -0.269 OA
ATOM     27  N   UNL A   1      35.113  22.799  22.831  1.00  0.00    -0.352 N 
ATOM     28  H   UNL A   1      35.127  21.958  22.320  1.00  0.00     0.163 HD
BRANCH  27  29
ATOM     29  C   UNL A   1      36.364  23.097  23.503  1.00  0.00     0.118 C 
BRANCH  29  30
ATOM     30  C   UNL A   1      36.897  21.874  24.249  1.00  0.00     0.042 C 
BRANCH  30  31
ATOM     31  C   UNL A   1      37.456  22.195  25.632  1.00  0.00     0.118 C 
BRANCH  31  32
ATOM     32  N   UNL A   1      38.433  21.212  26.066  1.00  0.00    -0.352 N 
ATOM     33  C   UNL A   1      39.698  21.376  26.566  1.00  0.00     0.251 C 
ATOM     34  H   UNL A   1      38.138  20.275  25.988  1.00  0.00     0.163 HD
ATOM     35  O   UNL A   1      40.429  20.395  26.668  1.00  0.00    -0.269 OA
BRANCH  33  36
ATOM     36  C   UNL A   1      40.202  22.706  26.986  1.00  0.00     0.039 A 
ATOM     37  C   UNL A   1      39.784  23.827  26.261  1.00  0.00     0.014 A 
ATOM     38  C   UNL A   1      41.147  22.856  28.006  1.00  0.00     0.014 A 
ATOM     39  C   UNL A   1      40.305  25.089  26.558  1.00  0.00     0.010 A 
ATOM     40  C   UNL A   1      41.613  24.126  28.349  1.00  0.00     0.010 A 
ATOM     41  C   UNL A   1      41.222  25.250  27.606  1.00  0.00    -0.014 A 
BRANCH  41  42
ATOM     42  C   UNL A   1      41.824  26.579  27.885  1.00  0.00     0.031 A 
ATOM     43  C   UNL A   1      43.186  26.920  27.343  1.00  0.00     0.074 A 
ATOM     44  C   UNL A   1      41.153  27.474  28.635  1.00  0.00     0.049 A 
ATOM     45  N   UNL A   1      43.879  28.024  27.474  1.00  0.00    -0.248 NA
ATOM     46  C   UNL A   1      43.873  25.872  26.572  1.00  0.00     0.031 C 
ATOM     47  C   UNL A   1      39.847  27.247  29.254  1.00  0.00     0.029 A 
ATOM     48  N   UNL A   1      41.478  28.755  29.002  1.00  0.00    -0.354 N 
ATOM     49  C   UNL A   1      45.082  27.796  26.817  1.00  0.00     0.074 A 
ATOM     50  C   UNL A   1      45.048  26.434  26.334  1.00  0.00     0.031 C 
ATOM     51  C   UNL A   1      39.470  28.361  29.901  1.00  0.00     0.029 A 
ATOM     52  C   UNL A   1      40.514  29.370  29.762  1.00  0.00     0.049 A 
ATOM     53  H   UNL A   1      42.322  29.193  28.744  1.00  0.00     0.167 HD
ATOM     54  C   UNL A   1      46.111  28.654  26.613  1.00  0.00     0.037 A 
ATOM     55  C   UNL A   1      40.476  30.614  30.278  1.00  0.00     0.037 A 
ATOM     56  C   UNL A   1      46.130  30.020  27.066  1.00  0.00     0.049 A 
ATOM     57  C   UNL A   1      41.615  31.558  30.004  1.00  0.00     0.074 A 
ATOM     58  C   UNL A   1      47.106  30.983  26.876  1.00  0.00     0.029 A 
ATOM     59  N   UNL A   1      45.115  30.619  27.799  1.00  0.00    -0.354 N 
ATOM     60  N   UNL A   1      42.720  31.350  29.331  1.00  0.00    -0.248 NA
ATOM     61  C   UNL A   1      41.489  32.918  30.547  1.00  0.00     0.031 C 
ATOM     62  C   UNL A   1      46.696  32.156  27.519  1.00  0.00     0.029 A 
ATOM     63  C   UNL A   1      45.444  31.937  28.072  1.00  0.00     0.049 A 
ATOM     64  H   UNL A   1      44.285  30.174  28.083  1.00  0.00     0.167 HD
ATOM     65  C   UNL A   1      43.405  32.558  29.340  1.00  0.00     0.074 A 
ATOM     66  C   UNL A   1      42.583  33.498  30.074  1.00  0.00     0.031 C 
ATOM     67  C   UNL A   1      44.606  32.862  28.790  1.00  0.00     0.037 A 
BRANCH  54  68
ATOM     68  C   UNL A   1      47.303  28.137  25.860  1.00  0.00     0.064 A 
ATOM     69  C   UNL A   1      48.496  27.798  26.516  1.00  0.00     0.173 A 
ATOM     70  C   UNL A   1      47.246  27.956  24.469  1.00  0.00     0.173 A 
ATOM     71  F   UNL A   1      48.607  27.966  27.843  1.00  0.00    -0.203 F 
ATOM     72  C   UNL A   1      49.597  27.325  25.806  1.00  0.00     0.198 A 
ATOM     73  C   UNL A   1      48.339  27.454  23.767  1.00  0.00     0.198 A 
ATOM     74  F   UNL A   1      46.129  28.259  23.793  1.00  0.00    -0.203 F 
ATOM     75  F   UNL A   1      50.743  27.056  26.449  1.00  0.00    -0.200 F 
ATOM     76  C   UNL A   1      49.515  27.148  24.434  1.00  0.00     0.200 A 
ATOM     77  F   UNL A   1      48.256  27.273  22.441  1.00  0.00    -0.200 F 
ATOM     78  F   UNL A   1      50.575  26.689  23.752  1.00  0.00    -0.200 F 
ENDBRANCH  54  68
BRANCH  55  79
ATOM     79  C   UNL A   1      39.294  31.053  31.063  1.00  0.00     0.064 A 
ATOM     80  C   UNL A   1      39.108  30.622  32.384  1.00  0.00     0.173 A 
ATOM     81  C   UNL A   1      38.327  31.906  30.511  1.00  0.00     0.173 A 
ATOM     82  F   UNL A   1      39.997  29.791  32.948  1.00  0.00    -0.203 F 
ATOM     83  C   UNL A   1      37.987  31.008  33.116  1.00  0.00     0.198 A 
ATOM     84  C   UNL A   1      37.221  32.313  31.254  1.00  0.00     0.198 A 
ATOM     85  F   UNL A   1      38.464  32.351  29.255  1.00  0.00    -0.203 F 
ATOM     86  F   UNL A   1      37.810  30.544  34.361  1.00  0.00    -0.200 F 
ATOM     87  C   UNL A   1      37.047  31.856  32.553  1.00  0.00     0.200 A 
ATOM     88  F   UNL A   1      36.322  33.144  30.711  1.00  0.00    -0.200 F 
ATOM     89  F   UNL A   1      35.970  32.230  33.258  1.00  0.00    -0.200 F 
ENDBRANCH  55  79
BRANCH  67  90
ATOM     90  C   UNL A   1      45.079  34.280  28.922  1.00  0.00     0.064 A 
ATOM     91  C   UNL A   1      45.838  34.708  30.021  1.00  0.00     0.173 A 
ATOM     92  C   UNL A   1      44.779  35.220  27.924  1.00  0.00     0.173 A 
ATOM     93  F   UNL A   1      46.139  33.850  31.007  1.00  0.00    -0.203 F 
ATOM     94  C   UNL A   1      46.250  36.033  30.133  1.00  0.00     0.198 A 
ATOM     95  C   UNL A   1      45.216  36.538  28.025  1.00  0.00     0.198 A 
ATOM     96  F   UNL A   1      44.061  34.860  26.849  1.00  0.00    -0.203 F 
ATOM     97  F   UNL A   1      46.926  36.431  31.219  1.00  0.00    -0.200 F 
ATOM     98  C   UNL A   1      45.943  36.944  29.135  1.00  0.00     0.200 A 
ATOM     99  F   UNL A   1      44.929  37.415  27.054  1.00  0.00    -0.200 F 
ATOM    100  F   UNL A   1      46.339  38.221  29.245  1.00  0.00    -0.200 F 
ENDBRANCH  67  90
ENDBRANCH  41  42
ENDBRANCH  33  36
ENDBRANCH  31  32
ENDBRANCH  30  31
ENDBRANCH  29  30
ENDBRANCH  27  29
ENDBRANCH   4  25
TORSDOF 17
ENDMDL
MODEL 3
REMARK VINA RESULT:     -12.3      4.549      9.465
REMARK SMILES N#CCC(=O)N/N=C/c1ccc(OCc2ccc(C(=O)NCCCNC(=O)c3ccc(-c4c5nc(c(-c6c(F)c(F)c(F)c(F)c6F)c6ccc([nH]6)c(-c6c(F)c(F)c(F)c(F)c6F)c6nc(c(-c7c(F)c(F)c(F)c(F)c7F)c7ccc4[nH]7)C=C6)C=C5)cc3)cc2)c(Br)c1
REMARK SMILES IDX 15 1 16 2 17 3 18 4 91 5 92 6 14 7 13 8 12 9 9 10 10 11
REMARK SMILES IDX 95 12 11 13 93 14 94 15 8 16 7 17 6 18 4 19 5 20 3 22 2 23
REMARK SMILES IDX 1 24 19 25 20 26 21 27 22 29 23 30 24 31 25 32 26 33 27 35
REMARK SMILES IDX 28 36 29 37 90 38 30 39 89 40 31 41 32 42 33 43 83 44 34 45
REMARK SMILES IDX 88 46 82 47 84 48 35 49 87 50 81 51 80 52 36 54 68 55 48 56
REMARK SMILES IDX 67 57 49 58 52 59 66 60 85 61 50 62 51 63 65 65 86 66 53 67
REMARK SMILES IDX 37 68 38 69 46 70 39 71 40 72 44 73 47 74 41 75 42 76 45 77
REMARK SMILES IDX 43 78 69 79 70 80 78 81 71 82 72 83 76 84 79 85 73 86 74 87
REMARK SMILES IDX 77 88 75 89 54 90 55 91 63 92 56 93 57 94 61 95 64 96 58 97
REMARK SMILES IDX 59 98 62 99 60 100
REMARK H PARENT 6 21 21 28 25 34 84 53 52 64
REMARK Flexibility Score: inf
ROOT
ATOM      1  C   UNL A   1      31.006  24.127  24.548  1.00  0.00    -0.011 A 
ATOM      2  C   UNL A   1      31.489  23.302  23.528  1.00  0.00     0.008 A 
ATOM      3  C   UNL A   1      32.139  22.098  23.831  1.00  0.00     0.014 A 
ATOM      4  C   UNL A   1      32.275  21.666  25.157  1.00  0.00     0.039 A 
ATOM      5  C   UNL A   1      31.678  22.425  26.161  1.00  0.00     0.014 A 
ATOM      6  C   UNL A   1      31.072  23.651  25.865  1.00  0.00     0.008 A 
ENDROOT
BRANCH   1   7
ATOM      7  C   UNL A   1      30.404  25.502  24.321  1.00  0.00     0.265 C 
BRANCH   7   8
ATOM      8  O   UNL A   1      30.349  26.425  25.405  1.00  0.00    -0.488 OA
BRANCH   8   9
ATOM      9  C   UNL A   1      31.226  27.458  25.552  1.00  0.00     0.134 A 
ATOM     10  C   UNL A   1      33.096  29.372  26.398  1.00  0.00    -0.004 A 
ATOM     11  C   UNL A   1      33.056  28.137  27.026  1.00  0.00     0.013 A 
ATOM     12  C   UNL A   1      32.257  29.637  25.313  1.00  0.00     0.029 A 
ATOM     13  C   UNL A   1      32.143  27.184  26.584  1.00  0.00     0.048 A 
ATOM     14  C   UNL A   1      31.317  28.684  24.883  1.00  0.00     0.060 A 
ATOM     15  Br  UNL A   1      30.287  29.191  23.370  1.00  0.00    -0.047 Br
BRANCH  10  16
ATOM     16  C   UNL A   1      34.016  30.383  26.941  1.00  0.00     0.141 C 
ATOM     17  N   UNL A   1      33.592  31.408  27.606  1.00  0.00    -0.181 NA
BRANCH  17  18
ATOM     18  N   UNL A   1      34.573  32.235  28.062  1.00  0.00    -0.246 N 
ATOM     19  C   UNL A   1      34.434  33.601  28.180  1.00  0.00     0.254 C 
ATOM     20  O   UNL A   1      35.420  34.298  28.426  1.00  0.00    -0.272 OA
ATOM     21  H   UNL A   1      35.433  31.833  28.323  1.00  0.00     0.193 HD
BRANCH  19  22
ATOM     22  C   UNL A   1      33.049  34.200  28.120  1.00  0.00     0.221 C 
BRANCH  22  23
ATOM     23  C   UNL A   1      32.947  35.438  28.997  1.00  0.00     0.072 C 
ATOM     24  N   UNL A   1      32.862  36.464  29.724  1.00  0.00    -0.198 NA
ENDBRANCH  22  23
ENDBRANCH  19  22
ENDBRANCH  17  18
ENDBRANCH  10  16
ENDBRANCH   8   9
ENDBRANCH   7   8
ENDBRANCH   1   7
BRANCH   4  25
ATOM     25  C   UNL A   1      33.022  20.395  25.381  1.00  0.00     0.251 C 
ATOM     26  O   UNL A   1      32.455  19.322  25.164  1.00  0.00    -0.269 OA
ATOM     27  N   UNL A   1      34.335  20.345  25.773  1.00  0.00    -0.352 N 
ATOM     28  H   UNL A   1      34.681  19.430  25.887  1.00  0.00     0.163 HD
BRANCH  27  29
ATOM     29  C   UNL A   1      35.313  21.379  26.051  1.00  0.00     0.118 C 
BRANCH  29  30
ATOM     30  C   UNL A   1      35.860  21.986  24.758  1.00  0.00     0.042 C 
BRANCH  30  31
ATOM     31  C   UNL A   1      37.368  22.215  24.779  1.00  0.00     0.118 C 
BRANCH  31  32
ATOM     32  N   UNL A   1      38.072  21.143  25.461  1.00  0.00    -0.352 N 
ATOM     33  C   UNL A   1      39.197  21.175  26.243  1.00  0.00     0.251 C 
ATOM     34  H   UNL A   1      37.678  20.248  25.341  1.00  0.00     0.163 HD
ATOM     35  O   UNL A   1      39.742  20.117  26.545  1.00  0.00    -0.269 OA
BRANCH  33  36
ATOM     36  C   UNL A   1      39.767  22.453  26.734  1.00  0.00     0.039 A 
ATOM     37  C   UNL A   1      39.262  23.645  26.203  1.00  0.00     0.014 A 
ATOM     38  C   UNL A   1      40.846  22.495  27.623  1.00  0.00     0.014 A 
ATOM     39  C   UNL A   1      39.831  24.870  26.563  1.00  0.00     0.010 A 
ATOM     40  C   UNL A   1      41.367  23.722  28.036  1.00  0.00     0.010 A 
ATOM     41  C   UNL A   1      40.887  24.919  27.485  1.00  0.00    -0.014 A 
BRANCH  41  42
ATOM     42  C   UNL A   1      41.534  26.212  27.823  1.00  0.00     0.031 A 
ATOM     43  C   UNL A   1      42.908  26.529  27.297  1.00  0.00     0.074 A 
ATOM     44  C   UNL A   1      40.893  27.096  28.611  1.00  0.00     0.049 A 
ATOM     45  N   UNL A   1      43.639  27.602  27.478  1.00  0.00    -0.248 NA
ATOM     46  C   UNL A   1      43.560  25.494  26.481  1.00  0.00     0.031 C 
ATOM     47  C   UNL A   1      39.578  26.888  29.218  1.00  0.00     0.029 A 
ATOM     48  N   UNL A   1      41.262  28.348  29.034  1.00  0.00    -0.354 N 
ATOM     49  C   UNL A   1      44.835  27.361  26.812  1.00  0.00     0.074 A 
ATOM     50  C   UNL A   1      44.755  26.024  26.269  1.00  0.00     0.031 C 
ATOM     51  C   UNL A   1      39.238  27.984  29.914  1.00  0.00     0.029 A 
ATOM     52  C   UNL A   1      40.318  28.962  29.820  1.00  0.00     0.049 A 
ATOM     53  H   UNL A   1      42.121  28.767  28.798  1.00  0.00     0.167 HD
ATOM     54  C   UNL A   1      45.894  28.190  26.647  1.00  0.00     0.037 A 
ATOM     55  C   UNL A   1      40.322  30.182  30.392  1.00  0.00     0.037 A 
ATOM     56  C   UNL A   1      45.960  29.534  27.161  1.00  0.00     0.049 A 
ATOM     57  C   UNL A   1      41.494  31.097  30.160  1.00  0.00     0.074 A 
ATOM     58  C   UNL A   1      46.968  30.469  27.014  1.00  0.00     0.029 A 
ATOM     59  N   UNL A   1      44.965  30.135  27.918  1.00  0.00    -0.354 N 
ATOM     60  N   UNL A   1      42.593  30.881  29.480  1.00  0.00    -0.248 NA
ATOM     61  C   UNL A   1      41.414  32.435  30.763  1.00  0.00     0.031 C 
ATOM     62  C   UNL A   1      46.598  31.626  27.708  1.00  0.00     0.029 A 
ATOM     63  C   UNL A   1      45.339  31.427  28.250  1.00  0.00     0.049 A 
ATOM     64  H   UNL A   1      44.119  29.707  28.182  1.00  0.00     0.167 HD
ATOM     65  C   UNL A   1      43.319  32.062  29.543  1.00  0.00     0.074 A 
ATOM     66  C   UNL A   1      42.528  32.997  30.317  1.00  0.00     0.031 C 
ATOM     67  C   UNL A   1      44.532  32.348  29.008  1.00  0.00     0.037 A 
BRANCH  54  68
ATOM     68  C   UNL A   1      47.069  27.667  25.873  1.00  0.00     0.064 A 
ATOM     69  C   UNL A   1      47.138  27.781  24.475  1.00  0.00     0.173 A 
ATOM     70  C   UNL A   1      48.150  27.065  26.534  1.00  0.00     0.173 A 
ATOM     71  F   UNL A   1      46.124  28.336  23.793  1.00  0.00    -0.203 F 
ATOM     72  C   UNL A   1      48.230  27.287  23.768  1.00  0.00     0.198 A 
ATOM     73  C   UNL A   1      49.255  26.599  25.826  1.00  0.00     0.198 A 
ATOM     74  F   UNL A   1      48.139  26.935  27.868  1.00  0.00    -0.203 F 
ATOM     75  F   UNL A   1      48.250  27.363  22.429  1.00  0.00    -0.200 F 
ATOM     76  C   UNL A   1      49.290  26.703  24.443  1.00  0.00     0.200 A 
ATOM     77  F   UNL A   1      50.284  26.044  26.481  1.00  0.00    -0.200 F 
ATOM     78  F   UNL A   1      50.343  26.230  23.761  1.00  0.00    -0.200 F 
ENDBRANCH  54  68
BRANCH  55  79
ATOM     79  C   UNL A   1      39.155  30.627  31.194  1.00  0.00     0.064 A 
ATOM     80  C   UNL A   1      39.079  30.352  32.567  1.00  0.00     0.173 A 
ATOM     81  C   UNL A   1      38.092  31.330  30.609  1.00  0.00     0.173 A 
ATOM     82  F   UNL A   1      40.063  29.666  33.167  1.00  0.00    -0.203 F 
ATOM     83  C   UNL A   1      37.973  30.742  33.320  1.00  0.00     0.198 A 
ATOM     84  C   UNL A   1      36.999  31.743  31.368  1.00  0.00     0.198 A 
ATOM     85  F   UNL A   1      38.120  31.623  29.301  1.00  0.00    -0.203 F 
ATOM     86  F   UNL A   1      37.906  30.426  34.620  1.00  0.00    -0.200 F 
ATOM     87  C   UNL A   1      36.937  31.441  32.722  1.00  0.00     0.200 A 
ATOM     88  F   UNL A   1      36.005  32.431  30.790  1.00  0.00    -0.200 F 
ATOM     89  F   UNL A   1      35.874  31.819  33.446  1.00  0.00    -0.200 F 
ENDBRANCH  55  79
BRANCH  67  90
ATOM     90  C   UNL A   1      45.053  33.742  29.202  1.00  0.00     0.064 A 
ATOM     91  C   UNL A   1      44.766  34.772  28.294  1.00  0.00     0.173 A 
ATOM     92  C   UNL A   1      45.839  34.052  30.323  1.00  0.00     0.173 A 
ATOM     93  F   UNL A   1      44.032  34.522  27.200  1.00  0.00    -0.203 F 
ATOM     94  C   UNL A   1      45.277  36.053  28.483  1.00  0.00     0.198 A 
ATOM     95  C   UNL A   1      46.323  35.341  30.524  1.00  0.00     0.198 A 
ATOM     96  F   UNL A   1      46.135  33.104  31.225  1.00  0.00    -0.203 F 
ATOM     97  F   UNL A   1      45.037  37.007  27.573  1.00  0.00    -0.200 F 
ATOM     98  C   UNL A   1      46.050  36.338  29.598  1.00  0.00     0.200 A 
ATOM     99  F   UNL A   1      47.060  35.618  31.608  1.00  0.00    -0.200 F 
ATOM    100  F   UNL A   1      46.542  37.572  29.777  1.00  0.00    -0.200 F 
ENDBRANCH  67  90
ENDBRANCH  41  42
ENDBRANCH  33  36
ENDBRANCH  31  32
ENDBRANCH  30  31
ENDBRANCH  29  30
ENDBRANCH  27  29
ENDBRANCH   4  25
TORSDOF 17
ENDMDL
