MODEL 1
REMARK VINA RESULT:     -11.8      0.000      0.000
REMARK SMILES C=CCCC[C@@]1(C(=O)NCCCNC(=O)c2ccc(-c3c4nc(c(-c5c(F)c(F)c(F)c(F)c5F)c5ccc([nH]5)c(-c5c(F)c(F)c(F)c(F)c5F)c5nc(c(-c6c(F)c(F)c(F)c(F)c6F)c6ccc3[nH]6)C=C5)C=C4)cc2)CCCN(C(=O)OC(C)(C)C)C1
REMARK SMILES IDX 10 1 9 2 7 3 8 4 6 6 79 7 90 8 80 9 82 10 81 11 5 12 4 13
REMARK SMILES IDX 3 14 2 15 1 16 83 17 84 18 85 19 86 20 87 21 88 22 89 23
REMARK SMILES IDX 11 24 12 25 13 26 14 27 15 29 16 30 17 31 78 32 18 33 77 34
REMARK SMILES IDX 19 35 20 36 21 37 71 38 22 39 76 40 70 41 72 42 23 43 75 44
REMARK SMILES IDX 69 45 68 46 24 48 56 49 36 50 55 51 37 52 40 53 54 54 73 55
REMARK SMILES IDX 38 56 39 57 53 59 74 60 41 61 25 62 26 63 34 64 27 65 28 66
REMARK SMILES IDX 32 67 35 68 29 69 30 70 33 71 31 72 57 73 58 74 66 75 59 76
REMARK SMILES IDX 60 77 64 78 67 79 61 80 62 81 65 82 63 83 42 84 43 85 51 86
REMARK SMILES IDX 44 87 45 88 49 89 52 90 46 91 47 92 50 93 48 94
REMARK H PARENT 9 5 13 28 72 47 40 58
REMARK Flexibility Score: inf
ROOT
ATOM      1  C   UNL A   1      31.752  30.297  26.526  1.00  0.00     0.117 C 
ENDROOT
BRANCH   1   2
ATOM      2  N   UNL A   1      32.761  29.788  25.615  1.00  0.00    -0.355 N 
ATOM      3  C   UNL A   1      32.690  28.983  24.519  1.00  0.00     0.228 C 
ATOM      4  O   UNL A   1      33.742  28.893  23.882  1.00  0.00    -0.274 OA
ATOM      5  H   UNL A   1      33.675  30.081  25.833  1.00  0.00     0.163 HD
BRANCH   3   6
ATOM      6  C   UNL A   1      31.420  28.185  24.142  1.00  0.00     0.067 C 
ATOM      7  C   UNL A   1      30.793  27.605  25.447  1.00  0.00     0.020 C 
ATOM      8  C   UNL A   1      31.797  26.990  23.243  1.00  0.00     0.140 C 
ATOM      9  C   UNL A   1      31.641  26.489  26.088  1.00  0.00     0.023 C 
ATOM     10  N   UNL A   1      32.569  25.947  23.887  1.00  0.00    -0.307 N 
ATOM     11  C   UNL A   1      32.008  25.382  25.100  1.00  0.00     0.123 C 
BRANCH   6  12
ATOM     12  C   UNL A   1      30.395  29.086  23.370  1.00  0.00     0.019 C 
BRANCH  12  13
ATOM     13  C   UNL A   1      29.034  28.483  22.960  1.00  0.00     0.005 C 
BRANCH  13  14
ATOM     14  C   UNL A   1      27.910  29.449  22.548  1.00  0.00     0.027 C 
BRANCH  14  15
ATOM     15  C   UNL A   1      27.691  30.599  23.490  1.00  0.00    -0.035 C 
ATOM     16  C   UNL A   1      27.813  31.886  23.144  1.00  0.00     0.004 C 
ENDBRANCH  14  15
ENDBRANCH  13  14
ENDBRANCH  12  13
ENDBRANCH   6  12
BRANCH  10  17
ATOM     17  C   UNL A   1      33.728  25.527  23.253  1.00  0.00     0.410 C 
ATOM     18  O   UNL A   1      33.947  25.733  22.066  1.00  0.00    -0.224 OA
BRANCH  17  19
ATOM     19  O   UNL A   1      34.579  24.849  24.069  1.00  0.00    -0.444 OA
BRANCH  19  20
ATOM     20  C   UNL A   1      34.741  23.419  23.866  1.00  0.00     0.106 C 
ATOM     21  C   UNL A   1      33.569  22.798  23.089  1.00  0.00     0.056 C 
ATOM     22  C   UNL A   1      36.092  23.122  23.200  1.00  0.00     0.056 C 
ATOM     23  C   UNL A   1      34.746  22.810  25.275  1.00  0.00     0.056 C 
ENDBRANCH  19  20
ENDBRANCH  17  19
ENDBRANCH  10  17
ENDBRANCH   3   6
ENDBRANCH   1   2
BRANCH   1  24
ATOM     24  C   UNL A   1      31.627  31.808  26.518  1.00  0.00     0.042 C 
BRANCH  24  25
ATOM     25  C   UNL A   1      32.731  32.544  27.256  1.00  0.00     0.118 C 
BRANCH  25  26
ATOM     26  N   UNL A   1      32.409  33.934  27.551  1.00  0.00    -0.352 N 
ATOM     27  C   UNL A   1      32.962  34.803  28.463  1.00  0.00     0.251 C 
ATOM     28  H   UNL A   1      31.680  34.313  27.009  1.00  0.00     0.163 HD
ATOM     29  O   UNL A   1      32.448  35.902  28.652  1.00  0.00    -0.269 OA
BRANCH  27  30
ATOM     30  C   UNL A   1      34.144  34.400  29.255  1.00  0.00     0.039 A 
ATOM     31  C   UNL A   1      33.954  33.822  30.512  1.00  0.00     0.014 A 
ATOM     32  C   UNL A   1      35.436  34.566  28.754  1.00  0.00     0.014 A 
ATOM     33  C   UNL A   1      35.051  33.315  31.214  1.00  0.00     0.010 A 
ATOM     34  C   UNL A   1      36.507  33.953  29.392  1.00  0.00     0.010 A 
ATOM     35  C   UNL A   1      36.330  33.322  30.632  1.00  0.00    -0.014 A 
BRANCH  35  36
ATOM     36  C   UNL A   1      37.494  32.682  31.296  1.00  0.00     0.031 A 
ATOM     37  C   UNL A   1      38.206  31.537  30.629  1.00  0.00     0.074 A 
ATOM     38  C   UNL A   1      37.858  33.074  32.533  1.00  0.00     0.049 A 
ATOM     39  N   UNL A   1      39.175  30.783  31.085  1.00  0.00    -0.248 NA
ATOM     40  C   UNL A   1      37.746  31.167  29.281  1.00  0.00     0.031 C 
ATOM     41  C   UNL A   1      37.216  34.137  33.310  1.00  0.00     0.029 A 
ATOM     42  N   UNL A   1      38.854  32.617  33.362  1.00  0.00    -0.354 N 
ATOM     43  C   UNL A   1      39.423  29.846  30.091  1.00  0.00     0.074 A 
ATOM     44  C   UNL A   1      38.463  30.080  29.037  1.00  0.00     0.031 C 
ATOM     45  C   UNL A   1      37.848  34.269  34.486  1.00  0.00     0.029 A 
ATOM     46  C   UNL A   1      38.907  33.269  34.571  1.00  0.00     0.049 A 
ATOM     47  H   UNL A   1      39.468  31.890  33.114  1.00  0.00     0.167 HD
ATOM     48  C   UNL A   1      40.384  28.893  30.049  1.00  0.00     0.037 A 
ATOM     49  C   UNL A   1      39.712  33.072  35.633  1.00  0.00     0.037 A 
ATOM     50  C   UNL A   1      41.354  28.679  31.091  1.00  0.00     0.049 A 
ATOM     51  C   UNL A   1      40.760  31.993  35.568  1.00  0.00     0.074 A 
ATOM     52  C   UNL A   1      42.407  27.781  31.117  1.00  0.00     0.029 A 
ATOM     53  N   UNL A   1      41.384  29.367  32.295  1.00  0.00    -0.354 N 
ATOM     54  N   UNL A   1      41.032  31.161  34.593  1.00  0.00    -0.248 NA
ATOM     55  C   UNL A   1      41.613  31.828  36.752  1.00  0.00     0.031 C 
ATOM     56  C   UNL A   1      43.038  27.885  32.361  1.00  0.00     0.029 A 
ATOM     57  C   UNL A   1      42.420  28.892  33.084  1.00  0.00     0.049 A 
ATOM     58  H   UNL A   1      40.763  30.086  32.551  1.00  0.00     0.167 HD
ATOM     59  C   UNL A   1      42.105  30.396  35.032  1.00  0.00     0.074 A 
ATOM     60  C   UNL A   1      42.445  30.877  36.354  1.00  0.00     0.031 C 
ATOM     61  C   UNL A   1      42.749  29.384  34.398  1.00  0.00     0.037 A 
BRANCH  48  62
ATOM     62  C   UNL A   1      40.435  28.009  28.834  1.00  0.00     0.064 A 
ATOM     63  C   UNL A   1      41.181  28.357  27.698  1.00  0.00     0.173 A 
ATOM     64  C   UNL A   1      39.756  26.781  28.819  1.00  0.00     0.173 A 
ATOM     65  F   UNL A   1      41.841  29.526  27.654  1.00  0.00    -0.203 F 
ATOM     66  C   UNL A   1      41.220  27.527  26.580  1.00  0.00     0.198 A 
ATOM     67  C   UNL A   1      39.825  25.936  27.714  1.00  0.00     0.198 A 
ATOM     68  F   UNL A   1      39.032  26.395  29.880  1.00  0.00    -0.203 F 
ATOM     69  F   UNL A   1      41.893  27.908  25.487  1.00  0.00    -0.200 F 
ATOM     70  C   UNL A   1      40.549  26.313  26.593  1.00  0.00     0.200 A 
ATOM     71  F   UNL A   1      39.189  24.757  27.734  1.00  0.00    -0.200 F 
ATOM     72  F   UNL A   1      40.594  25.511  25.521  1.00  0.00    -0.200 F 
ENDBRANCH  48  62
BRANCH  49  73
ATOM     73  C   UNL A   1      39.571  33.926  36.844  1.00  0.00     0.064 A 
ATOM     74  C   UNL A   1      40.245  35.150  36.946  1.00  0.00     0.173 A 
ATOM     75  C   UNL A   1      38.772  33.531  37.928  1.00  0.00     0.173 A 
ATOM     76  F   UNL A   1      41.039  35.563  35.946  1.00  0.00    -0.203 F 
ATOM     77  C   UNL A   1      40.147  35.935  38.094  1.00  0.00     0.198 A 
ATOM     78  C   UNL A   1      38.648  34.332  39.061  1.00  0.00     0.198 A 
ATOM     79  F   UNL A   1      38.100  32.371  37.880  1.00  0.00    -0.203 F 
ATOM     80  F   UNL A   1      40.846  37.074  38.185  1.00  0.00    -0.200 F 
ATOM     81  C   UNL A   1      39.344  35.528  39.148  1.00  0.00     0.200 A 
ATOM     82  F   UNL A   1      37.856  33.943  40.070  1.00  0.00    -0.200 F 
ATOM     83  F   UNL A   1      39.247  36.284  40.249  1.00  0.00    -0.200 F 
ENDBRANCH  49  73
BRANCH  61  84
ATOM     84  C   UNL A   1      43.910  28.753  35.111  1.00  0.00     0.064 A 
ATOM     85  C   UNL A   1      43.748  27.633  35.940  1.00  0.00     0.173 A 
ATOM     86  C   UNL A   1      45.210  29.253  34.932  1.00  0.00     0.173 A 
ATOM     87  F   UNL A   1      42.526  27.124  36.157  1.00  0.00    -0.203 F 
ATOM     88  C   UNL A   1      44.839  27.057  36.587  1.00  0.00     0.198 A 
ATOM     89  C   UNL A   1      46.302  28.653  35.551  1.00  0.00     0.198 A 
ATOM     90  F   UNL A   1      45.422  30.318  34.144  1.00  0.00    -0.203 F 
ATOM     91  F   UNL A   1      44.652  26.022  37.417  1.00  0.00    -0.200 F 
ATOM     92  C   UNL A   1      46.115  27.562  36.385  1.00  0.00     0.200 A 
ATOM     93  F   UNL A   1      47.536  29.131  35.339  1.00  0.00    -0.200 F 
ATOM     94  F   UNL A   1      47.165  27.000  37.000  1.00  0.00    -0.200 F 
ENDBRANCH  61  84
ENDBRANCH  35  36
ENDBRANCH  27  30
ENDBRANCH  25  26
ENDBRANCH  24  25
ENDBRANCH   1  24
TORSDOF 17
ENDMDL
MODEL 2
REMARK VINA RESULT:     -11.8      5.546     10.979
REMARK SMILES C=CCCC[C@@]1(C(=O)NCCCNC(=O)c2ccc(-c3c4nc(c(-c5c(F)c(F)c(F)c(F)c5F)c5ccc([nH]5)c(-c5c(F)c(F)c(F)c(F)c5F)c5nc(c(-c6c(F)c(F)c(F)c(F)c6F)c6ccc3[nH]6)C=C5)C=C4)cc2)CCCN(C(=O)OC(C)(C)C)C1
REMARK SMILES IDX 10 1 9 2 7 3 8 4 6 6 79 7 90 8 80 9 82 10 81 11 5 12 4 13
REMARK SMILES IDX 3 14 2 15 1 16 83 17 84 18 85 19 86 20 87 21 88 22 89 23
REMARK SMILES IDX 11 24 12 25 13 26 14 27 15 29 16 30 17 31 78 32 18 33 77 34
REMARK SMILES IDX 19 35 20 36 21 37 71 38 22 39 76 40 70 41 72 42 23 43 75 44
REMARK SMILES IDX 69 45 68 46 24 48 56 49 36 50 55 51 37 52 40 53 54 54 73 55
REMARK SMILES IDX 38 56 39 57 53 59 74 60 41 61 25 62 26 63 34 64 27 65 28 66
REMARK SMILES IDX 32 67 35 68 29 69 30 70 33 71 31 72 57 73 58 74 66 75 59 76
REMARK SMILES IDX 60 77 64 78 67 79 61 80 62 81 65 82 63 83 42 84 43 85 51 86
REMARK SMILES IDX 44 87 45 88 49 89 52 90 46 91 47 92 50 93 48 94
REMARK H PARENT 9 5 13 28 72 47 40 58
REMARK Flexibility Score: inf
ROOT
ATOM      1  C   UNL A   1      37.228  21.500  24.411  1.00  0.00     0.117 C 
ENDROOT
BRANCH   1   2
ATOM      2  N   UNL A   1      36.595  22.362  25.394  1.00  0.00    -0.355 N 
ATOM      3  C   UNL A   1      35.301  22.516  25.786  1.00  0.00     0.228 C 
ATOM      4  O   UNL A   1      35.149  23.232  26.779  1.00  0.00    -0.274 OA
ATOM      5  H   UNL A   1      37.227  22.950  25.869  1.00  0.00     0.163 HD
BRANCH   3   6
ATOM      6  C   UNL A   1      34.109  21.910  25.008  1.00  0.00     0.067 C 
ATOM      7  C   UNL A   1      34.218  22.346  23.515  1.00  0.00     0.020 C 
ATOM      8  C   UNL A   1      32.782  22.475  25.555  1.00  0.00     0.140 C 
ATOM      9  C   UNL A   1      33.955  23.848  23.296  1.00  0.00     0.023 C 
ATOM     10  N   UNL A   1      32.556  23.883  25.307  1.00  0.00    -0.307 N 
ATOM     11  C   UNL A   1      32.643  24.318  23.924  1.00  0.00     0.123 C 
BRANCH   6  12
ATOM     12  C   UNL A   1      34.081  20.349  25.145  1.00  0.00     0.019 C 
BRANCH  12  13
ATOM     13  C   UNL A   1      32.755  19.601  24.884  1.00  0.00     0.005 C 
BRANCH  13  14
ATOM     14  C   UNL A   1      32.548  18.956  23.503  1.00  0.00     0.027 C 
BRANCH  14  15
ATOM     15  C   UNL A   1      32.832  17.482  23.448  1.00  0.00    -0.035 C 
ATOM     16  C   UNL A   1      34.020  16.957  23.128  1.00  0.00     0.004 C 
ENDBRANCH  14  15
ENDBRANCH  13  14
ENDBRANCH  12  13
ENDBRANCH   6  12
BRANCH  10  17
ATOM     17  C   UNL A   1      32.201  24.675  26.388  1.00  0.00     0.410 C 
ATOM     18  O   UNL A   1      31.404  24.310  27.243  1.00  0.00    -0.224 OA
BRANCH  17  19
ATOM     19  O   UNL A   1      32.805  25.893  26.392  1.00  0.00    -0.444 OA
BRANCH  19  20
ATOM     20  C   UNL A   1      31.980  27.074  26.193  1.00  0.00     0.106 C 
ATOM     21  C   UNL A   1      30.650  26.753  25.493  1.00  0.00     0.056 C 
ATOM     22  C   UNL A   1      31.766  27.808  27.524  1.00  0.00     0.056 C 
ATOM     23  C   UNL A   1      32.795  27.981  25.260  1.00  0.00     0.056 C 
ENDBRANCH  19  20
ENDBRANCH  17  19
ENDBRANCH  10  17
ENDBRANCH   3   6
ENDBRANCH   1   2
BRANCH   1  24
ATOM     24  C   UNL A   1      37.841  20.246  25.002  1.00  0.00     0.042 C 
BRANCH  24  25
ATOM     25  C   UNL A   1      39.064  20.480  25.871  1.00  0.00     0.118 C 
BRANCH  25  26
ATOM     26  N   UNL A   1      40.035  19.396  25.818  1.00  0.00    -0.352 N 
ATOM     27  C   UNL A   1      41.401  19.413  25.983  1.00  0.00     0.251 C 
ATOM     28  H   UNL A   1      39.652  18.507  25.635  1.00  0.00     0.163 HD
ATOM     29  O   UNL A   1      42.058  18.400  25.759  1.00  0.00    -0.269 OA
BRANCH  27  30
ATOM     30  C   UNL A   1      42.088  20.660  26.382  1.00  0.00     0.039 A 
ATOM     31  C   UNL A   1      42.565  21.519  25.389  1.00  0.00     0.014 A 
ATOM     32  C   UNL A   1      42.242  20.998  27.726  1.00  0.00     0.014 A 
ATOM     33  C   UNL A   1      43.096  22.762  25.745  1.00  0.00     0.010 A 
ATOM     34  C   UNL A   1      42.653  22.280  28.072  1.00  0.00     0.010 A 
ATOM     35  C   UNL A   1      43.088  23.177  27.087  1.00  0.00    -0.014 A 
BRANCH  35  36
ATOM     36  C   UNL A   1      43.530  24.538  27.486  1.00  0.00     0.031 A 
ATOM     37  C   UNL A   1      42.513  25.580  27.862  1.00  0.00     0.074 A 
ATOM     38  C   UNL A   1      44.838  24.860  27.431  1.00  0.00     0.049 A 
ATOM     39  N   UNL A   1      42.688  26.847  28.143  1.00  0.00    -0.248 NA
ATOM     40  C   UNL A   1      41.106  25.151  27.896  1.00  0.00     0.031 C 
ATOM     41  C   UNL A   1      45.919  23.956  27.031  1.00  0.00     0.029 A 
ATOM     42  N   UNL A   1      45.482  26.043  27.701  1.00  0.00    -0.354 N 
ATOM     43  C   UNL A   1      41.419  27.363  28.366  1.00  0.00     0.074 A 
ATOM     44  C   UNL A   1      40.477  26.293  28.125  1.00  0.00     0.031 C 
ATOM     45  C   UNL A   1      47.090  24.605  27.109  1.00  0.00     0.029 A 
ATOM     46  C   UNL A   1      46.843  25.985  27.514  1.00  0.00     0.049 A 
ATOM     47  H   UNL A   1      45.013  26.855  27.998  1.00  0.00     0.167 HD
ATOM     48  C   UNL A   1      41.070  28.610  28.764  1.00  0.00     0.037 A 
ATOM     49  C   UNL A   1      47.782  26.942  27.642  1.00  0.00     0.037 A 
ATOM     50  C   UNL A   1      42.012  29.665  29.026  1.00  0.00     0.049 A 
ATOM     51  C   UNL A   1      47.366  28.325  28.067  1.00  0.00     0.074 A 
ATOM     52  C   UNL A   1      41.765  30.944  29.493  1.00  0.00     0.029 A 
ATOM     53  N   UNL A   1      43.383  29.565  28.838  1.00  0.00    -0.354 N 
ATOM     54  N   UNL A   1      46.170  28.781  28.345  1.00  0.00    -0.248 NA
ATOM     55  C   UNL A   1      48.434  29.325  28.197  1.00  0.00     0.031 C 
ATOM     56  C   UNL A   1      42.980  31.637  29.531  1.00  0.00     0.029 A 
ATOM     57  C   UNL A   1      43.992  30.771  29.150  1.00  0.00     0.049 A 
ATOM     58  H   UNL A   1      43.853  28.758  28.528  1.00  0.00     0.167 HD
ATOM     59  C   UNL A   1      46.342  30.109  28.712  1.00  0.00     0.074 A 
ATOM     60  C   UNL A   1      47.763  30.380  28.639  1.00  0.00     0.031 C 
ATOM     61  C   UNL A   1      45.409  31.023  29.075  1.00  0.00     0.037 A 
BRANCH  48  62
ATOM     62  C   UNL A   1      39.606  28.900  28.942  1.00  0.00     0.064 A 
ATOM     63  C   UNL A   1      38.977  28.791  30.192  1.00  0.00     0.173 A 
ATOM     64  C   UNL A   1      38.827  29.325  27.854  1.00  0.00     0.173 A 
ATOM     65  F   UNL A   1      39.671  28.378  31.264  1.00  0.00    -0.203 F 
ATOM     66  C   UNL A   1      37.620  29.065  30.341  1.00  0.00     0.198 A 
ATOM     67  C   UNL A   1      37.478  29.633  28.013  1.00  0.00     0.198 A 
ATOM     68  F   UNL A   1      39.377  29.452  26.637  1.00  0.00    -0.203 F 
ATOM     69  F   UNL A   1      37.031  28.899  31.532  1.00  0.00    -0.200 F 
ATOM     70  C   UNL A   1      36.874  29.493  29.253  1.00  0.00     0.200 A 
ATOM     71  F   UNL A   1      36.763  30.062  26.964  1.00  0.00    -0.200 F 
ATOM     72  F   UNL A   1      35.570  29.766  29.399  1.00  0.00    -0.200 F 
ENDBRANCH  48  62
BRANCH  49  73
ATOM     73  C   UNL A   1      49.212  26.622  27.380  1.00  0.00     0.064 A 
ATOM     74  C   UNL A   1      50.100  26.373  28.435  1.00  0.00     0.173 A 
ATOM     75  C   UNL A   1      49.723  26.574  26.075  1.00  0.00     0.173 A 
ATOM     76  F   UNL A   1      49.666  26.428  29.703  1.00  0.00    -0.203 F 
ATOM     77  C   UNL A   1      51.449  26.112  28.197  1.00  0.00     0.198 A 
ATOM     78  C   UNL A   1      51.064  26.279  25.836  1.00  0.00     0.198 A 
ATOM     79  F   UNL A   1      48.916  26.800  25.027  1.00  0.00    -0.203 F 
ATOM     80  F   UNL A   1      52.285  25.930  29.228  1.00  0.00    -0.200 F 
ATOM     81  C   UNL A   1      51.928  26.059  26.898  1.00  0.00     0.200 A 
ATOM     82  F   UNL A   1      51.519  26.213  24.577  1.00  0.00    -0.200 F 
ATOM     83  F   UNL A   1      53.223  25.805  26.669  1.00  0.00    -0.200 F 
ENDBRANCH  49  73
BRANCH  61  84
ATOM     84  C   UNL A   1      45.896  32.392  29.456  1.00  0.00     0.064 A 
ATOM     85  C   UNL A   1      46.315  32.691  30.761  1.00  0.00     0.173 A 
ATOM     86  C   UNL A   1      45.980  33.409  28.491  1.00  0.00     0.173 A 
ATOM     87  F   UNL A   1      46.241  31.760  31.724  1.00  0.00    -0.203 F 
ATOM     88  C   UNL A   1      46.770  33.965  31.093  1.00  0.00     0.198 A 
ATOM     89  C   UNL A   1      46.470  34.670  28.818  1.00  0.00     0.198 A 
ATOM     90  F   UNL A   1      45.599  33.174  27.227  1.00  0.00    -0.203 F 
ATOM     91  F   UNL A   1      47.112  34.242  32.359  1.00  0.00    -0.200 F 
ATOM     92  C   UNL A   1      46.855  34.950  30.120  1.00  0.00     0.200 A 
ATOM     93  F   UNL A   1      46.568  35.614  27.873  1.00  0.00    -0.200 F 
ATOM     94  F   UNL A   1      47.302  36.172  30.439  1.00  0.00    -0.200 F 
ENDBRANCH  61  84
ENDBRANCH  35  36
ENDBRANCH  27  30
ENDBRANCH  25  26
ENDBRANCH  24  25
ENDBRANCH   1  24
TORSDOF 17
ENDMDL
MODEL 3
REMARK VINA RESULT:     -11.5      0.654      7.400
REMARK SMILES C=CCCC[C@@]1(C(=O)NCCCNC(=O)c2ccc(-c3c4nc(c(-c5c(F)c(F)c(F)c(F)c5F)c5ccc([nH]5)c(-c5c(F)c(F)c(F)c(F)c5F)c5nc(c(-c6c(F)c(F)c(F)c(F)c6F)c6ccc3[nH]6)C=C5)C=C4)cc2)CCCN(C(=O)OC(C)(C)C)C1
REMARK SMILES IDX 10 1 9 2 7 3 8 4 6 6 79 7 90 8 80 9 82 10 81 11 5 12 4 13
REMARK SMILES IDX 3 14 2 15 1 16 83 17 84 18 85 19 86 20 87 21 88 22 89 23
REMARK SMILES IDX 11 24 12 25 13 26 14 27 15 29 16 30 17 31 78 32 18 33 77 34
REMARK SMILES IDX 19 35 20 36 21 37 71 38 22 39 76 40 70 41 72 42 23 43 75 44
REMARK SMILES IDX 69 45 68 46 24 48 56 49 36 50 55 51 37 52 40 53 54 54 73 55
REMARK SMILES IDX 38 56 39 57 53 59 74 60 41 61 25 62 26 63 34 64 27 65 28 66
REMARK SMILES IDX 32 67 35 68 29 69 30 70 33 71 31 72 57 73 58 74 66 75 59 76
REMARK SMILES IDX 60 77 64 78 67 79 61 80 62 81 65 82 63 83 42 84 43 85 51 86
REMARK SMILES IDX 44 87 45 88 49 89 52 90 46 91 47 92 50 93 48 94
REMARK H PARENT 9 5 13 28 72 47 40 58
REMARK Flexibility Score: inf
ROOT
ATOM      1  C   UNL A   1      31.656  30.249  26.412  1.00  0.00     0.117 C 
ENDROOT
BRANCH   1   2
ATOM      2  N   UNL A   1      32.666  29.781  25.480  1.00  0.00    -0.355 N 
ATOM      3  C   UNL A   1      32.605  28.982  24.379  1.00  0.00     0.228 C 
ATOM      4  O   UNL A   1      33.648  28.933  23.724  1.00  0.00    -0.274 OA
ATOM      5  H   UNL A   1      33.574  30.104  25.686  1.00  0.00     0.163 HD
BRANCH   3   6
ATOM      6  C   UNL A   1      31.356  28.144  24.018  1.00  0.00     0.067 C 
ATOM      7  C   UNL A   1      30.741  27.577  25.334  1.00  0.00     0.020 C 
ATOM      8  C   UNL A   1      31.766  26.939  23.146  1.00  0.00     0.140 C 
ATOM      9  C   UNL A   1      31.615  26.497  26.001  1.00  0.00     0.023 C 
ATOM     10  N   UNL A   1      32.563  25.931  23.813  1.00  0.00    -0.307 N 
ATOM     11  C   UNL A   1      32.012  25.379  25.038  1.00  0.00     0.123 C 
BRANCH   6  12
ATOM     12  C   UNL A   1      30.311  29.002  23.224  1.00  0.00     0.019 C 
BRANCH  12  13
ATOM     13  C   UNL A   1      28.854  28.498  23.126  1.00  0.00     0.005 C 
BRANCH  13  14
ATOM     14  C   UNL A   1      27.775  29.491  22.664  1.00  0.00     0.027 C 
BRANCH  14  15
ATOM     15  C   UNL A   1      27.662  30.733  23.501  1.00  0.00    -0.035 C 
ATOM     16  C   UNL A   1      28.027  31.953  23.089  1.00  0.00     0.004 C 
ENDBRANCH  14  15
ENDBRANCH  13  14
ENDBRANCH  12  13
ENDBRANCH   6  12
BRANCH  10  17
ATOM     17  C   UNL A   1      33.733  25.527  23.191  1.00  0.00     0.410 C 
ATOM     18  O   UNL A   1      34.015  25.838  22.041  1.00  0.00    -0.224 OA
BRANCH  17  19
ATOM     19  O   UNL A   1      34.520  24.739  23.972  1.00  0.00    -0.444 OA
BRANCH  19  20
ATOM     20  C   UNL A   1      34.640  23.330  23.634  1.00  0.00     0.106 C 
ATOM     21  C   UNL A   1      36.044  22.964  23.126  1.00  0.00     0.056 C 
ATOM     22  C   UNL A   1      34.213  22.455  24.821  1.00  0.00     0.056 C 
ATOM     23  C   UNL A   1      33.650  23.108  22.482  1.00  0.00     0.056 C 
ENDBRANCH  19  20
ENDBRANCH  17  19
ENDBRANCH  10  17
ENDBRANCH   3   6
ENDBRANCH   1   2
BRANCH   1  24
ATOM     24  C   UNL A   1      31.557  31.759  26.500  1.00  0.00     0.042 C 
BRANCH  24  25
ATOM     25  C   UNL A   1      32.773  32.445  27.096  1.00  0.00     0.118 C 
BRANCH  25  26
ATOM     26  N   UNL A   1      32.527  33.824  27.497  1.00  0.00    -0.352 N 
ATOM     27  C   UNL A   1      33.119  34.586  28.479  1.00  0.00     0.251 C 
ATOM     28  H   UNL A   1      31.826  34.285  26.984  1.00  0.00     0.163 HD
ATOM     29  O   UNL A   1      32.666  35.694  28.751  1.00  0.00    -0.269 OA
BRANCH  27  30
ATOM     30  C   UNL A   1      34.268  34.056  29.243  1.00  0.00     0.039 A 
ATOM     31  C   UNL A   1      34.028  33.303  30.395  1.00  0.00     0.014 A 
ATOM     32  C   UNL A   1      35.578  34.275  28.818  1.00  0.00     0.014 A 
ATOM     33  C   UNL A   1      35.095  32.684  31.053  1.00  0.00     0.010 A 
ATOM     34  C   UNL A   1      36.620  33.561  29.396  1.00  0.00     0.010 A 
ATOM     35  C   UNL A   1      36.393  32.758  30.522  1.00  0.00    -0.014 A 
BRANCH  35  36
ATOM     36  C   UNL A   1      37.527  32.012  31.125  1.00  0.00     0.031 A 
ATOM     37  C   UNL A   1      38.016  32.368  32.503  1.00  0.00     0.074 A 
ATOM     38  C   UNL A   1      38.169  31.072  30.403  1.00  0.00     0.049 A 
ATOM     39  N   UNL A   1      39.048  31.906  33.162  1.00  0.00    -0.248 NA
ATOM     40  C   UNL A   1      37.264  33.406  33.224  1.00  0.00     0.031 C 
ATOM     41  C   UNL A   1      37.827  30.670  29.037  1.00  0.00     0.029 A 
ATOM     42  N   UNL A   1      39.254  30.289  30.714  1.00  0.00    -0.354 N 
ATOM     43  C   UNL A   1      39.077  32.608  34.359  1.00  0.00     0.074 A 
ATOM     44  C   UNL A   1      38.002  33.573  34.311  1.00  0.00     0.031 C 
ATOM     45  C   UNL A   1      38.663  29.700  28.639  1.00  0.00     0.029 A 
ATOM     46  C   UNL A   1      39.633  29.444  29.698  1.00  0.00     0.049 A 
ATOM     47  H   UNL A   1      39.717  30.330  31.581  1.00  0.00     0.167 HD
ATOM     48  C   UNL A   1      39.908  32.445  35.416  1.00  0.00     0.037 A 
ATOM     49  C   UNL A   1      40.657  28.571  29.626  1.00  0.00     0.037 A 
ATOM     50  C   UNL A   1      40.962  31.467  35.469  1.00  0.00     0.049 A 
ATOM     51  C   UNL A   1      41.577  28.422  30.807  1.00  0.00     0.074 A 
ATOM     52  C   UNL A   1      41.818  31.179  36.518  1.00  0.00     0.029 A 
ATOM     53  N   UNL A   1      41.307  30.620  34.426  1.00  0.00    -0.354 N 
ATOM     54  N   UNL A   1      41.550  29.041  31.962  1.00  0.00    -0.248 NA
ATOM     55  C   UNL A   1      42.671  27.451  30.675  1.00  0.00     0.031 C 
ATOM     56  C   UNL A   1      42.721  30.200  36.088  1.00  0.00     0.029 A 
ATOM     57  C   UNL A   1      42.386  29.831  34.795  1.00  0.00     0.049 A 
ATOM     58  H   UNL A   1      40.854  30.586  33.553  1.00  0.00     0.167 HD
ATOM     59  C   UNL A   1      42.599  28.515  32.704  1.00  0.00     0.074 A 
ATOM     60  C   UNL A   1      43.233  27.511  31.874  1.00  0.00     0.031 C 
ATOM     61  C   UNL A   1      43.003  28.834  33.958  1.00  0.00     0.037 A 
BRANCH  48  62
ATOM     62  C   UNL A   1      39.708  33.344  36.604  1.00  0.00     0.064 A 
ATOM     63  C   UNL A   1      40.376  34.572  36.724  1.00  0.00     0.173 A 
ATOM     64  C   UNL A   1      38.809  32.988  37.622  1.00  0.00     0.173 A 
ATOM     65  F   UNL A   1      41.255  34.956  35.785  1.00  0.00    -0.203 F 
ATOM     66  C   UNL A   1      40.179  35.394  37.830  1.00  0.00     0.198 A 
ATOM     67  C   UNL A   1      38.587  33.828  38.710  1.00  0.00     0.198 A 
ATOM     68  F   UNL A   1      38.138  31.828  37.558  1.00  0.00    -0.203 F 
ATOM     69  F   UNL A   1      40.872  36.534  37.948  1.00  0.00    -0.200 F 
ATOM     70  C   UNL A   1      39.278  35.025  38.818  1.00  0.00     0.200 A 
ATOM     71  F   UNL A   1      37.704  33.478  39.655  1.00  0.00    -0.200 F 
ATOM     72  F   UNL A   1      39.082  35.821  39.878  1.00  0.00    -0.200 F 
ENDBRANCH  48  62
BRANCH  49  73
ATOM     73  C   UNL A   1      40.857  27.757  28.396  1.00  0.00     0.064 A 
ATOM     74  C   UNL A   1      40.257  26.498  28.258  1.00  0.00     0.173 A 
ATOM     75  C   UNL A   1      41.661  28.213  27.340  1.00  0.00     0.173 A 
ATOM     76  F   UNL A   1      39.496  26.008  29.248  1.00  0.00    -0.203 F 
ATOM     77  C   UNL A   1      40.473  25.715  27.125  1.00  0.00     0.198 A 
ATOM     78  C   UNL A   1      41.849  27.444  26.194  1.00  0.00     0.198 A 
ATOM     79  F   UNL A   1      42.256  29.413  27.418  1.00  0.00    -0.203 F 
ATOM     80  F   UNL A   1      39.930  24.494  27.045  1.00  0.00    -0.200 F 
ATOM     81  C   UNL A   1      41.264  26.191  26.092  1.00  0.00     0.200 A 
ATOM     82  F   UNL A   1      42.601  27.916  25.190  1.00  0.00    -0.200 F 
ATOM     83  F   UNL A   1      41.468  25.441  25.001  1.00  0.00    -0.200 F 
ENDBRANCH  49  73
BRANCH  61  84
ATOM     84  C   UNL A   1      44.164  28.067  34.525  1.00  0.00     0.064 A 
ATOM     85  C   UNL A   1      45.482  28.534  34.416  1.00  0.00     0.173 A 
ATOM     86  C   UNL A   1      43.949  26.866  35.220  1.00  0.00     0.173 A 
ATOM     87  F   UNL A   1      45.744  29.668  33.749  1.00  0.00    -0.203 F 
ATOM     88  C   UNL A   1      46.544  27.812  34.954  1.00  0.00     0.198 A 
ATOM     89  C   UNL A   1      45.009  26.166  35.788  1.00  0.00     0.198 A 
ATOM     90  F   UNL A   1      42.707  26.378  35.359  1.00  0.00    -0.203 F 
ATOM     91  F   UNL A   1      47.800  28.250  34.790  1.00  0.00    -0.200 F 
ATOM     92  C   UNL A   1      46.306  26.634  35.647  1.00  0.00     0.200 A 
ATOM     93  F   UNL A   1      44.774  25.038  36.472  1.00  0.00    -0.200 F 
ATOM     94  F   UNL A   1      47.328  25.945  36.172  1.00  0.00    -0.200 F 
ENDBRANCH  61  84
ENDBRANCH  35  36
ENDBRANCH  27  30
ENDBRANCH  25  26
ENDBRANCH  24  25
ENDBRANCH   1  24
TORSDOF 17
ENDMDL
