MODEL 1
REMARK VINA RESULT:     -10.5      0.000      0.000
REMARK SMILES O=C(COCCNC(=O)Nc1cccc(F)c1)NCCCNC(=O)c1ccc(-c2c3nc(c(-c4c(F)c(F)c(F)c(F)c4F)c4ccc([nH]4)c(-c4c(F)c(F)c(F)c(F)c4F)c4nc(c(-c5c(F)c(F)c(F)c(F)c5F)c5ccc2[nH]5)C=C4)C=C3)cc1
REMARK SMILES IDX 1 1 2 2 18 3 3 5 4 6 5 7 6 8 7 9 8 10 9 12 10 13 11 15 12 16
REMARK SMILES IDX 17 17 13 18 15 19 14 20 16 21 19 22 20 23 21 24 22 25 23 26
REMARK SMILES IDX 24 28 25 29 26 30 87 31 27 32 86 33 28 34 29 35 30 36 80 37
REMARK SMILES IDX 31 38 85 39 79 40 81 41 32 42 84 43 78 44 77 45 33 47 65 48
REMARK SMILES IDX 45 49 64 50 46 51 49 52 63 53 82 54 47 55 48 56 62 58 83 59
REMARK SMILES IDX 50 60 34 61 35 62 43 63 36 64 37 65 41 66 44 67 38 68 39 69
REMARK SMILES IDX 42 70 40 71 66 72 67 73 75 74 68 75 69 76 73 77 76 78 70 79
REMARK SMILES IDX 71 80 74 81 72 82 51 83 52 84 60 85 53 86 54 87 58 88 61 89
REMARK SMILES IDX 55 90 56 91 59 92 57 93
REMARK H PARENT 18 4 7 11 10 14 22 27 81 46 49 57
REMARK Flexibility Score: inf
ROOT
ATOM      1  O   UNL A   1      43.356  17.553  26.879  1.00  0.00    -0.272 OA
ATOM      2  C   UNL A   1      43.645  18.443  26.087  1.00  0.00     0.245 C 
ATOM      3  N   UNL A   1      42.788  19.461  25.728  1.00  0.00    -0.354 N 
ATOM      4  H   UNL A   1      43.133  20.197  25.172  1.00  0.00     0.163 HD
ENDROOT
BRANCH   2   5
ATOM      5  C   UNL A   1      45.020  18.557  25.424  1.00  0.00     0.260 C 
BRANCH   5   6
ATOM      6  O   UNL A   1      45.132  19.588  24.451  1.00  0.00    -0.370 OA
BRANCH   6   7
ATOM      7  C   UNL A   1      46.152  20.559  24.712  1.00  0.00     0.182 C 
BRANCH   7   8
ATOM      8  C   UNL A   1      45.752  21.992  24.360  1.00  0.00     0.146 C 
BRANCH   8   9
ATOM      9  N   UNL A   1      44.312  22.242  24.333  1.00  0.00    -0.336 N 
ATOM     10  C   UNL A   1      43.441  22.817  25.186  1.00  0.00     0.319 C 
ATOM     11  H   UNL A   1      43.883  21.920  23.508  1.00  0.00     0.165 HD
ATOM     12  O   UNL A   1      42.239  22.616  25.000  1.00  0.00    -0.249 OA
ATOM     13  N   UNL A   1      43.823  23.502  26.283  1.00  0.00    -0.308 N 
ATOM     14  H   UNL A   1      43.170  23.475  27.020  1.00  0.00     0.171 HD
BRANCH  13  15
ATOM     15  C   UNL A   1      44.974  24.242  26.569  1.00  0.00     0.045 A 
ATOM     16  C   UNL A   1      45.896  23.852  27.546  1.00  0.00     0.026 A 
ATOM     17  C   UNL A   1      45.194  25.407  25.837  1.00  0.00     0.065 A 
ATOM     18  C   UNL A   1      46.942  24.705  27.905  1.00  0.00     0.005 A 
ATOM     19  C   UNL A   1      46.235  26.251  26.204  1.00  0.00     0.125 A 
ATOM     20  C   UNL A   1      47.093  25.925  27.249  1.00  0.00     0.039 A 
ATOM     21  F   UNL A   1      46.389  27.417  25.566  1.00  0.00    -0.207 F 
ENDBRANCH  13  15
ENDBRANCH   8   9
ENDBRANCH   7   8
ENDBRANCH   6   7
ENDBRANCH   5   6
ENDBRANCH   2   5
BRANCH   3  22
ATOM     22  C   UNL A   1      41.404  19.490  26.133  1.00  0.00     0.117 C 
BRANCH  22  23
ATOM     23  C   UNL A   1      41.215  20.055  27.534  1.00  0.00     0.042 C 
BRANCH  23  24
ATOM     24  C   UNL A   1      40.722  21.497  27.563  1.00  0.00     0.118 C 
BRANCH  24  25
ATOM     25  N   UNL A   1      39.607  21.739  26.660  1.00  0.00    -0.352 N 
ATOM     26  C   UNL A   1      38.943  22.902  26.366  1.00  0.00     0.251 C 
ATOM     27  H   UNL A   1      39.277  20.942  26.185  1.00  0.00     0.163 HD
ATOM     28  O   UNL A   1      37.939  22.863  25.661  1.00  0.00    -0.269 OA
BRANCH  26  29
ATOM     29  C   UNL A   1      39.408  24.201  26.904  1.00  0.00     0.039 A 
ATOM     30  C   UNL A   1      39.086  24.523  28.226  1.00  0.00     0.014 A 
ATOM     31  C   UNL A   1      40.106  25.119  26.115  1.00  0.00     0.014 A 
ATOM     32  C   UNL A   1      39.498  25.743  28.767  1.00  0.00     0.010 A 
ATOM     33  C   UNL A   1      40.581  26.304  26.677  1.00  0.00     0.010 A 
ATOM     34  C   UNL A   1      40.266  26.636  28.003  1.00  0.00    -0.014 A 
BRANCH  34  35
ATOM     35  C   UNL A   1      40.710  27.934  28.570  1.00  0.00     0.031 A 
ATOM     36  C   UNL A   1      42.168  28.180  28.845  1.00  0.00     0.074 A 
ATOM     37  C   UNL A   1      39.801  28.886  28.859  1.00  0.00     0.049 A 
ATOM     38  N   UNL A   1      42.748  29.240  29.352  1.00  0.00    -0.248 NA
ATOM     39  C   UNL A   1      43.097  27.082  28.532  1.00  0.00     0.031 C 
ATOM     40  C   UNL A   1      38.355  28.754  28.675  1.00  0.00     0.029 A 
ATOM     41  N   UNL A   1      39.959  30.152  29.365  1.00  0.00    -0.354 N 
ATOM     42  C   UNL A   1      44.100  28.931  29.426  1.00  0.00     0.074 A 
ATOM     43  C   UNL A   1      44.251  27.569  28.964  1.00  0.00     0.031 C 
ATOM     44  C   UNL A   1      37.762  29.906  29.030  1.00  0.00     0.029 A 
ATOM     45  C   UNL A   1      38.781  30.845  29.492  1.00  0.00     0.049 A 
ATOM     46  H   UNL A   1      40.835  30.528  29.613  1.00  0.00     0.167 HD
ATOM     47  C   UNL A   1      45.126  29.723  29.817  1.00  0.00     0.037 A 
ATOM     48  C   UNL A   1      38.549  32.100  29.923  1.00  0.00     0.037 A 
ATOM     49  C   UNL A   1      44.980  31.088  30.245  1.00  0.00     0.049 A 
ATOM     50  C   UNL A   1      39.708  32.966  30.334  1.00  0.00     0.074 A 
ATOM     51  C   UNL A   1      45.965  31.982  30.630  1.00  0.00     0.029 A 
ATOM     52  N   UNL A   1      43.771  31.761  30.337  1.00  0.00    -0.354 N 
ATOM     53  N   UNL A   1      40.986  32.677  30.358  1.00  0.00    -0.248 NA
ATOM     54  C   UNL A   1      39.394  34.335  30.767  1.00  0.00     0.031 C 
ATOM     55  C   UNL A   1      45.350  33.185  30.985  1.00  0.00     0.029 A 
ATOM     56  C   UNL A   1      43.986  33.058  30.776  1.00  0.00     0.049 A 
ATOM     57  H   UNL A   1      42.891  31.375  30.123  1.00  0.00     0.167 HD
ATOM     58  C   UNL A   1      41.631  33.834  30.775  1.00  0.00     0.074 A 
ATOM     59  C   UNL A   1      40.604  34.833  30.987  1.00  0.00     0.031 C 
ATOM     60  C   UNL A   1      42.956  34.047  30.961  1.00  0.00     0.037 A 
BRANCH  47  61
ATOM     61  C   UNL A   1      46.508  29.139  29.785  1.00  0.00     0.064 A 
ATOM     62  C   UNL A   1      47.032  28.482  30.907  1.00  0.00     0.173 A 
ATOM     63  C   UNL A   1      47.338  29.285  28.663  1.00  0.00     0.173 A 
ATOM     64  F   UNL A   1      46.284  28.321  32.010  1.00  0.00    -0.203 F 
ATOM     65  C   UNL A   1      48.340  28.002  30.911  1.00  0.00     0.198 A 
ATOM     66  C   UNL A   1      48.634  28.778  28.659  1.00  0.00     0.198 A 
ATOM     67  F   UNL A   1      46.878  29.895  27.559  1.00  0.00    -0.203 F 
ATOM     68  F   UNL A   1      48.830  27.402  32.005  1.00  0.00    -0.200 F 
ATOM     69  C   UNL A   1      49.137  28.145  29.785  1.00  0.00     0.200 A 
ATOM     70  F   UNL A   1      49.394  28.897  27.561  1.00  0.00    -0.200 F 
ATOM     71  F   UNL A   1      50.391  27.671  29.785  1.00  0.00    -0.200 F 
ENDBRANCH  47  61
BRANCH  48  72
ATOM     72  C   UNL A   1      37.160  32.628  29.926  1.00  0.00     0.064 A 
ATOM     73  C   UNL A   1      36.654  33.360  28.843  1.00  0.00     0.173 A 
ATOM     74  C   UNL A   1      36.321  32.431  31.032  1.00  0.00     0.173 A 
ATOM     75  F   UNL A   1      37.419  33.580  27.764  1.00  0.00    -0.203 F 
ATOM     76  C   UNL A   1      35.364  33.888  28.873  1.00  0.00     0.198 A 
ATOM     77  C   UNL A   1      35.025  32.938  31.050  1.00  0.00     0.198 A 
ATOM     78  F   UNL A   1      36.757  31.720  32.083  1.00  0.00    -0.203 F 
ATOM     79  F   UNL A   1      34.914  34.608  27.837  1.00  0.00    -0.200 F 
ATOM     80  C   UNL A   1      34.549  33.673  29.974  1.00  0.00     0.200 A 
ATOM     81  F   UNL A   1      34.233  32.708  32.107  1.00  0.00    -0.200 F 
ATOM     82  F   UNL A   1      33.305  34.170  29.998  1.00  0.00    -0.200 F 
ENDBRANCH  48  72
BRANCH  60  83
ATOM     83  C   UNL A   1      43.391  35.423  31.372  1.00  0.00     0.064 A 
ATOM     84  C   UNL A   1      43.452  35.766  32.732  1.00  0.00     0.173 A 
ATOM     85  C   UNL A   1      43.667  36.421  30.428  1.00  0.00     0.173 A 
ATOM     86  F   UNL A   1      43.187  34.848  33.675  1.00  0.00    -0.203 F 
ATOM     87  C   UNL A   1      43.762  37.063  33.131  1.00  0.00     0.198 A 
ATOM     88  C   UNL A   1      44.002  37.711  30.831  1.00  0.00     0.198 A 
ATOM     89  F   UNL A   1      43.632  36.139  29.118  1.00  0.00    -0.203 F 
ATOM     90  F   UNL A   1      43.782  37.377  34.433  1.00  0.00    -0.200 F 
ATOM     91  C   UNL A   1      44.039  38.033  32.180  1.00  0.00     0.200 A 
ATOM     92  F   UNL A   1      44.291  38.643  29.912  1.00  0.00    -0.200 F 
ATOM     93  F   UNL A   1      44.345  39.280  32.563  1.00  0.00    -0.200 F 
ENDBRANCH  60  83
ENDBRANCH  34  35
ENDBRANCH  26  29
ENDBRANCH  24  25
ENDBRANCH  23  24
ENDBRANCH  22  23
ENDBRANCH   3  22
TORSDOF 15
ENDMDL
MODEL 2
REMARK VINA RESULT:     -10.1      5.475     10.999
REMARK SMILES O=C(COCCNC(=O)Nc1cccc(F)c1)NCCCNC(=O)c1ccc(-c2c3nc(c(-c4c(F)c(F)c(F)c(F)c4F)c4ccc([nH]4)c(-c4c(F)c(F)c(F)c(F)c4F)c4nc(c(-c5c(F)c(F)c(F)c(F)c5F)c5ccc2[nH]5)C=C4)C=C3)cc1
REMARK SMILES IDX 1 1 2 2 18 3 3 5 4 6 5 7 6 8 7 9 8 10 9 12 10 13 11 15 12 16
REMARK SMILES IDX 17 17 13 18 15 19 14 20 16 21 19 22 20 23 21 24 22 25 23 26
REMARK SMILES IDX 24 28 25 29 26 30 87 31 27 32 86 33 28 34 29 35 30 36 80 37
REMARK SMILES IDX 31 38 85 39 79 40 81 41 32 42 84 43 78 44 77 45 33 47 65 48
REMARK SMILES IDX 45 49 64 50 46 51 49 52 63 53 82 54 47 55 48 56 62 58 83 59
REMARK SMILES IDX 50 60 34 61 35 62 43 63 36 64 37 65 41 66 44 67 38 68 39 69
REMARK SMILES IDX 42 70 40 71 66 72 67 73 75 74 68 75 69 76 73 77 76 78 70 79
REMARK SMILES IDX 71 80 74 81 72 82 51 83 52 84 60 85 53 86 54 87 58 88 61 89
REMARK SMILES IDX 55 90 56 91 59 92 57 93
REMARK H PARENT 18 4 7 11 10 14 22 27 81 46 49 57
REMARK Flexibility Score: inf
ROOT
ATOM      1  O   UNL A   1      33.232  28.994  24.592  1.00  0.00    -0.272 OA
ATOM      2  C   UNL A   1      32.679  28.811  25.671  1.00  0.00     0.245 C 
ATOM      3  N   UNL A   1      31.667  29.610  26.161  1.00  0.00    -0.354 N 
ATOM      4  H   UNL A   1      31.201  29.332  26.982  1.00  0.00     0.163 HD
ENDROOT
BRANCH   2   5
ATOM      5  C   UNL A   1      33.018  27.641  26.596  1.00  0.00     0.260 C 
BRANCH   5   6
ATOM      6  O   UNL A   1      33.730  26.575  25.978  1.00  0.00    -0.370 OA
BRANCH   6   7
ATOM      7  C   UNL A   1      33.146  25.279  26.147  1.00  0.00     0.182 C 
BRANCH   7   8
ATOM      8  C   UNL A   1      31.656  25.219  25.812  1.00  0.00     0.146 C 
BRANCH   8   9
ATOM      9  N   UNL A   1      30.830  24.512  26.788  1.00  0.00    -0.336 N 
ATOM     10  C   UNL A   1      30.389  23.243  26.903  1.00  0.00     0.319 C 
ATOM     11  H   UNL A   1      30.528  25.090  27.525  1.00  0.00     0.165 HD
ATOM     12  O   UNL A   1      29.467  23.026  27.692  1.00  0.00    -0.249 OA
ATOM     13  N   UNL A   1      30.831  22.233  26.126  1.00  0.00    -0.308 N 
ATOM     14  H   UNL A   1      30.168  21.518  25.983  1.00  0.00     0.171 HD
BRANCH  13  15
ATOM     15  C   UNL A   1      32.053  22.012  25.486  1.00  0.00     0.045 A 
ATOM     16  C   UNL A   1      33.175  21.512  26.156  1.00  0.00     0.026 A 
ATOM     17  C   UNL A   1      32.133  22.301  24.125  1.00  0.00     0.065 A 
ATOM     18  C   UNL A   1      34.412  21.460  25.511  1.00  0.00     0.005 A 
ATOM     19  C   UNL A   1      33.370  22.250  23.494  1.00  0.00     0.125 A 
ATOM     20  C   UNL A   1      34.515  21.860  24.181  1.00  0.00     0.039 A 
ATOM     21  F   UNL A   1      33.467  22.622  22.212  1.00  0.00    -0.207 F 
ENDBRANCH  13  15
ENDBRANCH   8   9
ENDBRANCH   7   8
ENDBRANCH   6   7
ENDBRANCH   5   6
ENDBRANCH   2   5
BRANCH   3  22
ATOM     22  C   UNL A   1      31.267  30.838  25.518  1.00  0.00     0.117 C 
BRANCH  22  23
ATOM     23  C   UNL A   1      31.123  31.993  26.499  1.00  0.00     0.042 C 
BRANCH  23  24
ATOM     24  C   UNL A   1      32.449  32.544  27.011  1.00  0.00     0.118 C 
BRANCH  24  25
ATOM     25  N   UNL A   1      32.350  33.909  27.505  1.00  0.00    -0.352 N 
ATOM     26  C   UNL A   1      33.098  34.565  28.449  1.00  0.00     0.251 C 
ATOM     27  H   UNL A   1      31.633  34.447  27.097  1.00  0.00     0.163 HD
ATOM     28  O   UNL A   1      32.764  35.690  28.809  1.00  0.00    -0.269 OA
BRANCH  26  29
ATOM     29  C   UNL A   1      34.290  33.927  29.054  1.00  0.00     0.039 A 
ATOM     30  C   UNL A   1      34.092  32.898  29.980  1.00  0.00     0.014 A 
ATOM     31  C   UNL A   1      35.586  34.359  28.762  1.00  0.00     0.014 A 
ATOM     32  C   UNL A   1      35.191  32.278  30.580  1.00  0.00     0.010 A 
ATOM     33  C   UNL A   1      36.684  33.692  29.305  1.00  0.00     0.010 A 
ATOM     34  C   UNL A   1      36.497  32.657  30.232  1.00  0.00    -0.014 A 
BRANCH  34  35
ATOM     35  C   UNL A   1      37.671  32.002  30.863  1.00  0.00     0.031 A 
ATOM     36  C   UNL A   1      38.084  32.375  32.260  1.00  0.00     0.074 A 
ATOM     37  C   UNL A   1      38.379  31.087  30.173  1.00  0.00     0.049 A 
ATOM     38  N   UNL A   1      39.087  31.927  32.974  1.00  0.00    -0.248 NA
ATOM     39  C   UNL A   1      37.279  33.404  32.938  1.00  0.00     0.031 C 
ATOM     40  C   UNL A   1      38.103  30.668  28.799  1.00  0.00     0.029 A 
ATOM     41  N   UNL A   1      39.473  30.342  30.536  1.00  0.00    -0.354 N 
ATOM     42  C   UNL A   1      39.037  32.626  34.174  1.00  0.00     0.074 A 
ATOM     43  C   UNL A   1      37.942  33.564  34.075  1.00  0.00     0.031 C 
ATOM     44  C   UNL A   1      38.983  29.716  28.446  1.00  0.00     0.029 A 
ATOM     45  C   UNL A   1      39.900  29.478  29.557  1.00  0.00     0.049 A 
ATOM     46  H   UNL A   1      39.911  30.419  31.415  1.00  0.00     0.167 HD
ATOM     47  C   UNL A   1      39.818  32.476  35.270  1.00  0.00     0.037 A 
ATOM     48  C   UNL A   1      40.911  28.588  29.559  1.00  0.00     0.037 A 
ATOM     49  C   UNL A   1      40.887  31.520  35.381  1.00  0.00     0.049 A 
ATOM     50  C   UNL A   1      41.752  28.428  30.796  1.00  0.00     0.074 A 
ATOM     51  C   UNL A   1      41.713  31.272  36.463  1.00  0.00     0.029 A 
ATOM     52  N   UNL A   1      41.272  30.648  34.374  1.00  0.00    -0.354 N 
ATOM     53  N   UNL A   1      41.668  29.063  31.940  1.00  0.00    -0.248 NA
ATOM     54  C   UNL A   1      42.821  27.421  30.747  1.00  0.00     0.031 C 
ATOM     55  C   UNL A   1      42.620  30.271  36.102  1.00  0.00     0.029 A 
ATOM     56  C   UNL A   1      42.327  29.862  34.810  1.00  0.00     0.049 A 
ATOM     57  H   UNL A   1      40.858  30.593  33.483  1.00  0.00     0.167 HD
ATOM     58  C   UNL A   1      42.646  28.512  32.755  1.00  0.00     0.074 A 
ATOM     59  C   UNL A   1      43.310  27.485  31.979  1.00  0.00     0.031 C 
ATOM     60  C   UNL A   1      42.962  28.829  34.034  1.00  0.00     0.037 A 
BRANCH  47  61
ATOM     61  C   UNL A   1      39.536  33.358  36.451  1.00  0.00     0.064 A 
ATOM     62  C   UNL A   1      40.185  34.593  36.592  1.00  0.00     0.173 A 
ATOM     63  C   UNL A   1      38.670  32.950  37.477  1.00  0.00     0.173 A 
ATOM     64  F   UNL A   1      41.028  35.028  35.643  1.00  0.00    -0.203 F 
ATOM     65  C   UNL A   1      39.984  35.384  37.721  1.00  0.00     0.198 A 
ATOM     66  C   UNL A   1      38.449  33.756  38.590  1.00  0.00     0.198 A 
ATOM     67  F   UNL A   1      38.016  31.782  37.383  1.00  0.00    -0.203 F 
ATOM     68  F   UNL A   1      40.635  36.547  37.848  1.00  0.00    -0.200 F 
ATOM     69  C   UNL A   1      39.112  34.967  38.715  1.00  0.00     0.200 A 
ATOM     70  F   UNL A   1      37.587  33.362  39.539  1.00  0.00    -0.200 F 
ATOM     71  F   UNL A   1      38.910  35.734  39.796  1.00  0.00    -0.200 F 
ENDBRANCH  47  61
BRANCH  48  72
ATOM     72  C   UNL A   1      41.139  27.737  28.364  1.00  0.00     0.064 A 
ATOM     73  C   UNL A   1      42.033  28.118  27.354  1.00  0.00     0.173 A 
ATOM     74  C   UNL A   1      40.442  26.532  28.199  1.00  0.00     0.173 A 
ATOM     75  F   UNL A   1      42.721  29.264  27.463  1.00  0.00    -0.203 F 
ATOM     76  C   UNL A   1      42.210  27.333  26.216  1.00  0.00     0.198 A 
ATOM     77  C   UNL A   1      40.637  25.736  27.073  1.00  0.00     0.198 A 
ATOM     78  F   UNL A   1      39.590  26.117  29.149  1.00  0.00    -0.203 F 
ATOM     79  F   UNL A   1      43.049  27.734  25.251  1.00  0.00    -0.200 F 
ATOM     80  C   UNL A   1      41.515  26.141  26.078  1.00  0.00     0.200 A 
ATOM     81  F   UNL A   1      39.980  24.573  26.955  1.00  0.00    -0.200 F 
ATOM     82  F   UNL A   1      41.694  25.380  24.990  1.00  0.00    -0.200 F 
ENDBRANCH  48  72
BRANCH  60  83
ATOM     83  C   UNL A   1      44.042  28.031  34.705  1.00  0.00     0.064 A 
ATOM     84  C   UNL A   1      43.739  26.799  35.305  1.00  0.00     0.173 A 
ATOM     85  C   UNL A   1      45.350  28.519  34.825  1.00  0.00     0.173 A 
ATOM     86  F   UNL A   1      42.499  26.294  35.225  1.00  0.00    -0.203 F 
ATOM     87  C   UNL A   1      44.706  26.090  36.012  1.00  0.00     0.198 A 
ATOM     88  C   UNL A   1      46.321  27.794  35.512  1.00  0.00     0.198 A 
ATOM     89  F   UNL A   1      45.690  29.686  34.260  1.00  0.00    -0.203 F 
ATOM     90  F   UNL A   1      44.386  24.931  36.605  1.00  0.00    -0.200 F 
ATOM     91  C   UNL A   1      45.996  26.586  36.112  1.00  0.00     0.200 A 
ATOM     92  F   UNL A   1      47.574  28.264  35.590  1.00  0.00    -0.200 F 
ATOM     93  F   UNL A   1      46.929  25.900  36.786  1.00  0.00    -0.200 F 
ENDBRANCH  60  83
ENDBRANCH  34  35
ENDBRANCH  26  29
ENDBRANCH  24  25
ENDBRANCH  23  24
ENDBRANCH  22  23
ENDBRANCH   3  22
TORSDOF 15
ENDMDL
MODEL 3
REMARK VINA RESULT:     -10.1      6.235     11.964
REMARK SMILES O=C(COCCNC(=O)Nc1cccc(F)c1)NCCCNC(=O)c1ccc(-c2c3nc(c(-c4c(F)c(F)c(F)c(F)c4F)c4ccc([nH]4)c(-c4c(F)c(F)c(F)c(F)c4F)c4nc(c(-c5c(F)c(F)c(F)c(F)c5F)c5ccc2[nH]5)C=C4)C=C3)cc1
REMARK SMILES IDX 1 1 2 2 18 3 3 5 4 6 5 7 6 8 7 9 8 10 9 12 10 13 11 15 12 16
REMARK SMILES IDX 17 17 13 18 15 19 14 20 16 21 19 22 20 23 21 24 22 25 23 26
REMARK SMILES IDX 24 28 25 29 26 30 87 31 27 32 86 33 28 34 29 35 30 36 80 37
REMARK SMILES IDX 31 38 85 39 79 40 81 41 32 42 84 43 78 44 77 45 33 47 65 48
REMARK SMILES IDX 45 49 64 50 46 51 49 52 63 53 82 54 47 55 48 56 62 58 83 59
REMARK SMILES IDX 50 60 34 61 35 62 43 63 36 64 37 65 41 66 44 67 38 68 39 69
REMARK SMILES IDX 42 70 40 71 66 72 67 73 75 74 68 75 69 76 73 77 76 78 70 79
REMARK SMILES IDX 71 80 74 81 72 82 51 83 52 84 60 85 53 86 54 87 58 88 61 89
REMARK SMILES IDX 55 90 56 91 59 92 57 93
REMARK H PARENT 18 4 7 11 10 14 22 27 81 46 49 57
REMARK Flexibility Score: inf
ROOT
ATOM      1  O   UNL A   1      35.508  31.670  28.189  1.00  0.00    -0.272 OA
ATOM      2  C   UNL A   1      34.328  31.727  27.863  1.00  0.00     0.245 C 
ATOM      3  N   UNL A   1      33.539  32.847  28.021  1.00  0.00    -0.354 N 
ATOM      4  H   UNL A   1      32.634  32.847  27.633  1.00  0.00     0.163 HD
ENDROOT
BRANCH   2   5
ATOM      5  C   UNL A   1      33.589  30.564  27.197  1.00  0.00     0.260 C 
BRANCH   5   6
ATOM      6  O   UNL A   1      32.282  30.874  26.730  1.00  0.00    -0.370 OA
BRANCH   6   7
ATOM      7  C   UNL A   1      31.870  30.155  25.562  1.00  0.00     0.182 C 
BRANCH   7   8
ATOM      8  C   UNL A   1      32.721  28.922  25.258  1.00  0.00     0.146 C 
BRANCH   8   9
ATOM      9  N   UNL A   1      33.532  29.014  24.046  1.00  0.00    -0.336 N 
ATOM     10  C   UNL A   1      33.405  28.535  22.792  1.00  0.00     0.319 C 
ATOM     11  H   UNL A   1      34.353  29.542  24.172  1.00  0.00     0.165 HD
ATOM     12  O   UNL A   1      34.406  28.543  22.071  1.00  0.00    -0.249 OA
ATOM     13  N   UNL A   1      32.278  27.955  22.332  1.00  0.00    -0.308 N 
ATOM     14  H   UNL A   1      32.432  27.280  21.631  1.00  0.00     0.171 HD
BRANCH  13  15
ATOM     15  C   UNL A   1      30.933  28.132  22.664  1.00  0.00     0.045 A 
ATOM     16  C   UNL A   1      30.194  27.166  23.356  1.00  0.00     0.026 A 
ATOM     17  C   UNL A   1      30.324  29.329  22.289  1.00  0.00     0.065 A 
ATOM     18  C   UNL A   1      28.817  27.322  23.523  1.00  0.00     0.005 A 
ATOM     19  C   UNL A   1      28.952  29.472  22.457  1.00  0.00     0.125 A 
ATOM     20  C   UNL A   1      28.188  28.468  23.044  1.00  0.00     0.039 A 
ATOM     21  F   UNL A   1      28.349  30.580  22.007  1.00  0.00    -0.207 F 
ENDBRANCH  13  15
ENDBRANCH   8   9
ENDBRANCH   7   8
ENDBRANCH   6   7
ENDBRANCH   5   6
ENDBRANCH   2   5
BRANCH   3  22
ATOM     22  C   UNL A   1      33.988  34.018  28.734  1.00  0.00     0.117 C 
BRANCH  22  23
ATOM     23  C   UNL A   1      32.945  35.126  28.754  1.00  0.00     0.042 C 
BRANCH  23  24
ATOM     24  C   UNL A   1      33.268  36.267  29.712  1.00  0.00     0.118 C 
BRANCH  24  25
ATOM     25  N   UNL A   1      32.430  36.272  30.902  1.00  0.00    -0.352 N 
ATOM     26  C   UNL A   1      32.622  35.675  32.121  1.00  0.00     0.251 C 
ATOM     27  H   UNL A   1      31.593  36.785  30.818  1.00  0.00     0.163 HD
ATOM     28  O   UNL A   1      31.721  35.703  32.955  1.00  0.00    -0.269 OA
BRANCH  26  29
ATOM     29  C   UNL A   1      33.890  34.979  32.438  1.00  0.00     0.039 A 
ATOM     30  C   UNL A   1      33.824  33.662  32.901  1.00  0.00     0.014 A 
ATOM     31  C   UNL A   1      35.128  35.618  32.334  1.00  0.00     0.014 A 
ATOM     32  C   UNL A   1      34.998  32.974  33.219  1.00  0.00     0.010 A 
ATOM     33  C   UNL A   1      36.303  34.910  32.581  1.00  0.00     0.010 A 
ATOM     34  C   UNL A   1      36.249  33.587  33.043  1.00  0.00    -0.014 A 
BRANCH  34  35
ATOM     35  C   UNL A   1      37.502  32.863  33.377  1.00  0.00     0.031 A 
ATOM     36  C   UNL A   1      38.216  33.145  34.670  1.00  0.00     0.074 A 
ATOM     37  C   UNL A   1      38.011  31.968  32.508  1.00  0.00     0.049 A 
ATOM     38  N   UNL A   1      39.328  32.629  35.131  1.00  0.00    -0.248 NA
ATOM     39  C   UNL A   1      37.615  34.157  35.553  1.00  0.00     0.031 C 
ATOM     40  C   UNL A   1      37.435  31.636  31.205  1.00  0.00     0.029 A 
ATOM     41  N   UNL A   1      39.127  31.172  32.593  1.00  0.00    -0.354 N 
ATOM     42  C   UNL A   1      39.561  33.260  36.347  1.00  0.00     0.074 A 
ATOM     43  C   UNL A   1      38.509  34.234  36.529  1.00  0.00     0.031 C 
ATOM     44  C   UNL A   1      38.181  30.680  30.627  1.00  0.00     0.029 A 
ATOM     45  C   UNL A   1      39.302  30.353  31.504  1.00  0.00     0.049 A 
ATOM     46  H   UNL A   1      39.743  31.187  33.361  1.00  0.00     0.167 HD
ATOM     47  C   UNL A   1      40.550  33.026  37.243  1.00  0.00     0.037 A 
ATOM     48  C   UNL A   1      40.254  29.436  31.247  1.00  0.00     0.037 A 
ATOM     49  C   UNL A   1      41.578  32.034  37.077  1.00  0.00     0.049 A 
ATOM     50  C   UNL A   1      41.330  29.182  32.268  1.00  0.00     0.074 A 
ATOM     51  C   UNL A   1      42.604  31.702  37.945  1.00  0.00     0.029 A 
ATOM     52  N   UNL A   1      41.706  31.209  35.970  1.00  0.00    -0.354 N 
ATOM     53  N   UNL A   1      41.515  29.754  33.432  1.00  0.00    -0.248 NA
ATOM     54  C   UNL A   1      42.323  28.147  31.943  1.00  0.00     0.031 C 
ATOM     55  C   UNL A   1      43.372  30.697  37.350  1.00  0.00     0.029 A 
ATOM     56  C   UNL A   1      42.797  30.370  36.132  1.00  0.00     0.049 A 
ATOM     57  H   UNL A   1      41.111  31.217  35.185  1.00  0.00     0.167 HD
ATOM     58  C   UNL A   1      42.620  29.129  33.993  1.00  0.00     0.074 A 
ATOM     59  C   UNL A   1      43.063  28.128  33.044  1.00  0.00     0.031 C 
ATOM     60  C   UNL A   1      43.211  29.364  35.190  1.00  0.00     0.037 A 
BRANCH  47  61
ATOM     61  C   UNL A   1      40.559  33.848  38.499  1.00  0.00     0.064 A 
ATOM     62  C   UNL A   1      39.748  33.495  39.588  1.00  0.00     0.173 A 
ATOM     63  C   UNL A   1      41.323  35.020  38.600  1.00  0.00     0.173 A 
ATOM     64  F   UNL A   1      38.993  32.388  39.540  1.00  0.00    -0.203 F 
ATOM     65  C   UNL A   1      39.696  34.293  40.729  1.00  0.00     0.198 A 
ATOM     66  C   UNL A   1      41.290  35.798  39.754  1.00  0.00     0.198 A 
ATOM     67  F   UNL A   1      42.124  35.392  37.590  1.00  0.00    -0.203 F 
ATOM     68  F   UNL A   1      38.893  33.952  41.746  1.00  0.00    -0.200 F 
ATOM     69  C   UNL A   1      40.471  35.439  40.812  1.00  0.00     0.200 A 
ATOM     70  F   UNL A   1      42.059  36.894  39.842  1.00  0.00    -0.200 F 
ATOM     71  F   UNL A   1      40.429  36.199  41.916  1.00  0.00    -0.200 F 
ENDBRANCH  47  61
BRANCH  48  72
ATOM     72  C   UNL A   1      40.190  28.646  29.991  1.00  0.00     0.064 A 
ATOM     73  C   UNL A   1      39.529  27.411  29.936  1.00  0.00     0.173 A 
ATOM     74  C   UNL A   1      40.816  29.105  28.824  1.00  0.00     0.173 A 
ATOM     75  F   UNL A   1      38.918  26.927  31.027  1.00  0.00    -0.203 F 
ATOM     76  C   UNL A   1      39.509  26.658  28.763  1.00  0.00     0.198 A 
ATOM     77  C   UNL A   1      40.776  28.363  27.646  1.00  0.00     0.198 A 
ATOM     78  F   UNL A   1      41.444  30.290  28.824  1.00  0.00    -0.203 F 
ATOM     79  F   UNL A   1      38.896  25.467  28.745  1.00  0.00    -0.200 F 
ATOM     80  C   UNL A   1      40.129  27.136  27.618  1.00  0.00     0.200 A 
ATOM     81  F   UNL A   1      41.357  28.839  26.536  1.00  0.00    -0.200 F 
ATOM     82  F   UNL A   1      40.101  26.417  26.488  1.00  0.00    -0.200 F 
ENDBRANCH  48  72
BRANCH  60  83
ATOM     83  C   UNL A   1      44.375  28.499  35.575  1.00  0.00     0.064 A 
ATOM     84  C   UNL A   1      44.179  27.377  36.396  1.00  0.00     0.173 A 
ATOM     85  C   UNL A   1      45.687  28.821  35.203  1.00  0.00     0.173 A 
ATOM     86  F   UNL A   1      42.943  27.032  36.787  1.00  0.00    -0.203 F 
ATOM     87  C   UNL A   1      45.257  26.617  36.841  1.00  0.00     0.198 A 
ATOM     88  C   UNL A   1      46.761  28.044  35.629  1.00  0.00     0.198 A 
ATOM     89  F   UNL A   1      45.924  29.877  34.411  1.00  0.00    -0.203 F 
ATOM     90  F   UNL A   1      45.049  25.570  37.651  1.00  0.00    -0.200 F 
ATOM     91  C   UNL A   1      46.546  26.950  36.454  1.00  0.00     0.200 A 
ATOM     92  F   UNL A   1      48.006  28.353  35.237  1.00  0.00    -0.200 F 
ATOM     93  F   UNL A   1      47.584  26.214  36.876  1.00  0.00    -0.200 F 
ENDBRANCH  60  83
ENDBRANCH  34  35
ENDBRANCH  26  29
ENDBRANCH  24  25
ENDBRANCH  23  24
ENDBRANCH  22  23
ENDBRANCH   3  22
TORSDOF 15
ENDMDL
