MODEL 1
REMARK VINA RESULT:     -10.9      0.000      0.000
REMARK SMILES COc1ccc2cc([C@H](C)C(=O)NCCCNC(=O)c3ccc(-c4c5nc(c(-c6c(F)c(F)c(F)c(F)c6F)c6ccc([nH]6)c(-c6c(F)c(F)c(F)c(F)c6F)c6nc(c(-c7c(F)c(F)c(F)c(F)c7F)c7ccc4[nH]7)C=C6)C=C5)cc3)ccc2c1
REMARK SMILES IDX 15 1 14 2 13 3 11 4 12 5 9 7 10 8 8 9 3 10 4 11 86 12 5 13
REMARK SMILES IDX 85 14 6 15 84 16 7 17 83 18 2 19 1 20 16 21 17 22 18 23
REMARK SMILES IDX 19 25 20 26 21 27 82 28 22 29 81 30 23 31 24 32 25 33 75 34
REMARK SMILES IDX 26 35 80 36 74 37 76 38 27 39 79 40 73 41 72 42 28 44 60 45
REMARK SMILES IDX 40 46 59 47 41 48 44 49 58 50 77 51 42 52 43 53 57 55 78 56
REMARK SMILES IDX 45 57 29 58 30 59 38 60 31 61 32 62 36 63 39 64 33 65 34 66
REMARK SMILES IDX 37 67 35 68 61 69 62 70 70 71 63 72 64 73 68 74 71 75 65 76
REMARK SMILES IDX 66 77 69 78 67 79 46 80 47 81 55 82 48 83 49 84 53 85 56 86
REMARK SMILES IDX 50 87 51 88 54 89 52 90
REMARK H PARENT 13 6 17 24 76 43 44 54
REMARK Flexibility Score: inf
ROOT
ATOM      1  C   UNL A   1      42.166  19.127  26.516  1.00  0.00     0.042 C 
ENDROOT
BRANCH   1   2
ATOM      2  C   UNL A   1      43.382  19.646  25.770  1.00  0.00     0.117 C 
BRANCH   2   3
ATOM      3  N   UNL A   1      43.134  20.945  25.166  1.00  0.00    -0.356 N 
ATOM      4  C   UNL A   1      43.986  21.996  24.981  1.00  0.00     0.227 C 
ATOM      5  O   UNL A   1      43.560  22.973  24.362  1.00  0.00    -0.274 OA
ATOM      6  H   UNL A   1      42.214  21.088  24.842  1.00  0.00     0.163 HD
BRANCH   4   7
ATOM      7  C   UNL A   1      45.408  21.975  25.552  1.00  0.00     0.105 C 
ATOM      8  C   UNL A   1      46.390  22.084  24.375  1.00  0.00     0.023 C 
BRANCH   7   9
ATOM      9  C   UNL A   1      45.646  22.950  26.708  1.00  0.00    -0.035 A 
ATOM     10  C   UNL A   1      45.560  25.546  31.093  1.00  0.00     0.119 A 
ATOM     11  C   UNL A   1      44.397  24.779  31.074  1.00  0.00     0.047 A 
ATOM     12  C   UNL A   1      46.432  25.492  30.006  1.00  0.00     0.055 A 
ATOM     13  C   UNL A   1      44.126  23.939  29.986  1.00  0.00     0.012 A 
ATOM     14  C   UNL A   1      46.165  24.668  28.904  1.00  0.00    -0.015 A 
ATOM     15  C   UNL A   1      45.007  23.864  28.896  1.00  0.00    -0.018 A 
ATOM     16  C   UNL A   1      47.020  24.647  27.800  1.00  0.00     0.009 A 
ATOM     17  C   UNL A   1      44.764  23.012  27.800  1.00  0.00     0.013 A 
ATOM     18  C   UNL A   1      46.741  23.832  26.704  1.00  0.00     0.005 A 
BRANCH  10  19
ATOM     19  O   UNL A   1      45.930  26.416  32.080  1.00  0.00    -0.497 OA
ATOM     20  C   UNL A   1      44.886  27.176  32.674  1.00  0.00     0.278 C 
ENDBRANCH  10  19
ENDBRANCH   7   9
ENDBRANCH   4   7
ENDBRANCH   2   3
ENDBRANCH   1   2
BRANCH   1  21
ATOM     21  C   UNL A   1      41.299  20.238  27.086  1.00  0.00     0.118 C 
BRANCH  21  22
ATOM     22  N   UNL A   1      40.029  20.377  26.384  1.00  0.00    -0.352 N 
ATOM     23  C   UNL A   1      39.230  21.483  26.236  1.00  0.00     0.251 C 
ATOM     24  H   UNL A   1      39.697  19.559  25.950  1.00  0.00     0.163 HD
ATOM     25  O   UNL A   1      38.101  21.371  25.766  1.00  0.00    -0.269 OA
BRANCH  23  26
ATOM     26  C   UNL A   1      39.720  22.806  26.672  1.00  0.00     0.039 A 
ATOM     27  C   UNL A   1      40.714  22.873  27.649  1.00  0.00     0.014 A 
ATOM     28  C   UNL A   1      39.211  23.976  26.103  1.00  0.00     0.014 A 
ATOM     29  C   UNL A   1      41.248  24.113  28.004  1.00  0.00     0.010 A 
ATOM     30  C   UNL A   1      39.814  25.195  26.379  1.00  0.00     0.010 A 
ATOM     31  C   UNL A   1      40.832  25.280  27.340  1.00  0.00    -0.014 A 
BRANCH  31  32
ATOM     32  C   UNL A   1      41.437  26.600  27.646  1.00  0.00     0.031 A 
ATOM     33  C   UNL A   1      42.823  26.921  27.159  1.00  0.00     0.074 A 
ATOM     34  C   UNL A   1      40.765  27.480  28.412  1.00  0.00     0.049 A 
ATOM     35  N   UNL A   1      43.553  27.985  27.377  1.00  0.00    -0.248 NA
ATOM     36  C   UNL A   1      43.494  25.895  26.342  1.00  0.00     0.031 C 
ATOM     37  C   UNL A   1      39.437  27.263  28.987  1.00  0.00     0.029 A 
ATOM     38  N   UNL A   1      41.113  28.734  28.849  1.00  0.00    -0.354 N 
ATOM     39  C   UNL A   1      44.764  27.751  26.740  1.00  0.00     0.074 A 
ATOM     40  C   UNL A   1      44.699  26.419  26.182  1.00  0.00     0.031 C 
ATOM     41  C   UNL A   1      39.069  28.356  29.673  1.00  0.00     0.029 A 
ATOM     42  C   UNL A   1      40.152  29.333  29.627  1.00  0.00     0.049 A 
ATOM     43  H   UNL A   1      41.970  29.164  28.625  1.00  0.00     0.167 HD
ATOM     44  C   UNL A   1      45.823  28.583  26.606  1.00  0.00     0.037 A 
ATOM     45  C   UNL A   1      40.150  30.533  30.239  1.00  0.00     0.037 A 
ATOM     46  C   UNL A   1      45.872  29.916  27.144  1.00  0.00     0.049 A 
ATOM     47  C   UNL A   1      41.347  31.433  30.085  1.00  0.00     0.074 A 
ATOM     48  C   UNL A   1      46.876  30.860  27.020  1.00  0.00     0.029 A 
ATOM     49  N   UNL A   1      44.872  30.495  27.910  1.00  0.00    -0.354 N 
ATOM     50  N   UNL A   1      42.458  31.228  29.419  1.00  0.00    -0.248 NA
ATOM     51  C   UNL A   1      41.285  32.736  30.759  1.00  0.00     0.031 C 
ATOM     52  C   UNL A   1      46.508  31.989  27.757  1.00  0.00     0.029 A 
ATOM     53  C   UNL A   1      45.245  31.775  28.285  1.00  0.00     0.049 A 
ATOM     54  H   UNL A   1      44.021  30.061  28.152  1.00  0.00     0.167 HD
ATOM     55  C   UNL A   1      43.209  32.388  29.563  1.00  0.00     0.074 A 
ATOM     56  C   UNL A   1      42.421  33.296  30.369  1.00  0.00     0.031 C 
ATOM     57  C   UNL A   1      44.440  32.674  29.074  1.00  0.00     0.037 A 
BRANCH  44  58
ATOM     58  C   UNL A   1      47.014  28.079  25.842  1.00  0.00     0.064 A 
ATOM     59  C   UNL A   1      47.011  27.998  24.440  1.00  0.00     0.173 A 
ATOM     60  C   UNL A   1      48.188  27.708  26.516  1.00  0.00     0.173 A 
ATOM     61  F   UNL A   1      45.910  28.328  23.747  1.00  0.00    -0.203 F 
ATOM     62  C   UNL A   1      48.127  27.541  23.745  1.00  0.00     0.198 A 
ATOM     63  C   UNL A   1      49.314  27.284  25.814  1.00  0.00     0.198 A 
ATOM     64  F   UNL A   1      48.249  27.769  27.854  1.00  0.00    -0.203 F 
ATOM     65  F   UNL A   1      48.081  27.425  22.410  1.00  0.00    -0.200 F 
ATOM     66  C   UNL A   1      49.280  27.192  24.432  1.00  0.00     0.200 A 
ATOM     67  F   UNL A   1      50.433  26.962  26.479  1.00  0.00    -0.200 F 
ATOM     68  F   UNL A   1      50.358  26.763  23.760  1.00  0.00    -0.200 F 
ENDBRANCH  44  58
BRANCH  45  69
ATOM     69  C   UNL A   1      38.970  30.965  31.035  1.00  0.00     0.064 A 
ATOM     70  C   UNL A   1      38.908  30.731  32.417  1.00  0.00     0.173 A 
ATOM     71  C   UNL A   1      37.874  31.600  30.433  1.00  0.00     0.173 A 
ATOM     72  F   UNL A   1      39.924  30.111  33.036  1.00  0.00    -0.203 F 
ATOM     73  C   UNL A   1      37.785  31.088  33.159  1.00  0.00     0.198 A 
ATOM     74  C   UNL A   1      36.765  31.987  31.183  1.00  0.00     0.198 A 
ATOM     75  F   UNL A   1      37.884  31.855  29.116  1.00  0.00    -0.203 F 
ATOM     76  F   UNL A   1      37.729  30.799  34.466  1.00  0.00    -0.200 F 
ATOM     77  C   UNL A   1      36.716  31.719  32.542  1.00  0.00     0.200 A 
ATOM     78  F   UNL A   1      35.741  32.612  30.586  1.00  0.00    -0.200 F 
ATOM     79  F   UNL A   1      35.634  32.062  33.256  1.00  0.00    -0.200 F 
ENDBRANCH  45  69
BRANCH  57  80
ATOM     80  C   UNL A   1      44.990  34.045  29.346  1.00  0.00     0.064 A 
ATOM     81  C   UNL A   1      45.787  34.315  30.468  1.00  0.00     0.173 A 
ATOM     82  C   UNL A   1      44.746  35.094  28.446  1.00  0.00     0.173 A 
ATOM     83  F   UNL A   1      46.038  33.351  31.366  1.00  0.00    -0.203 F 
ATOM     84  C   UNL A   1      46.294  35.592  30.695  1.00  0.00     0.198 A 
ATOM     85  C   UNL A   1      45.285  36.360  28.657  1.00  0.00     0.198 A 
ATOM     86  F   UNL A   1      43.997  34.887  27.353  1.00  0.00    -0.203 F 
ATOM     87  F   UNL A   1      47.007  35.841  31.801  1.00  0.00    -0.200 F 
ATOM     88  C   UNL A   1      46.050  36.610  29.785  1.00  0.00     0.200 A 
ATOM     89  F   UNL A   1      45.062  37.338  27.767  1.00  0.00    -0.200 F 
ATOM     90  F   UNL A   1      46.547  37.836  30.000  1.00  0.00    -0.200 F 
ENDBRANCH  57  80
ENDBRANCH  31  32
ENDBRANCH  23  26
ENDBRANCH  21  22
ENDBRANCH   1  21
TORSDOF 12
ENDMDL
MODEL 2
REMARK VINA RESULT:     -10.9      5.797     10.290
REMARK SMILES COc1ccc2cc([C@H](C)C(=O)NCCCNC(=O)c3ccc(-c4c5nc(c(-c6c(F)c(F)c(F)c(F)c6F)c6ccc([nH]6)c(-c6c(F)c(F)c(F)c(F)c6F)c6nc(c(-c7c(F)c(F)c(F)c(F)c7F)c7ccc4[nH]7)C=C6)C=C5)cc3)ccc2c1
REMARK SMILES IDX 15 1 14 2 13 3 11 4 12 5 9 7 10 8 8 9 3 10 4 11 86 12 5 13
REMARK SMILES IDX 85 14 6 15 84 16 7 17 83 18 2 19 1 20 16 21 17 22 18 23
REMARK SMILES IDX 19 25 20 26 21 27 82 28 22 29 81 30 23 31 24 32 25 33 75 34
REMARK SMILES IDX 26 35 80 36 74 37 76 38 27 39 79 40 73 41 72 42 28 44 60 45
REMARK SMILES IDX 40 46 59 47 41 48 44 49 58 50 77 51 42 52 43 53 57 55 78 56
REMARK SMILES IDX 45 57 29 58 30 59 38 60 31 61 32 62 36 63 39 64 33 65 34 66
REMARK SMILES IDX 37 67 35 68 61 69 62 70 70 71 63 72 64 73 68 74 71 75 65 76
REMARK SMILES IDX 66 77 69 78 67 79 46 80 47 81 55 82 48 83 49 84 53 85 56 86
REMARK SMILES IDX 50 87 51 88 54 89 52 90
REMARK H PARENT 13 6 17 24 76 43 44 54
REMARK Flexibility Score: inf
ROOT
ATOM      1  C   UNL A   1      31.406  32.076  26.859  1.00  0.00     0.042 C 
ENDROOT
BRANCH   1   2
ATOM      2  C   UNL A   1      31.690  30.748  26.182  1.00  0.00     0.117 C 
BRANCH   2   3
ATOM      3  N   UNL A   1      32.956  30.178  26.615  1.00  0.00    -0.356 N 
ATOM      4  C   UNL A   1      33.681  29.155  26.073  1.00  0.00     0.227 C 
ATOM      5  O   UNL A   1      34.778  28.905  26.577  1.00  0.00    -0.274 OA
ATOM      6  H   UNL A   1      33.348  30.591  27.419  1.00  0.00     0.163 HD
BRANCH   4   7
ATOM      7  C   UNL A   1      33.136  28.327  24.905  1.00  0.00     0.105 C 
ATOM      8  C   UNL A   1      33.773  28.860  23.612  1.00  0.00     0.023 C 
BRANCH   7   9
ATOM      9  C   UNL A   1      33.210  26.812  25.106  1.00  0.00    -0.035 A 
ATOM     10  C   UNL A   1      34.370  21.851  24.973  1.00  0.00     0.119 A 
ATOM     11  C   UNL A   1      35.008  22.428  23.876  1.00  0.00     0.047 A 
ATOM     12  C   UNL A   1      33.587  22.650  25.806  1.00  0.00     0.055 A 
ATOM     13  C   UNL A   1      34.885  23.801  23.634  1.00  0.00     0.012 A 
ATOM     14  C   UNL A   1      33.443  24.023  25.566  1.00  0.00    -0.015 A 
ATOM     15  C   UNL A   1      34.114  24.617  24.478  1.00  0.00    -0.018 A 
ATOM     16  C   UNL A   1      32.625  24.812  26.378  1.00  0.00     0.009 A 
ATOM     17  C   UNL A   1      33.992  26.004  24.264  1.00  0.00     0.013 A 
ATOM     18  C   UNL A   1      32.480  26.176  26.126  1.00  0.00     0.005 A 
BRANCH  10  19
ATOM     19  O   UNL A   1      34.393  20.526  25.308  1.00  0.00    -0.497 OA
ATOM     20  C   UNL A   1      33.138  19.860  25.331  1.00  0.00     0.278 C 
ENDBRANCH  10  19
ENDBRANCH   7   9
ENDBRANCH   4   7
ENDBRANCH   2   3
ENDBRANCH   1   2
BRANCH   1  21
ATOM     21  C   UNL A   1      32.667  32.804  27.294  1.00  0.00     0.118 C 
BRANCH  21  22
ATOM     22  N   UNL A   1      32.423  34.203  27.625  1.00  0.00    -0.352 N 
ATOM     23  C   UNL A   1      32.990  34.981  28.604  1.00  0.00     0.251 C 
ATOM     24  H   UNL A   1      31.754  34.657  27.064  1.00  0.00     0.163 HD
ATOM     25  O   UNL A   1      32.528  36.090  28.855  1.00  0.00    -0.269 OA
BRANCH  23  26
ATOM     26  C   UNL A   1      34.141  34.467  29.373  1.00  0.00     0.039 A 
ATOM     27  C   UNL A   1      33.914  33.854  30.606  1.00  0.00     0.014 A 
ATOM     28  C   UNL A   1      35.439  34.576  28.869  1.00  0.00     0.014 A 
ATOM     29  C   UNL A   1      34.984  33.285  31.299  1.00  0.00     0.010 A 
ATOM     30  C   UNL A   1      36.483  33.921  29.506  1.00  0.00     0.010 A 
ATOM     31  C   UNL A   1      36.270  33.277  30.734  1.00  0.00    -0.014 A 
BRANCH  31  32
ATOM     32  C   UNL A   1      37.409  32.614  31.416  1.00  0.00     0.031 A 
ATOM     33  C   UNL A   1      38.116  31.465  30.751  1.00  0.00     0.074 A 
ATOM     34  C   UNL A   1      37.764  33.005  32.655  1.00  0.00     0.049 A 
ATOM     35  N   UNL A   1      39.083  30.711  31.208  1.00  0.00    -0.248 NA
ATOM     36  C   UNL A   1      37.653  31.091  29.404  1.00  0.00     0.031 C 
ATOM     37  C   UNL A   1      37.121  34.072  33.424  1.00  0.00     0.029 A 
ATOM     38  N   UNL A   1      38.749  32.542  33.492  1.00  0.00    -0.354 N 
ATOM     39  C   UNL A   1      39.332  29.773  30.215  1.00  0.00     0.074 A 
ATOM     40  C   UNL A   1      38.373  30.008  29.160  1.00  0.00     0.031 C 
ATOM     41  C   UNL A   1      37.746  34.202  34.605  1.00  0.00     0.029 A 
ATOM     42  C   UNL A   1      38.803  33.201  34.696  1.00  0.00     0.049 A 
ATOM     43  H   UNL A   1      39.359  31.808  33.251  1.00  0.00     0.167 HD
ATOM     44  C   UNL A   1      40.293  28.821  30.174  1.00  0.00     0.037 A 
ATOM     45  C   UNL A   1      39.611  33.011  35.757  1.00  0.00     0.037 A 
ATOM     46  C   UNL A   1      41.260  28.608  31.218  1.00  0.00     0.049 A 
ATOM     47  C   UNL A   1      40.663  31.936  35.690  1.00  0.00     0.074 A 
ATOM     48  C   UNL A   1      42.308  27.705  31.253  1.00  0.00     0.029 A 
ATOM     49  N   UNL A   1      41.295  29.307  32.416  1.00  0.00    -0.354 N 
ATOM     50  N   UNL A   1      40.935  31.101  34.716  1.00  0.00    -0.248 NA
ATOM     51  C   UNL A   1      41.527  31.783  36.868  1.00  0.00     0.031 C 
ATOM     52  C   UNL A   1      42.944  27.820  32.492  1.00  0.00     0.029 A 
ATOM     53  C   UNL A   1      42.334  28.840  33.205  1.00  0.00     0.049 A 
ATOM     54  H   UNL A   1      40.675  30.029  32.668  1.00  0.00     0.167 HD
ATOM     55  C   UNL A   1      42.022  30.352  35.147  1.00  0.00     0.074 A 
ATOM     56  C   UNL A   1      42.367  30.840  36.465  1.00  0.00     0.031 C 
ATOM     57  C   UNL A   1      42.675  29.349  34.509  1.00  0.00     0.037 A 
BRANCH  44  58
ATOM     58  C   UNL A   1      40.353  27.941  28.958  1.00  0.00     0.064 A 
ATOM     59  C   UNL A   1      39.631  26.738  28.883  1.00  0.00     0.173 A 
ATOM     60  C   UNL A   1      41.108  28.322  27.839  1.00  0.00     0.173 A 
ATOM     61  F   UNL A   1      38.903  26.321  29.930  1.00  0.00    -0.203 F 
ATOM     62  C   UNL A   1      39.686  25.939  27.744  1.00  0.00     0.198 A 
ATOM     63  C   UNL A   1      41.133  27.537  26.689  1.00  0.00     0.198 A 
ATOM     64  F   UNL A   1      41.813  29.463  27.854  1.00  0.00    -0.203 F 
ATOM     65  F   UNL A   1      39.030  24.771  27.716  1.00  0.00    -0.200 F 
ATOM     66  C   UNL A   1      40.429  26.343  26.646  1.00  0.00     0.200 A 
ATOM     67  F   UNL A   1      41.839  27.936  25.622  1.00  0.00    -0.200 F 
ATOM     68  F   UNL A   1      40.472  25.578  25.545  1.00  0.00    -0.200 F 
ENDBRANCH  44  58
BRANCH  45  69
ATOM     69  C   UNL A   1      39.475  33.869  36.964  1.00  0.00     0.064 A 
ATOM     70  C   UNL A   1      38.728  33.442  38.072  1.00  0.00     0.173 A 
ATOM     71  C   UNL A   1      40.070  35.138  37.030  1.00  0.00     0.173 A 
ATOM     72  F   UNL A   1      38.125  32.243  38.050  1.00  0.00    -0.203 F 
ATOM     73  C   UNL A   1      38.556  34.261  39.185  1.00  0.00     0.198 A 
ATOM     74  C   UNL A   1      39.924  35.943  38.158  1.00  0.00     0.198 A 
ATOM     75  F   UNL A   1      40.801  35.592  36.003  1.00  0.00    -0.203 F 
ATOM     76  F   UNL A   1      37.788  33.851  40.204  1.00  0.00    -0.200 F 
ATOM     77  C   UNL A   1      39.157  35.510  39.229  1.00  0.00     0.200 A 
ATOM     78  F   UNL A   1      40.521  37.141  38.204  1.00  0.00    -0.200 F 
ATOM     79  F   UNL A   1      38.991  36.299  40.300  1.00  0.00    -0.200 F 
ENDBRANCH  45  69
BRANCH  57  80
ATOM     80  C   UNL A   1      43.865  28.750  35.202  1.00  0.00     0.064 A 
ATOM     81  C   UNL A   1      43.748  27.643  36.054  1.00  0.00     0.173 A 
ATOM     82  C   UNL A   1      45.149  29.271  34.975  1.00  0.00     0.173 A 
ATOM     83  F   UNL A   1      42.542  27.116  36.315  1.00  0.00    -0.203 F 
ATOM     84  C   UNL A   1      44.867  27.098  36.678  1.00  0.00     0.198 A 
ATOM     85  C   UNL A   1      46.270  28.700  35.571  1.00  0.00     0.198 A 
ATOM     86  F   UNL A   1      45.319  30.324  34.162  1.00  0.00    -0.203 F 
ATOM     87  F   UNL A   1      44.724  26.074  37.531  1.00  0.00    -0.200 F 
ATOM     88  C   UNL A   1      46.127  27.621  36.429  1.00  0.00     0.200 A 
ATOM     89  F   UNL A   1      47.489  29.197  35.316  1.00  0.00    -0.200 F 
ATOM     90  F   UNL A   1      47.204  27.089  37.023  1.00  0.00    -0.200 F 
ENDBRANCH  57  80
ENDBRANCH  31  32
ENDBRANCH  23  26
ENDBRANCH  21  22
ENDBRANCH   1  21
TORSDOF 12
ENDMDL
MODEL 3
REMARK VINA RESULT:     -10.9      5.741     10.252
REMARK SMILES COc1ccc2cc([C@H](C)C(=O)NCCCNC(=O)c3ccc(-c4c5nc(c(-c6c(F)c(F)c(F)c(F)c6F)c6ccc([nH]6)c(-c6c(F)c(F)c(F)c(F)c6F)c6nc(c(-c7c(F)c(F)c(F)c(F)c7F)c7ccc4[nH]7)C=C6)C=C5)cc3)ccc2c1
REMARK SMILES IDX 15 1 14 2 13 3 11 4 12 5 9 7 10 8 8 9 3 10 4 11 86 12 5 13
REMARK SMILES IDX 85 14 6 15 84 16 7 17 83 18 2 19 1 20 16 21 17 22 18 23
REMARK SMILES IDX 19 25 20 26 21 27 82 28 22 29 81 30 23 31 24 32 25 33 75 34
REMARK SMILES IDX 26 35 80 36 74 37 76 38 27 39 79 40 73 41 72 42 28 44 60 45
REMARK SMILES IDX 40 46 59 47 41 48 44 49 58 50 77 51 42 52 43 53 57 55 78 56
REMARK SMILES IDX 45 57 29 58 30 59 38 60 31 61 32 62 36 63 39 64 33 65 34 66
REMARK SMILES IDX 37 67 35 68 61 69 62 70 70 71 63 72 64 73 68 74 71 75 65 76
REMARK SMILES IDX 66 77 69 78 67 79 46 80 47 81 55 82 48 83 49 84 53 85 56 86
REMARK SMILES IDX 50 87 51 88 54 89 52 90
REMARK H PARENT 13 6 17 24 76 43 44 54
REMARK Flexibility Score: inf
ROOT
ATOM      1  C   UNL A   1      31.431  32.071  26.841  1.00  0.00     0.042 C 
ENDROOT
BRANCH   1   2
ATOM      2  C   UNL A   1      31.725  30.760  26.137  1.00  0.00     0.117 C 
BRANCH   2   3
ATOM      3  N   UNL A   1      32.936  30.132  26.642  1.00  0.00    -0.356 N 
ATOM      4  C   UNL A   1      33.622  29.054  26.162  1.00  0.00     0.227 C 
ATOM      5  O   UNL A   1      34.680  28.757  26.721  1.00  0.00    -0.274 OA
ATOM      6  H   UNL A   1      33.317  30.546  27.451  1.00  0.00     0.163 HD
BRANCH   4   7
ATOM      7  C   UNL A   1      33.080  28.223  24.995  1.00  0.00     0.105 C 
ATOM      8  C   UNL A   1      33.658  28.804  23.694  1.00  0.00     0.023 C 
BRANCH   7   9
ATOM      9  C   UNL A   1      33.225  26.708  25.167  1.00  0.00    -0.035 A 
ATOM     10  C   UNL A   1      34.645  21.818  24.977  1.00  0.00     0.119 A 
ATOM     11  C   UNL A   1      35.295  22.451  23.920  1.00  0.00     0.047 A 
ATOM     12  C   UNL A   1      33.788  22.556  25.794  1.00  0.00     0.055 A 
ATOM     13  C   UNL A   1      35.111  23.822  23.702  1.00  0.00     0.012 A 
ATOM     14  C   UNL A   1      33.583  23.925  25.577  1.00  0.00    -0.015 A 
ATOM     15  C   UNL A   1      34.266  24.577  24.530  1.00  0.00    -0.018 A 
ATOM     16  C   UNL A   1      32.694  24.653  26.371  1.00  0.00     0.009 A 
ATOM     17  C   UNL A   1      34.081  25.961  24.340  1.00  0.00     0.013 A 
ATOM     18  C   UNL A   1      32.489  26.012  26.142  1.00  0.00     0.005 A 
BRANCH  10  19
ATOM     19  O   UNL A   1      34.723  20.488  25.285  1.00  0.00    -0.497 OA
ATOM     20  C   UNL A   1      33.734  19.648  24.704  1.00  0.00     0.278 C 
ENDBRANCH  10  19
ENDBRANCH   7   9
ENDBRANCH   4   7
ENDBRANCH   2   3
ENDBRANCH   1   2
BRANCH   1  21
ATOM     21  C   UNL A   1      32.686  32.799  27.292  1.00  0.00     0.118 C 
BRANCH  21  22
ATOM     22  N   UNL A   1      32.438  34.200  27.616  1.00  0.00    -0.352 N 
ATOM     23  C   UNL A   1      33.009  34.986  28.585  1.00  0.00     0.251 C 
ATOM     24  H   UNL A   1      31.763  34.647  27.057  1.00  0.00     0.163 HD
ATOM     25  O   UNL A   1      32.545  36.096  28.832  1.00  0.00    -0.269 OA
BRANCH  23  26
ATOM     26  C   UNL A   1      34.169  34.483  29.349  1.00  0.00     0.039 A 
ATOM     27  C   UNL A   1      33.953  33.867  30.582  1.00  0.00     0.014 A 
ATOM     28  C   UNL A   1      35.463  34.604  28.838  1.00  0.00     0.014 A 
ATOM     29  C   UNL A   1      35.031  33.309  31.270  1.00  0.00     0.010 A 
ATOM     30  C   UNL A   1      36.517  33.958  29.471  1.00  0.00     0.010 A 
ATOM     31  C   UNL A   1      36.315  33.312  30.699  1.00  0.00    -0.014 A 
BRANCH  31  32
ATOM     32  C   UNL A   1      37.463  32.660  31.376  1.00  0.00     0.031 A 
ATOM     33  C   UNL A   1      38.179  31.518  30.706  1.00  0.00     0.074 A 
ATOM     34  C   UNL A   1      37.819  33.052  32.614  1.00  0.00     0.049 A 
ATOM     35  N   UNL A   1      39.155  30.773  31.158  1.00  0.00    -0.248 NA
ATOM     36  C   UNL A   1      37.714  31.142  29.360  1.00  0.00     0.031 C 
ATOM     37  C   UNL A   1      37.168  34.111  33.387  1.00  0.00     0.029 A 
ATOM     38  N   UNL A   1      38.812  32.597  33.446  1.00  0.00    -0.354 N 
ATOM     39  C   UNL A   1      39.410  29.839  30.163  1.00  0.00     0.074 A 
ATOM     40  C   UNL A   1      38.444  30.066  29.111  1.00  0.00     0.031 C 
ATOM     41  C   UNL A   1      37.797  34.246  34.565  1.00  0.00     0.029 A 
ATOM     42  C   UNL A   1      38.864  33.254  34.651  1.00  0.00     0.049 A 
ATOM     43  H   UNL A   1      39.428  31.870  33.201  1.00  0.00     0.167 HD
ATOM     44  C   UNL A   1      40.380  28.897  30.116  1.00  0.00     0.037 A 
ATOM     45  C   UNL A   1      39.678  33.071  35.708  1.00  0.00     0.037 A 
ATOM     46  C   UNL A   1      41.353  28.692  31.156  1.00  0.00     0.049 A 
ATOM     47  C   UNL A   1      40.740  32.006  35.636  1.00  0.00     0.074 A 
ATOM     48  C   UNL A   1      42.410  27.800  31.185  1.00  0.00     0.029 A 
ATOM     49  N   UNL A   1      41.386  29.389  32.355  1.00  0.00    -0.354 N 
ATOM     50  N   UNL A   1      41.017  31.176  34.659  1.00  0.00    -0.248 NA
ATOM     51  C   UNL A   1      41.611  31.860  36.810  1.00  0.00     0.031 C 
ATOM     52  C   UNL A   1      43.050  27.919  32.422  1.00  0.00     0.029 A 
ATOM     53  C   UNL A   1      42.432  28.931  33.139  1.00  0.00     0.049 A 
ATOM     54  H   UNL A   1      40.759  30.105  32.610  1.00  0.00     0.167 HD
ATOM     55  C   UNL A   1      42.113  30.437  35.085  1.00  0.00     0.074 A 
ATOM     56  C   UNL A   1      42.458  30.926  36.402  1.00  0.00     0.031 C 
ATOM     57  C   UNL A   1      42.773  29.442  34.442  1.00  0.00     0.037 A 
BRANCH  44  58
ATOM     58  C   UNL A   1      40.443  28.020  28.899  1.00  0.00     0.064 A 
ATOM     59  C   UNL A   1      39.736  26.809  28.825  1.00  0.00     0.173 A 
ATOM     60  C   UNL A   1      41.188  28.411  27.776  1.00  0.00     0.173 A 
ATOM     61  F   UNL A   1      39.019  26.381  29.875  1.00  0.00    -0.203 F 
ATOM     62  C   UNL A   1      39.794  26.012  27.685  1.00  0.00     0.198 A 
ATOM     63  C   UNL A   1      41.216  27.628  26.625  1.00  0.00     0.198 A 
ATOM     64  F   UNL A   1      41.879  29.561  27.789  1.00  0.00    -0.203 F 
ATOM     65  F   UNL A   1      39.152  24.836  27.658  1.00  0.00    -0.200 F 
ATOM     66  C   UNL A   1      40.527  26.426  26.583  1.00  0.00     0.200 A 
ATOM     67  F   UNL A   1      41.912  28.038  25.555  1.00  0.00    -0.200 F 
ATOM     68  F   UNL A   1      40.572  25.663  25.481  1.00  0.00    -0.200 F 
ENDBRANCH  44  58
BRANCH  45  69
ATOM     69  C   UNL A   1      39.538  33.925  36.917  1.00  0.00     0.064 A 
ATOM     70  C   UNL A   1      38.771  33.504  38.013  1.00  0.00     0.173 A 
ATOM     71  C   UNL A   1      40.150  35.186  36.997  1.00  0.00     0.173 A 
ATOM     72  F   UNL A   1      38.152  32.315  37.979  1.00  0.00    -0.203 F 
ATOM     73  C   UNL A   1      38.595  34.321  39.128  1.00  0.00     0.198 A 
ATOM     74  C   UNL A   1      40.000  35.988  38.127  1.00  0.00     0.198 A 
ATOM     75  F   UNL A   1      40.901  35.634  35.981  1.00  0.00    -0.203 F 
ATOM     76  F   UNL A   1      37.809  33.918  40.135  1.00  0.00    -0.200 F 
ATOM     77  C   UNL A   1      39.214  35.561  39.186  1.00  0.00     0.200 A 
ATOM     78  F   UNL A   1      40.614  37.178  38.185  1.00  0.00    -0.200 F 
ATOM     79  F   UNL A   1      39.044  36.348  40.257  1.00  0.00    -0.200 F 
ENDBRANCH  45  69
BRANCH  57  80
ATOM     80  C   UNL A   1      43.972  28.854  35.130  1.00  0.00     0.064 A 
ATOM     81  C   UNL A   1      45.262  29.372  34.944  1.00  0.00     0.173 A 
ATOM     82  C   UNL A   1      43.819  27.779  36.020  1.00  0.00     0.173 A 
ATOM     83  F   UNL A   1      45.465  30.390  34.093  1.00  0.00    -0.203 F 
ATOM     84  C   UNL A   1      46.358  28.817  35.599  1.00  0.00     0.198 A 
ATOM     85  C   UNL A   1      44.911  27.251  36.702  1.00  0.00     0.198 A 
ATOM     86  F   UNL A   1      42.606  27.252  36.241  1.00  0.00    -0.203 F 
ATOM     87  F   UNL A   1      47.588  29.293  35.365  1.00  0.00    -0.200 F 
ATOM     88  C   UNL A   1      46.180  27.764  36.484  1.00  0.00     0.200 A 
ATOM     89  F   UNL A   1      44.734  26.244  37.569  1.00  0.00    -0.200 F 
ATOM     90  F   UNL A   1      47.235  27.238  37.121  1.00  0.00    -0.200 F 
ENDBRANCH  57  80
ENDBRANCH  31  32
ENDBRANCH  23  26
ENDBRANCH  21  22
ENDBRANCH   1  21
TORSDOF 12
ENDMDL
