MODEL 1
REMARK VINA RESULT:     -12.5      0.000      0.000
REMARK SMILES O=C(NCCCNC(=O)c1[nH]nc2c1CCC2)c1ccc(-c2c3nc(c(-c4c(F)c(F)c(F)c(F)c4F)c4ccc([nH]4)c(-c4c(F)c(F)c(F)c(F)c4F)c4nc(c(-c5c(F)c(F)c(F)c(F)c5F)c5ccc2[nH]5)C=C4)C=C3)cc1
REMARK SMILES IDX 4 1 3 2 1 3 2 4 18 6 19 7 80 8 20 9 79 10 21 11 22 12 23 13
REMARK SMILES IDX 73 14 24 15 78 16 72 17 74 18 25 19 77 20 71 21 70 22 26 24
REMARK SMILES IDX 58 25 38 26 57 27 39 28 42 29 56 30 75 31 40 32 41 33 55 35
REMARK SMILES IDX 76 36 43 37 27 38 28 39 36 40 29 41 30 42 34 43 37 44 31 45
REMARK SMILES IDX 32 46 35 47 33 48 59 49 60 50 68 51 61 52 62 53 66 54 69 55
REMARK SMILES IDX 63 56 64 57 67 58 65 59 44 60 45 61 53 62 46 63 47 64 51 65
REMARK SMILES IDX 54 66 48 67 49 68 52 69 50 70 5 71 6 72 7 73 8 74 9 76 10 77
REMARK SMILES IDX 11 78 14 79 12 80 13 82 15 83 17 84 16 85
REMARK H PARENT 3 5 74 23 42 34 7 75 11 81
REMARK Flexibility Score: inf
ROOT
ATOM      1  C   UNL A   1      42.163  20.082  27.048  1.00  0.00     0.118 C 
ENDROOT
BRANCH   1   2
ATOM      2  N   UNL A   1      40.783  20.435  26.780  1.00  0.00    -0.352 N 
ATOM      3  O   UNL A   1      38.946  21.517  26.223  1.00  0.00    -0.269 OA
ATOM      4  C   UNL A   1      40.089  21.607  26.681  1.00  0.00     0.251 C 
ATOM      5  H   UNL A   1      40.214  19.645  26.637  1.00  0.00     0.163 HD
BRANCH   4   6
ATOM      6  C   UNL A   1      40.566  22.938  27.143  1.00  0.00     0.039 A 
ATOM      7  C   UNL A   1      41.612  23.167  28.035  1.00  0.00     0.014 A 
ATOM      8  C   UNL A   1      39.824  24.044  26.685  1.00  0.00     0.014 A 
ATOM      9  C   UNL A   1      41.836  24.441  28.552  1.00  0.00     0.010 A 
ATOM     10  C   UNL A   1      40.057  25.323  27.176  1.00  0.00     0.010 A 
ATOM     11  C   UNL A   1      41.034  25.509  28.150  1.00  0.00    -0.014 A 
BRANCH  11  12
ATOM     12  C   UNL A   1      41.312  26.832  28.703  1.00  0.00     0.031 A 
ATOM     13  C   UNL A   1      42.531  27.511  28.178  1.00  0.00     0.074 A 
ATOM     14  C   UNL A   1      40.452  27.480  29.515  1.00  0.00     0.049 A 
ATOM     15  N   UNL A   1      43.535  27.997  28.836  1.00  0.00    -0.248 NA
ATOM     16  C   UNL A   1      42.672  27.612  26.717  1.00  0.00     0.031 C 
ATOM     17  C   UNL A   1      39.086  27.091  29.874  1.00  0.00     0.029 A 
ATOM     18  N   UNL A   1      40.592  28.701  30.105  1.00  0.00    -0.354 N 
ATOM     19  C   UNL A   1      44.366  28.598  27.889  1.00  0.00     0.074 A 
ATOM     20  C   UNL A   1      43.843  28.235  26.599  1.00  0.00     0.031 C 
ATOM     21  C   UNL A   1      38.455  28.149  30.432  1.00  0.00     0.029 A 
ATOM     22  C   UNL A   1      39.405  29.239  30.581  1.00  0.00     0.049 A 
ATOM     23  H   UNL A   1      41.458  29.160  30.188  1.00  0.00     0.167 HD
ATOM     24  C   UNL A   1      45.313  29.514  28.237  1.00  0.00     0.037 A 
ATOM     25  C   UNL A   1      39.201  30.514  30.995  1.00  0.00     0.037 A 
ATOM     26  C   UNL A   1      45.674  29.401  29.624  1.00  0.00     0.049 A 
ATOM     27  C   UNL A   1      40.523  31.112  31.300  1.00  0.00     0.074 A 
ATOM     28  C   UNL A   1      46.221  28.408  30.413  1.00  0.00     0.029 A 
ATOM     29  N   UNL A   1      45.204  30.342  30.506  1.00  0.00    -0.354 N 
ATOM     30  N   UNL A   1      41.273  30.762  32.306  1.00  0.00    -0.248 NA
ATOM     31  C   UNL A   1      41.204  31.831  30.234  1.00  0.00     0.031 C 
ATOM     32  C   UNL A   1      45.598  28.561  31.687  1.00  0.00     0.029 A 
ATOM     33  C   UNL A   1      44.741  29.658  31.598  1.00  0.00     0.049 A 
ATOM     34  H   UNL A   1      45.200  31.318  30.378  1.00  0.00     0.167 HD
ATOM     35  C   UNL A   1      42.569  30.831  31.819  1.00  0.00     0.074 A 
ATOM     36  C   UNL A   1      42.471  31.590  30.577  1.00  0.00     0.031 C 
ATOM     37  C   UNL A   1      43.553  30.031  32.323  1.00  0.00     0.037 A 
BRANCH  24  38
ATOM     38  C   UNL A   1      45.661  30.737  27.416  1.00  0.00     0.064 A 
ATOM     39  C   UNL A   1      47.016  31.008  27.126  1.00  0.00     0.173 A 
ATOM     40  C   UNL A   1      44.770  31.808  27.190  1.00  0.00     0.173 A 
ATOM     41  F   UNL A   1      47.955  30.065  27.302  1.00  0.00    -0.203 F 
ATOM     42  C   UNL A   1      47.454  32.281  26.753  1.00  0.00     0.198 A 
ATOM     43  C   UNL A   1      45.204  33.063  26.765  1.00  0.00     0.198 A 
ATOM     44  F   UNL A   1      43.465  31.725  27.476  1.00  0.00    -0.203 F 
ATOM     45  F   UNL A   1      48.765  32.524  26.632  1.00  0.00    -0.200 F 
ATOM     46  C   UNL A   1      46.549  33.312  26.586  1.00  0.00     0.200 A 
ATOM     47  F   UNL A   1      44.313  34.054  26.619  1.00  0.00    -0.200 F 
ATOM     48  F   UNL A   1      46.972  34.550  26.303  1.00  0.00    -0.200 F 
ENDBRANCH  24  38
BRANCH  25  49
ATOM     49  C   UNL A   1      37.978  31.335  30.848  1.00  0.00     0.064 A 
ATOM     50  C   UNL A   1      37.465  31.662  29.582  1.00  0.00     0.173 A 
ATOM     51  C   UNL A   1      37.135  31.588  31.949  1.00  0.00     0.173 A 
ATOM     52  F   UNL A   1      38.181  31.406  28.478  1.00  0.00    -0.203 F 
ATOM     53  C   UNL A   1      36.180  32.195  29.428  1.00  0.00     0.198 A 
ATOM     54  C   UNL A   1      35.860  32.129  31.795  1.00  0.00     0.198 A 
ATOM     55  F   UNL A   1      37.497  31.226  33.189  1.00  0.00    -0.203 F 
ATOM     56  F   UNL A   1      35.700  32.439  28.200  1.00  0.00    -0.200 F 
ATOM     57  C   UNL A   1      35.376  32.421  30.534  1.00  0.00     0.200 A 
ATOM     58  F   UNL A   1      35.079  32.305  32.870  1.00  0.00    -0.200 F 
ATOM     59  F   UNL A   1      34.126  32.877  30.383  1.00  0.00    -0.200 F 
ENDBRANCH  25  49
BRANCH  37  60
ATOM     60  C   UNL A   1      43.261  29.276  33.586  1.00  0.00     0.064 A 
ATOM     61  C   UNL A   1      42.616  28.028  33.616  1.00  0.00     0.173 A 
ATOM     62  C   UNL A   1      43.779  29.766  34.793  1.00  0.00     0.173 A 
ATOM     63  F   UNL A   1      42.193  27.444  32.487  1.00  0.00    -0.203 F 
ATOM     64  C   UNL A   1      42.451  27.329  34.809  1.00  0.00     0.198 A 
ATOM     65  C   UNL A   1      43.645  29.047  35.977  1.00  0.00     0.198 A 
ATOM     66  F   UNL A   1      44.460  30.922  34.813  1.00  0.00    -0.203 F 
ATOM     67  F   UNL A   1      41.819  26.145  34.812  1.00  0.00    -0.200 F 
ATOM     68  C   UNL A   1      42.971  27.836  35.987  1.00  0.00     0.200 A 
ATOM     69  F   UNL A   1      44.195  29.515  37.106  1.00  0.00    -0.200 F 
ATOM     70  F   UNL A   1      42.850  27.144  37.128  1.00  0.00    -0.200 F 
ENDBRANCH  37  60
ENDBRANCH  11  12
ENDBRANCH   4   6
ENDBRANCH   1   2
BRANCH   1  71
ATOM     71  C   UNL A   1      42.579  18.690  26.578  1.00  0.00     0.042 C 
BRANCH  71  72
ATOM     72  C   UNL A   1      43.417  18.651  25.305  1.00  0.00     0.118 C 
BRANCH  72  73
ATOM     73  N   UNL A   1      44.843  18.690  25.559  1.00  0.00    -0.351 N 
ATOM     74  C   UNL A   1      45.756  19.671  25.268  1.00  0.00     0.269 C 
ATOM     75  H   UNL A   1      45.212  17.894  26.005  1.00  0.00     0.163 HD
ATOM     76  O   UNL A   1      46.948  19.384  25.344  1.00  0.00    -0.268 OA
BRANCH  74  77
ATOM     77  C   UNL A   1      45.309  20.962  24.834  1.00  0.00     0.126 A 
ATOM     78  N   UNL A   1      44.856  21.171  23.543  1.00  0.00    -0.272 N 
ATOM     79  C   UNL A   1      45.264  22.212  25.399  1.00  0.00     0.006 A 
ATOM     80  N   UNL A   1      44.390  22.423  23.305  1.00  0.00    -0.180 NA
ATOM     81  H   UNL A   1      44.870  20.467  22.854  1.00  0.00     0.190 HD
ATOM     82  C   UNL A   1      44.664  23.035  24.445  1.00  0.00     0.066 A 
ATOM     83  C   UNL A   1      45.608  22.973  26.618  1.00  0.00     0.040 C 
ATOM     84  C   UNL A   1      44.462  24.419  24.913  1.00  0.00     0.059 C 
ATOM     85  C   UNL A   1      44.727  24.256  26.447  1.00  0.00     0.011 C 
ENDBRANCH  74  77
ENDBRANCH  72  73
ENDBRANCH  71  72
ENDBRANCH   1  71
TORSDOF 10
ENDMDL
MODEL 2
REMARK VINA RESULT:     -12.4      4.078     11.317
REMARK SMILES O=C(NCCCNC(=O)c1[nH]nc2c1CCC2)c1ccc(-c2c3nc(c(-c4c(F)c(F)c(F)c(F)c4F)c4ccc([nH]4)c(-c4c(F)c(F)c(F)c(F)c4F)c4nc(c(-c5c(F)c(F)c(F)c(F)c5F)c5ccc2[nH]5)C=C4)C=C3)cc1
REMARK SMILES IDX 4 1 3 2 1 3 2 4 18 6 19 7 80 8 20 9 79 10 21 11 22 12 23 13
REMARK SMILES IDX 73 14 24 15 78 16 72 17 74 18 25 19 77 20 71 21 70 22 26 24
REMARK SMILES IDX 58 25 38 26 57 27 39 28 42 29 56 30 75 31 40 32 41 33 55 35
REMARK SMILES IDX 76 36 43 37 27 38 28 39 36 40 29 41 30 42 34 43 37 44 31 45
REMARK SMILES IDX 32 46 35 47 33 48 59 49 60 50 68 51 61 52 62 53 66 54 69 55
REMARK SMILES IDX 63 56 64 57 67 58 65 59 44 60 45 61 53 62 46 63 47 64 51 65
REMARK SMILES IDX 54 66 48 67 49 68 52 69 50 70 5 71 6 72 7 73 8 74 9 76 10 77
REMARK SMILES IDX 11 78 14 79 12 80 13 82 15 83 17 84 16 85
REMARK H PARENT 3 5 74 23 42 34 7 75 11 81
REMARK Flexibility Score: inf
ROOT
ATOM      1  C   UNL A   1      35.097  34.252  28.659  1.00  0.00     0.118 C 
ENDROOT
BRANCH   1   2
ATOM      2  N   UNL A   1      34.549  33.084  27.998  1.00  0.00    -0.352 N 
ATOM      3  O   UNL A   1      34.026  31.016  27.446  1.00  0.00    -0.269 OA
ATOM      4  C   UNL A   1      34.866  31.756  27.965  1.00  0.00     0.251 C 
ATOM      5  H   UNL A   1      33.766  33.299  27.442  1.00  0.00     0.163 HD
BRANCH   4   6
ATOM      6  C   UNL A   1      36.149  31.160  28.427  1.00  0.00     0.039 A 
ATOM      7  C   UNL A   1      37.220  31.858  28.983  1.00  0.00     0.014 A 
ATOM      8  C   UNL A   1      36.298  29.779  28.195  1.00  0.00     0.014 A 
ATOM      9  C   UNL A   1      38.446  31.227  29.188  1.00  0.00     0.010 A 
ATOM     10  C   UNL A   1      37.509  29.136  28.421  1.00  0.00     0.010 A 
ATOM     11  C   UNL A   1      38.598  29.876  28.871  1.00  0.00    -0.014 A 
BRANCH  11  12
ATOM     12  C   UNL A   1      39.893  29.249  29.117  1.00  0.00     0.031 A 
ATOM     13  C   UNL A   1      40.274  29.085  30.550  1.00  0.00     0.074 A 
ATOM     14  C   UNL A   1      40.638  28.702  28.135  1.00  0.00     0.049 A 
ATOM     15  N   UNL A   1      41.347  29.487  31.154  1.00  0.00    -0.248 NA
ATOM     16  C   UNL A   1      39.298  28.433  31.437  1.00  0.00     0.031 C 
ATOM     17  C   UNL A   1      40.270  28.501  26.731  1.00  0.00     0.029 A 
ATOM     18  N   UNL A   1      41.859  28.101  28.224  1.00  0.00    -0.354 N 
ATOM     19  C   UNL A   1      41.256  29.012  32.464  1.00  0.00     0.074 A 
ATOM     20  C   UNL A   1      39.931  28.469  32.609  1.00  0.00     0.031 C 
ATOM     21  C   UNL A   1      41.144  27.641  26.161  1.00  0.00     0.029 A 
ATOM     22  C   UNL A   1      42.194  27.333  27.118  1.00  0.00     0.049 A 
ATOM     23  H   UNL A   1      42.451  28.204  29.003  1.00  0.00     0.167 HD
ATOM     24  C   UNL A   1      42.346  28.923  33.277  1.00  0.00     0.037 A 
ATOM     25  C   UNL A   1      43.218  26.450  27.025  1.00  0.00     0.037 A 
ATOM     26  C   UNL A   1      43.405  29.792  32.839  1.00  0.00     0.049 A 
ATOM     27  C   UNL A   1      44.191  26.764  28.099  1.00  0.00     0.074 A 
ATOM     28  C   UNL A   1      43.539  31.156  32.664  1.00  0.00     0.029 A 
ATOM     29  N   UNL A   1      44.492  29.240  32.210  1.00  0.00    -0.354 N 
ATOM     30  N   UNL A   1      44.937  27.831  28.126  1.00  0.00    -0.248 NA
ATOM     31  C   UNL A   1      44.041  26.073  29.371  1.00  0.00     0.031 C 
ATOM     32  C   UNL A   1      44.390  31.301  31.530  1.00  0.00     0.029 A 
ATOM     33  C   UNL A   1      44.746  30.019  31.113  1.00  0.00     0.049 A 
ATOM     34  H   UNL A   1      44.992  28.441  32.493  1.00  0.00     0.167 HD
ATOM     35  C   UNL A   1      44.996  28.185  29.465  1.00  0.00     0.074 A 
ATOM     36  C   UNL A   1      44.514  27.015  30.191  1.00  0.00     0.031 C 
ATOM     37  C   UNL A   1      45.164  29.486  29.841  1.00  0.00     0.037 A 
BRANCH  24  38
ATOM     38  C   UNL A   1      42.587  27.799  34.261  1.00  0.00     0.064 A 
ATOM     39  C   UNL A   1      43.120  26.578  33.793  1.00  0.00     0.173 A 
ATOM     40  C   UNL A   1      42.024  27.756  35.554  1.00  0.00     0.173 A 
ATOM     41  F   UNL A   1      43.682  26.498  32.578  1.00  0.00    -0.203 F 
ATOM     42  C   UNL A   1      42.991  25.389  34.515  1.00  0.00     0.198 A 
ATOM     43  C   UNL A   1      41.945  26.576  36.295  1.00  0.00     0.198 A 
ATOM     44  F   UNL A   1      41.426  28.816  36.110  1.00  0.00    -0.203 F 
ATOM     45  F   UNL A   1      43.380  24.231  33.965  1.00  0.00    -0.200 F 
ATOM     46  C   UNL A   1      42.391  25.386  35.760  1.00  0.00     0.200 A 
ATOM     47  F   UNL A   1      41.351  26.592  37.497  1.00  0.00    -0.200 F 
ATOM     48  F   UNL A   1      42.197  24.238  36.421  1.00  0.00    -0.200 F 
ENDBRANCH  24  38
BRANCH  25  49
ATOM     49  C   UNL A   1      43.257  25.176  26.271  1.00  0.00     0.064 A 
ATOM     50  C   UNL A   1      44.238  24.934  25.295  1.00  0.00     0.173 A 
ATOM     51  C   UNL A   1      42.497  24.063  26.683  1.00  0.00     0.173 A 
ATOM     52  F   UNL A   1      45.040  25.928  24.886  1.00  0.00    -0.203 F 
ATOM     53  C   UNL A   1      44.455  23.653  24.777  1.00  0.00     0.198 A 
ATOM     54  C   UNL A   1      42.706  22.789  26.158  1.00  0.00     0.198 A 
ATOM     55  F   UNL A   1      41.599  24.173  27.674  1.00  0.00    -0.203 F 
ATOM     56  F   UNL A   1      45.440  23.448  23.891  1.00  0.00    -0.200 F 
ATOM     57  C   UNL A   1      43.694  22.581  25.214  1.00  0.00     0.200 A 
ATOM     58  F   UNL A   1      41.990  21.755  26.618  1.00  0.00    -0.200 F 
ATOM     59  F   UNL A   1      43.939  21.345  24.760  1.00  0.00    -0.200 F 
ENDBRANCH  25  49
BRANCH  37  60
ATOM     60  C   UNL A   1      45.550  30.475  28.782  1.00  0.00     0.064 A 
ATOM     61  C   UNL A   1      44.625  31.118  27.942  1.00  0.00     0.173 A 
ATOM     62  C   UNL A   1      46.886  30.892  28.711  1.00  0.00     0.173 A 
ATOM     63  F   UNL A   1      43.315  30.853  28.030  1.00  0.00    -0.203 F 
ATOM     64  C   UNL A   1      45.029  32.096  27.037  1.00  0.00     0.198 A 
ATOM     65  C   UNL A   1      47.281  31.896  27.832  1.00  0.00     0.198 A 
ATOM     66  F   UNL A   1      47.802  30.359  29.534  1.00  0.00    -0.203 F 
ATOM     67  F   UNL A   1      44.127  32.685  26.237  1.00  0.00    -0.200 F 
ATOM     68  C   UNL A   1      46.356  32.488  26.986  1.00  0.00     0.200 A 
ATOM     69  F   UNL A   1      48.555  32.311  27.822  1.00  0.00    -0.200 F 
ATOM     70  F   UNL A   1      46.738  33.459  26.145  1.00  0.00    -0.200 F 
ENDBRANCH  37  60
ENDBRANCH  11  12
ENDBRANCH   4   6
ENDBRANCH   1   2
BRANCH   1  71
ATOM     71  C   UNL A   1      34.316  35.546  28.440  1.00  0.00     0.042 C 
BRANCH  71  72
ATOM     72  C   UNL A   1      33.024  35.676  29.239  1.00  0.00     0.118 C 
BRANCH  72  73
ATOM     73  N   UNL A   1      33.078  36.715  30.247  1.00  0.00    -0.351 N 
ATOM     74  C   UNL A   1      33.241  36.610  31.604  1.00  0.00     0.269 C 
ATOM     75  H   UNL A   1      32.983  37.635  29.907  1.00  0.00     0.163 HD
ATOM     76  O   UNL A   1      33.001  37.602  32.288  1.00  0.00    -0.268 OA
BRANCH  74  77
ATOM     77  C   UNL A   1      33.618  35.355  32.186  1.00  0.00     0.126 A 
ATOM     78  N   UNL A   1      32.686  34.537  32.801  1.00  0.00    -0.272 N 
ATOM     79  C   UNL A   1      34.807  34.697  32.382  1.00  0.00     0.006 A 
ATOM     80  N   UNL A   1      33.179  33.347  33.231  1.00  0.00    -0.180 NA
ATOM     81  H   UNL A   1      31.743  34.796  32.915  1.00  0.00     0.190 HD
ATOM     82  C   UNL A   1      34.470  33.480  32.975  1.00  0.00     0.066 A 
ATOM     83  C   UNL A   1      36.267  34.810  32.189  1.00  0.00     0.040 C 
ATOM     84  C   UNL A   1      35.631  32.596  33.193  1.00  0.00     0.059 C 
ATOM     85  C   UNL A   1      36.719  33.317  32.330  1.00  0.00     0.011 C 
ENDBRANCH  74  77
ENDBRANCH  72  73
ENDBRANCH  71  72
ENDBRANCH   1  71
TORSDOF 10
ENDMDL
MODEL 3
REMARK VINA RESULT:     -12.1      4.103     11.393
REMARK SMILES O=C(NCCCNC(=O)c1[nH]nc2c1CCC2)c1ccc(-c2c3nc(c(-c4c(F)c(F)c(F)c(F)c4F)c4ccc([nH]4)c(-c4c(F)c(F)c(F)c(F)c4F)c4nc(c(-c5c(F)c(F)c(F)c(F)c5F)c5ccc2[nH]5)C=C4)C=C3)cc1
REMARK SMILES IDX 4 1 3 2 1 3 2 4 18 6 19 7 80 8 20 9 79 10 21 11 22 12 23 13
REMARK SMILES IDX 73 14 24 15 78 16 72 17 74 18 25 19 77 20 71 21 70 22 26 24
REMARK SMILES IDX 58 25 38 26 57 27 39 28 42 29 56 30 75 31 40 32 41 33 55 35
REMARK SMILES IDX 76 36 43 37 27 38 28 39 36 40 29 41 30 42 34 43 37 44 31 45
REMARK SMILES IDX 32 46 35 47 33 48 59 49 60 50 68 51 61 52 62 53 66 54 69 55
REMARK SMILES IDX 63 56 64 57 67 58 65 59 44 60 45 61 53 62 46 63 47 64 51 65
REMARK SMILES IDX 54 66 48 67 49 68 52 69 50 70 5 71 6 72 7 73 8 74 9 76 10 77
REMARK SMILES IDX 11 78 14 79 12 80 13 82 15 83 17 84 16 85
REMARK H PARENT 3 5 74 23 42 34 7 75 11 81
REMARK Flexibility Score: inf
ROOT
ATOM      1  C   UNL A   1      34.741  33.999  29.081  1.00  0.00     0.118 C 
ENDROOT
BRANCH   1   2
ATOM      2  N   UNL A   1      34.328  32.938  28.184  1.00  0.00    -0.352 N 
ATOM      3  O   UNL A   1      33.993  30.974  27.243  1.00  0.00    -0.269 OA
ATOM      4  C   UNL A   1      34.737  31.656  27.953  1.00  0.00     0.251 C 
ATOM      5  H   UNL A   1      33.578  33.205  27.605  1.00  0.00     0.163 HD
BRANCH   4   6
ATOM      6  C   UNL A   1      36.018  31.058  28.419  1.00  0.00     0.039 A 
ATOM      7  C   UNL A   1      37.080  31.751  28.998  1.00  0.00     0.014 A 
ATOM      8  C   UNL A   1      36.176  29.682  28.166  1.00  0.00     0.014 A 
ATOM      9  C   UNL A   1      38.306  31.123  29.206  1.00  0.00     0.010 A 
ATOM     10  C   UNL A   1      37.387  29.041  28.395  1.00  0.00     0.010 A 
ATOM     11  C   UNL A   1      38.468  29.778  28.869  1.00  0.00    -0.014 A 
BRANCH  11  12
ATOM     12  C   UNL A   1      39.763  29.152  29.118  1.00  0.00     0.031 A 
ATOM     13  C   UNL A   1      40.078  28.859  30.547  1.00  0.00     0.074 A 
ATOM     14  C   UNL A   1      40.566  28.715  28.127  1.00  0.00     0.049 A 
ATOM     15  N   UNL A   1      41.111  29.220  31.239  1.00  0.00    -0.248 NA
ATOM     16  C   UNL A   1      39.075  28.109  31.318  1.00  0.00     0.031 C 
ATOM     17  C   UNL A   1      40.271  28.643  26.694  1.00  0.00     0.029 A 
ATOM     18  N   UNL A   1      41.794  28.130  28.220  1.00  0.00    -0.354 N 
ATOM     19  C   UNL A   1      40.968  28.620  32.491  1.00  0.00     0.074 A 
ATOM     20  C   UNL A   1      39.650  28.043  32.518  1.00  0.00     0.031 C 
ATOM     21  C   UNL A   1      41.189  27.856  26.090  1.00  0.00     0.029 A 
ATOM     22  C   UNL A   1      42.199  27.477  27.064  1.00  0.00     0.049 A 
ATOM     23  H   UNL A   1      42.346  28.168  29.034  1.00  0.00     0.167 HD
ATOM     24  C   UNL A   1      42.020  28.473  33.345  1.00  0.00     0.037 A 
ATOM     25  C   UNL A   1      43.245  26.624  26.939  1.00  0.00     0.037 A 
ATOM     26  C   UNL A   1      43.079  29.398  33.046  1.00  0.00     0.049 A 
ATOM     27  C   UNL A   1      44.158  26.851  28.085  1.00  0.00     0.074 A 
ATOM     28  C   UNL A   1      43.192  30.774  33.008  1.00  0.00     0.029 A 
ATOM     29  N   UNL A   1      44.207  28.927  32.422  1.00  0.00    -0.354 N 
ATOM     30  N   UNL A   1      44.878  27.923  28.250  1.00  0.00    -0.248 NA
ATOM     31  C   UNL A   1      43.962  26.039  29.277  1.00  0.00     0.031 C 
ATOM     32  C   UNL A   1      44.093  31.042  31.936  1.00  0.00     0.029 A 
ATOM     33  C   UNL A   1      44.496  29.812  31.418  1.00  0.00     0.049 A 
ATOM     34  H   UNL A   1      44.711  28.114  32.653  1.00  0.00     0.167 HD
ATOM     35  C   UNL A   1      44.865  28.148  29.618  1.00  0.00     0.074 A 
ATOM     36  C   UNL A   1      44.375  26.906  30.205  1.00  0.00     0.031 C 
ATOM     37  C   UNL A   1      44.987  29.410  30.124  1.00  0.00     0.037 A 
BRANCH  24  38
ATOM     38  C   UNL A   1      42.239  27.264  34.230  1.00  0.00     0.064 A 
ATOM     39  C   UNL A   1      41.916  27.349  35.602  1.00  0.00     0.173 A 
ATOM     40  C   UNL A   1      43.041  26.162  33.866  1.00  0.00     0.173 A 
ATOM     41  F   UNL A   1      41.158  28.355  36.066  1.00  0.00    -0.203 F 
ATOM     42  C   UNL A   1      42.452  26.469  36.545  1.00  0.00     0.198 A 
ATOM     43  C   UNL A   1      43.530  25.252  34.804  1.00  0.00     0.198 A 
ATOM     44  F   UNL A   1      43.479  25.979  32.615  1.00  0.00    -0.203 F 
ATOM     45  F   UNL A   1      42.236  26.679  37.850  1.00  0.00    -0.200 F 
ATOM     46  C   UNL A   1      43.270  25.428  36.147  1.00  0.00     0.200 A 
ATOM     47  F   UNL A   1      44.330  24.256  34.399  1.00  0.00    -0.200 F 
ATOM     48  F   UNL A   1      43.846  24.629  37.053  1.00  0.00    -0.200 F 
ENDBRANCH  24  38
BRANCH  25  49
ATOM     49  C   UNL A   1      43.348  25.429  26.071  1.00  0.00     0.064 A 
ATOM     50  C   UNL A   1      44.499  25.179  25.306  1.00  0.00     0.173 A 
ATOM     51  C   UNL A   1      42.428  24.368  26.182  1.00  0.00     0.173 A 
ATOM     52  F   UNL A   1      45.449  26.118  25.192  1.00  0.00    -0.203 F 
ATOM     53  C   UNL A   1      44.722  23.936  24.703  1.00  0.00     0.198 A 
ATOM     54  C   UNL A   1      42.646  23.133  25.572  1.00  0.00     0.198 A 
ATOM     55  F   UNL A   1      41.344  24.477  26.965  1.00  0.00    -0.203 F 
ATOM     56  F   UNL A   1      45.860  23.714  24.030  1.00  0.00    -0.200 F 
ATOM     57  C   UNL A   1      43.799  22.912  24.843  1.00  0.00     0.200 A 
ATOM     58  F   UNL A   1      41.763  22.140  25.748  1.00  0.00    -0.200 F 
ATOM     59  F   UNL A   1      44.039  21.705  24.314  1.00  0.00    -0.200 F 
ENDBRANCH  25  49
BRANCH  37  60
ATOM     60  C   UNL A   1      45.402  30.503  29.184  1.00  0.00     0.064 A 
ATOM     61  C   UNL A   1      46.741  30.833  28.916  1.00  0.00     0.173 A 
ATOM     62  C   UNL A   1      44.413  31.141  28.422  1.00  0.00     0.173 A 
ATOM     63  F   UNL A   1      47.745  30.187  29.524  1.00  0.00    -0.203 F 
ATOM     64  C   UNL A   1      47.071  31.796  27.966  1.00  0.00     0.198 A 
ATOM     65  C   UNL A   1      44.748  32.076  27.447  1.00  0.00     0.198 A 
ATOM     66  F   UNL A   1      43.122  30.819  28.590  1.00  0.00    -0.203 F 
ATOM     67  F   UNL A   1      48.358  32.103  27.739  1.00  0.00    -0.200 F 
ATOM     68  C   UNL A   1      46.075  32.413  27.229  1.00  0.00     0.200 A 
ATOM     69  F   UNL A   1      43.786  32.632  26.699  1.00  0.00    -0.200 F 
ATOM     70  F   UNL A   1      46.394  33.309  26.285  1.00  0.00    -0.200 F 
ENDBRANCH  37  60
ENDBRANCH  11  12
ENDBRANCH   4   6
ENDBRANCH   1   2
BRANCH   1  71
ATOM     71  C   UNL A   1      34.213  35.389  28.728  1.00  0.00     0.042 C 
BRANCH  71  72
ATOM     72  C   UNL A   1      32.895  35.776  29.388  1.00  0.00     0.118 C 
BRANCH  72  73
ATOM     73  N   UNL A   1      33.040  36.814  30.388  1.00  0.00    -0.351 N 
ATOM     74  C   UNL A   1      33.283  36.705  31.733  1.00  0.00     0.269 C 
ATOM     75  H   UNL A   1      32.951  37.736  30.052  1.00  0.00     0.163 HD
ATOM     76  O   UNL A   1      33.115  37.704  32.428  1.00  0.00    -0.268 OA
BRANCH  74  77
ATOM     77  C   UNL A   1      33.659  35.440  32.294  1.00  0.00     0.126 A 
ATOM     78  N   UNL A   1      32.717  34.583  32.834  1.00  0.00    -0.272 N 
ATOM     79  C   UNL A   1      34.851  34.801  32.528  1.00  0.00     0.006 A 
ATOM     80  N   UNL A   1      33.214  33.390  33.251  1.00  0.00    -0.180 NA
ATOM     81  H   UNL A   1      31.764  34.818  32.909  1.00  0.00     0.190 HD
ATOM     82  C   UNL A   1      34.513  33.559  33.065  1.00  0.00     0.066 A 
ATOM     83  C   UNL A   1      36.316  34.951  32.414  1.00  0.00     0.040 C 
ATOM     84  C   UNL A   1      35.681  32.693  33.314  1.00  0.00     0.059 C 
ATOM     85  C   UNL A   1      36.794  33.464  32.530  1.00  0.00     0.011 C 
ENDBRANCH  74  77
ENDBRANCH  72  73
ENDBRANCH  71  72
ENDBRANCH   1  71
TORSDOF 10
ENDMDL
