MODEL 1
REMARK VINA RESULT:     -13.5      0.000      0.000
REMARK SMILES O=C(NCCCNC(=O)[C@H](c1ccccc1)C(c1ccccc1)c1ccccc1)c1ccc(-c2c3nc(c(-c4c(F)c(F)c(F)c(F)c4F)c4ccc([nH]4)c(-c4c(F)c(F)c(F)c(F)c4F)c4nc(c(-c5c(F)c(F)c(F)c(F)c5F)c5ccc2[nH]5)C=C4)C=C3)cc1
REMARK SMILES IDX 5 1 4 2 3 3 1 4 2 5 30 7 31 8 92 9 32 10 91 11 33 12 34 13
REMARK SMILES IDX 35 14 85 15 36 16 90 17 84 18 86 19 37 20 89 21 83 22 82 23
REMARK SMILES IDX 38 25 70 26 50 27 69 28 51 29 54 30 68 31 87 32 52 33 53 34
REMARK SMILES IDX 67 36 88 37 55 38 39 39 40 40 48 41 41 42 42 43 46 44 49 45
REMARK SMILES IDX 43 46 44 47 47 48 45 49 71 50 72 51 80 52 73 53 74 54 78 55
REMARK SMILES IDX 81 56 75 57 76 58 79 59 77 60 56 61 57 62 65 63 58 64 59 65
REMARK SMILES IDX 63 66 66 67 60 68 61 69 64 70 62 71 6 72 7 73 8 74 9 76
REMARK SMILES IDX 10 77 17 78 18 79 19 80 23 81 20 82 22 83 21 84 24 85 25 86
REMARK SMILES IDX 29 87 26 88 28 89 27 90 11 91 12 92 16 93 13 94 15 95 14 96
REMARK H PARENT 3 6 86 24 54 35 7 75
REMARK Flexibility Score: inf
ROOT
ATOM      1  C   UNL A   1      31.068  27.863  27.174  1.00  0.00     0.042 C 
ENDROOT
BRANCH   1   2
ATOM      2  C   UNL A   1      32.410  28.562  27.018  1.00  0.00     0.118 C 
BRANCH   2   3
ATOM      3  N   UNL A   1      32.270  29.988  26.740  1.00  0.00    -0.352 N 
ATOM      4  O   UNL A   1      32.617  32.201  26.959  1.00  0.00    -0.269 OA
ATOM      5  C   UNL A   1      33.051  31.067  27.096  1.00  0.00     0.251 C 
ATOM      6  H   UNL A   1      31.478  30.221  26.204  1.00  0.00     0.163 HD
BRANCH   5   7
ATOM      7  C   UNL A   1      34.395  30.856  27.680  1.00  0.00     0.039 A 
ATOM      8  C   UNL A   1      34.848  29.574  27.961  1.00  0.00     0.014 A 
ATOM      9  C   UNL A   1      35.226  31.951  27.938  1.00  0.00     0.014 A 
ATOM     10  C   UNL A   1      35.989  29.396  28.723  1.00  0.00     0.010 A 
ATOM     11  C   UNL A   1      36.466  31.755  28.558  1.00  0.00     0.010 A 
ATOM     12  C   UNL A   1      36.834  30.479  29.007  1.00  0.00    -0.014 A 
BRANCH  12  13
ATOM     13  C   UNL A   1      38.103  30.206  29.734  1.00  0.00     0.031 A 
ATOM     14  C   UNL A   1      38.302  30.647  31.157  1.00  0.00     0.074 A 
ATOM     15  C   UNL A   1      39.049  29.469  29.116  1.00  0.00     0.049 A 
ATOM     16  N   UNL A   1      39.317  30.422  31.955  1.00  0.00    -0.248 NA
ATOM     17  C   UNL A   1      37.236  31.457  31.767  1.00  0.00     0.031 C 
ATOM     18  C   UNL A   1      38.972  28.993  27.731  1.00  0.00     0.029 A 
ATOM     19  N   UNL A   1      40.227  28.940  29.577  1.00  0.00    -0.354 N 
ATOM     20  C   UNL A   1      39.033  31.094  33.136  1.00  0.00     0.074 A 
ATOM     21  C   UNL A   1      37.756  31.747  32.951  1.00  0.00     0.031 C 
ATOM     22  C   UNL A   1      39.995  28.162  27.491  1.00  0.00     0.029 A 
ATOM     23  C   UNL A   1      40.852  28.121  28.667  1.00  0.00     0.049 A 
ATOM     24  H   UNL A   1      40.590  29.128  30.473  1.00  0.00     0.167 HD
ATOM     25  C   UNL A   1      39.770  31.153  34.271  1.00  0.00     0.037 A 
ATOM     26  C   UNL A   1      41.997  27.421  28.761  1.00  0.00     0.037 A 
ATOM     27  C   UNL A   1      41.021  30.462  34.462  1.00  0.00     0.049 A 
ATOM     28  C   UNL A   1      42.786  27.500  30.034  1.00  0.00     0.074 A 
ATOM     29  C   UNL A   1      41.823  30.423  35.589  1.00  0.00     0.029 A 
ATOM     30  N   UNL A   1      41.648  29.684  33.500  1.00  0.00    -0.354 N 
ATOM     31  N   UNL A   1      42.496  28.127  31.148  1.00  0.00    -0.248 NA
ATOM     32  C   UNL A   1      44.069  26.788  30.057  1.00  0.00     0.031 C 
ATOM     33  C   UNL A   1      42.958  29.660  35.293  1.00  0.00     0.029 A 
ATOM     34  C   UNL A   1      42.839  29.179  34.000  1.00  0.00     0.049 A 
ATOM     35  H   UNL A   1      41.299  29.515  32.594  1.00  0.00     0.167 HD
ATOM     36  C   UNL A   1      43.552  27.877  32.009  1.00  0.00     0.074 A 
ATOM     37  C   UNL A   1      44.478  27.018  31.297  1.00  0.00     0.031 C 
ATOM     38  C   UNL A   1      43.744  28.324  33.274  1.00  0.00     0.037 A 
BRANCH  25  39
ATOM     39  C   UNL A   1      39.263  32.020  35.389  1.00  0.00     0.064 A 
ATOM     40  C   UNL A   1      38.445  31.516  36.411  1.00  0.00     0.173 A 
ATOM     41  C   UNL A   1      39.637  33.372  35.457  1.00  0.00     0.173 A 
ATOM     42  F   UNL A   1      38.048  30.235  36.388  1.00  0.00    -0.203 F 
ATOM     43  C   UNL A   1      37.999  32.339  37.443  1.00  0.00     0.198 A 
ATOM     44  C   UNL A   1      39.212  34.184  36.505  1.00  0.00     0.198 A 
ATOM     45  F   UNL A   1      40.423  33.904  34.510  1.00  0.00    -0.203 F 
ATOM     46  F   UNL A   1      37.179  31.847  38.383  1.00  0.00    -0.200 F 
ATOM     47  C   UNL A   1      38.388  33.669  37.494  1.00  0.00     0.200 A 
ATOM     48  F   UNL A   1      39.601  35.465  36.558  1.00  0.00    -0.200 F 
ATOM     49  F   UNL A   1      37.963  34.457  38.491  1.00  0.00    -0.200 F 
ENDBRANCH  25  39
BRANCH  26  50
ATOM     50  C   UNL A   1      42.456  26.594  27.615  1.00  0.00     0.064 A 
ATOM     51  C   UNL A   1      43.421  27.074  26.720  1.00  0.00     0.173 A 
ATOM     52  C   UNL A   1      41.956  25.300  27.404  1.00  0.00     0.173 A 
ATOM     53  F   UNL A   1      43.917  28.311  26.868  1.00  0.00    -0.203 F 
ATOM     54  C   UNL A   1      43.860  26.295  25.651  1.00  0.00     0.198 A 
ATOM     55  C   UNL A   1      42.420  24.510  26.356  1.00  0.00     0.198 A 
ATOM     56  F   UNL A   1      41.035  24.792  28.237  1.00  0.00    -0.203 F 
ATOM     57  F   UNL A   1      44.755  26.792  24.786  1.00  0.00    -0.200 F 
ATOM     58  C   UNL A   1      43.366  25.010  25.476  1.00  0.00     0.200 A 
ATOM     59  F   UNL A   1      41.954  23.263  26.203  1.00  0.00    -0.200 F 
ATOM     60  F   UNL A   1      43.799  24.257  24.455  1.00  0.00    -0.200 F 
ENDBRANCH  26  50
BRANCH  38  61
ATOM     61  C   UNL A   1      44.988  27.863  33.973  1.00  0.00     0.064 A 
ATOM     62  C   UNL A   1      46.181  28.597  33.912  1.00  0.00     0.173 A 
ATOM     63  C   UNL A   1      44.982  26.675  34.719  1.00  0.00     0.173 A 
ATOM     64  F   UNL A   1      46.241  29.730  33.194  1.00  0.00    -0.203 F 
ATOM     65  C   UNL A   1      47.333  28.141  34.546  1.00  0.00     0.198 A 
ATOM     66  C   UNL A   1      46.127  26.238  35.377  1.00  0.00     0.198 A 
ATOM     67  F   UNL A   1      43.863  25.939  34.811  1.00  0.00    -0.203 F 
ATOM     68  F   UNL A   1      48.478  28.828  34.427  1.00  0.00    -0.200 F 
ATOM     69  C   UNL A   1      47.304  26.966  35.282  1.00  0.00     0.200 A 
ATOM     70  F   UNL A   1      46.096  25.108  36.096  1.00  0.00    -0.200 F 
ATOM     71  F   UNL A   1      48.414  26.528  35.891  1.00  0.00    -0.200 F 
ENDBRANCH  38  61
ENDBRANCH  12  13
ENDBRANCH   5   7
ENDBRANCH   2   3
ENDBRANCH   1   2
BRANCH   1  72
ATOM     72  C   UNL A   1      30.923  26.692  26.220  1.00  0.00     0.117 C 
BRANCH  72  73
ATOM     73  N   UNL A   1      31.072  25.387  26.858  1.00  0.00    -0.355 N 
ATOM     74  C   UNL A   1      31.765  24.261  26.514  1.00  0.00     0.228 C 
ATOM     75  H   UNL A   1      30.574  25.302  27.704  1.00  0.00     0.163 HD
ATOM     76  O   UNL A   1      31.848  23.395  27.392  1.00  0.00    -0.274 OA
BRANCH  74  77
ATOM     77  C   UNL A   1      32.431  24.052  25.138  1.00  0.00     0.120 C 
BRANCH  77  78
ATOM     78  C   UNL A   1      33.837  24.822  25.051  1.00  0.00     0.066 C 
BRANCH  78  79
ATOM     79  C   UNL A   1      35.140  23.989  24.854  1.00  0.00    -0.039 A 
ATOM     80  C   UNL A   1      36.120  23.907  25.852  1.00  0.00     0.004 A 
ATOM     81  C   UNL A   1      35.484  23.373  23.634  1.00  0.00     0.004 A 
ATOM     82  C   UNL A   1      37.225  23.053  25.754  1.00  0.00     0.000 A 
ATOM     83  C   UNL A   1      36.602  22.538  23.508  1.00  0.00     0.000 A 
ATOM     84  C   UNL A   1      37.449  22.339  24.589  1.00  0.00     0.000 A 
ENDBRANCH  78  79
BRANCH  78  85
ATOM     85  C   UNL A   1      33.707  26.026  24.063  1.00  0.00    -0.039 A 
ATOM     86  C   UNL A   1      33.256  25.890  22.738  1.00  0.00     0.004 A 
ATOM     87  C   UNL A   1      34.085  27.316  24.476  1.00  0.00     0.004 A 
ATOM     88  C   UNL A   1      33.339  26.959  21.835  1.00  0.00     0.000 A 
ATOM     89  C   UNL A   1      34.106  28.399  23.594  1.00  0.00     0.000 A 
ATOM     90  C   UNL A   1      33.773  28.212  22.260  1.00  0.00     0.000 A 
ENDBRANCH  78  85
ENDBRANCH  77  78
BRANCH  77  91
ATOM     91  C   UNL A   1      32.299  22.583  24.679  1.00  0.00    -0.035 A 
ATOM     92  C   UNL A   1      32.538  21.475  25.508  1.00  0.00     0.004 A 
ATOM     93  C   UNL A   1      31.987  22.297  23.337  1.00  0.00     0.004 A 
ATOM     94  C   UNL A   1      32.665  20.176  25.008  1.00  0.00     0.000 A 
ATOM     95  C   UNL A   1      32.090  20.993  22.831  1.00  0.00     0.000 A 
ATOM     96  C   UNL A   1      32.474  19.939  23.658  1.00  0.00     0.000 A 
ENDBRANCH  77  91
ENDBRANCH  74  77
ENDBRANCH  72  73
ENDBRANCH   1  72
TORSDOF 14
ENDMDL
MODEL 2
REMARK VINA RESULT:     -13.3      1.060      2.865
REMARK SMILES O=C(NCCCNC(=O)[C@H](c1ccccc1)C(c1ccccc1)c1ccccc1)c1ccc(-c2c3nc(c(-c4c(F)c(F)c(F)c(F)c4F)c4ccc([nH]4)c(-c4c(F)c(F)c(F)c(F)c4F)c4nc(c(-c5c(F)c(F)c(F)c(F)c5F)c5ccc2[nH]5)C=C4)C=C3)cc1
REMARK SMILES IDX 5 1 4 2 3 3 1 4 2 5 30 7 31 8 92 9 32 10 91 11 33 12 34 13
REMARK SMILES IDX 35 14 85 15 36 16 90 17 84 18 86 19 37 20 89 21 83 22 82 23
REMARK SMILES IDX 38 25 70 26 50 27 69 28 51 29 54 30 68 31 87 32 52 33 53 34
REMARK SMILES IDX 67 36 88 37 55 38 39 39 40 40 48 41 41 42 42 43 46 44 49 45
REMARK SMILES IDX 43 46 44 47 47 48 45 49 71 50 72 51 80 52 73 53 74 54 78 55
REMARK SMILES IDX 81 56 75 57 76 58 79 59 77 60 56 61 57 62 65 63 58 64 59 65
REMARK SMILES IDX 63 66 66 67 60 68 61 69 64 70 62 71 6 72 7 73 8 74 9 76
REMARK SMILES IDX 10 77 17 78 18 79 19 80 23 81 20 82 22 83 21 84 24 85 25 86
REMARK SMILES IDX 29 87 26 88 28 89 27 90 11 91 12 92 16 93 13 94 15 95 14 96
REMARK H PARENT 3 6 86 24 54 35 7 75
REMARK Flexibility Score: inf
ROOT
ATOM      1  C   UNL A   1      32.364  28.209  25.843  1.00  0.00     0.042 C 
ENDROOT
BRANCH   1   2
ATOM      2  C   UNL A   1      32.326  29.029  27.123  1.00  0.00     0.118 C 
BRANCH   2   3
ATOM      3  N   UNL A   1      32.302  30.466  26.867  1.00  0.00    -0.352 N 
ATOM      4  O   UNL A   1      32.819  32.640  27.128  1.00  0.00    -0.269 OA
ATOM      5  C   UNL A   1      33.161  31.474  27.251  1.00  0.00     0.251 C 
ATOM      6  H   UNL A   1      31.538  30.769  26.326  1.00  0.00     0.163 HD
BRANCH   5   7
ATOM      7  C   UNL A   1      34.477  31.148  27.846  1.00  0.00     0.039 A 
ATOM      8  C   UNL A   1      34.772  29.849  28.235  1.00  0.00     0.014 A 
ATOM      9  C   UNL A   1      35.440  32.150  28.006  1.00  0.00     0.014 A 
ATOM     10  C   UNL A   1      35.893  29.596  29.006  1.00  0.00     0.010 A 
ATOM     11  C   UNL A   1      36.655  31.855  28.636  1.00  0.00     0.010 A 
ATOM     12  C   UNL A   1      36.869  30.586  29.193  1.00  0.00    -0.014 A 
BRANCH  12  13
ATOM     13  C   UNL A   1      38.105  30.221  29.936  1.00  0.00     0.031 A 
ATOM     14  C   UNL A   1      38.314  30.640  31.364  1.00  0.00     0.074 A 
ATOM     15  C   UNL A   1      39.005  29.421  29.327  1.00  0.00     0.049 A 
ATOM     16  N   UNL A   1      39.299  30.340  32.175  1.00  0.00    -0.248 NA
ATOM     17  C   UNL A   1      37.298  31.520  31.963  1.00  0.00     0.031 C 
ATOM     18  C   UNL A   1      38.915  28.958  27.939  1.00  0.00     0.029 A 
ATOM     19  N   UNL A   1      40.136  28.808  29.802  1.00  0.00    -0.354 N 
ATOM     20  C   UNL A   1      39.045  31.025  33.355  1.00  0.00     0.074 A 
ATOM     21  C   UNL A   1      37.820  31.768  33.156  1.00  0.00     0.031 C 
ATOM     22  C   UNL A   1      39.880  28.058  27.709  1.00  0.00     0.029 A 
ATOM     23  C   UNL A   1      40.714  27.951  28.896  1.00  0.00     0.049 A 
ATOM     24  H   UNL A   1      40.498  28.966  30.705  1.00  0.00     0.167 HD
ATOM     25  C   UNL A   1      39.768  31.026  34.501  1.00  0.00     0.037 A 
ATOM     26  C   UNL A   1      41.805  27.171  29.003  1.00  0.00     0.037 A 
ATOM     27  C   UNL A   1      40.964  30.248  34.706  1.00  0.00     0.049 A 
ATOM     28  C   UNL A   1      42.580  27.188  30.288  1.00  0.00     0.074 A 
ATOM     29  C   UNL A   1      41.744  30.147  35.844  1.00  0.00     0.029 A 
ATOM     30  N   UNL A   1      41.548  29.431  33.749  1.00  0.00    -0.354 N 
ATOM     31  N   UNL A   1      42.319  27.829  31.400  1.00  0.00    -0.248 NA
ATOM     32  C   UNL A   1      43.809  26.387  30.325  1.00  0.00     0.031 C 
ATOM     33  C   UNL A   1      42.827  29.306  35.561  1.00  0.00     0.029 A 
ATOM     34  C   UNL A   1      42.693  28.841  34.263  1.00  0.00     0.049 A 
ATOM     35  H   UNL A   1      41.202  29.292  32.838  1.00  0.00     0.167 HD
ATOM     36  C   UNL A   1      43.342  27.501  32.276  1.00  0.00     0.074 A 
ATOM     37  C   UNL A   1      44.214  26.582  31.572  1.00  0.00     0.031 C 
ATOM     38  C   UNL A   1      43.546  27.928  33.546  1.00  0.00     0.037 A 
BRANCH  25  39
ATOM     39  C   UNL A   1      39.307  31.922  35.617  1.00  0.00     0.064 A 
ATOM     40  C   UNL A   1      38.414  31.482  36.605  1.00  0.00     0.173 A 
ATOM     41  C   UNL A   1      39.802  33.232  35.718  1.00  0.00     0.173 A 
ATOM     42  F   UNL A   1      37.901  30.245  36.549  1.00  0.00    -0.203 F 
ATOM     43  C   UNL A   1      38.012  32.330  37.636  1.00  0.00     0.198 A 
ATOM     44  C   UNL A   1      39.420  34.067  36.766  1.00  0.00     0.198 A 
ATOM     45  F   UNL A   1      40.664  33.701  34.804  1.00  0.00    -0.203 F 
ATOM     46  F   UNL A   1      37.121  31.904  38.542  1.00  0.00    -0.200 F 
ATOM     47  C   UNL A   1      38.521  33.617  37.719  1.00  0.00     0.200 A 
ATOM     48  F   UNL A   1      39.924  35.306  36.851  1.00  0.00    -0.200 F 
ATOM     49  F   UNL A   1      38.138  34.428  38.715  1.00  0.00    -0.200 F 
ENDBRANCH  25  39
BRANCH  26  50
ATOM     50  C   UNL A   1      42.222  26.318  27.860  1.00  0.00     0.064 A 
ATOM     51  C   UNL A   1      41.620  25.074  27.632  1.00  0.00     0.173 A 
ATOM     52  C   UNL A   1      43.213  26.738  26.961  1.00  0.00     0.173 A 
ATOM     53  F   UNL A   1      40.680  24.618  28.474  1.00  0.00    -0.203 F 
ATOM     54  C   UNL A   1      42.003  24.277  26.555  1.00  0.00     0.198 A 
ATOM     55  C   UNL A   1      43.570  25.957  25.865  1.00  0.00     0.198 A 
ATOM     56  F   UNL A   1      43.815  27.925  27.131  1.00  0.00    -0.203 F 
ATOM     57  F   UNL A   1      41.439  23.073  26.381  1.00  0.00    -0.200 F 
ATOM     58  C   UNL A   1      42.970  24.724  25.666  1.00  0.00     0.200 A 
ATOM     59  F   UNL A   1      44.491  26.402  24.999  1.00  0.00    -0.200 F 
ATOM     60  F   UNL A   1      43.328  23.962  24.623  1.00  0.00    -0.200 F 
ENDBRANCH  26  50
BRANCH  38  61
ATOM     61  C   UNL A   1      44.744  27.376  34.259  1.00  0.00     0.064 A 
ATOM     62  C   UNL A   1      44.682  26.176  34.982  1.00  0.00     0.173 A 
ATOM     63  C   UNL A   1      45.970  28.054  34.212  1.00  0.00     0.173 A 
ATOM     64  F   UNL A   1      43.525  25.501  35.072  1.00  0.00    -0.203 F 
ATOM     65  C   UNL A   1      45.798  25.691  35.657  1.00  0.00     0.198 A 
ATOM     66  C   UNL A   1      47.092  27.551  34.864  1.00  0.00     0.198 A 
ATOM     67  F   UNL A   1      46.081  29.205  33.530  1.00  0.00    -0.203 F 
ATOM     68  F   UNL A   1      45.702  24.572  36.390  1.00  0.00    -0.200 F 
ATOM     69  C   UNL A   1      47.002  26.375  35.594  1.00  0.00     0.200 A 
ATOM     70  F   UNL A   1      48.258  28.208  34.793  1.00  0.00    -0.200 F 
ATOM     71  F   UNL A   1      48.075  25.908  36.247  1.00  0.00    -0.200 F 
ENDBRANCH  38  61
ENDBRANCH  12  13
ENDBRANCH   5   7
ENDBRANCH   2   3
ENDBRANCH   1   2
BRANCH   1  72
ATOM     72  C   UNL A   1      33.661  27.433  25.703  1.00  0.00     0.117 C 
BRANCH  72  73
ATOM     73  N   UNL A   1      33.976  27.050  24.330  1.00  0.00    -0.355 N 
ATOM     74  C   UNL A   1      34.028  25.842  23.694  1.00  0.00     0.228 C 
ATOM     75  H   UNL A   1      34.196  27.813  23.747  1.00  0.00     0.163 HD
ATOM     76  O   UNL A   1      34.123  25.889  22.462  1.00  0.00    -0.274 OA
BRANCH  74  77
ATOM     77  C   UNL A   1      33.955  24.485  24.425  1.00  0.00     0.120 C 
BRANCH  77  78
ATOM     78  C   UNL A   1      32.685  23.632  23.940  1.00  0.00     0.066 C 
BRANCH  78  79
ATOM     79  C   UNL A   1      32.650  22.101  24.234  1.00  0.00    -0.039 A 
ATOM     80  C   UNL A   1      32.229  21.175  23.271  1.00  0.00     0.004 A 
ATOM     81  C   UNL A   1      32.909  21.554  25.507  1.00  0.00     0.004 A 
ATOM     82  C   UNL A   1      32.325  19.792  23.463  1.00  0.00     0.000 A 
ATOM     83  C   UNL A   1      32.981  20.172  25.725  1.00  0.00     0.000 A 
ATOM     84  C   UNL A   1      32.736  19.288  24.685  1.00  0.00     0.000 A 
ENDBRANCH  78  79
BRANCH  78  85
ATOM     85  C   UNL A   1      31.374  24.379  24.348  1.00  0.00    -0.039 A 
ATOM     86  C   UNL A   1      30.500  24.965  23.415  1.00  0.00     0.004 A 
ATOM     87  C   UNL A   1      31.041  24.520  25.706  1.00  0.00     0.004 A 
ATOM     88  C   UNL A   1      29.444  25.787  23.834  1.00  0.00     0.000 A 
ATOM     89  C   UNL A   1      29.949  25.284  26.126  1.00  0.00     0.000 A 
ATOM     90  C   UNL A   1      29.173  25.953  25.190  1.00  0.00     0.000 A 
ENDBRANCH  78  85
ENDBRANCH  77  78
BRANCH  77  91
ATOM     91  C   UNL A   1      35.355  23.838  24.528  1.00  0.00    -0.035 A 
ATOM     92  C   UNL A   1      35.884  22.951  23.577  1.00  0.00     0.004 A 
ATOM     93  C   UNL A   1      36.151  24.078  25.663  1.00  0.00     0.004 A 
ATOM     94  C   UNL A   1      37.028  22.186  23.818  1.00  0.00     0.000 A 
ATOM     95  C   UNL A   1      37.315  23.331  25.902  1.00  0.00     0.000 A 
ATOM     96  C   UNL A   1      37.728  22.353  25.000  1.00  0.00     0.000 A 
ENDBRANCH  77  91
ENDBRANCH  74  77
ENDBRANCH  72  73
ENDBRANCH   1  72
TORSDOF 14
ENDMDL
MODEL 3
REMARK VINA RESULT:     -13.1      4.051      9.457
REMARK SMILES O=C(NCCCNC(=O)[C@H](c1ccccc1)C(c1ccccc1)c1ccccc1)c1ccc(-c2c3nc(c(-c4c(F)c(F)c(F)c(F)c4F)c4ccc([nH]4)c(-c4c(F)c(F)c(F)c(F)c4F)c4nc(c(-c5c(F)c(F)c(F)c(F)c5F)c5ccc2[nH]5)C=C4)C=C3)cc1
REMARK SMILES IDX 5 1 4 2 3 3 1 4 2 5 30 7 31 8 92 9 32 10 91 11 33 12 34 13
REMARK SMILES IDX 35 14 85 15 36 16 90 17 84 18 86 19 37 20 89 21 83 22 82 23
REMARK SMILES IDX 38 25 70 26 50 27 69 28 51 29 54 30 68 31 87 32 52 33 53 34
REMARK SMILES IDX 67 36 88 37 55 38 39 39 40 40 48 41 41 42 42 43 46 44 49 45
REMARK SMILES IDX 43 46 44 47 47 48 45 49 71 50 72 51 80 52 73 53 74 54 78 55
REMARK SMILES IDX 81 56 75 57 76 58 79 59 77 60 56 61 57 62 65 63 58 64 59 65
REMARK SMILES IDX 63 66 66 67 60 68 61 69 64 70 62 71 6 72 7 73 8 74 9 76
REMARK SMILES IDX 10 77 17 78 18 79 19 80 23 81 20 82 22 83 21 84 24 85 25 86
REMARK SMILES IDX 29 87 26 88 28 89 27 90 11 91 12 92 16 93 13 94 15 95 14 96
REMARK H PARENT 3 6 86 24 54 35 7 75
REMARK Flexibility Score: inf
ROOT
ATOM      1  C   UNL A   1      35.598  22.386  25.792  1.00  0.00     0.042 C 
ENDROOT
BRANCH   1   2
ATOM      2  C   UNL A   1      36.922  22.355  25.044  1.00  0.00     0.118 C 
BRANCH   2   3
ATOM      3  N   UNL A   1      37.769  21.238  25.451  1.00  0.00    -0.352 N 
ATOM      4  O   UNL A   1      39.645  20.156  26.063  1.00  0.00    -0.269 OA
ATOM      5  C   UNL A   1      39.021  21.206  26.027  1.00  0.00     0.251 C 
ATOM      6  H   UNL A   1      37.378  20.351  25.284  1.00  0.00     0.163 HD
BRANCH   5   7
ATOM      7  C   UNL A   1      39.627  22.444  26.566  1.00  0.00     0.039 A 
ATOM      8  C   UNL A   1      39.179  23.689  26.146  1.00  0.00     0.014 A 
ATOM      9  C   UNL A   1      40.649  22.366  27.519  1.00  0.00     0.014 A 
ATOM     10  C   UNL A   1      39.902  24.826  26.461  1.00  0.00     0.010 A 
ATOM     11  C   UNL A   1      41.270  23.536  27.972  1.00  0.00     0.010 A 
ATOM     12  C   UNL A   1      40.939  24.774  27.403  1.00  0.00    -0.014 A 
BRANCH  12  13
ATOM     13  C   UNL A   1      41.604  26.049  27.785  1.00  0.00     0.031 A 
ATOM     14  C   UNL A   1      42.971  26.405  27.270  1.00  0.00     0.074 A 
ATOM     15  C   UNL A   1      40.915  26.932  28.537  1.00  0.00     0.049 A 
ATOM     16  N   UNL A   1      43.656  27.509  27.446  1.00  0.00    -0.248 NA
ATOM     17  C   UNL A   1      43.672  25.393  26.464  1.00  0.00     0.031 C 
ATOM     18  C   UNL A   1      39.583  26.693  29.104  1.00  0.00     0.029 A 
ATOM     19  N   UNL A   1      41.200  28.220  28.908  1.00  0.00    -0.354 N 
ATOM     20  C   UNL A   1      44.876  27.307  26.814  1.00  0.00     0.074 A 
ATOM     21  C   UNL A   1      44.847  25.972  26.259  1.00  0.00     0.031 C 
ATOM     22  C   UNL A   1      39.127  27.825  29.655  1.00  0.00     0.029 A 
ATOM     23  C   UNL A   1      40.167  28.840  29.570  1.00  0.00     0.049 A 
ATOM     24  H   UNL A   1      42.062  28.659  28.720  1.00  0.00     0.167 HD
ATOM     25  C   UNL A   1      45.920  28.163  26.705  1.00  0.00     0.037 A 
ATOM     26  C   UNL A   1      40.068  30.087  30.065  1.00  0.00     0.037 A 
ATOM     27  C   UNL A   1      45.923  29.508  27.223  1.00  0.00     0.049 A 
ATOM     28  C   UNL A   1      41.238  31.014  29.920  1.00  0.00     0.074 A 
ATOM     29  C   UNL A   1      46.915  30.468  27.127  1.00  0.00     0.029 A 
ATOM     30  N   UNL A   1      44.879  30.084  27.932  1.00  0.00    -0.354 N 
ATOM     31  N   UNL A   1      42.378  30.815  29.307  1.00  0.00    -0.248 NA
ATOM     32  C   UNL A   1      41.113  32.334  30.551  1.00  0.00     0.031 C 
ATOM     33  C   UNL A   1      46.489  31.609  27.818  1.00  0.00     0.029 A 
ATOM     34  C   UNL A   1      45.211  31.379  28.299  1.00  0.00     0.049 A 
ATOM     35  H   UNL A   1      44.027  29.638  28.143  1.00  0.00     0.167 HD
ATOM     36  C   UNL A   1      43.104  31.984  29.465  1.00  0.00     0.074 A 
ATOM     37  C   UNL A   1      42.263  32.899  30.211  1.00  0.00     0.031 C 
ATOM     38  C   UNL A   1      44.358  32.273  29.039  1.00  0.00     0.037 A 
BRANCH  25  39
ATOM     39  C   UNL A   1      47.165  27.664  26.026  1.00  0.00     0.064 A 
ATOM     40  C   UNL A   1      47.329  27.721  24.634  1.00  0.00     0.173 A 
ATOM     41  C   UNL A   1      48.228  27.154  26.790  1.00  0.00     0.173 A 
ATOM     42  F   UNL A   1      46.341  28.187  23.856  1.00  0.00    -0.203 F 
ATOM     43  C   UNL A   1      48.498  27.263  24.031  1.00  0.00     0.198 A 
ATOM     44  C   UNL A   1      49.406  26.723  26.185  1.00  0.00     0.198 A 
ATOM     45  F   UNL A   1      48.126  27.082  28.125  1.00  0.00    -0.203 F 
ATOM     46  F   UNL A   1      48.614  27.284  22.696  1.00  0.00    -0.200 F 
ATOM     47  C   UNL A   1      49.538  26.771  24.807  1.00  0.00     0.200 A 
ATOM     48  F   UNL A   1      50.413  26.260  26.939  1.00  0.00    -0.200 F 
ATOM     49  F   UNL A   1      50.664  26.337  24.225  1.00  0.00    -0.200 F 
ENDBRANCH  25  39
BRANCH  26  50
ATOM     50  C   UNL A   1      38.817  30.519  30.740  1.00  0.00     0.064 A 
ATOM     51  C   UNL A   1      38.695  30.466  32.135  1.00  0.00     0.173 A 
ATOM     52  C   UNL A   1      37.726  31.013  30.009  1.00  0.00     0.173 A 
ATOM     53  F   UNL A   1      39.703  29.985  32.879  1.00  0.00    -0.203 F 
ATOM     54  C   UNL A   1      37.527  30.880  32.771  1.00  0.00     0.198 A 
ATOM     55  C   UNL A   1      36.572  31.458  30.647  1.00  0.00     0.198 A 
ATOM     56  F   UNL A   1      37.795  31.089  28.671  1.00  0.00    -0.203 F 
ATOM     57  F   UNL A   1      37.421  30.783  34.104  1.00  0.00    -0.200 F 
ATOM     58  C   UNL A   1      36.470  31.385  32.027  1.00  0.00     0.200 A 
ATOM     59  F   UNL A   1      35.563  31.963  29.925  1.00  0.00    -0.200 F 
ATOM     60  F   UNL A   1      35.351  31.795  32.641  1.00  0.00    -0.200 F 
ENDBRANCH  26  50
BRANCH  38  61
ATOM     61  C   UNL A   1      44.876  33.647  29.346  1.00  0.00     0.064 A 
ATOM     62  C   UNL A   1      44.655  34.727  28.479  1.00  0.00     0.173 A 
ATOM     63  C   UNL A   1      45.594  33.885  30.527  1.00  0.00     0.173 A 
ATOM     64  F   UNL A   1      43.989  34.544  27.328  1.00  0.00    -0.203 F 
ATOM     65  C   UNL A   1      45.163  35.990  28.769  1.00  0.00     0.198 A 
ATOM     66  C   UNL A   1      46.075  35.156  30.828  1.00  0.00     0.198 A 
ATOM     67  F   UNL A   1      45.828  32.885  31.390  1.00  0.00    -0.203 F 
ATOM     68  F   UNL A   1      44.991  36.995  27.899  1.00  0.00    -0.200 F 
ATOM     69  C   UNL A   1      45.868  36.205  29.943  1.00  0.00     0.200 A 
ATOM     70  F   UNL A   1      46.747  35.364  31.968  1.00  0.00    -0.200 F 
ATOM     71  F   UNL A   1      46.358  37.420  30.220  1.00  0.00    -0.200 F 
ENDBRANCH  38  61
ENDBRANCH  12  13
ENDBRANCH   5   7
ENDBRANCH   2   3
ENDBRANCH   1   2
BRANCH   1  72
ATOM     72  C   UNL A   1      34.966  23.765  25.770  1.00  0.00     0.117 C 
BRANCH  72  73
ATOM     73  N   UNL A   1      33.778  23.884  26.611  1.00  0.00    -0.355 N 
ATOM     74  C   UNL A   1      32.670  24.680  26.541  1.00  0.00     0.228 C 
ATOM     75  H   UNL A   1      33.776  23.270  27.381  1.00  0.00     0.163 HD
ATOM     76  O   UNL A   1      31.744  24.376  27.303  1.00  0.00    -0.274 OA
BRANCH  74  77
ATOM     77  C   UNL A   1      32.533  25.876  25.577  1.00  0.00     0.120 C 
BRANCH  77  78
ATOM     78  C   UNL A   1      31.352  25.635  24.517  1.00  0.00     0.066 C 
BRANCH  78  79
ATOM     79  C   UNL A   1      30.766  26.861  23.752  1.00  0.00    -0.039 A 
ATOM     80  C   UNL A   1      29.385  27.065  23.636  1.00  0.00     0.004 A 
ATOM     81  C   UNL A   1      31.561  27.768  23.024  1.00  0.00     0.004 A 
ATOM     82  C   UNL A   1      28.839  28.229  23.081  1.00  0.00     0.000 A 
ATOM     83  C   UNL A   1      31.029  28.924  22.437  1.00  0.00     0.000 A 
ATOM     84  C   UNL A   1      29.667  29.179  22.508  1.00  0.00     0.000 A 
ENDBRANCH  78  79
BRANCH  78  85
ATOM     85  C   UNL A   1      31.729  24.437  23.586  1.00  0.00    -0.039 A 
ATOM     86  C   UNL A   1      30.982  23.248  23.523  1.00  0.00     0.004 A 
ATOM     87  C   UNL A   1      32.883  24.507  22.787  1.00  0.00     0.004 A 
ATOM     88  C   UNL A   1      31.462  22.132  22.823  1.00  0.00     0.000 A 
ATOM     89  C   UNL A   1      33.330  23.417  22.035  1.00  0.00     0.000 A 
ATOM     90  C   UNL A   1      32.640  22.214  22.085  1.00  0.00     0.000 A 
ENDBRANCH  78  85
ENDBRANCH  77  78
BRANCH  77  91
ATOM     91  C   UNL A   1      32.658  27.215  26.338  1.00  0.00    -0.035 A 
ATOM     92  C   UNL A   1      31.568  27.920  26.876  1.00  0.00     0.004 A 
ATOM     93  C   UNL A   1      33.917  27.831  26.464  1.00  0.00     0.004 A 
ATOM     94  C   UNL A   1      31.674  29.238  27.324  1.00  0.00     0.000 A 
ATOM     95  C   UNL A   1      34.035  29.147  26.935  1.00  0.00     0.000 A 
ATOM     96  C   UNL A   1      32.907  29.866  27.323  1.00  0.00     0.000 A 
ENDBRANCH  77  91
ENDBRANCH  74  77
ENDBRANCH  72  73
ENDBRANCH   1  72
TORSDOF 14
ENDMDL
