MODEL 1
REMARK VINA RESULT:     -14.2      0.000      0.000
REMARK SMILES COC(=O)c1c(NC(=O)[C@@H]2[C@H]3CC[C@H](CC3)[C@H]2C(=O)NCCCNC(=O)c2ccc(-c3c4nc(c(-c5c(F)c(F)c(F)c(F)c5F)c5ccc([nH]5)c(-c5c(F)c(F)c(F)c(F)c5F)c5nc(c(-c6c(F)c(F)c(F)c(F)c6F)c6ccc3[nH]6)C=C5)C=C4)cc2)sc(C)c1-c1ccc(C)cc1
REMARK SMILES IDX 21 1 20 2 18 3 19 4 17 6 10 7 11 8 16 9 12 10 14 11 15 12
REMARK SMILES IDX 13 13 8 14 7 15 9 17 6 18 5 19 93 20 90 21 91 22 92 23 3 24
REMARK SMILES IDX 4 25 2 26 1 27 94 28 95 29 100 30 96 31 99 32 97 33 98 34
REMARK SMILES IDX 22 35 23 36 24 37 25 38 26 40 27 41 28 42 89 43 29 44 88 45
REMARK SMILES IDX 30 46 31 47 32 48 82 49 33 50 87 51 81 52 83 53 34 54 86 55
REMARK SMILES IDX 80 56 79 57 35 59 67 60 47 61 66 62 48 63 51 64 65 65 84 66
REMARK SMILES IDX 49 67 50 68 64 70 85 71 52 72 36 73 37 74 45 75 38 76 39 77
REMARK SMILES IDX 43 78 46 79 40 80 41 81 44 82 42 83 68 84 69 85 77 86 70 87
REMARK SMILES IDX 71 88 75 89 78 90 72 91 73 92 76 93 74 94 53 95 54 96 62 97
REMARK SMILES IDX 55 98 56 99 60 100 63 101 57 102 58 103 61 104 59 105
REMARK H PARENT 20 5 7 16 24 39 83 58 51 69
REMARK Flexibility Score: inf
ROOT
ATOM      1  C   UNL A   1      32.660  29.826  26.992  1.00  0.00     0.117 C 
ENDROOT
BRANCH   1   2
ATOM      2  N   UNL A   1      31.755  28.797  27.370  1.00  0.00    -0.356 N 
ATOM      3  C   UNL A   1      31.462  27.690  26.616  1.00  0.00     0.224 C 
ATOM      4  O   UNL A   1      30.909  26.761  27.217  1.00  0.00    -0.275 OA
ATOM      5  H   UNL A   1      31.305  28.885  28.240  1.00  0.00     0.163 HD
BRANCH   3   6
ATOM      6  C   UNL A   1      31.807  27.531  25.092  1.00  0.00     0.094 C 
ATOM      7  C   UNL A   1      31.958  26.092  24.524  1.00  0.00     0.094 C 
ATOM      8  C   UNL A   1      30.944  25.872  23.344  1.00  0.00     0.002 C 
ATOM      9  C   UNL A   1      29.496  26.392  23.453  1.00  0.00     0.005 C 
ATOM     10  C   UNL A   1      31.414  26.757  22.229  1.00  0.00     0.005 C 
ATOM     11  C   UNL A   1      30.965  28.376  24.086  1.00  0.00     0.002 C 
ATOM     12  C   UNL A   1      29.521  27.898  23.808  1.00  0.00     0.005 C 
ATOM     13  C   UNL A   1      31.662  28.196  22.724  1.00  0.00     0.005 C 
BRANCH   7  14
ATOM     14  C   UNL A   1      33.509  25.667  24.317  1.00  0.00     0.229 C 
ATOM     15  N   UNL A   1      34.174  24.467  24.155  1.00  0.00    -0.317 N 
ATOM     16  H   UNL A   1      35.131  24.609  23.973  1.00  0.00     0.170 HD
ATOM     17  O   UNL A   1      34.277  26.644  24.168  1.00  0.00    -0.274 OA
BRANCH  15  18
ATOM     18  C   UNL A   1      33.857  23.112  24.179  1.00  0.00     0.111 A 
ATOM     19  C   UNL A   1      34.312  22.015  24.939  1.00  0.00     0.102 A 
ATOM     20  C   UNL A   1      33.766  20.794  24.337  1.00  0.00     0.012 A 
ATOM     21  S   UNL A   1      32.151  22.623  24.131  1.00  0.00    -0.122 S 
ATOM     22  C   UNL A   1      32.754  21.142  23.452  1.00  0.00     0.012 A 
ATOM     23  C   UNL A   1      32.070  20.366  22.382  1.00  0.00     0.057 C 
BRANCH  19  24
ATOM     24  C   UNL A   1      35.119  22.134  26.141  1.00  0.00     0.341 C 
ATOM     25  O   UNL A   1      36.153  22.797  26.180  1.00  0.00    -0.246 OA
BRANCH  24  26
ATOM     26  O   UNL A   1      34.531  21.557  27.223  1.00  0.00    -0.465 OA
ATOM     27  C   UNL A   1      33.427  22.266  27.780  1.00  0.00     0.282 C 
ENDBRANCH  24  26
ENDBRANCH  19  24
BRANCH  20  28
ATOM     28  C   UNL A   1      33.775  19.403  24.770  1.00  0.00    -0.016 A 
ATOM     29  C   UNL A   1      32.663  18.964  25.503  1.00  0.00     0.009 A 
ATOM     30  C   UNL A   1      34.700  18.475  24.292  1.00  0.00     0.009 A 
ATOM     31  C   UNL A   1      32.464  17.611  25.745  1.00  0.00     0.004 A 
ATOM     32  C   UNL A   1      34.505  17.111  24.547  1.00  0.00     0.004 A 
ATOM     33  C   UNL A   1      33.382  16.671  25.267  1.00  0.00    -0.051 A 
ATOM     34  C   UNL A   1      33.130  15.216  25.527  1.00  0.00     0.044 C 
ENDBRANCH  20  28
ENDBRANCH  15  18
ENDBRANCH   7  14
ENDBRANCH   3   6
ENDBRANCH   1   2
BRANCH   1  35
ATOM     35  C   UNL A   1      32.195  31.249  26.858  1.00  0.00     0.042 C 
BRANCH  35  36
ATOM     36  C   UNL A   1      33.182  32.238  27.443  1.00  0.00     0.118 C 
BRANCH  36  37
ATOM     37  N   UNL A   1      32.665  33.602  27.637  1.00  0.00    -0.352 N 
ATOM     38  C   UNL A   1      33.080  34.618  28.477  1.00  0.00     0.251 C 
ATOM     39  H   UNL A   1      31.892  33.831  27.072  1.00  0.00     0.163 HD
ATOM     40  O   UNL A   1      32.474  35.685  28.508  1.00  0.00    -0.269 OA
BRANCH  38  41
ATOM     41  C   UNL A   1      34.220  34.389  29.384  1.00  0.00     0.039 A 
ATOM     42  C   UNL A   1      34.007  33.850  30.655  1.00  0.00     0.014 A 
ATOM     43  C   UNL A   1      35.514  34.592  28.920  1.00  0.00     0.014 A 
ATOM     44  C   UNL A   1      35.098  33.378  31.390  1.00  0.00     0.010 A 
ATOM     45  C   UNL A   1      36.559  33.950  29.553  1.00  0.00     0.010 A 
ATOM     46  C   UNL A   1      36.374  33.352  30.807  1.00  0.00    -0.014 A 
BRANCH  46  47
ATOM     47  C   UNL A   1      37.553  32.741  31.470  1.00  0.00     0.031 A 
ATOM     48  C   UNL A   1      38.253  31.586  30.801  1.00  0.00     0.074 A 
ATOM     49  C   UNL A   1      37.908  33.122  32.714  1.00  0.00     0.049 A 
ATOM     50  N   UNL A   1      39.170  30.782  31.275  1.00  0.00    -0.248 NA
ATOM     51  C   UNL A   1      37.810  31.245  29.438  1.00  0.00     0.031 C 
ATOM     52  C   UNL A   1      37.255  34.168  33.504  1.00  0.00     0.029 A 
ATOM     53  N   UNL A   1      38.898  32.655  33.541  1.00  0.00    -0.354 N 
ATOM     54  C   UNL A   1      39.364  29.820  30.292  1.00  0.00     0.074 A 
ATOM     55  C   UNL A   1      38.415  30.087  29.237  1.00  0.00     0.031 C 
ATOM     56  C   UNL A   1      37.883  34.286  34.685  1.00  0.00     0.029 A 
ATOM     57  C   UNL A   1      38.948  33.292  34.757  1.00  0.00     0.049 A 
ATOM     58  H   UNL A   1      39.515  31.930  33.288  1.00  0.00     0.167 HD
ATOM     59  C   UNL A   1      40.281  28.825  30.251  1.00  0.00     0.037 A 
ATOM     60  C   UNL A   1      39.760  33.090  35.813  1.00  0.00     0.037 A 
ATOM     61  C   UNL A   1      41.269  28.616  31.272  1.00  0.00     0.049 A 
ATOM     62  C   UNL A   1      40.811  32.017  35.726  1.00  0.00     0.074 A 
ATOM     63  C   UNL A   1      42.314  27.711  31.289  1.00  0.00     0.029 A 
ATOM     64  N   UNL A   1      41.335  29.331  32.460  1.00  0.00    -0.354 N 
ATOM     65  N   UNL A   1      41.047  31.167  34.754  1.00  0.00    -0.248 NA
ATOM     66  C   UNL A   1      41.715  31.880  36.875  1.00  0.00     0.031 C 
ATOM     67  C   UNL A   1      42.984  27.846  32.508  1.00  0.00     0.029 A 
ATOM     68  C   UNL A   1      42.392  28.873  33.227  1.00  0.00     0.049 A 
ATOM     69  H   UNL A   1      40.721  30.057  32.718  1.00  0.00     0.167 HD
ATOM     70  C   UNL A   1      42.140  30.415  35.161  1.00  0.00     0.074 A 
ATOM     71  C   UNL A   1      42.530  30.918  36.462  1.00  0.00     0.031 C 
ATOM     72  C   UNL A   1      42.766  29.400  34.516  1.00  0.00     0.037 A 
BRANCH  59  73
ATOM     73  C   UNL A   1      40.260  27.909  29.061  1.00  0.00     0.064 A 
ATOM     74  C   UNL A   1      39.522  26.714  29.056  1.00  0.00     0.173 A 
ATOM     75  C   UNL A   1      40.988  28.231  27.906  1.00  0.00     0.173 A 
ATOM     76  F   UNL A   1      38.820  26.348  30.140  1.00  0.00    -0.203 F 
ATOM     77  C   UNL A   1      39.554  25.854  27.962  1.00  0.00     0.198 A 
ATOM     78  C   UNL A   1      40.984  27.388  26.797  1.00  0.00     0.198 A 
ATOM     79  F   UNL A   1      41.707  29.361  27.852  1.00  0.00    -0.203 F 
ATOM     80  F   UNL A   1      38.902  24.684  28.013  1.00  0.00    -0.200 F 
ATOM     81  C   UNL A   1      40.278  26.195  26.830  1.00  0.00     0.200 A 
ATOM     82  F   UNL A   1      41.675  27.725  25.699  1.00  0.00    -0.200 F 
ATOM     83  F   UNL A   1      40.306  25.368  25.777  1.00  0.00    -0.200 F 
ENDBRANCH  59  73
BRANCH  60  84
ATOM     84  C   UNL A   1      39.632  33.946  37.022  1.00  0.00     0.064 A 
ATOM     85  C   UNL A   1      40.254  35.202  37.082  1.00  0.00     0.173 A 
ATOM     86  C   UNL A   1      38.871  33.544  38.129  1.00  0.00     0.173 A 
ATOM     87  F   UNL A   1      41.005  35.626  36.056  1.00  0.00    -0.203 F 
ATOM     88  C   UNL A   1      40.135  36.012  38.210  1.00  0.00     0.198 A 
ATOM     89  C   UNL A   1      38.730  34.366  39.245  1.00  0.00     0.198 A 
ATOM     90  F   UNL A   1      38.247  32.356  38.118  1.00  0.00    -0.203 F 
ATOM     91  F   UNL A   1      40.773  37.190  38.256  1.00  0.00    -0.200 F 
ATOM     92  C   UNL A   1      39.368  35.597  39.287  1.00  0.00     0.200 A 
ATOM     93  F   UNL A   1      37.973  33.969  40.277  1.00  0.00    -0.200 F 
ATOM     94  F   UNL A   1      39.246  36.381  40.367  1.00  0.00    -0.200 F 
ENDBRANCH  60  84
BRANCH  72  95
ATOM     95  C   UNL A   1      43.963  28.790  35.186  1.00  0.00     0.064 A 
ATOM     96  C   UNL A   1      43.845  27.690  36.046  1.00  0.00     0.173 A 
ATOM     97  C   UNL A   1      45.249  29.281  34.913  1.00  0.00     0.173 A 
ATOM     98  F   UNL A   1      42.636  27.193  36.347  1.00  0.00    -0.203 F 
ATOM     99  C   UNL A   1      44.973  27.116  36.628  1.00  0.00     0.198 A 
ATOM    100  C   UNL A   1      46.376  28.684  35.471  1.00  0.00     0.198 A 
ATOM    101  F   UNL A   1      45.415  30.326  34.090  1.00  0.00    -0.203 F 
ATOM    102  F   UNL A   1      44.834  26.093  37.483  1.00  0.00    -0.200 F 
ATOM    103  C   UNL A   1      46.236  27.607  36.333  1.00  0.00     0.200 A 
ATOM    104  F   UNL A   1      47.596  29.149  35.171  1.00  0.00    -0.200 F 
ATOM    105  F   UNL A   1      47.320  27.045  36.884  1.00  0.00    -0.200 F 
ENDBRANCH  72  95
ENDBRANCH  46  47
ENDBRANCH  38  41
ENDBRANCH  36  37
ENDBRANCH  35  36
ENDBRANCH   1  35
TORSDOF 15
ENDMDL
MODEL 2
REMARK VINA RESULT:     -14.2      0.480      7.005
REMARK SMILES COC(=O)c1c(NC(=O)[C@@H]2[C@H]3CC[C@H](CC3)[C@H]2C(=O)NCCCNC(=O)c2ccc(-c3c4nc(c(-c5c(F)c(F)c(F)c(F)c5F)c5ccc([nH]5)c(-c5c(F)c(F)c(F)c(F)c5F)c5nc(c(-c6c(F)c(F)c(F)c(F)c6F)c6ccc3[nH]6)C=C5)C=C4)cc2)sc(C)c1-c1ccc(C)cc1
REMARK SMILES IDX 21 1 20 2 18 3 19 4 17 6 10 7 11 8 16 9 12 10 14 11 15 12
REMARK SMILES IDX 13 13 8 14 7 15 9 17 6 18 5 19 93 20 90 21 91 22 92 23 3 24
REMARK SMILES IDX 4 25 2 26 1 27 94 28 95 29 100 30 96 31 99 32 97 33 98 34
REMARK SMILES IDX 22 35 23 36 24 37 25 38 26 40 27 41 28 42 89 43 29 44 88 45
REMARK SMILES IDX 30 46 31 47 32 48 82 49 33 50 87 51 81 52 83 53 34 54 86 55
REMARK SMILES IDX 80 56 79 57 35 59 67 60 47 61 66 62 48 63 51 64 65 65 84 66
REMARK SMILES IDX 49 67 50 68 64 70 85 71 52 72 36 73 37 74 45 75 38 76 39 77
REMARK SMILES IDX 43 78 46 79 40 80 41 81 44 82 42 83 68 84 69 85 77 86 70 87
REMARK SMILES IDX 71 88 75 89 78 90 72 91 73 92 76 93 74 94 53 95 54 96 62 97
REMARK SMILES IDX 55 98 56 99 60 100 63 101 57 102 58 103 61 104 59 105
REMARK H PARENT 20 5 7 16 24 39 83 58 51 69
REMARK Flexibility Score: inf
ROOT
ATOM      1  C   UNL A   1      32.283  30.404  26.622  1.00  0.00     0.117 C 
ENDROOT
BRANCH   1   2
ATOM      2  N   UNL A   1      31.583  29.308  27.197  1.00  0.00    -0.356 N 
ATOM      3  C   UNL A   1      31.441  28.073  26.619  1.00  0.00     0.224 C 
ATOM      4  O   UNL A   1      31.083  27.163  27.376  1.00  0.00    -0.275 OA
ATOM      5  H   UNL A   1      31.169  29.447  28.079  1.00  0.00     0.163 HD
BRANCH   3   6
ATOM      6  C   UNL A   1      31.730  27.757  25.109  1.00  0.00     0.094 C 
ATOM      7  C   UNL A   1      31.901  26.269  24.694  1.00  0.00     0.094 C 
ATOM      8  C   UNL A   1      30.847  25.894  23.590  1.00  0.00     0.002 C 
ATOM      9  C   UNL A   1      29.390  26.386  23.703  1.00  0.00     0.005 C 
ATOM     10  C   UNL A   1      31.246  26.663  22.366  1.00  0.00     0.005 C 
ATOM     11  C   UNL A   1      30.824  28.464  24.054  1.00  0.00     0.002 C 
ATOM     12  C   UNL A   1      29.385  27.922  23.891  1.00  0.00     0.005 C 
ATOM     13  C   UNL A   1      31.471  28.153  22.690  1.00  0.00     0.005 C 
BRANCH   7  14
ATOM     14  C   UNL A   1      33.454  25.862  24.469  1.00  0.00     0.229 C 
ATOM     15  N   UNL A   1      34.129  24.673  24.275  1.00  0.00    -0.317 N 
ATOM     16  H   UNL A   1      35.084  24.827  24.092  1.00  0.00     0.170 HD
ATOM     17  O   UNL A   1      34.213  26.850  24.338  1.00  0.00    -0.274 OA
BRANCH  15  18
ATOM     18  C   UNL A   1      33.825  23.315  24.270  1.00  0.00     0.111 A 
ATOM     19  C   UNL A   1      34.294  22.204  25.002  1.00  0.00     0.102 A 
ATOM     20  C   UNL A   1      33.756  20.992  24.376  1.00  0.00     0.012 A 
ATOM     21  S   UNL A   1      32.122  22.811  24.221  1.00  0.00    -0.122 S 
ATOM     22  C   UNL A   1      32.735  21.351  23.506  1.00  0.00     0.012 A 
ATOM     23  C   UNL A   1      32.051  20.594  22.422  1.00  0.00     0.057 C 
BRANCH  19  24
ATOM     24  C   UNL A   1      35.107  22.304  26.202  1.00  0.00     0.341 C 
ATOM     25  O   UNL A   1      36.106  23.018  26.267  1.00  0.00    -0.246 OA
BRANCH  24  26
ATOM     26  O   UNL A   1      34.563  21.642  27.257  1.00  0.00    -0.465 OA
ATOM     27  C   UNL A   1      33.390  22.227  27.819  1.00  0.00     0.282 C 
ENDBRANCH  24  26
ENDBRANCH  19  24
BRANCH  20  28
ATOM     28  C   UNL A   1      33.780  19.592  24.777  1.00  0.00    -0.016 A 
ATOM     29  C   UNL A   1      32.677  19.127  25.509  1.00  0.00     0.009 A 
ATOM     30  C   UNL A   1      34.709  18.683  24.271  1.00  0.00     0.009 A 
ATOM     31  C   UNL A   1      32.492  17.767  25.722  1.00  0.00     0.004 A 
ATOM     32  C   UNL A   1      34.527  17.312  24.496  1.00  0.00     0.004 A 
ATOM     33  C   UNL A   1      33.414  16.847  25.215  1.00  0.00    -0.051 A 
ATOM     34  C   UNL A   1      33.177  15.384  25.443  1.00  0.00     0.044 C 
ENDBRANCH  20  28
ENDBRANCH  15  18
ENDBRANCH   7  14
ENDBRANCH   3   6
ENDBRANCH   1   2
BRANCH   1  35
ATOM     35  C   UNL A   1      31.815  31.816  26.840  1.00  0.00     0.042 C 
BRANCH  35  36
ATOM     36  C   UNL A   1      32.927  32.726  27.317  1.00  0.00     0.118 C 
BRANCH  36  37
ATOM     37  N   UNL A   1      32.508  34.087  27.694  1.00  0.00    -0.352 N 
ATOM     38  C   UNL A   1      32.997  34.953  28.653  1.00  0.00     0.251 C 
ATOM     39  H   UNL A   1      31.750  34.440  27.175  1.00  0.00     0.163 HD
ATOM     40  O   UNL A   1      32.469  36.046  28.831  1.00  0.00    -0.269 OA
BRANCH  38  41
ATOM     41  C   UNL A   1      34.123  34.529  29.507  1.00  0.00     0.039 A 
ATOM     42  C   UNL A   1      33.877  33.952  30.755  1.00  0.00     0.014 A 
ATOM     43  C   UNL A   1      35.419  34.589  29.009  1.00  0.00     0.014 A 
ATOM     44  C   UNL A   1      34.917  33.304  31.426  1.00  0.00     0.010 A 
ATOM     45  C   UNL A   1      36.389  33.784  29.571  1.00  0.00     0.010 A 
ATOM     46  C   UNL A   1      36.163  33.146  30.798  1.00  0.00    -0.014 A 
BRANCH  46  47
ATOM     47  C   UNL A   1      37.270  32.352  31.388  1.00  0.00     0.031 A 
ATOM     48  C   UNL A   1      37.781  32.714  32.758  1.00  0.00     0.074 A 
ATOM     49  C   UNL A   1      37.899  31.412  30.654  1.00  0.00     0.049 A 
ATOM     50  N   UNL A   1      38.850  32.294  33.385  1.00  0.00    -0.248 NA
ATOM     51  C   UNL A   1      37.026  33.744  33.495  1.00  0.00     0.031 C 
ATOM     52  C   UNL A   1      37.556  31.030  29.283  1.00  0.00     0.029 A 
ATOM     53  N   UNL A   1      38.977  30.620  30.956  1.00  0.00    -0.354 N 
ATOM     54  C   UNL A   1      38.916  33.045  34.551  1.00  0.00     0.074 A 
ATOM     55  C   UNL A   1      37.836  34.002  34.507  1.00  0.00     0.031 C 
ATOM     56  C   UNL A   1      38.384  30.054  28.876  1.00  0.00     0.029 A 
ATOM     57  C   UNL A   1      39.347  29.776  29.936  1.00  0.00     0.049 A 
ATOM     58  H   UNL A   1      39.444  30.652  31.823  1.00  0.00     0.167 HD
ATOM     59  C   UNL A   1      39.776  32.921  35.590  1.00  0.00     0.037 A 
ATOM     60  C   UNL A   1      40.355  28.886  29.865  1.00  0.00     0.037 A 
ATOM     61  C   UNL A   1      40.799  31.916  35.656  1.00  0.00     0.049 A 
ATOM     62  C   UNL A   1      41.265  28.723  31.052  1.00  0.00     0.074 A 
ATOM     63  C   UNL A   1      41.658  31.626  36.700  1.00  0.00     0.029 A 
ATOM     64  N   UNL A   1      41.097  31.029  34.630  1.00  0.00    -0.354 N 
ATOM     65  N   UNL A   1      41.266  29.377  32.189  1.00  0.00    -0.248 NA
ATOM     66  C   UNL A   1      42.306  27.693  30.951  1.00  0.00     0.031 C 
ATOM     67  C   UNL A   1      42.507  30.595  36.289  1.00  0.00     0.029 A 
ATOM     68  C   UNL A   1      42.141  30.204  35.010  1.00  0.00     0.049 A 
ATOM     69  H   UNL A   1      40.633  30.993  33.762  1.00  0.00     0.167 HD
ATOM     70  C   UNL A   1      42.286  28.821  32.949  1.00  0.00     0.074 A 
ATOM     71  C   UNL A   1      42.874  27.767  32.148  1.00  0.00     0.031 C 
ATOM     72  C   UNL A   1      42.700  29.153  34.197  1.00  0.00     0.037 A 
BRANCH  59  73
ATOM     73  C   UNL A   1      39.629  33.886  36.732  1.00  0.00     0.064 A 
ATOM     74  C   UNL A   1      40.248  35.147  36.724  1.00  0.00     0.173 A 
ATOM     75  C   UNL A   1      38.857  33.546  37.852  1.00  0.00     0.173 A 
ATOM     76  F   UNL A   1      41.012  35.519  35.684  1.00  0.00    -0.203 F 
ATOM     77  C   UNL A   1      40.141  36.007  37.813  1.00  0.00     0.198 A 
ATOM     78  C   UNL A   1      38.718  34.426  38.922  1.00  0.00     0.198 A 
ATOM     79  F   UNL A   1      38.239  32.357  37.913  1.00  0.00    -0.203 F 
ATOM     80  F   UNL A   1      40.804  37.173  37.811  1.00  0.00    -0.200 F 
ATOM     81  C   UNL A   1      39.370  35.650  38.907  1.00  0.00     0.200 A 
ATOM     82  F   UNL A   1      37.962  34.085  39.975  1.00  0.00    -0.200 F 
ATOM     83  F   UNL A   1      39.265  36.480  39.954  1.00  0.00    -0.200 F 
ENDBRANCH  59  73
BRANCH  60  84
ATOM     84  C   UNL A   1      40.528  28.059  28.641  1.00  0.00     0.064 A 
ATOM     85  C   UNL A   1      39.901  26.810  28.524  1.00  0.00     0.173 A 
ATOM     86  C   UNL A   1      41.300  28.503  27.559  1.00  0.00     0.173 A 
ATOM     87  F   UNL A   1      39.165  26.333  29.538  1.00  0.00    -0.203 F 
ATOM     88  C   UNL A   1      40.056  26.030  27.379  1.00  0.00     0.198 A 
ATOM     89  C   UNL A   1      41.432  27.736  26.403  1.00  0.00     0.198 A 
ATOM     90  F   UNL A   1      41.913  29.695  27.616  1.00  0.00    -0.203 F 
ATOM     91  F   UNL A   1      39.478  24.823  27.310  1.00  0.00    -0.200 F 
ATOM     92  C   UNL A   1      40.815  26.497  26.317  1.00  0.00     0.200 A 
ATOM     93  F   UNL A   1      42.152  28.198  25.372  1.00  0.00    -0.200 F 
ATOM     94  F   UNL A   1      40.954  25.752  25.212  1.00  0.00    -0.200 F 
ENDBRANCH  60  84
BRANCH  72  95
ATOM     95  C   UNL A   1      43.814  28.342  34.793  1.00  0.00     0.064 A 
ATOM     96  C   UNL A   1      43.567  27.153  35.493  1.00  0.00     0.173 A 
ATOM     97  C   UNL A   1      45.148  28.735  34.607  1.00  0.00     0.173 A 
ATOM     98  F   UNL A   1      42.307  26.744  35.707  1.00  0.00    -0.203 F 
ATOM     99  C   UNL A   1      44.617  26.397  36.005  1.00  0.00     0.198 A 
ATOM    100  C   UNL A   1      46.196  27.958  35.093  1.00  0.00     0.198 A 
ATOM    101  F   UNL A   1      45.437  29.859  33.937  1.00  0.00    -0.203 F 
ATOM    102  F   UNL A   1      44.358  25.287  36.710  1.00  0.00    -0.200 F 
ATOM    103  C   UNL A   1      45.930  26.794  35.797  1.00  0.00     0.200 A 
ATOM    104  F   UNL A   1      47.464  28.335  34.875  1.00  0.00    -0.200 F 
ATOM    105  F   UNL A   1      46.939  26.057  36.281  1.00  0.00    -0.200 F 
ENDBRANCH  72  95
ENDBRANCH  46  47
ENDBRANCH  38  41
ENDBRANCH  36  37
ENDBRANCH  35  36
ENDBRANCH   1  35
TORSDOF 15
ENDMDL
MODEL 3
REMARK VINA RESULT:     -13.4      1.183      2.098
REMARK SMILES COC(=O)c1c(NC(=O)[C@@H]2[C@H]3CC[C@H](CC3)[C@H]2C(=O)NCCCNC(=O)c2ccc(-c3c4nc(c(-c5c(F)c(F)c(F)c(F)c5F)c5ccc([nH]5)c(-c5c(F)c(F)c(F)c(F)c5F)c5nc(c(-c6c(F)c(F)c(F)c(F)c6F)c6ccc3[nH]6)C=C5)C=C4)cc2)sc(C)c1-c1ccc(C)cc1
REMARK SMILES IDX 21 1 20 2 18 3 19 4 17 6 10 7 11 8 16 9 12 10 14 11 15 12
REMARK SMILES IDX 13 13 8 14 7 15 9 17 6 18 5 19 93 20 90 21 91 22 92 23 3 24
REMARK SMILES IDX 4 25 2 26 1 27 94 28 95 29 100 30 96 31 99 32 97 33 98 34
REMARK SMILES IDX 22 35 23 36 24 37 25 38 26 40 27 41 28 42 89 43 29 44 88 45
REMARK SMILES IDX 30 46 31 47 32 48 82 49 33 50 87 51 81 52 83 53 34 54 86 55
REMARK SMILES IDX 80 56 79 57 35 59 67 60 47 61 66 62 48 63 51 64 65 65 84 66
REMARK SMILES IDX 49 67 50 68 64 70 85 71 52 72 36 73 37 74 45 75 38 76 39 77
REMARK SMILES IDX 43 78 46 79 40 80 41 81 44 82 42 83 68 84 69 85 77 86 70 87
REMARK SMILES IDX 71 88 75 89 78 90 72 91 73 92 76 93 74 94 53 95 54 96 62 97
REMARK SMILES IDX 55 98 56 99 60 100 63 101 57 102 58 103 61 104 59 105
REMARK H PARENT 20 5 7 16 24 39 83 58 51 69
REMARK Flexibility Score: inf
ROOT
ATOM      1  C   UNL A   1      32.283  29.006  27.194  1.00  0.00     0.117 C 
ENDROOT
BRANCH   1   2
ATOM      2  N   UNL A   1      31.568  27.813  27.486  1.00  0.00    -0.356 N 
ATOM      3  C   UNL A   1      31.467  26.731  26.651  1.00  0.00     0.224 C 
ATOM      4  O   UNL A   1      31.082  25.680  27.177  1.00  0.00    -0.275 OA
ATOM      5  H   UNL A   1      31.111  27.759  28.356  1.00  0.00     0.163 HD
BRANCH   3   6
ATOM      6  C   UNL A   1      31.830  26.745  25.123  1.00  0.00     0.094 C 
ATOM      7  C   UNL A   1      31.943  25.382  24.387  1.00  0.00     0.094 C 
ATOM      8  C   UNL A   1      30.941  25.340  23.177  1.00  0.00     0.002 C 
ATOM      9  C   UNL A   1      29.509  25.893  23.331  1.00  0.00     0.005 C 
ATOM     10  C   UNL A   1      31.457  26.338  22.182  1.00  0.00     0.005 C 
ATOM     11  C   UNL A   1      31.033  27.734  24.217  1.00  0.00     0.002 C 
ATOM     12  C   UNL A   1      29.578  27.343  23.866  1.00  0.00     0.005 C 
ATOM     13  C   UNL A   1      31.744  27.696  22.851  1.00  0.00     0.005 C 
BRANCH   7  14
ATOM     14  C   UNL A   1      33.483  24.932  24.148  1.00  0.00     0.229 C 
ATOM     15  N   UNL A   1      34.123  23.723  23.956  1.00  0.00    -0.317 N 
ATOM     16  H   UNL A   1      35.079  23.849  23.761  1.00  0.00     0.170 HD
ATOM     17  O   UNL A   1      34.266  25.897  24.001  1.00  0.00    -0.274 OA
BRANCH  15  18
ATOM     18  C   UNL A   1      33.781  22.374  23.965  1.00  0.00     0.111 A 
ATOM     19  C   UNL A   1      34.176  21.270  24.749  1.00  0.00     0.102 A 
ATOM     20  C   UNL A   1      33.642  20.057  24.121  1.00  0.00     0.012 A 
ATOM     21  S   UNL A   1      32.072  21.914  23.828  1.00  0.00    -0.122 S 
ATOM     22  C   UNL A   1      32.684  20.421  23.184  1.00  0.00     0.012 A 
ATOM     23  C   UNL A   1      32.044  19.655  22.080  1.00  0.00     0.057 C 
BRANCH  19  24
ATOM     24  C   UNL A   1      34.920  21.378  25.993  1.00  0.00     0.341 C 
ATOM     25  O   UNL A   1      36.149  21.373  26.030  1.00  0.00    -0.246 OA
BRANCH  24  26
ATOM     26  O   UNL A   1      34.117  21.621  27.062  1.00  0.00    -0.465 OA
ATOM     27  C   UNL A   1      34.134  22.957  27.559  1.00  0.00     0.282 C 
ENDBRANCH  24  26
ENDBRANCH  19  24
BRANCH  20  28
ATOM     28  C   UNL A   1      33.604  18.667  24.555  1.00  0.00    -0.016 A 
ATOM     29  C   UNL A   1      32.673  18.345  25.554  1.00  0.00     0.009 A 
ATOM     30  C   UNL A   1      34.265  17.649  23.869  1.00  0.00     0.009 A 
ATOM     31  C   UNL A   1      32.392  17.019  25.857  1.00  0.00     0.004 A 
ATOM     32  C   UNL A   1      33.988  16.312  24.184  1.00  0.00     0.004 A 
ATOM     33  C   UNL A   1      33.044  15.990  25.172  1.00  0.00    -0.051 A 
ATOM     34  C   UNL A   1      32.705  14.568  25.507  1.00  0.00     0.044 C 
ENDBRANCH  20  28
ENDBRANCH  15  18
ENDBRANCH   7  14
ENDBRANCH   3   6
ENDBRANCH   1   2
BRANCH   1  35
ATOM     35  C   UNL A   1      31.554  30.279  26.862  1.00  0.00     0.042 C 
BRANCH  35  36
ATOM     36  C   UNL A   1      32.490  31.378  26.403  1.00  0.00     0.118 C 
BRANCH  36  37
ATOM     37  N   UNL A   1      32.318  32.674  27.080  1.00  0.00    -0.352 N 
ATOM     38  C   UNL A   1      33.160  33.375  27.921  1.00  0.00     0.251 C 
ATOM     39  H   UNL A   1      31.457  33.117  26.903  1.00  0.00     0.163 HD
ATOM     40  O   UNL A   1      32.800  34.440  28.414  1.00  0.00    -0.269 OA
BRANCH  38  41
ATOM     41  C   UNL A   1      34.474  32.805  28.274  1.00  0.00     0.039 A 
ATOM     42  C   UNL A   1      35.622  33.597  28.205  1.00  0.00     0.014 A 
ATOM     43  C   UNL A   1      34.543  31.520  28.795  1.00  0.00     0.014 A 
ATOM     44  C   UNL A   1      36.802  33.145  28.801  1.00  0.00     0.010 A 
ATOM     45  C   UNL A   1      35.641  31.163  29.551  1.00  0.00     0.010 A 
ATOM     46  C   UNL A   1      36.796  31.957  29.550  1.00  0.00    -0.014 A 
BRANCH  46  47
ATOM     47  C   UNL A   1      37.970  31.484  30.324  1.00  0.00     0.031 A 
ATOM     48  C   UNL A   1      38.904  30.481  29.699  1.00  0.00     0.074 A 
ATOM     49  C   UNL A   1      38.123  31.842  31.616  1.00  0.00     0.049 A 
ATOM     50  N   UNL A   1      39.871  29.790  30.246  1.00  0.00    -0.248 NA
ATOM     51  C   UNL A   1      38.672  30.157  28.280  1.00  0.00     0.031 C 
ATOM     52  C   UNL A   1      37.237  32.738  32.363  1.00  0.00     0.029 A 
ATOM     53  N   UNL A   1      39.072  31.475  32.536  1.00  0.00    -0.354 N 
ATOM     54  C   UNL A   1      40.314  28.922  29.257  1.00  0.00     0.074 A 
ATOM     55  C   UNL A   1      39.461  29.111  28.108  1.00  0.00     0.031 C 
ATOM     56  C   UNL A   1      37.704  32.877  33.614  1.00  0.00     0.029 A 
ATOM     57  C   UNL A   1      38.891  32.043  33.774  1.00  0.00     0.049 A 
ATOM     58  H   UNL A   1      39.814  30.861  32.330  1.00  0.00     0.167 HD
ATOM     59  C   UNL A   1      41.368  28.073  29.286  1.00  0.00     0.037 A 
ATOM     60  C   UNL A   1      39.600  31.900  34.909  1.00  0.00     0.037 A 
ATOM     61  C   UNL A   1      42.255  27.949  30.409  1.00  0.00     0.049 A 
ATOM     62  C   UNL A   1      40.802  30.994  34.906  1.00  0.00     0.074 A 
ATOM     63  C   UNL A   1      43.414  27.203  30.515  1.00  0.00     0.029 A 
ATOM     64  N   UNL A   1      42.080  28.599  31.623  1.00  0.00    -0.354 N 
ATOM     65  N   UNL A   1      41.268  30.243  33.937  1.00  0.00    -0.248 NA
ATOM     66  C   UNL A   1      41.581  30.923  36.148  1.00  0.00     0.031 C 
ATOM     67  C   UNL A   1      43.915  27.363  31.809  1.00  0.00     0.029 A 
ATOM     68  C   UNL A   1      43.101  28.254  32.492  1.00  0.00     0.049 A 
ATOM     69  H   UNL A   1      41.341  29.213  31.834  1.00  0.00     0.167 HD
ATOM     70  C   UNL A   1      42.408  29.632  34.441  1.00  0.00     0.074 A 
ATOM     71  C   UNL A   1      42.571  30.112  35.798  1.00  0.00     0.031 C 
ATOM     72  C   UNL A   1      43.246  28.754  33.836  1.00  0.00     0.037 A 
BRANCH  59  73
ATOM     73  C   UNL A   1      41.616  27.231  28.067  1.00  0.00     0.064 A 
ATOM     74  C   UNL A   1      42.418  27.680  27.005  1.00  0.00     0.173 A 
ATOM     75  C   UNL A   1      41.044  25.955  27.958  1.00  0.00     0.173 A 
ATOM     76  F   UNL A   1      42.979  28.899  27.049  1.00  0.00    -0.203 F 
ATOM     77  C   UNL A   1      42.597  26.905  25.862  1.00  0.00     0.198 A 
ATOM     78  C   UNL A   1      41.258  25.166  26.831  1.00  0.00     0.198 A 
ATOM     79  F   UNL A   1      40.271  25.473  28.943  1.00  0.00    -0.203 F 
ATOM     80  F   UNL A   1      43.306  27.389  24.832  1.00  0.00    -0.200 F 
ATOM     81  C   UNL A   1      42.024  25.646  25.779  1.00  0.00     0.200 A 
ATOM     82  F   UNL A   1      40.714  23.944  26.757  1.00  0.00    -0.200 F 
ATOM     83  F   UNL A   1      42.199  24.901  24.680  1.00  0.00    -0.200 F 
ENDBRANCH  59  73
BRANCH  60  84
ATOM     84  C   UNL A   1      39.211  32.660  36.127  1.00  0.00     0.064 A 
ATOM     85  C   UNL A   1      38.339  32.103  37.073  1.00  0.00     0.173 A 
ATOM     86  C   UNL A   1      39.716  33.942  36.383  1.00  0.00     0.173 A 
ATOM     87  F   UNL A   1      37.817  30.885  36.867  1.00  0.00    -0.203 F 
ATOM     88  C   UNL A   1      37.972  32.807  38.219  1.00  0.00     0.198 A 
ATOM     89  C   UNL A   1      39.371  34.635  37.543  1.00  0.00     0.198 A 
ATOM     90  F   UNL A   1      40.562  34.517  35.515  1.00  0.00    -0.203 F 
ATOM     91  F   UNL A   1      37.106  32.266  39.087  1.00  0.00    -0.200 F 
ATOM     92  C   UNL A   1      38.495  34.069  38.456  1.00  0.00     0.200 A 
ATOM     93  F   UNL A   1      39.891  35.848  37.777  1.00  0.00    -0.200 F 
ATOM     94  F   UNL A   1      38.150  34.742  39.563  1.00  0.00    -0.200 F 
ENDBRANCH  60  84
BRANCH  72  95
ATOM     95  C   UNL A   1      44.437  28.285  34.619  1.00  0.00     0.064 A 
ATOM     96  C   UNL A   1      44.401  27.109  35.381  1.00  0.00     0.173 A 
ATOM     97  C   UNL A   1      45.646  28.995  34.556  1.00  0.00     0.173 A 
ATOM     98  F   UNL A   1      43.265  26.403  35.482  1.00  0.00    -0.203 F 
ATOM     99  C   UNL A   1      45.529  26.672  36.070  1.00  0.00     0.198 A 
ATOM    100  C   UNL A   1      46.780  28.537  35.220  1.00  0.00     0.198 A 
ATOM    101  F   UNL A   1      45.733  30.121  33.834  1.00  0.00    -0.203 F 
ATOM    102  F   UNL A   1      45.461  25.569  36.829  1.00  0.00    -0.200 F 
ATOM    103  C   UNL A   1      46.719  27.380  35.981  1.00  0.00     0.200 A 
ATOM    104  F   UNL A   1      47.933  29.213  35.119  1.00  0.00    -0.200 F 
ATOM    105  F   UNL A   1      47.806  26.949  36.636  1.00  0.00    -0.200 F 
ENDBRANCH  72  95
ENDBRANCH  46  47
ENDBRANCH  38  41
ENDBRANCH  36  37
ENDBRANCH  35  36
ENDBRANCH   1  35
TORSDOF 15
ENDMDL
