MODEL 1
REMARK VINA RESULT:     -10.5      0.000      0.000
REMARK SMILES Cc1onc(-c2cccc(Br)c2)c1C(=O)NCCCNC(=O)c1ccc(-c2c3nc(c(-c4c(F)c(F)c(F)c(F)c4F)c4ccc([nH]4)c(-c4c(F)c(F)c(F)c(F)c4F)c4nc(c(-c5c(F)c(F)c(F)c(F)c5F)c5ccc2[nH]5)C=C4)C=C3)cc1
REMARK SMILES IDX 18 1 17 2 16 3 14 4 15 5 13 7 1 8 2 9 3 10 4 11 5 12 6 13
REMARK SMILES IDX 7 14 12 15 8 16 10 17 9 18 11 19 19 20 20 21 21 22 22 24
REMARK SMILES IDX 23 25 24 26 85 27 25 28 84 29 26 30 27 31 28 32 78 33 29 34
REMARK SMILES IDX 83 35 77 36 79 37 30 38 82 39 76 40 75 41 31 43 63 44 43 45
REMARK SMILES IDX 62 46 44 47 47 48 61 49 80 50 45 51 46 52 60 54 81 55 48 56
REMARK SMILES IDX 32 57 33 58 41 59 34 60 35 61 39 62 42 63 36 64 37 65 40 66
REMARK SMILES IDX 38 67 64 68 65 69 73 70 66 71 67 72 71 73 74 74 68 75 69 76
REMARK SMILES IDX 72 77 70 78 49 79 50 80 58 81 51 82 52 83 56 84 59 85 53 86
REMARK SMILES IDX 54 87 57 88 55 89
REMARK H PARENT 16 6 20 23 79 42 47 53
REMARK Flexibility Score: inf
ROOT
ATOM      1  C   UNL A   1      34.251  33.404  29.353  1.00  0.00     0.042 C 
ENDROOT
BRANCH   1   2
ATOM      2  C   UNL A   1      34.972  32.700  30.503  1.00  0.00     0.118 C 
BRANCH   2   3
ATOM      3  N   UNL A   1      36.293  33.248  30.685  1.00  0.00    -0.352 N 
ATOM      4  C   UNL A   1      37.048  33.622  31.757  1.00  0.00     0.257 C 
ATOM      5  O   UNL A   1      38.149  34.077  31.425  1.00  0.00    -0.269 OA
ATOM      6  H   UNL A   1      36.763  33.386  29.831  1.00  0.00     0.163 HD
BRANCH   4   7
ATOM      7  C   UNL A   1      36.680  33.489  33.162  1.00  0.00     0.110 A 
ATOM      8  C   UNL A   1      34.859  35.295  33.965  1.00  0.00     0.092 C 
ATOM      9  C   UNL A   1      35.794  34.155  34.000  1.00  0.00     0.147 A 
ATOM     10  O   UNL A   1      35.820  33.584  35.235  1.00  0.00    -0.360 OA
ATOM     11  N   UNL A   1      36.737  32.580  35.279  1.00  0.00    -0.079 NA
ATOM     12  C   UNL A   1      37.292  32.529  34.064  1.00  0.00     0.126 A 
BRANCH  12  13
ATOM     13  C   UNL A   1      38.359  31.563  33.823  1.00  0.00     0.006 A 
ATOM     14  C   UNL A   1      39.686  31.861  34.166  1.00  0.00     0.010 A 
ATOM     15  C   UNL A   1      38.054  30.307  33.284  1.00  0.00     0.026 A 
ATOM     16  C   UNL A   1      40.702  30.934  33.933  1.00  0.00     0.002 A 
ATOM     17  C   UNL A   1      39.074  29.382  33.062  1.00  0.00     0.018 A 
ATOM     18  C   UNL A   1      40.396  29.692  33.377  1.00  0.00     0.016 A 
ATOM     19  Br  UNL A   1      38.658  27.691  32.325  1.00  0.00    -0.051 Br
ENDBRANCH  12  13
ENDBRANCH   4   7
ENDBRANCH   2   3
ENDBRANCH   1   2
BRANCH   1  20
ATOM     20  C   UNL A   1      34.448  32.734  27.996  1.00  0.00     0.118 C 
BRANCH  20  21
ATOM     21  N   UNL A   1      33.762  31.454  27.916  1.00  0.00    -0.352 N 
ATOM     22  C   UNL A   1      34.270  30.182  27.854  1.00  0.00     0.251 C 
ATOM     23  H   UNL A   1      32.780  31.509  27.904  1.00  0.00     0.163 HD
ATOM     24  O   UNL A   1      33.525  29.253  27.541  1.00  0.00    -0.269 OA
BRANCH  22  25
ATOM     25  C   UNL A   1      35.692  29.909  28.151  1.00  0.00     0.039 A 
ATOM     26  C   UNL A   1      36.630  30.035  27.122  1.00  0.00     0.014 A 
ATOM     27  C   UNL A   1      36.100  29.467  29.414  1.00  0.00     0.014 A 
ATOM     28  C   UNL A   1      37.978  29.765  27.368  1.00  0.00     0.010 A 
ATOM     29  C   UNL A   1      37.454  29.269  29.678  1.00  0.00     0.010 A 
ATOM     30  C   UNL A   1      38.405  29.406  28.656  1.00  0.00    -0.014 A 
BRANCH  30  31
ATOM     31  C   UNL A   1      39.840  29.159  28.949  1.00  0.00     0.031 A 
ATOM     32  C   UNL A   1      40.662  30.209  29.645  1.00  0.00     0.074 A 
ATOM     33  C   UNL A   1      40.414  28.016  28.531  1.00  0.00     0.049 A 
ATOM     34  N   UNL A   1      41.942  30.210  29.922  1.00  0.00    -0.248 NA
ATOM     35  C   UNL A   1      39.959  31.433  30.059  1.00  0.00     0.031 C 
ATOM     36  C   UNL A   1      39.731  26.942  27.808  1.00  0.00     0.029 A 
ATOM     37  N   UNL A   1      41.707  27.569  28.644  1.00  0.00    -0.354 N 
ATOM     38  C   UNL A   1      42.197  31.435  30.525  1.00  0.00     0.074 A 
ATOM     39  C   UNL A   1      40.953  32.172  30.527  1.00  0.00     0.031 C 
ATOM     40  C   UNL A   1      40.604  25.952  27.563  1.00  0.00     0.029 A 
ATOM     41  C   UNL A   1      41.915  26.336  28.075  1.00  0.00     0.049 A 
ATOM     42  H   UNL A   1      42.418  28.082  29.092  1.00  0.00     0.167 HD
ATOM     43  C   UNL A   1      43.360  31.894  31.046  1.00  0.00     0.037 A 
ATOM     44  C   UNL A   1      43.039  25.603  27.972  1.00  0.00     0.037 A 
ATOM     45  C   UNL A   1      44.589  31.142  31.066  1.00  0.00     0.049 A 
ATOM     46  C   UNL A   1      44.318  26.136  28.560  1.00  0.00     0.074 A 
ATOM     47  C   UNL A   1      45.804  31.490  31.628  1.00  0.00     0.029 A 
ATOM     48  N   UNL A   1      44.756  29.888  30.495  1.00  0.00    -0.354 N 
ATOM     49  N   UNL A   1      44.532  27.267  29.187  1.00  0.00    -0.248 NA
ATOM     50  C   UNL A   1      45.510  25.285  28.433  1.00  0.00     0.031 C 
ATOM     51  C   UNL A   1      46.721  30.468  31.358  1.00  0.00     0.029 A 
ATOM     52  C   UNL A   1      46.062  29.459  30.673  1.00  0.00     0.049 A 
ATOM     53  H   UNL A   1      44.052  29.380  30.033  1.00  0.00     0.167 HD
ATOM     54  C   UNL A   1      45.870  27.253  29.553  1.00  0.00     0.074 A 
ATOM     55  C   UNL A   1      46.416  25.992  29.092  1.00  0.00     0.031 C 
ATOM     56  C   UNL A   1      46.585  28.198  30.213  1.00  0.00     0.037 A 
BRANCH  43  57
ATOM     57  C   UNL A   1      43.362  33.273  31.640  1.00  0.00     0.064 A 
ATOM     58  C   UNL A   1      43.382  34.422  30.835  1.00  0.00     0.173 A 
ATOM     59  C   UNL A   1      43.304  33.450  33.031  1.00  0.00     0.173 A 
ATOM     60  F   UNL A   1      43.447  34.311  29.500  1.00  0.00    -0.203 F 
ATOM     61  C   UNL A   1      43.375  35.695  31.401  1.00  0.00     0.198 A 
ATOM     62  C   UNL A   1      43.265  34.724  33.592  1.00  0.00     0.198 A 
ATOM     63  F   UNL A   1      43.276  32.386  33.848  1.00  0.00    -0.203 F 
ATOM     64  F   UNL A   1      43.446  36.777  30.613  1.00  0.00    -0.200 F 
ATOM     65  C   UNL A   1      43.309  35.845  32.778  1.00  0.00     0.200 A 
ATOM     66  F   UNL A   1      43.189  34.867  34.922  1.00  0.00    -0.200 F 
ATOM     67  F   UNL A   1      43.296  37.071  33.320  1.00  0.00    -0.200 F 
ENDBRANCH  43  57
BRANCH  44  68
ATOM     68  C   UNL A   1      43.000  24.273  27.309  1.00  0.00     0.064 A 
ATOM     69  C   UNL A   1      43.335  24.136  25.954  1.00  0.00     0.173 A 
ATOM     70  C   UNL A   1      42.629  23.116  28.010  1.00  0.00     0.173 A 
ATOM     71  F   UNL A   1      43.677  25.218  25.237  1.00  0.00    -0.203 F 
ATOM     72  C   UNL A   1      43.282  22.897  25.321  1.00  0.00     0.198 A 
ATOM     73  C   UNL A   1      42.604  21.872  27.382  1.00  0.00     0.198 A 
ATOM     74  F   UNL A   1      42.307  23.192  29.309  1.00  0.00    -0.203 F 
ATOM     75  F   UNL A   1      43.564  22.802  24.015  1.00  0.00    -0.200 F 
ATOM     76  C   UNL A   1      42.922  21.765  26.036  1.00  0.00     0.200 A 
ATOM     77  F   UNL A   1      42.273  20.779  28.081  1.00  0.00    -0.200 F 
ATOM     78  F   UNL A   1      42.876  20.572  25.428  1.00  0.00    -0.200 F 
ENDBRANCH  44  68
BRANCH  56  79
ATOM     79  C   UNL A   1      48.025  27.890  30.507  1.00  0.00     0.064 A 
ATOM     80  C   UNL A   1      49.052  28.261  29.628  1.00  0.00     0.173 A 
ATOM     81  C   UNL A   1      48.381  27.248  31.702  1.00  0.00     0.173 A 
ATOM     82  F   UNL A   1      48.760  28.863  28.465  1.00  0.00    -0.203 F 
ATOM     83  C   UNL A   1      50.382  27.978  29.924  1.00  0.00     0.198 A 
ATOM     84  C   UNL A   1      49.715  26.994  32.009  1.00  0.00     0.198 A 
ATOM     85  F   UNL A   1      47.436  26.879  32.580  1.00  0.00    -0.203 F 
ATOM     86  F   UNL A   1      51.345  28.298  29.047  1.00  0.00    -0.200 F 
ATOM     87  C   UNL A   1      50.713  27.352  31.116  1.00  0.00     0.200 A 
ATOM     88  F   UNL A   1      50.033  26.402  33.169  1.00  0.00    -0.200 F 
ATOM     89  F   UNL A   1      51.995  27.087  31.403  1.00  0.00    -0.200 F 
ENDBRANCH  56  79
ENDBRANCH  30  31
ENDBRANCH  22  25
ENDBRANCH  20  21
ENDBRANCH   1  20
TORSDOF 11
ENDMDL
MODEL 2
REMARK VINA RESULT:     -10.4      0.319      1.741
REMARK SMILES Cc1onc(-c2cccc(Br)c2)c1C(=O)NCCCNC(=O)c1ccc(-c2c3nc(c(-c4c(F)c(F)c(F)c(F)c4F)c4ccc([nH]4)c(-c4c(F)c(F)c(F)c(F)c4F)c4nc(c(-c5c(F)c(F)c(F)c(F)c5F)c5ccc2[nH]5)C=C4)C=C3)cc1
REMARK SMILES IDX 18 1 17 2 16 3 14 4 15 5 13 7 1 8 2 9 3 10 4 11 5 12 6 13
REMARK SMILES IDX 7 14 12 15 8 16 10 17 9 18 11 19 19 20 20 21 21 22 22 24
REMARK SMILES IDX 23 25 24 26 85 27 25 28 84 29 26 30 27 31 28 32 78 33 29 34
REMARK SMILES IDX 83 35 77 36 79 37 30 38 82 39 76 40 75 41 31 43 63 44 43 45
REMARK SMILES IDX 62 46 44 47 47 48 61 49 80 50 45 51 46 52 60 54 81 55 48 56
REMARK SMILES IDX 32 57 33 58 41 59 34 60 35 61 39 62 42 63 36 64 37 65 40 66
REMARK SMILES IDX 38 67 64 68 65 69 73 70 66 71 67 72 71 73 74 74 68 75 69 76
REMARK SMILES IDX 72 77 70 78 49 79 50 80 58 81 51 82 52 83 56 84 59 85 53 86
REMARK SMILES IDX 54 87 57 88 55 89
REMARK H PARENT 16 6 20 23 79 42 47 53
REMARK Flexibility Score: inf
ROOT
ATOM      1  C   UNL A   1      34.301  33.548  29.118  1.00  0.00     0.042 C 
ENDROOT
BRANCH   1   2
ATOM      2  C   UNL A   1      34.876  32.892  30.374  1.00  0.00     0.118 C 
BRANCH   2   3
ATOM      3  N   UNL A   1      36.246  33.295  30.575  1.00  0.00    -0.352 N 
ATOM      4  C   UNL A   1      37.018  33.596  31.658  1.00  0.00     0.257 C 
ATOM      5  O   UNL A   1      38.168  33.925  31.342  1.00  0.00    -0.269 OA
ATOM      6  H   UNL A   1      36.742  33.373  29.729  1.00  0.00     0.163 HD
BRANCH   4   7
ATOM      7  C   UNL A   1      36.614  33.519  33.057  1.00  0.00     0.110 A 
ATOM      8  C   UNL A   1      34.783  35.363  33.744  1.00  0.00     0.092 C 
ATOM      9  C   UNL A   1      35.710  34.220  33.846  1.00  0.00     0.147 A 
ATOM     10  O   UNL A   1      35.701  33.697  35.102  1.00  0.00    -0.360 OA
ATOM     11  N   UNL A   1      36.612  32.691  35.208  1.00  0.00    -0.079 NA
ATOM     12  C   UNL A   1      37.196  32.591  34.010  1.00  0.00     0.126 A 
BRANCH  12  13
ATOM     13  C   UNL A   1      38.264  31.611  33.834  1.00  0.00     0.006 A 
ATOM     14  C   UNL A   1      39.576  31.902  34.236  1.00  0.00     0.010 A 
ATOM     15  C   UNL A   1      37.972  30.351  33.298  1.00  0.00     0.026 A 
ATOM     16  C   UNL A   1      40.593  30.961  34.064  1.00  0.00     0.002 A 
ATOM     17  C   UNL A   1      38.992  29.414  33.138  1.00  0.00     0.018 A 
ATOM     18  C   UNL A   1      40.301  29.715  33.512  1.00  0.00     0.016 A 
ATOM     19  Br  UNL A   1      38.595  27.716  32.405  1.00  0.00    -0.051 Br
ENDBRANCH  12  13
ENDBRANCH   4   7
ENDBRANCH   2   3
ENDBRANCH   1   2
BRANCH   1  20
ATOM     20  C   UNL A   1      34.604  32.788  27.830  1.00  0.00     0.118 C 
BRANCH  20  21
ATOM     21  N   UNL A   1      33.909  31.511  27.774  1.00  0.00    -0.352 N 
ATOM     22  C   UNL A   1      34.408  30.234  27.745  1.00  0.00     0.251 C 
ATOM     23  H   UNL A   1      32.928  31.573  27.752  1.00  0.00     0.163 HD
ATOM     24  O   UNL A   1      33.659  29.304  27.449  1.00  0.00    -0.269 OA
BRANCH  22  25
ATOM     25  C   UNL A   1      35.826  29.958  28.060  1.00  0.00     0.039 A 
ATOM     26  C   UNL A   1      36.161  29.560  29.358  1.00  0.00     0.014 A 
ATOM     27  C   UNL A   1      36.834  30.150  27.109  1.00  0.00     0.014 A 
ATOM     28  C   UNL A   1      37.495  29.310  29.689  1.00  0.00     0.010 A 
ATOM     29  C   UNL A   1      38.154  29.829  27.420  1.00  0.00     0.010 A 
ATOM     30  C   UNL A   1      38.499  29.417  28.715  1.00  0.00    -0.014 A 
BRANCH  30  31
ATOM     31  C   UNL A   1      39.917  29.111  29.036  1.00  0.00     0.031 A 
ATOM     32  C   UNL A   1      40.761  30.117  29.768  1.00  0.00     0.074 A 
ATOM     33  C   UNL A   1      40.457  27.953  28.613  1.00  0.00     0.049 A 
ATOM     34  N   UNL A   1      42.033  30.065  30.075  1.00  0.00    -0.248 NA
ATOM     35  C   UNL A   1      40.096  31.361  30.185  1.00  0.00     0.031 C 
ATOM     36  C   UNL A   1      39.750  26.917  27.856  1.00  0.00     0.029 A 
ATOM     37  N   UNL A   1      41.728  27.454  28.748  1.00  0.00    -0.354 N 
ATOM     38  C   UNL A   1      42.321  31.269  30.703  1.00  0.00     0.074 A 
ATOM     39  C   UNL A   1      41.107  32.054  30.689  1.00  0.00     0.031 C 
ATOM     40  C   UNL A   1      40.590  25.899  27.615  1.00  0.00     0.029 A 
ATOM     41  C   UNL A   1      41.902  26.223  28.163  1.00  0.00     0.049 A 
ATOM     42  H   UNL A   1      42.448  27.933  29.221  1.00  0.00     0.167 HD
ATOM     43  C   UNL A   1      43.489  31.674  31.258  1.00  0.00     0.037 A 
ATOM     44  C   UNL A   1      42.999  25.449  28.074  1.00  0.00     0.037 A 
ATOM     45  C   UNL A   1      44.687  30.875  31.294  1.00  0.00     0.049 A 
ATOM     46  C   UNL A   1      44.283  25.923  28.700  1.00  0.00     0.074 A 
ATOM     47  C   UNL A   1      45.901  31.167  31.889  1.00  0.00     0.029 A 
ATOM     48  N   UNL A   1      44.819  29.625  30.707  1.00  0.00    -0.354 N 
ATOM     49  N   UNL A   1      44.526  27.035  29.350  1.00  0.00    -0.248 NA
ATOM     50  C   UNL A   1      45.444  25.029  28.586  1.00  0.00     0.031 C 
ATOM     51  C   UNL A   1      46.784  30.114  31.623  1.00  0.00     0.029 A 
ATOM     52  C   UNL A   1      46.103  29.143  30.907  1.00  0.00     0.049 A 
ATOM     53  H   UNL A   1      44.107  29.152  30.219  1.00  0.00     0.167 HD
ATOM     54  C   UNL A   1      45.854  26.963  29.747  1.00  0.00     0.074 A 
ATOM     55  C   UNL A   1      46.361  25.690  29.277  1.00  0.00     0.031 C 
ATOM     56  C   UNL A   1      46.588  27.870  30.438  1.00  0.00     0.037 A 
BRANCH  43  57
ATOM     57  C   UNL A   1      43.529  33.043  31.874  1.00  0.00     0.064 A 
ATOM     58  C   UNL A   1      43.464  33.229  33.263  1.00  0.00     0.173 A 
ATOM     59  C   UNL A   1      43.672  34.183  31.068  1.00  0.00     0.173 A 
ATOM     60  F   UNL A   1      43.317  32.175  34.079  1.00  0.00    -0.203 F 
ATOM     61  C   UNL A   1      43.510  34.505  33.820  1.00  0.00     0.198 A 
ATOM     62  C   UNL A   1      43.750  35.455  31.630  1.00  0.00     0.198 A 
ATOM     63  F   UNL A   1      43.746  34.063  29.733  1.00  0.00    -0.203 F 
ATOM     64  F   UNL A   1      43.396  34.660  35.146  1.00  0.00    -0.200 F 
ATOM     65  C   UNL A   1      43.660  35.616  33.004  1.00  0.00     0.200 A 
ATOM     66  F   UNL A   1      43.908  36.526  30.840  1.00  0.00    -0.200 F 
ATOM     67  F   UNL A   1      43.712  36.842  33.542  1.00  0.00    -0.200 F 
ENDBRANCH  43  57
BRANCH  44  68
ATOM     68  C   UNL A   1      42.925  24.133  27.388  1.00  0.00     0.064 A 
ATOM     69  C   UNL A   1      43.271  24.007  26.036  1.00  0.00     0.173 A 
ATOM     70  C   UNL A   1      42.509  22.977  28.066  1.00  0.00     0.173 A 
ATOM     71  F   UNL A   1      43.656  25.088  25.341  1.00  0.00    -0.203 F 
ATOM     72  C   UNL A   1      43.185  22.781  25.381  1.00  0.00     0.198 A 
ATOM     73  C   UNL A   1      42.451  21.745  27.417  1.00  0.00     0.198 A 
ATOM     74  F   UNL A   1      42.174  23.042  29.363  1.00  0.00    -0.203 F 
ATOM     75  F   UNL A   1      43.479  22.698  24.077  1.00  0.00    -0.200 F 
ATOM     76  C   UNL A   1      42.781  21.649  26.074  1.00  0.00     0.200 A 
ATOM     77  F   UNL A   1      42.076  20.651  28.094  1.00  0.00    -0.200 F 
ATOM     78  F   UNL A   1      42.703  20.468  25.445  1.00  0.00    -0.200 F 
ENDBRANCH  44  68
BRANCH  56  79
ATOM     79  C   UNL A   1      48.007  27.501  30.760  1.00  0.00     0.064 A 
ATOM     80  C   UNL A   1      48.338  26.780  31.916  1.00  0.00     0.173 A 
ATOM     81  C   UNL A   1      49.045  27.842  29.879  1.00  0.00     0.173 A 
ATOM     82  F   UNL A   1      47.383  26.445  32.798  1.00  0.00    -0.203 F 
ATOM     83  C   UNL A   1      49.658  26.436  32.191  1.00  0.00     0.198 A 
ATOM     84  C   UNL A   1      50.360  27.470  30.141  1.00  0.00     0.198 A 
ATOM     85  F   UNL A   1      48.780  28.526  28.755  1.00  0.00    -0.203 F 
ATOM     86  F   UNL A   1      49.958  25.789  33.326  1.00  0.00    -0.200 F 
ATOM     87  C   UNL A   1      50.666  26.774  31.300  1.00  0.00     0.200 A 
ATOM     88  F   UNL A   1      51.330  27.785  29.272  1.00  0.00    -0.200 F 
ATOM     89  F   UNL A   1      51.936  26.436  31.563  1.00  0.00    -0.200 F 
ENDBRANCH  56  79
ENDBRANCH  30  31
ENDBRANCH  22  25
ENDBRANCH  20  21
ENDBRANCH   1  20
TORSDOF 11
ENDMDL
MODEL 3
REMARK VINA RESULT:     -10.4      3.920      9.686
REMARK SMILES Cc1onc(-c2cccc(Br)c2)c1C(=O)NCCCNC(=O)c1ccc(-c2c3nc(c(-c4c(F)c(F)c(F)c(F)c4F)c4ccc([nH]4)c(-c4c(F)c(F)c(F)c(F)c4F)c4nc(c(-c5c(F)c(F)c(F)c(F)c5F)c5ccc2[nH]5)C=C4)C=C3)cc1
REMARK SMILES IDX 18 1 17 2 16 3 14 4 15 5 13 7 1 8 2 9 3 10 4 11 5 12 6 13
REMARK SMILES IDX 7 14 12 15 8 16 10 17 9 18 11 19 19 20 20 21 21 22 22 24
REMARK SMILES IDX 23 25 24 26 85 27 25 28 84 29 26 30 27 31 28 32 78 33 29 34
REMARK SMILES IDX 83 35 77 36 79 37 30 38 82 39 76 40 75 41 31 43 63 44 43 45
REMARK SMILES IDX 62 46 44 47 47 48 61 49 80 50 45 51 46 52 60 54 81 55 48 56
REMARK SMILES IDX 32 57 33 58 41 59 34 60 35 61 39 62 42 63 36 64 37 65 40 66
REMARK SMILES IDX 38 67 64 68 65 69 73 70 66 71 67 72 71 73 74 74 68 75 69 76
REMARK SMILES IDX 72 77 70 78 49 79 50 80 58 81 51 82 52 83 56 84 59 85 53 86
REMARK SMILES IDX 54 87 57 88 55 89
REMARK H PARENT 16 6 20 23 79 42 47 53
REMARK Flexibility Score: inf
ROOT
ATOM      1  C   UNL A   1      33.841  29.017  23.954  1.00  0.00     0.042 C 
ENDROOT
BRANCH   1   2
ATOM      2  C   UNL A   1      32.909  28.745  22.773  1.00  0.00     0.118 C 
BRANCH   2   3
ATOM      3  N   UNL A   1      33.280  27.521  22.106  1.00  0.00    -0.352 N 
ATOM      4  C   UNL A   1      33.190  26.192  22.397  1.00  0.00     0.257 C 
ATOM      5  O   UNL A   1      33.677  25.479  21.512  1.00  0.00    -0.269 OA
ATOM      6  H   UNL A   1      33.700  27.684  21.230  1.00  0.00     0.163 HD
BRANCH   4   7
ATOM      7  C   UNL A   1      32.566  25.607  23.579  1.00  0.00     0.110 A 
ATOM      8  C   UNL A   1      30.157  26.653  24.146  1.00  0.00     0.092 C 
ATOM      9  C   UNL A   1      31.354  25.798  24.232  1.00  0.00     0.147 A 
ATOM     10  O   UNL A   1      31.266  24.940  25.284  1.00  0.00    -0.360 OA
ATOM     11  N   UNL A   1      32.405  24.204  25.401  1.00  0.00    -0.079 NA
ATOM     12  C   UNL A   1      33.212  24.612  24.416  1.00  0.00     0.126 A 
BRANCH  12  13
ATOM     13  C   UNL A   1      34.544  24.023  24.317  1.00  0.00     0.006 A 
ATOM     14  C   UNL A   1      34.880  23.189  23.240  1.00  0.00     0.010 A 
ATOM     15  C   UNL A   1      35.513  24.324  25.283  1.00  0.00     0.026 A 
ATOM     16  C   UNL A   1      36.155  22.629  23.152  1.00  0.00     0.002 A 
ATOM     17  C   UNL A   1      36.787  23.767  25.182  1.00  0.00     0.018 A 
ATOM     18  C   UNL A   1      37.110  22.916  24.126  1.00  0.00     0.016 A 
ATOM     19  Br  UNL A   1      38.089  24.169  26.493  1.00  0.00    -0.051 Br
ENDBRANCH  12  13
ENDBRANCH   4   7
ENDBRANCH   2   3
ENDBRANCH   1   2
BRANCH   1  20
ATOM     20  C   UNL A   1      33.145  28.985  25.311  1.00  0.00     0.118 C 
BRANCH  20  21
ATOM     21  N   UNL A   1      32.693  30.305  25.724  1.00  0.00    -0.352 N 
ATOM     22  C   UNL A   1      33.102  31.090  26.771  1.00  0.00     0.251 C 
ATOM     23  H   UNL A   1      31.983  30.694  25.166  1.00  0.00     0.163 HD
ATOM     24  O   UNL A   1      32.421  32.065  27.092  1.00  0.00    -0.269 OA
BRANCH  22  25
ATOM     25  C   UNL A   1      34.340  30.787  27.520  1.00  0.00     0.039 A 
ATOM     26  C   UNL A   1      35.282  31.803  27.702  1.00  0.00     0.014 A 
ATOM     27  C   UNL A   1      34.610  29.496  27.987  1.00  0.00     0.014 A 
ATOM     28  C   UNL A   1      36.469  31.541  28.389  1.00  0.00     0.010 A 
ATOM     29  C   UNL A   1      35.759  29.254  28.737  1.00  0.00     0.010 A 
ATOM     30  C   UNL A   1      36.705  30.269  28.936  1.00  0.00    -0.014 A 
BRANCH  30  31
ATOM     31  C   UNL A   1      37.940  29.984  29.709  1.00  0.00     0.031 A 
ATOM     32  C   UNL A   1      38.980  29.047  29.158  1.00  0.00     0.074 A 
ATOM     33  C   UNL A   1      38.094  30.520  30.934  1.00  0.00     0.049 A 
ATOM     34  N   UNL A   1      40.085  28.617  29.712  1.00  0.00    -0.248 NA
ATOM     35  C   UNL A   1      38.730  28.497  27.817  1.00  0.00     0.031 C 
ATOM     36  C   UNL A   1      37.134  31.408  31.594  1.00  0.00     0.029 A 
ATOM     37  N   UNL A   1      39.108  30.390  31.850  1.00  0.00    -0.354 N 
ATOM     38  C   UNL A   1      40.650  27.738  28.798  1.00  0.00     0.074 A 
ATOM     39  C   UNL A   1      39.742  27.655  27.675  1.00  0.00     0.031 C 
ATOM     40  C   UNL A   1      37.616  31.760  32.797  1.00  0.00     0.029 A 
ATOM     41  C   UNL A   1      38.897  31.094  33.010  1.00  0.00     0.049 A 
ATOM     42  H   UNL A   1      39.912  29.843  31.690  1.00  0.00     0.167 HD
ATOM     43  C   UNL A   1      41.829  27.076  28.880  1.00  0.00     0.037 A 
ATOM     44  C   UNL A   1      39.649  31.185  34.123  1.00  0.00     0.037 A 
ATOM     45  C   UNL A   1      42.743  27.186  29.988  1.00  0.00     0.049 A 
ATOM     46  C   UNL A   1      40.954  30.440  34.188  1.00  0.00     0.074 A 
ATOM     47  C   UNL A   1      43.991  26.609  30.139  1.00  0.00     0.029 A 
ATOM     48  N   UNL A   1      42.502  27.924  31.138  1.00  0.00    -0.354 N 
ATOM     49  N   UNL A   1      41.510  29.664  33.289  1.00  0.00    -0.248 NA
ATOM     50  C   UNL A   1      41.741  30.589  35.420  1.00  0.00     0.031 C 
ATOM     51  C   UNL A   1      44.487  26.960  31.399  1.00  0.00     0.029 A 
ATOM     52  C   UNL A   1      43.570  27.798  32.012  1.00  0.00     0.049 A 
ATOM     53  H   UNL A   1      41.692  28.457  31.308  1.00  0.00     0.167 HD
ATOM     54  C   UNL A   1      42.720  29.257  33.831  1.00  0.00     0.074 A 
ATOM     55  C   UNL A   1      42.826  29.884  35.133  1.00  0.00     0.031 C 
ATOM     56  C   UNL A   1      43.661  28.436  33.301  1.00  0.00     0.037 A 
BRANCH  43  57
ATOM     57  C   UNL A   1      42.202  26.173  27.739  1.00  0.00     0.064 A 
ATOM     58  C   UNL A   1      43.075  26.589  26.723  1.00  0.00     0.173 A 
ATOM     59  C   UNL A   1      41.710  24.859  27.680  1.00  0.00     0.173 A 
ATOM     60  F   UNL A   1      43.566  27.837  26.725  1.00  0.00    -0.203 F 
ATOM     61  C   UNL A   1      43.416  25.737  25.675  1.00  0.00     0.198 A 
ATOM     62  C   UNL A   1      42.079  23.999  26.649  1.00  0.00     0.198 A 
ATOM     63  F   UNL A   1      40.876  24.406  28.630  1.00  0.00    -0.203 F 
ATOM     64  F   UNL A   1      44.212  26.175  24.690  1.00  0.00    -0.200 F 
ATOM     65  C   UNL A   1      42.924  24.441  25.643  1.00  0.00     0.200 A 
ATOM     66  F   UNL A   1      41.612  22.744  26.627  1.00  0.00    -0.200 F 
ATOM     67  F   UNL A   1      43.260  23.620  24.639  1.00  0.00    -0.200 F 
ENDBRANCH  43  57
BRANCH  44  68
ATOM     68  C   UNL A   1      39.198  32.036  35.255  1.00  0.00     0.064 A 
ATOM     69  C   UNL A   1      38.425  31.499  36.294  1.00  0.00     0.173 A 
ATOM     70  C   UNL A   1      39.530  33.397  35.325  1.00  0.00     0.173 A 
ATOM     71  F   UNL A   1      38.066  30.207  36.261  1.00  0.00    -0.203 F 
ATOM     72  C   UNL A   1      37.983  32.295  37.348  1.00  0.00     0.198 A 
ATOM     73  C   UNL A   1      39.112  34.186  36.394  1.00  0.00     0.198 A 
ATOM     74  F   UNL A   1      40.275  33.957  34.360  1.00  0.00    -0.203 F 
ATOM     75  F   UNL A   1      37.208  31.766  38.304  1.00  0.00    -0.200 F 
ATOM     76  C   UNL A   1      38.332  33.636  37.401  1.00  0.00     0.200 A 
ATOM     77  F   UNL A   1      39.465  35.477  36.451  1.00  0.00    -0.200 F 
ATOM     78  F   UNL A   1      37.911  34.400  38.419  1.00  0.00    -0.200 F 
ENDBRANCH  44  68
BRANCH  56  79
ATOM     79  C   UNL A   1      44.902  28.200  34.111  1.00  0.00     0.064 A 
ATOM     80  C   UNL A   1      46.015  29.049  34.020  1.00  0.00     0.173 A 
ATOM     81  C   UNL A   1      44.962  27.133  35.020  1.00  0.00     0.173 A 
ATOM     82  F   UNL A   1      46.012  30.075  33.155  1.00  0.00    -0.203 F 
ATOM     83  C   UNL A   1      47.152  28.821  34.790  1.00  0.00     0.198 A 
ATOM     84  C   UNL A   1      46.089  26.926  35.810  1.00  0.00     0.198 A 
ATOM     85  F   UNL A   1      43.921  26.296  35.150  1.00  0.00    -0.203 F 
ATOM     86  F   UNL A   1      48.223  29.616  34.651  1.00  0.00    -0.200 F 
ATOM     87  C   UNL A   1      47.185  27.767  35.689  1.00  0.00     0.200 A 
ATOM     88  F   UNL A   1      46.113  25.915  36.689  1.00  0.00    -0.200 F 
ATOM     89  F   UNL A   1      48.279  27.553  36.434  1.00  0.00    -0.200 F 
ENDBRANCH  56  79
ENDBRANCH  30  31
ENDBRANCH  22  25
ENDBRANCH  20  21
ENDBRANCH   1  20
TORSDOF 11
ENDMDL
