MODEL 1
REMARK VINA RESULT:     -11.3      0.000      0.000
REMARK SMILES CN(CC(C)(C)O)C(=O)N1CCCC[C@H]1CC(=O)NCCCNC(=O)c1ccc(-c2c3nc(c(-c4c(F)c(F)c(F)c(F)c4F)c4ccc([nH]4)c(-c4c(F)c(F)c(F)c(F)c4F)c4nc(c(-c5c(F)c(F)c(F)c(F)c5F)c5ccc2[nH]5)C=C4)C=C3)cc1
REMARK SMILES IDX 17 1 18 2 19 3 16 5 15 6 10 7 11 8 12 9 14 10 13 11 8 12
REMARK SMILES IDX 9 13 2 14 1 15 3 16 4 17 5 18 6 19 7 20 20 22 21 23 22 24
REMARK SMILES IDX 23 25 24 26 25 28 26 29 27 30 88 31 28 32 87 33 29 34 30 35
REMARK SMILES IDX 31 36 81 37 32 38 86 39 80 40 82 41 33 42 85 43 79 44 78 45
REMARK SMILES IDX 34 47 66 48 46 49 65 50 47 51 50 52 64 53 83 54 48 55 49 56
REMARK SMILES IDX 63 58 84 59 51 60 35 61 36 62 44 63 37 64 38 65 42 66 45 67
REMARK SMILES IDX 39 68 40 69 43 70 41 71 67 72 68 73 76 74 69 75 70 76 74 77
REMARK SMILES IDX 77 78 71 79 72 80 75 81 73 82 52 83 53 84 61 85 54 86 55 87
REMARK SMILES IDX 59 88 62 89 56 90 57 91 60 92 58 93
REMARK H PARENT 19 4 7 21 23 27 82 46 50 57
REMARK Flexibility Score: inf
ROOT
ATOM      1  C   UNL A   1      36.547  23.080  25.224  1.00  0.00     0.222 C 
ATOM      2  O   UNL A   1      36.845  24.022  25.964  1.00  0.00    -0.275 OA
ATOM      3  N   UNL A   1      36.917  21.825  25.602  1.00  0.00    -0.356 N 
ATOM      4  H   UNL A   1      37.433  21.777  26.439  1.00  0.00     0.163 HD
ENDROOT
BRANCH   1   5
ATOM      5  C   UNL A   1      35.790  23.325  23.937  1.00  0.00     0.125 C 
BRANCH   5   6
ATOM      6  C   UNL A   1      34.386  23.943  24.139  1.00  0.00     0.096 C 
ATOM      7  N   UNL A   1      33.746  24.406  22.890  1.00  0.00    -0.321 N 
ATOM      8  C   UNL A   1      33.384  23.310  21.966  1.00  0.00     0.121 C 
ATOM      9  C   UNL A   1      32.455  22.293  22.613  1.00  0.00     0.022 C 
ATOM     10  C   UNL A   1      33.444  22.921  24.826  1.00  0.00     0.026 C 
ATOM     11  C   UNL A   1      33.059  21.761  23.908  1.00  0.00     0.004 C 
BRANCH   7  12
ATOM     12  C   UNL A   1      33.240  25.654  22.559  1.00  0.00     0.320 C 
ATOM     13  O   UNL A   1      33.756  26.262  21.608  1.00  0.00    -0.248 OA
BRANCH  12  14
ATOM     14  N   UNL A   1      32.261  26.304  23.286  1.00  0.00    -0.325 N 
ATOM     15  C   UNL A   1      31.076  25.482  23.541  1.00  0.00     0.148 C 
BRANCH  14  16
ATOM     16  C   UNL A   1      32.100  27.707  23.700  1.00  0.00     0.155 C 
BRANCH  16  17
ATOM     17  C   UNL A   1      33.279  28.309  24.524  1.00  0.00     0.077 C 
ATOM     18  C   UNL A   1      32.924  29.627  25.216  1.00  0.00     0.043 C 
ATOM     19  C   UNL A   1      33.738  27.282  25.567  1.00  0.00     0.043 C 
BRANCH  17  20
ATOM     20  O   UNL A   1      34.403  28.545  23.663  1.00  0.00    -0.389 OA
ATOM     21  H   UNL A   1      34.193  28.241  22.765  1.00  0.00     0.211 HD
ENDBRANCH  17  20
ENDBRANCH  16  17
ENDBRANCH  14  16
ENDBRANCH  12  14
ENDBRANCH   7  12
ENDBRANCH   5   6
ENDBRANCH   1   5
BRANCH   3  22
ATOM     22  C   UNL A   1      36.667  20.542  24.961  1.00  0.00     0.117 C 
BRANCH  22  23
ATOM     23  C   UNL A   1      37.904  19.651  24.946  1.00  0.00     0.042 C 
BRANCH  23  24
ATOM     24  C   UNL A   1      39.099  20.234  25.687  1.00  0.00     0.118 C 
BRANCH  24  25
ATOM     25  N   UNL A   1      40.146  19.242  25.877  1.00  0.00    -0.352 N 
ATOM     26  C   UNL A   1      41.498  19.377  26.059  1.00  0.00     0.251 C 
ATOM     27  H   UNL A   1      39.827  18.310  25.876  1.00  0.00     0.163 HD
ATOM     28  O   UNL A   1      42.207  18.381  25.895  1.00  0.00    -0.269 OA
BRANCH  26  29
ATOM     29  C   UNL A   1      42.140  20.658  26.452  1.00  0.00     0.039 A 
ATOM     30  C   UNL A   1      42.150  21.005  27.811  1.00  0.00     0.014 A 
ATOM     31  C   UNL A   1      42.602  21.587  25.516  1.00  0.00     0.014 A 
ATOM     32  C   UNL A   1      42.621  22.256  28.225  1.00  0.00     0.010 A 
ATOM     33  C   UNL A   1      43.146  22.805  25.936  1.00  0.00     0.010 A 
ATOM     34  C   UNL A   1      43.129  23.168  27.290  1.00  0.00    -0.014 A 
BRANCH  34  35
ATOM     35  C   UNL A   1      43.566  24.532  27.698  1.00  0.00     0.031 A 
ATOM     36  C   UNL A   1      42.542  25.575  28.065  1.00  0.00     0.074 A 
ATOM     37  C   UNL A   1      44.873  24.855  27.704  1.00  0.00     0.049 A 
ATOM     38  N   UNL A   1      42.710  26.841  28.360  1.00  0.00    -0.248 NA
ATOM     39  C   UNL A   1      41.135  25.142  28.078  1.00  0.00     0.031 C 
ATOM     40  C   UNL A   1      45.969  23.957  27.342  1.00  0.00     0.029 A 
ATOM     41  N   UNL A   1      45.500  26.038  28.018  1.00  0.00    -0.354 N 
ATOM     42  C   UNL A   1      41.437  27.359  28.554  1.00  0.00     0.074 A 
ATOM     43  C   UNL A   1      40.501  26.282  28.315  1.00  0.00     0.031 C 
ATOM     44  C   UNL A   1      47.134  24.614  27.469  1.00  0.00     0.029 A 
ATOM     45  C   UNL A   1      46.866  25.987  27.890  1.00  0.00     0.049 A 
ATOM     46  H   UNL A   1      45.015  26.844  28.308  1.00  0.00     0.167 HD
ATOM     47  C   UNL A   1      41.076  28.615  28.915  1.00  0.00     0.037 A 
ATOM     48  C   UNL A   1      47.797  26.941  28.082  1.00  0.00     0.037 A 
ATOM     49  C   UNL A   1      42.002  29.676  29.209  1.00  0.00     0.049 A 
ATOM     50  C   UNL A   1      47.375  28.317  28.517  1.00  0.00     0.074 A 
ATOM     51  C   UNL A   1      41.732  30.959  29.651  1.00  0.00     0.029 A 
ATOM     52  N   UNL A   1      43.380  29.571  29.102  1.00  0.00    -0.354 N 
ATOM     53  N   UNL A   1      46.170  28.782  28.738  1.00  0.00    -0.248 NA
ATOM     54  C   UNL A   1      48.446  29.302  28.735  1.00  0.00     0.031 C 
ATOM     55  C   UNL A   1      42.947  31.642  29.787  1.00  0.00     0.029 A 
ATOM     56  C   UNL A   1      43.973  30.771  29.460  1.00  0.00     0.049 A 
ATOM     57  H   UNL A   1      43.865  28.764  28.815  1.00  0.00     0.167 HD
ATOM     58  C   UNL A   1      46.337  30.100  29.138  1.00  0.00     0.074 A 
ATOM     59  C   UNL A   1      47.761  30.360  29.143  1.00  0.00     0.031 C 
ATOM     60  C   UNL A   1      45.392  31.013  29.469  1.00  0.00     0.037 A 
BRANCH  47  61
ATOM     61  C   UNL A   1      39.609  28.913  29.016  1.00  0.00     0.064 A 
ATOM     62  C   UNL A   1      38.922  28.823  30.235  1.00  0.00     0.173 A 
ATOM     63  C   UNL A   1      38.890  29.330  27.885  1.00  0.00     0.173 A 
ATOM     64  F   UNL A   1      39.563  28.418  31.342  1.00  0.00    -0.203 F 
ATOM     65  C   UNL A   1      37.563  29.113  30.314  1.00  0.00     0.198 A 
ATOM     66  C   UNL A   1      37.537  29.644  27.973  1.00  0.00     0.198 A 
ATOM     67  F   UNL A   1      39.502  29.439  26.696  1.00  0.00    -0.203 F 
ATOM     68  F   UNL A   1      36.917  28.979  31.481  1.00  0.00    -0.200 F 
ATOM     69  C   UNL A   1      36.873  29.529  29.185  1.00  0.00     0.200 A 
ATOM     70  F   UNL A   1      36.873  30.056  26.884  1.00  0.00    -0.200 F 
ATOM     71  F   UNL A   1      35.566  29.813  29.265  1.00  0.00    -0.200 F 
ENDBRANCH  47  61
BRANCH  48  72
ATOM     72  C   UNL A   1      49.232  26.616  27.885  1.00  0.00     0.064 A 
ATOM     73  C   UNL A   1      50.066  26.366  28.984  1.00  0.00     0.173 A 
ATOM     74  C   UNL A   1      49.796  26.545  26.604  1.00  0.00     0.173 A 
ATOM     75  F   UNL A   1      49.575  26.448  30.229  1.00  0.00    -0.203 F 
ATOM     76  C   UNL A   1      51.414  26.067  28.809  1.00  0.00     0.198 A 
ATOM     77  C   UNL A   1      51.140  26.223  26.429  1.00  0.00     0.198 A 
ATOM     78  F   UNL A   1      49.039  26.780  25.523  1.00  0.00    -0.203 F 
ATOM     79  F   UNL A   1      52.198  25.866  29.877  1.00  0.00    -0.200 F 
ATOM     80  C   UNL A   1      51.950  25.989  27.532  1.00  0.00     0.200 A 
ATOM     81  F   UNL A   1      51.653  26.143  25.194  1.00  0.00    -0.200 F 
ATOM     82  F   UNL A   1      53.246  25.696  27.363  1.00  0.00    -0.200 F 
ENDBRANCH  48  72
BRANCH  60  83
ATOM     83  C   UNL A   1      45.866  32.370  29.894  1.00  0.00     0.064 A 
ATOM     84  C   UNL A   1      46.186  32.648  31.231  1.00  0.00     0.173 A 
ATOM     85  C   UNL A   1      46.043  33.390  28.947  1.00  0.00     0.173 A 
ATOM     86  F   UNL A   1      46.020  31.708  32.174  1.00  0.00    -0.203 F 
ATOM     87  C   UNL A   1      46.650  33.905  31.607  1.00  0.00     0.198 A 
ATOM     88  C   UNL A   1      46.527  34.639  29.324  1.00  0.00     0.198 A 
ATOM     89  F   UNL A   1      45.754  33.170  27.656  1.00  0.00    -0.203 F 
ATOM     90  F   UNL A   1      46.918  34.161  32.895  1.00  0.00    -0.200 F 
ATOM     91  C   UNL A   1      46.826  34.897  30.653  1.00  0.00     0.200 A 
ATOM     92  F   UNL A   1      46.705  35.594  28.400  1.00  0.00    -0.200 F 
ATOM     93  F   UNL A   1      47.278  36.106  31.017  1.00  0.00    -0.200 F 
ENDBRANCH  60  83
ENDBRANCH  34  35
ENDBRANCH  26  29
ENDBRANCH  24  25
ENDBRANCH  23  24
ENDBRANCH  22  23
ENDBRANCH   3  22
TORSDOF 16
ENDMDL
MODEL 2
REMARK VINA RESULT:     -11.2      5.455     10.707
REMARK SMILES CN(CC(C)(C)O)C(=O)N1CCCC[C@H]1CC(=O)NCCCNC(=O)c1ccc(-c2c3nc(c(-c4c(F)c(F)c(F)c(F)c4F)c4ccc([nH]4)c(-c4c(F)c(F)c(F)c(F)c4F)c4nc(c(-c5c(F)c(F)c(F)c(F)c5F)c5ccc2[nH]5)C=C4)C=C3)cc1
REMARK SMILES IDX 17 1 18 2 19 3 16 5 15 6 10 7 11 8 12 9 14 10 13 11 8 12
REMARK SMILES IDX 9 13 2 14 1 15 3 16 4 17 5 18 6 19 7 20 20 22 21 23 22 24
REMARK SMILES IDX 23 25 24 26 25 28 26 29 27 30 88 31 28 32 87 33 29 34 30 35
REMARK SMILES IDX 31 36 81 37 32 38 86 39 80 40 82 41 33 42 85 43 79 44 78 45
REMARK SMILES IDX 34 47 66 48 46 49 65 50 47 51 50 52 64 53 83 54 48 55 49 56
REMARK SMILES IDX 63 58 84 59 51 60 35 61 36 62 44 63 37 64 38 65 42 66 45 67
REMARK SMILES IDX 39 68 40 69 43 70 41 71 67 72 68 73 76 74 69 75 70 76 74 77
REMARK SMILES IDX 77 78 71 79 72 80 75 81 73 82 52 83 53 84 61 85 54 86 55 87
REMARK SMILES IDX 59 88 62 89 56 90 57 91 60 92 58 93
REMARK H PARENT 19 4 7 21 23 27 82 46 50 57
REMARK Flexibility Score: inf
ROOT
ATOM      1  C   UNL A   1      32.921  28.896  26.956  1.00  0.00     0.222 C 
ATOM      2  O   UNL A   1      34.078  28.590  27.258  1.00  0.00    -0.275 OA
ATOM      3  N   UNL A   1      32.663  30.194  26.633  1.00  0.00    -0.356 N 
ATOM      4  H   UNL A   1      33.435  30.801  26.702  1.00  0.00     0.163 HD
ENDROOT
BRANCH   1   5
ATOM      5  C   UNL A   1      31.829  27.848  26.943  1.00  0.00     0.125 C 
BRANCH   5   6
ATOM      6  C   UNL A   1      32.083  26.684  25.957  1.00  0.00     0.096 C 
ATOM      7  N   UNL A   1      31.161  25.541  26.124  1.00  0.00    -0.321 N 
ATOM      8  C   UNL A   1      29.761  25.849  25.762  1.00  0.00     0.121 C 
ATOM      9  C   UNL A   1      29.632  26.343  24.328  1.00  0.00     0.022 C 
ATOM     10  C   UNL A   1      31.983  27.189  24.495  1.00  0.00     0.026 C 
ATOM     11  C   UNL A   1      30.551  27.535  24.085  1.00  0.00     0.004 C 
BRANCH   7  12
ATOM     12  C   UNL A   1      31.436  24.200  26.344  1.00  0.00     0.320 C 
ATOM     13  O   UNL A   1      31.213  23.733  27.472  1.00  0.00    -0.248 OA
BRANCH  12  14
ATOM     14  N   UNL A   1      32.037  23.376  25.411  1.00  0.00    -0.325 N 
ATOM     15  C   UNL A   1      31.886  21.949  25.704  1.00  0.00     0.148 C 
BRANCH  14  16
ATOM     16  C   UNL A   1      32.945  23.648  24.286  1.00  0.00     0.155 C 
BRANCH  16  17
ATOM     17  C   UNL A   1      32.310  23.545  22.865  1.00  0.00     0.077 C 
ATOM     18  C   UNL A   1      32.810  24.622  21.899  1.00  0.00     0.043 C 
ATOM     19  C   UNL A   1      32.599  22.154  22.286  1.00  0.00     0.043 C 
BRANCH  17  20
ATOM     20  O   UNL A   1      30.883  23.658  22.961  1.00  0.00    -0.389 OA
ATOM     21  H   UNL A   1      30.653  24.256  23.690  1.00  0.00     0.211 HD
ENDBRANCH  17  20
ENDBRANCH  16  17
ENDBRANCH  14  16
ENDBRANCH  12  14
ENDBRANCH   7  12
ENDBRANCH   5   6
ENDBRANCH   1   5
BRANCH   3  22
ATOM     22  C   UNL A   1      31.424  30.822  26.199  1.00  0.00     0.117 C 
BRANCH  22  23
ATOM     23  C   UNL A   1      31.373  32.305  26.551  1.00  0.00     0.042 C 
BRANCH  23  24
ATOM     24  C   UNL A   1      32.608  32.814  27.280  1.00  0.00     0.118 C 
BRANCH  24  25
ATOM     25  N   UNL A   1      32.484  34.222  27.623  1.00  0.00    -0.352 N 
ATOM     26  C   UNL A   1      33.023  34.954  28.649  1.00  0.00     0.251 C 
ATOM     27  H   UNL A   1      31.913  34.740  27.010  1.00  0.00     0.163 HD
ATOM     28  O   UNL A   1      32.529  36.057  28.897  1.00  0.00    -0.269 OA
BRANCH  26  29
ATOM     29  C   UNL A   1      34.174  34.485  29.463  1.00  0.00     0.039 A 
ATOM     30  C   UNL A   1      35.455  34.540  28.893  1.00  0.00     0.014 A 
ATOM     31  C   UNL A   1      34.016  33.866  30.705  1.00  0.00     0.014 A 
ATOM     32  C   UNL A   1      36.557  33.992  29.559  1.00  0.00     0.010 A 
ATOM     33  C   UNL A   1      35.128  33.389  31.406  1.00  0.00     0.010 A 
ATOM     34  C   UNL A   1      36.404  33.414  30.827  1.00  0.00    -0.014 A 
BRANCH  34  35
ATOM     35  C   UNL A   1      37.547  32.759  31.521  1.00  0.00     0.031 A 
ATOM     36  C   UNL A   1      38.274  31.614  30.864  1.00  0.00     0.074 A 
ATOM     37  C   UNL A   1      37.915  33.157  32.754  1.00  0.00     0.049 A 
ATOM     38  N   UNL A   1      39.232  30.854  31.336  1.00  0.00    -0.248 NA
ATOM     39  C   UNL A   1      37.849  31.258  29.500  1.00  0.00     0.031 C 
ATOM     40  C   UNL A   1      37.281  34.229  33.521  1.00  0.00     0.029 A 
ATOM     41  N   UNL A   1      38.908  32.694  33.584  1.00  0.00    -0.354 N 
ATOM     42  C   UNL A   1      39.494  29.914  30.348  1.00  0.00     0.074 A 
ATOM     43  C   UNL A   1      38.576  30.176  29.261  1.00  0.00     0.031 C 
ATOM     44  C   UNL A   1      37.910  34.354  34.701  1.00  0.00     0.029 A 
ATOM     45  C   UNL A   1      38.968  33.351  34.788  1.00  0.00     0.049 A 
ATOM     46  H   UNL A   1      39.518  31.962  33.337  1.00  0.00     0.167 HD
ATOM     47  C   UNL A   1      40.426  28.929  30.337  1.00  0.00     0.037 A 
ATOM     48  C   UNL A   1      39.780  33.161  35.846  1.00  0.00     0.037 A 
ATOM     49  C   UNL A   1      41.379  28.698  31.389  1.00  0.00     0.049 A 
ATOM     50  C   UNL A   1      40.830  32.085  35.796  1.00  0.00     0.074 A 
ATOM     51  C   UNL A   1      42.406  27.771  31.435  1.00  0.00     0.029 A 
ATOM     52  N   UNL A   1      41.429  29.410  32.577  1.00  0.00    -0.354 N 
ATOM     53  N   UNL A   1      41.095  31.231  34.839  1.00  0.00    -0.248 NA
ATOM     54  C   UNL A   1      41.699  31.951  36.975  1.00  0.00     0.031 C 
ATOM     55  C   UNL A   1      43.062  27.904  32.664  1.00  0.00     0.029 A 
ATOM     56  C   UNL A   1      42.463  28.936  33.368  1.00  0.00     0.049 A 
ATOM     57  H   UNL A   1      40.821  30.144  32.823  1.00  0.00     0.167 HD
ATOM     58  C   UNL A   1      42.168  30.475  35.288  1.00  0.00     0.074 A 
ATOM     59  C   UNL A   1      42.516  30.977  36.600  1.00  0.00     0.031 C 
ATOM     60  C   UNL A   1      42.805  29.453  34.667  1.00  0.00     0.037 A 
BRANCH  47  61
ATOM     61  C   UNL A   1      40.463  28.024  29.142  1.00  0.00     0.064 A 
ATOM     62  C   UNL A   1      39.694  26.852  29.082  1.00  0.00     0.173 A 
ATOM     63  C   UNL A   1      41.249  28.353  28.027  1.00  0.00     0.173 A 
ATOM     64  F   UNL A   1      38.935  26.489  30.127  1.00  0.00    -0.203 F 
ATOM     65  C   UNL A   1      39.731  26.029  27.960  1.00  0.00     0.198 A 
ATOM     66  C   UNL A   1      41.264  27.539  26.897  1.00  0.00     0.198 A 
ATOM     67  F   UNL A   1      41.997  29.466  28.031  1.00  0.00    -0.203 F 
ATOM     68  F   UNL A   1      39.022  24.891  27.942  1.00  0.00    -0.200 F 
ATOM     69  C   UNL A   1      40.511  26.375  26.867  1.00  0.00     0.200 A 
ATOM     70  F   UNL A   1      42.010  27.880  25.836  1.00  0.00    -0.200 F 
ATOM     71  F   UNL A   1      40.541  25.583  25.786  1.00  0.00    -0.200 F 
ENDBRANCH  47  61
BRANCH  48  72
ATOM     72  C   UNL A   1      39.644  34.031  37.041  1.00  0.00     0.064 A 
ATOM     73  C   UNL A   1      38.861  33.631  38.132  1.00  0.00     0.173 A 
ATOM     74  C   UNL A   1      40.294  35.270  37.119  1.00  0.00     0.173 A 
ATOM     75  F   UNL A   1      38.200  32.464  38.090  1.00  0.00    -0.203 F 
ATOM     76  C   UNL A   1      38.724  34.443  39.254  1.00  0.00     0.198 A 
ATOM     77  C   UNL A   1      40.175  36.072  38.252  1.00  0.00     0.198 A 
ATOM     78  F   UNL A   1      41.052  35.696  36.099  1.00  0.00    -0.203 F 
ATOM     79  F   UNL A   1      37.941  34.054  40.269  1.00  0.00    -0.200 F 
ATOM     80  C   UNL A   1      39.386  35.661  39.317  1.00  0.00     0.200 A 
ATOM     81  F   UNL A   1      40.820  37.244  38.313  1.00  0.00    -0.200 F 
ATOM     82  F   UNL A   1      39.258  36.440  40.399  1.00  0.00    -0.200 F 
ENDBRANCH  48  72
BRANCH  60  83
ATOM     83  C   UNL A   1      43.963  28.828  35.384  1.00  0.00     0.064 A 
ATOM     84  C   UNL A   1      45.276  29.281  35.189  1.00  0.00     0.173 A 
ATOM     85  C   UNL A   1      43.753  27.794  36.309  1.00  0.00     0.173 A 
ATOM     86  F   UNL A   1      45.528  30.258  34.305  1.00  0.00    -0.203 F 
ATOM     87  C   UNL A   1      46.339  28.709  35.881  1.00  0.00     0.198 A 
ATOM     88  C   UNL A   1      44.816  27.238  37.015  1.00  0.00     0.198 A 
ATOM     89  F   UNL A   1      42.515  27.329  36.533  1.00  0.00    -0.203 F 
ATOM     90  F   UNL A   1      47.590  29.133  35.655  1.00  0.00    -0.200 F 
ATOM     91  C   UNL A   1      46.108  27.693  36.798  1.00  0.00     0.200 A 
ATOM     92  F   UNL A   1      44.591  26.263  37.906  1.00  0.00    -0.200 F 
ATOM     93  F   UNL A   1      47.134  27.147  37.467  1.00  0.00    -0.200 F 
ENDBRANCH  60  83
ENDBRANCH  34  35
ENDBRANCH  26  29
ENDBRANCH  24  25
ENDBRANCH  23  24
ENDBRANCH  22  23
ENDBRANCH   3  22
TORSDOF 16
ENDMDL
MODEL 3
REMARK VINA RESULT:     -11.2      1.205      2.195
REMARK SMILES CN(CC(C)(C)O)C(=O)N1CCCC[C@H]1CC(=O)NCCCNC(=O)c1ccc(-c2c3nc(c(-c4c(F)c(F)c(F)c(F)c4F)c4ccc([nH]4)c(-c4c(F)c(F)c(F)c(F)c4F)c4nc(c(-c5c(F)c(F)c(F)c(F)c5F)c5ccc2[nH]5)C=C4)C=C3)cc1
REMARK SMILES IDX 17 1 18 2 19 3 16 5 15 6 10 7 11 8 12 9 14 10 13 11 8 12
REMARK SMILES IDX 9 13 2 14 1 15 3 16 4 17 5 18 6 19 7 20 20 22 21 23 22 24
REMARK SMILES IDX 23 25 24 26 25 28 26 29 27 30 88 31 28 32 87 33 29 34 30 35
REMARK SMILES IDX 31 36 81 37 32 38 86 39 80 40 82 41 33 42 85 43 79 44 78 45
REMARK SMILES IDX 34 47 66 48 46 49 65 50 47 51 50 52 64 53 83 54 48 55 49 56
REMARK SMILES IDX 63 58 84 59 51 60 35 61 36 62 44 63 37 64 38 65 42 66 45 67
REMARK SMILES IDX 39 68 40 69 43 70 41 71 67 72 68 73 76 74 69 75 70 76 74 77
REMARK SMILES IDX 77 78 71 79 72 80 75 81 73 82 52 83 53 84 61 85 54 86 55 87
REMARK SMILES IDX 59 88 62 89 56 90 57 91 60 92 58 93
REMARK H PARENT 19 4 7 21 23 27 82 46 50 57
REMARK Flexibility Score: inf
ROOT
ATOM      1  C   UNL A   1      36.488  23.023  25.114  1.00  0.00     0.222 C 
ATOM      2  O   UNL A   1      36.761  23.989  25.831  1.00  0.00    -0.275 OA
ATOM      3  N   UNL A   1      36.878  21.785  25.529  1.00  0.00    -0.356 N 
ATOM      4  H   UNL A   1      37.387  21.770  26.371  1.00  0.00     0.163 HD
ENDROOT
BRANCH   1   5
ATOM      5  C   UNL A   1      35.737  23.219  23.815  1.00  0.00     0.125 C 
BRANCH   5   6
ATOM      6  C   UNL A   1      34.386  23.957  23.971  1.00  0.00     0.096 C 
ATOM      7  N   UNL A   1      33.689  24.216  22.694  1.00  0.00    -0.321 N 
ATOM      8  C   UNL A   1      33.204  22.990  22.024  1.00  0.00     0.121 C 
ATOM      9  C   UNL A   1      32.267  22.180  22.909  1.00  0.00     0.022 C 
ATOM     10  C   UNL A   1      33.439  23.151  24.897  1.00  0.00     0.026 C 
ATOM     11  C   UNL A   1      32.929  21.866  24.246  1.00  0.00     0.004 C 
BRANCH   7  12
ATOM     12  C   UNL A   1      33.231  25.408  22.156  1.00  0.00     0.320 C 
ATOM     13  O   UNL A   1      33.291  25.557  20.925  1.00  0.00    -0.248 OA
BRANCH  12  14
ATOM     14  N   UNL A   1      32.803  26.481  22.916  1.00  0.00    -0.325 N 
ATOM     15  C   UNL A   1      33.789  27.559  23.017  1.00  0.00     0.148 C 
BRANCH  14  16
ATOM     16  C   UNL A   1      31.631  26.676  23.783  1.00  0.00     0.155 C 
BRANCH  16  17
ATOM     17  C   UNL A   1      30.515  27.606  23.214  1.00  0.00     0.077 C 
ATOM     18  C   UNL A   1      29.100  27.109  23.517  1.00  0.00     0.043 C 
ATOM     19  C   UNL A   1      30.702  29.019  23.782  1.00  0.00     0.043 C 
BRANCH  17  20
ATOM     20  O   UNL A   1      30.655  27.717  21.790  1.00  0.00    -0.389 OA
ATOM     21  H   UNL A   1      30.665  26.831  21.395  1.00  0.00     0.211 HD
ENDBRANCH  17  20
ENDBRANCH  16  17
ENDBRANCH  14  16
ENDBRANCH  12  14
ENDBRANCH   7  12
ENDBRANCH   5   6
ENDBRANCH   1   5
BRANCH   3  22
ATOM     22  C   UNL A   1      36.657  20.482  24.921  1.00  0.00     0.117 C 
BRANCH  22  23
ATOM     23  C   UNL A   1      37.904  19.606  24.960  1.00  0.00     0.042 C 
BRANCH  23  24
ATOM     24  C   UNL A   1      39.058  20.202  25.754  1.00  0.00     0.118 C 
BRANCH  24  25
ATOM     25  N   UNL A   1      40.092  19.214  26.018  1.00  0.00    -0.352 N 
ATOM     26  C   UNL A   1      41.452  19.338  26.141  1.00  0.00     0.251 C 
ATOM     27  H   UNL A   1      39.757  18.294  26.127  1.00  0.00     0.163 HD
ATOM     28  O   UNL A   1      42.138  18.316  26.064  1.00  0.00    -0.269 OA
BRANCH  26  29
ATOM     29  C   UNL A   1      42.129  20.640  26.372  1.00  0.00     0.039 A 
ATOM     30  C   UNL A   1      42.264  21.091  27.694  1.00  0.00     0.014 A 
ATOM     31  C   UNL A   1      42.506  21.490  25.329  1.00  0.00     0.014 A 
ATOM     32  C   UNL A   1      42.774  22.366  27.964  1.00  0.00     0.010 A 
ATOM     33  C   UNL A   1      43.088  22.732  25.601  1.00  0.00     0.010 A 
ATOM     34  C   UNL A   1      43.196  23.199  26.919  1.00  0.00    -0.014 A 
BRANCH  34  35
ATOM     35  C   UNL A   1      43.671  24.586  27.177  1.00  0.00     0.031 A 
ATOM     36  C   UNL A   1      42.725  25.615  27.742  1.00  0.00     0.074 A 
ATOM     37  C   UNL A   1      44.934  24.942  26.874  1.00  0.00     0.049 A 
ATOM     38  N   UNL A   1      42.917  26.894  27.956  1.00  0.00    -0.248 NA
ATOM     39  C   UNL A   1      41.374  25.148  28.091  1.00  0.00     0.031 C 
ATOM     40  C   UNL A   1      45.945  24.060  26.293  1.00  0.00     0.029 A 
ATOM     41  N   UNL A   1      45.578  26.150  27.002  1.00  0.00    -0.354 N 
ATOM     42  C   UNL A   1      41.706  27.387  28.424  1.00  0.00     0.074 A 
ATOM     43  C   UNL A   1      40.775  26.279  28.437  1.00  0.00     0.031 C 
ATOM     44  C   UNL A   1      47.086  24.749  26.130  1.00  0.00     0.029 A 
ATOM     45  C   UNL A   1      46.879  26.128  26.564  1.00  0.00     0.049 A 
ATOM     46  H   UNL A   1      45.147  26.953  27.374  1.00  0.00     0.167 HD
ATOM     47  C   UNL A   1      41.397  28.645  28.824  1.00  0.00     0.037 A 
ATOM     48  C   UNL A   1      47.798  27.111  26.510  1.00  0.00     0.037 A 
ATOM     49  C   UNL A   1      42.332  29.738  28.868  1.00  0.00     0.049 A 
ATOM     50  C   UNL A   1      47.443  28.491  26.993  1.00  0.00     0.074 A 
ATOM     51  C   UNL A   1      42.130  31.028  29.326  1.00  0.00     0.029 A 
ATOM     52  N   UNL A   1      43.651  29.664  28.449  1.00  0.00    -0.354 N 
ATOM     53  N   UNL A   1      46.307  28.933  27.473  1.00  0.00    -0.248 NA
ATOM     54  C   UNL A   1      48.503  29.508  26.931  1.00  0.00     0.031 C 
ATOM     55  C   UNL A   1      43.321  31.745  29.159  1.00  0.00     0.029 A 
ATOM     56  C   UNL A   1      44.272  30.890  28.628  1.00  0.00     0.049 A 
ATOM     57  H   UNL A   1      44.083  28.860  28.080  1.00  0.00     0.167 HD
ATOM     58  C   UNL A   1      46.519  30.267  27.788  1.00  0.00     0.074 A 
ATOM     59  C   UNL A   1      47.897  30.563  27.457  1.00  0.00     0.031 C 
ATOM     60  C   UNL A   1      45.646  31.167  28.303  1.00  0.00     0.037 A 
BRANCH  47  61
ATOM     61  C   UNL A   1      39.984  28.909  29.253  1.00  0.00     0.064 A 
ATOM     62  C   UNL A   1      38.999  29.303  28.336  1.00  0.00     0.173 A 
ATOM     63  C   UNL A   1      39.603  28.728  30.591  1.00  0.00     0.173 A 
ATOM     64  F   UNL A   1      39.317  29.500  27.047  1.00  0.00    -0.203 F 
ATOM     65  C   UNL A   1      37.690  29.533  28.747  1.00  0.00     0.198 A 
ATOM     66  C   UNL A   1      38.287  28.935  30.994  1.00  0.00     0.198 A 
ATOM     67  F   UNL A   1      40.506  28.345  31.506  1.00  0.00    -0.203 F 
ATOM     68  F   UNL A   1      36.774  29.952  27.862  1.00  0.00    -0.200 F 
ATOM     69  C   UNL A   1      37.333  29.344  30.074  1.00  0.00     0.200 A 
ATOM     70  F   UNL A   1      37.940  28.742  32.275  1.00  0.00    -0.200 F 
ATOM     71  F   UNL A   1      36.070  29.561  30.467  1.00  0.00    -0.200 F 
ENDBRANCH  47  61
BRANCH  48  72
ATOM     72  C   UNL A   1      49.159  26.816  25.997  1.00  0.00     0.064 A 
ATOM     73  C   UNL A   1      50.157  26.332  26.854  1.00  0.00     0.173 A 
ATOM     74  C   UNL A   1      49.488  27.006  24.648  1.00  0.00     0.173 A 
ATOM     75  F   UNL A   1      49.894  26.160  28.158  1.00  0.00    -0.203 F 
ATOM     76  C   UNL A   1      51.438  26.059  26.381  1.00  0.00     0.198 A 
ATOM     77  C   UNL A   1      50.763  26.710  24.172  1.00  0.00     0.198 A 
ATOM     78  F   UNL A   1      48.567  27.470  23.791  1.00  0.00    -0.203 F 
ATOM     79  F   UNL A   1      52.384  25.630  27.228  1.00  0.00    -0.200 F 
ATOM     80  C   UNL A   1      51.739  26.241  25.040  1.00  0.00     0.200 A 
ATOM     81  F   UNL A   1      51.049  26.881  22.875  1.00  0.00    -0.200 F 
ATOM     82  F   UNL A   1      52.970  25.973  24.585  1.00  0.00    -0.200 F 
ENDBRANCH  48  72
BRANCH  60  83
ATOM     83  C   UNL A   1      46.162  32.549  28.570  1.00  0.00     0.064 A 
ATOM     84  C   UNL A   1      46.083  33.559  27.600  1.00  0.00     0.173 A 
ATOM     85  C   UNL A   1      46.699  32.877  29.823  1.00  0.00     0.173 A 
ATOM     86  F   UNL A   1      45.590  33.288  26.383  1.00  0.00    -0.203 F 
ATOM     87  C   UNL A   1      46.542  34.845  27.871  1.00  0.00     0.198 A 
ATOM     88  C   UNL A   1      47.137  34.170  30.097  1.00  0.00     0.198 A 
ATOM     89  F   UNL A   1      46.791  31.947  30.785  1.00  0.00    -0.203 F 
ATOM     90  F   UNL A   1      46.490  35.787  26.919  1.00  0.00    -0.200 F 
ATOM     91  C   UNL A   1      47.062  35.151  29.120  1.00  0.00     0.200 A 
ATOM     92  F   UNL A   1      47.632  34.467  31.307  1.00  0.00    -0.200 F 
ATOM     93  F   UNL A   1      47.499  36.392  29.379  1.00  0.00    -0.200 F 
ENDBRANCH  60  83
ENDBRANCH  34  35
ENDBRANCH  26  29
ENDBRANCH  24  25
ENDBRANCH  23  24
ENDBRANCH  22  23
ENDBRANCH   3  22
TORSDOF 16
ENDMDL
