MODEL 1
REMARK VINA RESULT:     -11.8      0.000      0.000
REMARK SMILES CC(C)(C#N)Nc1ccccc1C(=O)NCCCNC(=O)c1ccc(-c2c3nc(c(-c4c(F)c(F)c(F)c(F)c4F)c4ccc([nH]4)c(-c4c(F)c(F)c(F)c(F)c4F)c4nc(c(-c5c(F)c(F)c(F)c(F)c5F)c5ccc2[nH]5)C=C4)C=C3)cc1
REMARK SMILES IDX 16 1 15 2 13 3 14 4 12 6 7 7 8 8 9 9 11 10 10 11 6 12 2 14
REMARK SMILES IDX 1 15 3 16 4 17 5 18 17 19 18 20 19 21 20 22 21 24 22 25
REMARK SMILES IDX 23 26 84 27 24 28 83 29 25 30 26 31 27 32 77 33 28 34 82 35
REMARK SMILES IDX 76 36 78 37 29 38 81 39 75 40 74 41 30 43 62 44 42 45 61 46
REMARK SMILES IDX 43 47 46 48 60 49 79 50 44 51 45 52 59 54 80 55 47 56 31 57
REMARK SMILES IDX 32 58 40 59 33 60 34 61 38 62 41 63 35 64 36 65 39 66 37 67
REMARK SMILES IDX 63 68 64 69 72 70 65 71 66 72 70 73 73 74 67 75 68 76 71 77
REMARK SMILES IDX 69 78 48 79 49 80 57 81 50 82 51 83 55 84 58 85 52 86 53 87
REMARK SMILES IDX 56 88 54 89
REMARK H PARENT 15 5 6 13 19 23 78 42 46 53
REMARK Flexibility Score: inf
ROOT
ATOM      1  C   UNL A   1      32.440  27.034  26.504  1.00  0.00     0.118 C 
ENDROOT
BRANCH   1   2
ATOM      2  N   UNL A   1      31.405  26.034  26.688  1.00  0.00    -0.352 N 
ATOM      3  C   UNL A   1      31.448  24.679  26.434  1.00  0.00     0.253 C 
ATOM      4  O   UNL A   1      30.458  23.999  26.704  1.00  0.00    -0.269 OA
ATOM      5  H   UNL A   1      30.551  26.369  27.044  1.00  0.00     0.163 HD
BRANCH   3   6
ATOM      6  C   UNL A   1      32.598  24.049  25.734  1.00  0.00     0.062 A 
ATOM      7  C   UNL A   1      32.738  23.916  24.343  1.00  0.00     0.048 A 
ATOM      8  C   UNL A   1      33.736  23.032  23.882  1.00  0.00     0.026 A 
ATOM      9  C   UNL A   1      34.639  22.411  24.749  1.00  0.00     0.002 A 
ATOM     10  C   UNL A   1      33.556  23.480  26.600  1.00  0.00     0.016 A 
ATOM     11  C   UNL A   1      34.582  22.676  26.108  1.00  0.00     0.001 A 
BRANCH   7  12
ATOM     12  N   UNL A   1      32.061  24.627  23.366  1.00  0.00    -0.367 N 
ATOM     13  H   UNL A   1      31.221  24.223  23.047  1.00  0.00     0.162 HD
BRANCH  12  14
ATOM     14  C   UNL A   1      32.435  25.918  22.737  1.00  0.00     0.119 C 
ATOM     15  C   UNL A   1      31.251  26.878  22.795  1.00  0.00     0.051 C 
ATOM     16  C   UNL A   1      33.669  26.577  23.350  1.00  0.00     0.051 C 
BRANCH  14  17
ATOM     17  C   UNL A   1      32.697  25.667  21.282  1.00  0.00     0.090 C 
ATOM     18  N   UNL A   1      32.947  25.436  20.178  1.00  0.00    -0.196 NA
ENDBRANCH  14  17
ENDBRANCH  12  14
ENDBRANCH   7  12
ENDBRANCH   3   6
ENDBRANCH   1   2
BRANCH   1  19
ATOM     19  C   UNL A   1      32.018  28.481  26.753  1.00  0.00     0.042 C 
BRANCH  19  20
ATOM     20  C   UNL A   1      32.856  29.595  26.122  1.00  0.00     0.118 C 
BRANCH  20  21
ATOM     21  N   UNL A   1      32.654  30.954  26.624  1.00  0.00    -0.352 N 
ATOM     22  C   UNL A   1      33.417  31.792  27.406  1.00  0.00     0.251 C 
ATOM     23  H   UNL A   1      31.797  31.351  26.344  1.00  0.00     0.163 HD
ATOM     24  O   UNL A   1      32.967  32.867  27.788  1.00  0.00    -0.269 OA
BRANCH  22  25
ATOM     25  C   UNL A   1      34.782  31.395  27.786  1.00  0.00     0.039 A 
ATOM     26  C   UNL A   1      35.801  32.345  27.874  1.00  0.00     0.014 A 
ATOM     27  C   UNL A   1      35.031  30.065  28.104  1.00  0.00     0.014 A 
ATOM     28  C   UNL A   1      37.023  31.981  28.442  1.00  0.00     0.010 A 
ATOM     29  C   UNL A   1      36.173  29.742  28.810  1.00  0.00     0.010 A 
ATOM     30  C   UNL A   1      37.178  30.700  28.996  1.00  0.00    -0.014 A 
BRANCH  30  31
ATOM     31  C   UNL A   1      38.355  30.324  29.812  1.00  0.00     0.031 A 
ATOM     32  C   UNL A   1      39.345  29.329  29.277  1.00  0.00     0.074 A 
ATOM     33  C   UNL A   1      38.442  30.767  31.082  1.00  0.00     0.049 A 
ATOM     34  N   UNL A   1      40.351  28.753  29.882  1.00  0.00    -0.248 NA
ATOM     35  C   UNL A   1      39.143  28.882  27.889  1.00  0.00     0.031 C 
ATOM     36  C   UNL A   1      37.493  31.678  31.729  1.00  0.00     0.029 A 
ATOM     37  N   UNL A   1      39.362  30.500  32.063  1.00  0.00    -0.354 N 
ATOM     38  C   UNL A   1      40.883  27.866  28.957  1.00  0.00     0.074 A 
ATOM     39  C   UNL A   1      40.039  27.914  27.785  1.00  0.00     0.031 C 
ATOM     40  C   UNL A   1      37.905  31.927  32.981  1.00  0.00     0.029 A 
ATOM     41  C   UNL A   1      39.110  31.151  33.246  1.00  0.00     0.049 A 
ATOM     42  H   UNL A   1      40.130  29.899  31.931  1.00  0.00     0.167 HD
ATOM     43  C   UNL A   1      41.997  27.105  29.064  1.00  0.00     0.037 A 
ATOM     44  C   UNL A   1      39.774  31.114  34.415  1.00  0.00     0.037 A 
ATOM     45  C   UNL A   1      42.831  27.082  30.236  1.00  0.00     0.049 A 
ATOM     46  C   UNL A   1      40.994  30.242  34.522  1.00  0.00     0.074 A 
ATOM     47  C   UNL A   1      44.020  26.405  30.437  1.00  0.00     0.029 A 
ATOM     48  N   UNL A   1      42.552  27.762  31.414  1.00  0.00    -0.354 N 
ATOM     49  N   UNL A   1      41.547  29.477  33.611  1.00  0.00    -0.248 NA
ATOM     50  C   UNL A   1      41.682  30.226  35.819  1.00  0.00     0.031 C 
ATOM     51  C   UNL A   1      44.422  26.620  31.759  1.00  0.00     0.029 A 
ATOM     52  C   UNL A   1      43.523  27.486  32.363  1.00  0.00     0.049 A 
ATOM     53  H   UNL A   1      41.777  28.354  31.554  1.00  0.00     0.167 HD
ATOM     54  C   UNL A   1      42.656  28.903  34.215  1.00  0.00     0.074 A 
ATOM     55  C   UNL A   1      42.711  29.430  35.565  1.00  0.00     0.031 C 
ATOM     56  C   UNL A   1      43.547  28.016  33.704  1.00  0.00     0.037 A 
BRANCH  43  57
ATOM     57  C   UNL A   1      42.358  26.240  27.888  1.00  0.00     0.064 A 
ATOM     58  C   UNL A   1      43.277  26.660  26.911  1.00  0.00     0.173 A 
ATOM     59  C   UNL A   1      41.763  24.980  27.721  1.00  0.00     0.173 A 
ATOM     60  F   UNL A   1      43.868  27.861  27.012  1.00  0.00    -0.203 F 
ATOM     61  C   UNL A   1      43.542  25.880  25.789  1.00  0.00     0.198 A 
ATOM     62  C   UNL A   1      42.065  24.183  26.619  1.00  0.00     0.198 A 
ATOM     63  F   UNL A   1      40.882  24.521  28.623  1.00  0.00    -0.203 F 
ATOM     64  F   UNL A   1      44.357  26.343  24.832  1.00  0.00    -0.200 F 
ATOM     65  C   UNL A   1      42.940  24.640  25.646  1.00  0.00     0.200 A 
ATOM     66  F   UNL A   1      41.492  22.977  26.490  1.00  0.00    -0.200 F 
ATOM     67  F   UNL A   1      43.192  23.892  24.563  1.00  0.00    -0.200 F 
ENDBRANCH  43  57
BRANCH  44  68
ATOM     68  C   UNL A   1      39.318  31.955  35.554  1.00  0.00     0.064 A 
ATOM     69  C   UNL A   1      39.738  33.287  35.671  1.00  0.00     0.173 A 
ATOM     70  C   UNL A   1      38.438  31.463  36.529  1.00  0.00     0.173 A 
ATOM     71  F   UNL A   1      40.591  33.800  34.772  1.00  0.00    -0.203 F 
ATOM     72  C   UNL A   1      39.307  34.090  36.725  1.00  0.00     0.198 A 
ATOM     73  C   UNL A   1      37.983  32.275  37.566  1.00  0.00     0.198 A 
ATOM     74  F   UNL A   1      37.998  30.197  36.460  1.00  0.00    -0.203 F 
ATOM     75  F   UNL A   1      39.755  35.348  36.832  1.00  0.00    -0.200 F 
ATOM     76  C   UNL A   1      38.424  33.586  37.667  1.00  0.00     0.200 A 
ATOM     77  F   UNL A   1      37.113  31.790  38.462  1.00  0.00    -0.200 F 
ATOM     78  F   UNL A   1      37.999  34.362  38.673  1.00  0.00    -0.200 F 
ENDBRANCH  44  68
BRANCH  56  79
ATOM     79  C   UNL A   1      44.660  27.567  34.606  1.00  0.00     0.064 A 
ATOM     80  C   UNL A   1      44.523  26.446  35.439  1.00  0.00     0.173 A 
ATOM     81  C   UNL A   1      45.893  28.236  34.602  1.00  0.00     0.173 A 
ATOM     82  F   UNL A   1      43.359  25.782  35.491  1.00  0.00    -0.203 F 
ATOM     83  C   UNL A   1      45.573  26.027  36.252  1.00  0.00     0.198 A 
ATOM     84  C   UNL A   1      46.952  27.792  35.387  1.00  0.00     0.198 A 
ATOM     85  F   UNL A   1      46.078  29.310  33.819  1.00  0.00    -0.203 F 
ATOM     86  F   UNL A   1      45.402  24.986  37.077  1.00  0.00    -0.200 F 
ATOM     87  C   UNL A   1      46.789  26.694  36.217  1.00  0.00     0.200 A 
ATOM     88  F   UNL A   1      48.132  28.424  35.338  1.00  0.00    -0.200 F 
ATOM     89  F   UNL A   1      47.802  26.279  36.990  1.00  0.00    -0.200 F 
ENDBRANCH  56  79
ENDBRANCH  30  31
ENDBRANCH  22  25
ENDBRANCH  20  21
ENDBRANCH  19  20
ENDBRANCH   1  19
TORSDOF 13
ENDMDL
MODEL 2
REMARK VINA RESULT:     -11.8      1.326      2.794
REMARK SMILES CC(C)(C#N)Nc1ccccc1C(=O)NCCCNC(=O)c1ccc(-c2c3nc(c(-c4c(F)c(F)c(F)c(F)c4F)c4ccc([nH]4)c(-c4c(F)c(F)c(F)c(F)c4F)c4nc(c(-c5c(F)c(F)c(F)c(F)c5F)c5ccc2[nH]5)C=C4)C=C3)cc1
REMARK SMILES IDX 16 1 15 2 13 3 14 4 12 6 7 7 8 8 9 9 11 10 10 11 6 12 2 14
REMARK SMILES IDX 1 15 3 16 4 17 5 18 17 19 18 20 19 21 20 22 21 24 22 25
REMARK SMILES IDX 23 26 84 27 24 28 83 29 25 30 26 31 27 32 77 33 28 34 82 35
REMARK SMILES IDX 76 36 78 37 29 38 81 39 75 40 74 41 30 43 62 44 42 45 61 46
REMARK SMILES IDX 43 47 46 48 60 49 79 50 44 51 45 52 59 54 80 55 47 56 31 57
REMARK SMILES IDX 32 58 40 59 33 60 34 61 38 62 41 63 35 64 36 65 39 66 37 67
REMARK SMILES IDX 63 68 64 69 72 70 65 71 66 72 70 73 73 74 67 75 68 76 71 77
REMARK SMILES IDX 69 78 48 79 49 80 57 81 50 82 51 83 55 84 58 85 52 86 53 87
REMARK SMILES IDX 56 88 54 89
REMARK H PARENT 15 5 6 13 19 23 78 42 46 53
REMARK Flexibility Score: inf
ROOT
ATOM      1  C   UNL A   1      32.248  28.007  27.237  1.00  0.00     0.118 C 
ENDROOT
BRANCH   1   2
ATOM      2  N   UNL A   1      32.957  27.582  26.044  1.00  0.00    -0.352 N 
ATOM      3  C   UNL A   1      32.468  27.350  24.777  1.00  0.00     0.253 C 
ATOM      4  O   UNL A   1      33.261  27.032  23.891  1.00  0.00    -0.269 OA
ATOM      5  H   UNL A   1      33.925  27.440  26.156  1.00  0.00     0.163 HD
BRANCH   3   6
ATOM      6  C   UNL A   1      31.011  27.351  24.486  1.00  0.00     0.062 A 
ATOM      7  C   UNL A   1      30.116  26.307  24.775  1.00  0.00     0.048 A 
ATOM      8  C   UNL A   1      28.849  26.363  24.159  1.00  0.00     0.026 A 
ATOM      9  C   UNL A   1      28.436  27.461  23.400  1.00  0.00     0.002 A 
ATOM     10  C   UNL A   1      30.566  28.491  23.782  1.00  0.00     0.016 A 
ATOM     11  C   UNL A   1      29.278  28.552  23.255  1.00  0.00     0.001 A 
BRANCH   7  12
ATOM     12  N   UNL A   1      30.310  25.269  25.672  1.00  0.00    -0.367 N 
ATOM     13  H   UNL A   1      29.942  25.410  26.574  1.00  0.00     0.162 HD
BRANCH  12  14
ATOM     14  C   UNL A   1      30.999  23.975  25.451  1.00  0.00     0.119 C 
ATOM     15  C   UNL A   1      30.352  22.896  26.313  1.00  0.00     0.051 C 
ATOM     16  C   UNL A   1      31.029  23.524  23.991  1.00  0.00     0.051 C 
BRANCH  14  17
ATOM     17  C   UNL A   1      32.410  24.109  25.941  1.00  0.00     0.090 C 
ATOM     18  N   UNL A   1      33.485  24.274  26.330  1.00  0.00    -0.196 NA
ENDBRANCH  14  17
ENDBRANCH  12  14
ENDBRANCH   7  12
ENDBRANCH   3   6
ENDBRANCH   1   2
BRANCH   1  19
ATOM     19  C   UNL A   1      31.780  29.461  27.250  1.00  0.00     0.042 C 
BRANCH  19  20
ATOM     20  C   UNL A   1      32.590  30.486  26.453  1.00  0.00     0.118 C 
BRANCH  20  21
ATOM     21  N   UNL A   1      32.556  31.874  26.913  1.00  0.00    -0.352 N 
ATOM     22  C   UNL A   1      33.429  32.644  27.648  1.00  0.00     0.251 C 
ATOM     23  H   UNL A   1      31.741  32.357  26.641  1.00  0.00     0.163 HD
ATOM     24  O   UNL A   1      33.113  33.775  28.003  1.00  0.00    -0.269 OA
BRANCH  22  25
ATOM     25  C   UNL A   1      34.751  32.108  28.007  1.00  0.00     0.039 A 
ATOM     26  C   UNL A   1      35.879  32.931  28.000  1.00  0.00     0.014 A 
ATOM     27  C   UNL A   1      34.853  30.779  28.401  1.00  0.00     0.014 A 
ATOM     28  C   UNL A   1      37.071  32.455  28.550  1.00  0.00     0.010 A 
ATOM     29  C   UNL A   1      35.976  30.363  29.088  1.00  0.00     0.010 A 
ATOM     30  C   UNL A   1      37.094  31.201  29.180  1.00  0.00    -0.014 A 
BRANCH  30  31
ATOM     31  C   UNL A   1      38.249  30.734  29.980  1.00  0.00     0.031 A 
ATOM     32  C   UNL A   1      39.190  29.714  29.404  1.00  0.00     0.074 A 
ATOM     33  C   UNL A   1      38.356  31.120  31.266  1.00  0.00     0.049 A 
ATOM     34  N   UNL A   1      40.165  29.065  29.985  1.00  0.00    -0.248 NA
ATOM     35  C   UNL A   1      38.969  29.334  27.999  1.00  0.00     0.031 C 
ATOM     36  C   UNL A   1      37.453  32.050  31.950  1.00  0.00     0.029 A 
ATOM     37  N   UNL A   1      39.260  30.768  32.235  1.00  0.00    -0.354 N 
ATOM     38  C   UNL A   1      40.654  28.190  29.024  1.00  0.00     0.074 A 
ATOM     39  C   UNL A   1      39.815  28.328  27.856  1.00  0.00     0.031 C 
ATOM     40  C   UNL A   1      37.874  32.228  33.211  1.00  0.00     0.029 A 
ATOM     41  C   UNL A   1      39.039  31.382  33.444  1.00  0.00     0.049 A 
ATOM     42  H   UNL A   1      39.998  30.136  32.079  1.00  0.00     0.167 HD
ATOM     43  C   UNL A   1      41.729  27.371  29.100  1.00  0.00     0.037 A 
ATOM     44  C   UNL A   1      39.698  31.265  34.610  1.00  0.00     0.037 A 
ATOM     45  C   UNL A   1      42.559  27.260  30.269  1.00  0.00     0.049 A 
ATOM     46  C   UNL A   1      40.874  30.330  34.681  1.00  0.00     0.074 A 
ATOM     47  C   UNL A   1      43.712  26.518  30.442  1.00  0.00     0.029 A 
ATOM     48  N   UNL A   1      42.312  27.905  31.475  1.00  0.00    -0.354 N 
ATOM     49  N   UNL A   1      41.390  29.576  33.740  1.00  0.00    -0.248 NA
ATOM     50  C   UNL A   1      41.558  30.227  35.976  1.00  0.00     0.031 C 
ATOM     51  C   UNL A   1      44.123  26.658  31.772  1.00  0.00     0.029 A 
ATOM     52  C   UNL A   1      43.266  27.542  32.411  1.00  0.00     0.049 A 
ATOM     53  H   UNL A   1      41.567  28.528  31.639  1.00  0.00     0.167 HD
ATOM     54  C   UNL A   1      42.468  28.924  34.320  1.00  0.00     0.074 A 
ATOM     55  C   UNL A   1      42.546  29.392  35.690  1.00  0.00     0.031 C 
ATOM     56  C   UNL A   1      43.315  28.015  33.772  1.00  0.00     0.037 A 
BRANCH  43  57
ATOM     57  C   UNL A   1      42.048  26.538  27.889  1.00  0.00     0.064 A 
ATOM     58  C   UNL A   1      41.420  25.305  27.650  1.00  0.00     0.173 A 
ATOM     59  C   UNL A   1      43.011  26.968  26.963  1.00  0.00     0.173 A 
ATOM     60  F   UNL A   1      40.499  24.837  28.508  1.00  0.00    -0.203 F 
ATOM     61  C   UNL A   1      41.782  24.510  26.565  1.00  0.00     0.198 A 
ATOM     62  C   UNL A   1      43.339  26.190  25.855  1.00  0.00     0.198 A 
ATOM     63  F   UNL A   1      43.642  28.139  27.135  1.00  0.00    -0.203 F 
ATOM     64  F   UNL A   1      41.227  23.301  26.409  1.00  0.00    -0.200 F 
ATOM     65  C   UNL A   1      42.737  24.956  25.666  1.00  0.00     0.200 A 
ATOM     66  F   UNL A   1      44.253  26.630  24.978  1.00  0.00    -0.200 F 
ATOM     67  F   UNL A   1      43.089  24.189  24.624  1.00  0.00    -0.200 F 
ENDBRANCH  43  57
BRANCH  44  68
ATOM     68  C   UNL A   1      39.283  32.081  35.783  1.00  0.00     0.064 A 
ATOM     69  C   UNL A   1      38.341  31.588  36.697  1.00  0.00     0.173 A 
ATOM     70  C   UNL A   1      39.831  33.347  36.033  1.00  0.00     0.173 A 
ATOM     71  F   UNL A   1      37.776  30.389  36.494  1.00  0.00    -0.203 F 
ATOM     72  C   UNL A   1      37.953  32.336  37.807  1.00  0.00     0.198 A 
ATOM     73  C   UNL A   1      39.466  34.081  37.159  1.00  0.00     0.198 A 
ATOM     74  F   UNL A   1      40.743  33.862  35.194  1.00  0.00    -0.203 F 
ATOM     75  F   UNL A   1      37.023  31.856  38.644  1.00  0.00    -0.200 F 
ATOM     76  C   UNL A   1      38.522  33.578  38.042  1.00  0.00     0.200 A 
ATOM     77  F   UNL A   1      40.034  35.272  37.394  1.00  0.00    -0.200 F 
ATOM     78  F   UNL A   1      38.159  34.291  39.117  1.00  0.00    -0.200 F 
ENDBRANCH  44  68
BRANCH  56  79
ATOM     79  C   UNL A   1      44.403  27.476  34.655  1.00  0.00     0.064 A 
ATOM     80  C   UNL A   1      44.236  26.289  35.384  1.00  0.00     0.173 A 
ATOM     81  C   UNL A   1      45.643  28.127  34.735  1.00  0.00     0.173 A 
ATOM     82  F   UNL A   1      43.063  25.637  35.354  1.00  0.00    -0.203 F 
ATOM     83  C   UNL A   1      45.262  25.788  36.180  1.00  0.00     0.198 A 
ATOM     84  C   UNL A   1      46.680  27.603  35.501  1.00  0.00     0.198 A 
ATOM     85  F   UNL A   1      45.857  29.262  34.052  1.00  0.00    -0.203 F 
ATOM     86  F   UNL A   1      45.062  24.681  36.907  1.00  0.00    -0.200 F 
ATOM     87  C   UNL A   1      46.486  26.439  36.228  1.00  0.00     0.200 A 
ATOM     88  F   UNL A   1      47.867  28.222  35.531  1.00  0.00    -0.200 F 
ATOM     89  F   UNL A   1      47.478  25.946  36.983  1.00  0.00    -0.200 F 
ENDBRANCH  56  79
ENDBRANCH  30  31
ENDBRANCH  22  25
ENDBRANCH  20  21
ENDBRANCH  19  20
ENDBRANCH   1  19
TORSDOF 13
ENDMDL
MODEL 3
REMARK VINA RESULT:     -11.8      0.794      2.237
REMARK SMILES CC(C)(C#N)Nc1ccccc1C(=O)NCCCNC(=O)c1ccc(-c2c3nc(c(-c4c(F)c(F)c(F)c(F)c4F)c4ccc([nH]4)c(-c4c(F)c(F)c(F)c(F)c4F)c4nc(c(-c5c(F)c(F)c(F)c(F)c5F)c5ccc2[nH]5)C=C4)C=C3)cc1
REMARK SMILES IDX 16 1 15 2 13 3 14 4 12 6 7 7 8 8 9 9 11 10 10 11 6 12 2 14
REMARK SMILES IDX 1 15 3 16 4 17 5 18 17 19 18 20 19 21 20 22 21 24 22 25
REMARK SMILES IDX 23 26 84 27 24 28 83 29 25 30 26 31 27 32 77 33 28 34 82 35
REMARK SMILES IDX 76 36 78 37 29 38 81 39 75 40 74 41 30 43 62 44 42 45 61 46
REMARK SMILES IDX 43 47 46 48 60 49 79 50 44 51 45 52 59 54 80 55 47 56 31 57
REMARK SMILES IDX 32 58 40 59 33 60 34 61 38 62 41 63 35 64 36 65 39 66 37 67
REMARK SMILES IDX 63 68 64 69 72 70 65 71 66 72 70 73 73 74 67 75 68 76 71 77
REMARK SMILES IDX 69 78 48 79 49 80 57 81 50 82 51 83 55 84 58 85 52 86 53 87
REMARK SMILES IDX 56 88 54 89
REMARK H PARENT 15 5 6 13 19 23 78 42 46 53
REMARK Flexibility Score: inf
ROOT
ATOM      1  C   UNL A   1      32.223  27.688  26.719  1.00  0.00     0.118 C 
ENDROOT
BRANCH   1   2
ATOM      2  N   UNL A   1      31.079  26.820  26.934  1.00  0.00    -0.352 N 
ATOM      3  C   UNL A   1      30.423  26.006  26.036  1.00  0.00     0.253 C 
ATOM      4  O   UNL A   1      29.491  25.314  26.445  1.00  0.00    -0.269 OA
ATOM      5  H   UNL A   1      30.722  26.812  27.851  1.00  0.00     0.163 HD
BRANCH   3   6
ATOM      6  C   UNL A   1      30.727  26.037  24.582  1.00  0.00     0.062 A 
ATOM      7  C   UNL A   1      31.577  25.148  23.903  1.00  0.00     0.048 A 
ATOM      8  C   UNL A   1      31.976  25.514  22.601  1.00  0.00     0.026 A 
ATOM      9  C   UNL A   1      31.458  26.636  21.950  1.00  0.00     0.002 A 
ATOM     10  C   UNL A   1      30.149  27.127  23.897  1.00  0.00     0.016 A 
ATOM     11  C   UNL A   1      30.502  27.416  22.581  1.00  0.00     0.001 A 
BRANCH   7  12
ATOM     12  N   UNL A   1      31.998  23.901  24.338  1.00  0.00    -0.367 N 
ATOM     13  H   UNL A   1      31.489  23.133  23.992  1.00  0.00     0.162 HD
BRANCH  12  14
ATOM     14  C   UNL A   1      33.113  23.574  25.259  1.00  0.00     0.119 C 
ATOM     15  C   UNL A   1      33.811  22.303  24.787  1.00  0.00     0.051 C 
ATOM     16  C   UNL A   1      34.136  24.697  25.426  1.00  0.00     0.051 C 
BRANCH  14  17
ATOM     17  C   UNL A   1      32.529  23.254  26.602  1.00  0.00     0.090 C 
ATOM     18  N   UNL A   1      32.090  22.945  27.626  1.00  0.00    -0.196 NA
ENDBRANCH  14  17
ENDBRANCH  12  14
ENDBRANCH   7  12
ENDBRANCH   3   6
ENDBRANCH   1   2
BRANCH   1  19
ATOM     19  C   UNL A   1      32.061  29.132  27.190  1.00  0.00     0.042 C 
BRANCH  19  20
ATOM     20  C   UNL A   1      32.699  30.240  26.350  1.00  0.00     0.118 C 
BRANCH  20  21
ATOM     21  N   UNL A   1      32.591  31.610  26.851  1.00  0.00    -0.352 N 
ATOM     22  C   UNL A   1      33.418  32.399  27.620  1.00  0.00     0.251 C 
ATOM     23  H   UNL A   1      31.757  32.060  26.584  1.00  0.00     0.163 HD
ATOM     24  O   UNL A   1      33.042  33.501  28.006  1.00  0.00    -0.269 OA
BRANCH  22  25
ATOM     25  C   UNL A   1      34.761  31.918  27.979  1.00  0.00     0.039 A 
ATOM     26  C   UNL A   1      35.836  32.804  28.060  1.00  0.00     0.014 A 
ATOM     27  C   UNL A   1      34.934  30.572  28.284  1.00  0.00     0.014 A 
ATOM     28  C   UNL A   1      37.041  32.362  28.609  1.00  0.00     0.010 A 
ATOM     29  C   UNL A   1      36.063  30.177  28.972  1.00  0.00     0.010 A 
ATOM     30  C   UNL A   1      37.126  31.071  29.152  1.00  0.00    -0.014 A 
BRANCH  30  31
ATOM     31  C   UNL A   1      38.288  30.618  29.950  1.00  0.00     0.031 A 
ATOM     32  C   UNL A   1      39.232  29.598  29.379  1.00  0.00     0.074 A 
ATOM     33  C   UNL A   1      38.399  31.016  31.233  1.00  0.00     0.049 A 
ATOM     34  N   UNL A   1      40.214  28.960  29.961  1.00  0.00    -0.248 NA
ATOM     35  C   UNL A   1      39.006  29.205  27.978  1.00  0.00     0.031 C 
ATOM     36  C   UNL A   1      37.493  31.947  31.913  1.00  0.00     0.029 A 
ATOM     37  N   UNL A   1      39.310  30.678  32.200  1.00  0.00    -0.354 N 
ATOM     38  C   UNL A   1      40.704  28.080  29.005  1.00  0.00     0.074 A 
ATOM     39  C   UNL A   1      39.858  28.203  27.840  1.00  0.00     0.031 C 
ATOM     40  C   UNL A   1      37.920  32.138  33.170  1.00  0.00     0.029 A 
ATOM     41  C   UNL A   1      39.090  31.302  33.404  1.00  0.00     0.049 A 
ATOM     42  H   UNL A   1      40.050  30.049  32.046  1.00  0.00     0.167 HD
ATOM     43  C   UNL A   1      41.783  27.269  29.083  1.00  0.00     0.037 A 
ATOM     44  C   UNL A   1      39.757  31.199  34.569  1.00  0.00     0.037 A 
ATOM     45  C   UNL A   1      42.620  27.172  30.249  1.00  0.00     0.049 A 
ATOM     46  C   UNL A   1      40.938  30.272  34.642  1.00  0.00     0.074 A 
ATOM     47  C   UNL A   1      43.779  26.439  30.423  1.00  0.00     0.029 A 
ATOM     48  N   UNL A   1      42.375  27.826  31.450  1.00  0.00    -0.354 N 
ATOM     49  N   UNL A   1      41.454  29.512  33.705  1.00  0.00    -0.248 NA
ATOM     50  C   UNL A   1      41.630  30.185  35.935  1.00  0.00     0.031 C 
ATOM     51  C   UNL A   1      44.195  26.594  31.749  1.00  0.00     0.029 A 
ATOM     52  C   UNL A   1      43.336  27.478  32.384  1.00  0.00     0.049 A 
ATOM     53  H   UNL A   1      41.627  28.446  31.612  1.00  0.00     0.167 HD
ATOM     54  C   UNL A   1      42.538  28.872  34.285  1.00  0.00     0.074 A 
ATOM     55  C   UNL A   1      42.621  29.353  35.650  1.00  0.00     0.031 C 
ATOM     56  C   UNL A   1      43.388  27.964  33.741  1.00  0.00     0.037 A 
BRANCH  43  57
ATOM     57  C   UNL A   1      42.102  26.427  27.878  1.00  0.00     0.064 A 
ATOM     58  C   UNL A   1      41.461  25.199  27.639  1.00  0.00     0.173 A 
ATOM     59  C   UNL A   1      43.076  26.841  26.957  1.00  0.00     0.173 A 
ATOM     60  F   UNL A   1      40.529  24.746  28.493  1.00  0.00    -0.203 F 
ATOM     61  C   UNL A   1      41.822  24.396  26.561  1.00  0.00     0.198 A 
ATOM     62  C   UNL A   1      43.402  26.055  25.854  1.00  0.00     0.198 A 
ATOM     63  F   UNL A   1      43.718  28.006  27.128  1.00  0.00    -0.203 F 
ATOM     64  F   UNL A   1      41.254  23.192  26.406  1.00  0.00    -0.200 F 
ATOM     65  C   UNL A   1      42.788  24.827  25.666  1.00  0.00     0.200 A 
ATOM     66  F   UNL A   1      44.327  26.481  24.981  1.00  0.00    -0.200 F 
ATOM     67  F   UNL A   1      43.138  24.051  24.631  1.00  0.00    -0.200 F 
ENDBRANCH  43  57
BRANCH  44  68
ATOM     68  C   UNL A   1      39.342  32.022  35.736  1.00  0.00     0.064 A 
ATOM     69  C   UNL A   1      39.896  33.293  35.946  1.00  0.00     0.173 A 
ATOM     70  C   UNL A   1      38.371  31.577  36.646  1.00  0.00     0.173 A 
ATOM     71  F   UNL A   1      40.838  33.758  35.113  1.00  0.00    -0.203 F 
ATOM     72  C   UNL A   1      39.506  34.080  37.028  1.00  0.00     0.198 A 
ATOM     73  C   UNL A   1      37.959  32.377  37.709  1.00  0.00     0.198 A 
ATOM     74  F   UNL A   1      37.803  30.373  36.486  1.00  0.00    -0.203 F 
ATOM     75  F   UNL A   1      40.079  35.275  37.225  1.00  0.00    -0.200 F 
ATOM     76  C   UNL A   1      38.532  33.626  37.903  1.00  0.00     0.200 A 
ATOM     77  F   UNL A   1      37.003  31.943  38.541  1.00  0.00    -0.200 F 
ATOM     78  F   UNL A   1      38.147  34.388  38.936  1.00  0.00    -0.200 F 
ENDBRANCH  44  68
BRANCH  56  79
ATOM     79  C   UNL A   1      44.484  27.439  34.624  1.00  0.00     0.064 A 
ATOM     80  C   UNL A   1      44.326  26.259  35.367  1.00  0.00     0.173 A 
ATOM     81  C   UNL A   1      45.722  28.096  34.689  1.00  0.00     0.173 A 
ATOM     82  F   UNL A   1      43.157  25.602  35.351  1.00  0.00    -0.203 F 
ATOM     83  C   UNL A   1      45.360  25.771  36.161  1.00  0.00     0.198 A 
ATOM     84  C   UNL A   1      46.765  27.584  35.454  1.00  0.00     0.198 A 
ATOM     85  F   UNL A   1      45.927  29.224  33.992  1.00  0.00    -0.203 F 
ATOM     86  F   UNL A   1      45.169  24.671  36.902  1.00  0.00    -0.200 F 
ATOM     87  C   UNL A   1      46.581  26.428  36.195  1.00  0.00     0.200 A 
ATOM     88  F   UNL A   1      47.950  28.209  35.470  1.00  0.00    -0.200 F 
ATOM     89  F   UNL A   1      47.579  25.948  36.950  1.00  0.00    -0.200 F 
ENDBRANCH  56  79
ENDBRANCH  30  31
ENDBRANCH  22  25
ENDBRANCH  20  21
ENDBRANCH  19  20
ENDBRANCH   1  19
TORSDOF 13
ENDMDL
