MODEL 1
REMARK VINA RESULT:     -11.9      0.000      0.000
REMARK SMILES COCCNC(=O)NC(=O)C[N@H+]1CC[C@H](C(=O)NCCCNC(=O)c2ccc(-c3c4nc(c(-c5c(F)c(F)c(F)c(F)c5F)c5ccc([nH]5)c(-c5c(F)c(F)c(F)c(F)c5F)c5nc(c(-c6c(F)c(F)c(F)c(F)c6F)c6ccc3[nH]6)C=C5)C=C4)cc2)[C@@H]1C
REMARK SMILES IDX 16 1 17 2 18 3 15 5 12 6 13 7 88 8 14 10 89 11 11 12 9 13
REMARK SMILES IDX 5 14 6 15 7 17 8 18 10 20 4 21 3 22 2 23 1 24 19 25 20 26
REMARK SMILES IDX 21 27 22 28 23 29 24 31 25 32 26 33 87 34 27 35 86 36 28 37
REMARK SMILES IDX 29 38 30 39 80 40 31 41 85 42 79 43 81 44 32 45 84 46 78 47
REMARK SMILES IDX 77 48 33 50 65 51 45 52 64 53 46 54 49 55 63 56 82 57 47 58
REMARK SMILES IDX 48 59 62 61 83 62 50 63 34 64 35 65 43 66 36 67 37 68 41 69
REMARK SMILES IDX 44 70 38 71 39 72 42 73 40 74 66 75 67 76 75 77 68 78 69 79
REMARK SMILES IDX 73 80 76 81 70 82 71 83 74 84 72 85 51 86 52 87 60 88 53 89
REMARK SMILES IDX 54 90 58 91 61 92 55 93 56 94 59 95 57 96
REMARK H PARENT 18 4 12 9 5 16 8 19 22 30 81 49 49 60
REMARK Flexibility Score: inf
ROOT
ATOM      1  C   UNL A   1      31.051  29.122  24.478  1.00  0.00     0.229 C 
ATOM      2  O   UNL A   1      30.591  29.188  23.338  1.00  0.00    -0.275 OA
ATOM      3  N   UNL A   1      31.392  30.292  25.087  1.00  0.00    -0.356 N 
ATOM      4  H   UNL A   1      31.348  31.085  24.506  1.00  0.00     0.163 HD
ENDROOT
BRANCH   1   5
ATOM      5  C   UNL A   1      31.222  27.811  25.214  1.00  0.00     0.142 C 
ATOM      6  N   UNL A   1      32.380  25.806  24.671  1.00  0.00    -0.324 N 
ATOM      7  C   UNL A   1      31.059  25.655  24.101  1.00  0.00     0.263 C 
ATOM      8  C   UNL A   1      32.606  27.171  25.110  1.00  0.00     0.194 C 
ATOM      9  H   UNL A   1      32.991  25.626  23.874  1.00  0.00     0.348 HD
ATOM     10  C   UNL A   1      30.226  26.763  24.724  1.00  0.00     0.081 C 
ATOM     11  C   UNL A   1      33.667  27.846  24.245  1.00  0.00     0.076 C 
BRANCH   6  12
ATOM     12  C   UNL A   1      33.037  24.723  25.386  1.00  0.00     0.364 C 
BRANCH  12  13
ATOM     13  C   UNL A   1      34.346  24.223  24.787  1.00  0.00     0.283 C 
ATOM     14  N   UNL A   1      32.353  22.300  23.130  1.00  0.00    -0.335 N 
ATOM     15  C   UNL A   1      33.462  23.006  22.822  1.00  0.00     0.321 C 
ATOM     16  H   UNL A   1      31.617  22.368  22.477  1.00  0.00     0.165 HD
ATOM     17  O   UNL A   1      33.664  23.299  21.646  1.00  0.00    -0.248 OA
ATOM     18  N   UNL A   1      34.377  23.284  23.782  1.00  0.00    -0.273 N 
ATOM     19  H   UNL A   1      35.190  22.729  23.756  1.00  0.00     0.175 HD
ATOM     20  O   UNL A   1      35.431  24.665  25.185  1.00  0.00    -0.268 OA
BRANCH  14  21
ATOM     21  C   UNL A   1      32.082  21.453  24.281  1.00  0.00     0.146 C 
BRANCH  21  22
ATOM     22  C   UNL A   1      32.790  20.091  24.244  1.00  0.00     0.181 C 
BRANCH  22  23
ATOM     23  O   UNL A   1      32.036  19.050  24.872  1.00  0.00    -0.383 OA
ATOM     24  C   UNL A   1      32.815  18.079  25.555  1.00  0.00     0.194 C 
ENDBRANCH  22  23
ENDBRANCH  21  22
ENDBRANCH  14  21
ENDBRANCH  12  13
ENDBRANCH   6  12
ENDBRANCH   1   5
BRANCH   3  25
ATOM     25  C   UNL A   1      31.811  30.561  26.451  1.00  0.00     0.117 C 
BRANCH  25  26
ATOM     26  C   UNL A   1      31.529  31.998  26.870  1.00  0.00     0.042 C 
BRANCH  26  27
ATOM     27  C   UNL A   1      32.769  32.841  27.132  1.00  0.00     0.118 C 
BRANCH  27  28
ATOM     28  N   UNL A   1      32.463  34.193  27.573  1.00  0.00    -0.352 N 
ATOM     29  C   UNL A   1      33.015  34.924  28.593  1.00  0.00     0.251 C 
ATOM     30  H   UNL A   1      31.754  34.649  27.065  1.00  0.00     0.163 HD
ATOM     31  O   UNL A   1      32.520  36.004  28.911  1.00  0.00    -0.269 OA
BRANCH  29  32
ATOM     32  C   UNL A   1      34.184  34.405  29.332  1.00  0.00     0.039 A 
ATOM     33  C   UNL A   1      33.969  33.697  30.517  1.00  0.00     0.014 A 
ATOM     34  C   UNL A   1      35.484  34.614  28.866  1.00  0.00     0.014 A 
ATOM     35  C   UNL A   1      35.054  33.144  31.198  1.00  0.00     0.010 A 
ATOM     36  C   UNL A   1      36.556  33.992  29.499  1.00  0.00     0.010 A 
ATOM     37  C   UNL A   1      36.352  33.253  30.673  1.00  0.00    -0.014 A 
BRANCH  37  38
ATOM     38  C   UNL A   1      37.510  32.607  31.345  1.00  0.00     0.031 A 
ATOM     39  C   UNL A   1      38.242  31.481  30.669  1.00  0.00     0.074 A 
ATOM     40  C   UNL A   1      37.868  33.002  32.583  1.00  0.00     0.049 A 
ATOM     41  N   UNL A   1      39.230  30.748  31.117  1.00  0.00    -0.248 NA
ATOM     42  C   UNL A   1      37.789  31.113  29.318  1.00  0.00     0.031 C 
ATOM     43  C   UNL A   1      37.214  34.059  33.356  1.00  0.00     0.029 A 
ATOM     44  N   UNL A   1      38.868  32.557  33.410  1.00  0.00    -0.354 N 
ATOM     45  C   UNL A   1      39.515  29.838  30.107  1.00  0.00     0.074 A 
ATOM     46  C   UNL A   1      38.551  30.062  29.051  1.00  0.00     0.031 C 
ATOM     47  C   UNL A   1      37.847  34.200  34.531  1.00  0.00     0.029 A 
ATOM     48  C   UNL A   1      38.921  33.216  34.615  1.00  0.00     0.049 A 
ATOM     49  H   UNL A   1      39.488  31.833  33.164  1.00  0.00     0.167 HD
ATOM     50  C   UNL A   1      40.508  28.920  30.052  1.00  0.00     0.037 A 
ATOM     51  C   UNL A   1      39.739  33.037  35.670  1.00  0.00     0.037 A 
ATOM     52  C   UNL A   1      41.472  28.705  31.100  1.00  0.00     0.049 A 
ATOM     53  C   UNL A   1      40.803  31.974  35.598  1.00  0.00     0.074 A 
ATOM     54  C   UNL A   1      42.530  27.814  31.130  1.00  0.00     0.029 A 
ATOM     55  N   UNL A   1      41.491  29.391  32.305  1.00  0.00    -0.354 N 
ATOM     56  N   UNL A   1      41.096  31.158  34.615  1.00  0.00    -0.248 NA
ATOM     57  C   UNL A   1      41.654  31.811  36.785  1.00  0.00     0.031 C 
ATOM     58  C   UNL A   1      43.162  27.928  32.372  1.00  0.00     0.029 A 
ATOM     59  C   UNL A   1      42.534  28.931  33.093  1.00  0.00     0.049 A 
ATOM     60  H   UNL A   1      40.858  30.099  32.563  1.00  0.00     0.167 HD
ATOM     61  C   UNL A   1      42.188  30.417  35.047  1.00  0.00     0.074 A 
ATOM     62  C   UNL A   1      42.515  30.891  36.375  1.00  0.00     0.031 C 
ATOM     63  C   UNL A   1      42.860  29.430  34.405  1.00  0.00     0.037 A 
BRANCH  50  64
ATOM     64  C   UNL A   1      40.615  28.085  28.807  1.00  0.00     0.064 A 
ATOM     65  C   UNL A   1      39.908  26.880  28.672  1.00  0.00     0.173 A 
ATOM     66  C   UNL A   1      41.388  28.515  27.718  1.00  0.00     0.173 A 
ATOM     67  F   UNL A   1      39.162  26.418  29.687  1.00  0.00    -0.203 F 
ATOM     68  C   UNL A   1      39.992  26.124  27.506  1.00  0.00     0.198 A 
ATOM     69  C   UNL A   1      41.445  27.773  26.542  1.00  0.00     0.198 A 
ATOM     70  F   UNL A   1      42.080  29.662  27.791  1.00  0.00    -0.203 F 
ATOM     71  F   UNL A   1      39.346  24.954  27.420  1.00  0.00    -0.200 F 
ATOM     72  C   UNL A   1      40.753  26.576  26.438  1.00  0.00     0.200 A 
ATOM     73  F   UNL A   1      42.168  28.219  25.504  1.00  0.00    -0.200 F 
ATOM     74  F   UNL A   1      40.824  25.854  25.311  1.00  0.00    -0.200 F 
ENDBRANCH  50  64
BRANCH  51  75
ATOM     75  C   UNL A   1      39.604  33.889  36.882  1.00  0.00     0.064 A 
ATOM     76  C   UNL A   1      38.829  33.469  37.974  1.00  0.00     0.173 A 
ATOM     77  C   UNL A   1      40.204  35.155  36.961  1.00  0.00     0.173 A 
ATOM     78  F   UNL A   1      38.218  32.275  37.941  1.00  0.00    -0.203 F 
ATOM     79  C   UNL A   1      38.628  34.296  39.077  1.00  0.00     0.198 A 
ATOM     80  C   UNL A   1      40.031  35.967  38.080  1.00  0.00     0.198 A 
ATOM     81  F   UNL A   1      40.960  35.604  35.948  1.00  0.00    -0.203 F 
ATOM     82  F   UNL A   1      37.827  33.896  40.074  1.00  0.00    -0.200 F 
ATOM     83  C   UNL A   1      39.231  35.543  39.131  1.00  0.00     0.200 A 
ATOM     84  F   UNL A   1      40.629  37.164  38.135  1.00  0.00    -0.200 F 
ATOM     85  F   UNL A   1      39.032  36.341  40.189  1.00  0.00    -0.200 F 
ENDBRANCH  51  75
BRANCH  63  86
ATOM     86  C   UNL A   1      44.050  28.837  35.103  1.00  0.00     0.064 A 
ATOM     87  C   UNL A   1      45.343  29.352  34.929  1.00  0.00     0.173 A 
ATOM     88  C   UNL A   1      43.886  27.756  35.984  1.00  0.00     0.173 A 
ATOM     89  F   UNL A   1      45.556  30.374  34.087  1.00  0.00    -0.203 F 
ATOM     90  C   UNL A   1      46.432  28.787  35.587  1.00  0.00     0.198 A 
ATOM     91  C   UNL A   1      44.972  27.217  36.668  1.00  0.00     0.198 A 
ATOM     92  F   UNL A   1      42.670  27.231  36.191  1.00  0.00    -0.203 F 
ATOM     93  F   UNL A   1      47.667  29.258  35.363  1.00  0.00    -0.200 F 
ATOM     94  C   UNL A   1      46.245  27.726  36.461  1.00  0.00     0.200 A 
ATOM     95  F   UNL A   1      44.786  26.203  37.524  1.00  0.00    -0.200 F 
ATOM     96  F   UNL A   1      47.295  27.189  37.100  1.00  0.00    -0.200 F 
ENDBRANCH  63  86
ENDBRANCH  37  38
ENDBRANCH  29  32
ENDBRANCH  27  28
ENDBRANCH  26  27
ENDBRANCH  25  26
ENDBRANCH   3  25
TORSDOF 15
ENDMDL
MODEL 2
REMARK VINA RESULT:     -11.8      0.973      7.415
REMARK SMILES COCCNC(=O)NC(=O)C[N@H+]1CC[C@H](C(=O)NCCCNC(=O)c2ccc(-c3c4nc(c(-c5c(F)c(F)c(F)c(F)c5F)c5ccc([nH]5)c(-c5c(F)c(F)c(F)c(F)c5F)c5nc(c(-c6c(F)c(F)c(F)c(F)c6F)c6ccc3[nH]6)C=C5)C=C4)cc2)[C@@H]1C
REMARK SMILES IDX 16 1 17 2 18 3 15 5 12 6 13 7 88 8 14 10 89 11 11 12 9 13
REMARK SMILES IDX 5 14 6 15 7 17 8 18 10 20 4 21 3 22 2 23 1 24 19 25 20 26
REMARK SMILES IDX 21 27 22 28 23 29 24 31 25 32 26 33 87 34 27 35 86 36 28 37
REMARK SMILES IDX 29 38 30 39 80 40 31 41 85 42 79 43 81 44 32 45 84 46 78 47
REMARK SMILES IDX 77 48 33 50 65 51 45 52 64 53 46 54 49 55 63 56 82 57 47 58
REMARK SMILES IDX 48 59 62 61 83 62 50 63 34 64 35 65 43 66 36 67 37 68 41 69
REMARK SMILES IDX 44 70 38 71 39 72 42 73 40 74 66 75 67 76 75 77 68 78 69 79
REMARK SMILES IDX 73 80 76 81 70 82 71 83 74 84 72 85 51 86 52 87 60 88 53 89
REMARK SMILES IDX 54 90 58 91 61 92 55 93 56 94 59 95 57 96
REMARK H PARENT 18 4 12 9 5 16 8 19 22 30 81 49 49 60
REMARK Flexibility Score: inf
ROOT
ATOM      1  C   UNL A   1      31.193  28.844  24.463  1.00  0.00     0.229 C 
ATOM      2  O   UNL A   1      30.936  28.815  23.259  1.00  0.00    -0.275 OA
ATOM      3  N   UNL A   1      31.534  30.047  25.005  1.00  0.00    -0.356 N 
ATOM      4  H   UNL A   1      31.658  30.771  24.350  1.00  0.00     0.163 HD
ENDROOT
BRANCH   1   5
ATOM      5  C   UNL A   1      31.120  27.615  25.343  1.00  0.00     0.142 C 
ATOM      6  N   UNL A   1      32.077  25.446  25.151  1.00  0.00    -0.324 N 
ATOM      7  C   UNL A   1      30.818  25.377  24.441  1.00  0.00     0.263 C 
ATOM      8  C   UNL A   1      32.418  26.819  25.475  1.00  0.00     0.194 C 
ATOM      9  H   UNL A   1      32.746  25.110  24.458  1.00  0.00     0.348 HD
ATOM     10  C   UNL A   1      30.064  26.633  24.841  1.00  0.00     0.081 C 
ATOM     11  C   UNL A   1      33.642  27.270  24.685  1.00  0.00     0.076 C 
BRANCH   6  12
ATOM     12  C   UNL A   1      32.513  24.386  26.047  1.00  0.00     0.364 C 
BRANCH  12  13
ATOM     13  C   UNL A   1      31.475  23.317  26.372  1.00  0.00     0.283 C 
ATOM     14  N   UNL A   1      32.970  21.751  23.979  1.00  0.00    -0.335 N 
ATOM     15  C   UNL A   1      32.480  21.393  25.185  1.00  0.00     0.321 C 
ATOM     16  H   UNL A   1      33.860  21.388  23.763  1.00  0.00     0.165 HD
ATOM     17  O   UNL A   1      32.907  20.368  25.712  1.00  0.00    -0.248 OA
ATOM     18  N   UNL A   1      31.462  22.096  25.740  1.00  0.00    -0.273 N 
ATOM     19  H   UNL A   1      30.579  21.666  25.681  1.00  0.00     0.175 HD
ATOM     20  O   UNL A   1      30.613  23.519  27.236  1.00  0.00    -0.268 OA
BRANCH  14  21
ATOM     21  C   UNL A   1      32.379  22.593  22.950  1.00  0.00     0.146 C 
BRANCH  21  22
ATOM     22  C   UNL A   1      33.401  23.310  22.055  1.00  0.00     0.181 C 
BRANCH  22  23
ATOM     23  O   UNL A   1      33.446  24.722  22.274  1.00  0.00    -0.383 OA
ATOM     24  C   UNL A   1      32.648  25.489  21.384  1.00  0.00     0.194 C 
ENDBRANCH  22  23
ENDBRANCH  21  22
ENDBRANCH  14  21
ENDBRANCH  12  13
ENDBRANCH   6  12
ENDBRANCH   1   5
BRANCH   3  25
ATOM     25  C   UNL A   1      31.744  30.436  26.389  1.00  0.00     0.117 C 
BRANCH  25  26
ATOM     26  C   UNL A   1      31.558  31.932  26.603  1.00  0.00     0.042 C 
BRANCH  26  27
ATOM     27  C   UNL A   1      32.811  32.672  27.049  1.00  0.00     0.118 C 
BRANCH  27  28
ATOM     28  N   UNL A   1      32.540  34.009  27.556  1.00  0.00    -0.352 N 
ATOM     29  C   UNL A   1      33.110  34.674  28.611  1.00  0.00     0.251 C 
ATOM     30  H   UNL A   1      31.844  34.508  27.071  1.00  0.00     0.163 HD
ATOM     31  O   UNL A   1      32.643  35.750  28.982  1.00  0.00    -0.269 OA
BRANCH  29  32
ATOM     32  C   UNL A   1      34.263  34.089  29.323  1.00  0.00     0.039 A 
ATOM     33  C   UNL A   1      34.024  33.198  30.373  1.00  0.00     0.014 A 
ATOM     34  C   UNL A   1      35.575  34.414  28.965  1.00  0.00     0.014 A 
ATOM     35  C   UNL A   1      35.098  32.586  31.019  1.00  0.00     0.010 A 
ATOM     36  C   UNL A   1      36.641  33.739  29.551  1.00  0.00     0.010 A 
ATOM     37  C   UNL A   1      36.414  32.821  30.587  1.00  0.00    -0.014 A 
BRANCH  37  38
ATOM     38  C   UNL A   1      37.565  32.120  31.213  1.00  0.00     0.031 A 
ATOM     39  C   UNL A   1      38.046  32.530  32.578  1.00  0.00     0.074 A 
ATOM     40  C   UNL A   1      38.207  31.151  30.532  1.00  0.00     0.049 A 
ATOM     41  N   UNL A   1      39.070  32.088  33.263  1.00  0.00    -0.248 NA
ATOM     42  C   UNL A   1      37.288  33.595  33.255  1.00  0.00     0.031 C 
ATOM     43  C   UNL A   1      37.857  30.688  29.187  1.00  0.00     0.029 A 
ATOM     44  N   UNL A   1      39.291  30.382  30.875  1.00  0.00    -0.354 N 
ATOM     45  C   UNL A   1      39.079  32.818  34.445  1.00  0.00     0.074 A 
ATOM     46  C   UNL A   1      38.001  33.779  34.356  1.00  0.00     0.031 C 
ATOM     47  C   UNL A   1      38.691  29.698  28.832  1.00  0.00     0.029 A 
ATOM     48  C   UNL A   1      39.662  29.485  29.902  1.00  0.00     0.049 A 
ATOM     49  H   UNL A   1      39.759  30.466  31.736  1.00  0.00     0.167 HD
ATOM     50  C   UNL A   1      39.890  32.677  35.519  1.00  0.00     0.037 A 
ATOM     51  C   UNL A   1      40.676  28.600  29.873  1.00  0.00     0.037 A 
ATOM     52  C   UNL A   1      40.956  31.713  35.608  1.00  0.00     0.049 A 
ATOM     53  C   UNL A   1      41.593  28.503  31.064  1.00  0.00     0.074 A 
ATOM     54  C   UNL A   1      41.821  31.478  36.662  1.00  0.00     0.029 A 
ATOM     55  N   UNL A   1      41.301  30.825  34.601  1.00  0.00    -0.354 N 
ATOM     56  N   UNL A   1      41.556  29.160  32.197  1.00  0.00    -0.248 NA
ATOM     57  C   UNL A   1      42.693  27.533  30.971  1.00  0.00     0.031 C 
ATOM     58  C   UNL A   1      42.719  30.478  36.276  1.00  0.00     0.029 A 
ATOM     59  C   UNL A   1      42.378  30.050  35.004  1.00  0.00     0.049 A 
ATOM     60  H   UNL A   1      40.849  30.754  33.730  1.00  0.00     0.167 HD
ATOM     61  C   UNL A   1      42.596  28.655  32.966  1.00  0.00     0.074 A 
ATOM     62  C   UNL A   1      43.238  27.626  32.175  1.00  0.00     0.031 C 
ATOM     63  C   UNL A   1      42.989  29.013  34.213  1.00  0.00     0.037 A 
BRANCH  50  64
ATOM     64  C   UNL A   1      39.649  33.580  36.695  1.00  0.00     0.064 A 
ATOM     65  C   UNL A   1      38.848  33.175  37.775  1.00  0.00     0.173 A 
ATOM     66  C   UNL A   1      40.262  34.840  36.771  1.00  0.00     0.173 A 
ATOM     67  F   UNL A   1      38.229  31.985  37.748  1.00  0.00    -0.203 F 
ATOM     68  C   UNL A   1      38.648  34.008  38.873  1.00  0.00     0.198 A 
ATOM     69  C   UNL A   1      40.086  35.656  37.885  1.00  0.00     0.198 A 
ATOM     70  F   UNL A   1      41.041  35.274  35.770  1.00  0.00    -0.203 F 
ATOM     71  F   UNL A   1      37.841  33.619  39.869  1.00  0.00    -0.200 F 
ATOM     72  C   UNL A   1      39.275  35.244  38.932  1.00  0.00     0.200 A 
ATOM     73  F   UNL A   1      40.705  36.844  37.948  1.00  0.00    -0.200 F 
ATOM     74  F   UNL A   1      39.093  36.039  39.995  1.00  0.00    -0.200 F 
ENDBRANCH  50  64
BRANCH  51  75
ATOM     75  C   UNL A   1      40.877  27.720  28.691  1.00  0.00     0.064 A 
ATOM     76  C   UNL A   1      40.169  26.516  28.562  1.00  0.00     0.173 A 
ATOM     77  C   UNL A   1      41.808  28.036  27.691  1.00  0.00     0.173 A 
ATOM     78  F   UNL A   1      39.280  26.158  29.501  1.00  0.00    -0.203 F 
ATOM     79  C   UNL A   1      40.412  25.645  27.502  1.00  0.00     0.198 A 
ATOM     80  C   UNL A   1      42.026  27.181  26.612  1.00  0.00     0.198 A 
ATOM     81  F   UNL A   1      42.509  29.177  27.761  1.00  0.00    -0.203 F 
ATOM     82  F   UNL A   1      39.770  24.471  27.442  1.00  0.00    -0.200 F 
ATOM     83  C   UNL A   1      41.338  25.979  26.526  1.00  0.00     0.200 A 
ATOM     84  F   UNL A   1      42.910  27.515  25.663  1.00  0.00    -0.200 F 
ATOM     85  F   UNL A   1      41.578  25.139  25.510  1.00  0.00    -0.200 F 
ENDBRANCH  51  75
BRANCH  63  86
ATOM     86  C   UNL A   1      44.128  28.248  34.824  1.00  0.00     0.064 A 
ATOM     87  C   UNL A   1      45.460  28.667  34.688  1.00  0.00     0.173 A 
ATOM     88  C   UNL A   1      43.877  27.095  35.585  1.00  0.00     0.173 A 
ATOM     89  F   UNL A   1      45.755  29.753  33.958  1.00  0.00    -0.203 F 
ATOM     90  C   UNL A   1      46.500  27.942  35.264  1.00  0.00     0.198 A 
ATOM     91  C   UNL A   1      44.917  26.394  36.190  1.00  0.00     0.198 A 
ATOM     92  F   UNL A   1      42.621  26.655  35.753  1.00  0.00    -0.203 F 
ATOM     93  F   UNL A   1      47.769  28.329  35.073  1.00  0.00    -0.200 F 
ATOM     94  C   UNL A   1      46.227  26.812  36.020  1.00  0.00     0.200 A 
ATOM     95  F   UNL A   1      44.649  25.312  36.933  1.00  0.00    -0.200 F 
ATOM     96  F   UNL A   1      47.230  26.121  36.580  1.00  0.00    -0.200 F 
ENDBRANCH  63  86
ENDBRANCH  37  38
ENDBRANCH  29  32
ENDBRANCH  27  28
ENDBRANCH  26  27
ENDBRANCH  25  26
ENDBRANCH   3  25
TORSDOF 15
ENDMDL
MODEL 3
REMARK VINA RESULT:     -11.7      0.929      1.931
REMARK SMILES COCCNC(=O)NC(=O)C[N@H+]1CC[C@H](C(=O)NCCCNC(=O)c2ccc(-c3c4nc(c(-c5c(F)c(F)c(F)c(F)c5F)c5ccc([nH]5)c(-c5c(F)c(F)c(F)c(F)c5F)c5nc(c(-c6c(F)c(F)c(F)c(F)c6F)c6ccc3[nH]6)C=C5)C=C4)cc2)[C@@H]1C
REMARK SMILES IDX 16 1 17 2 18 3 15 5 12 6 13 7 88 8 14 10 89 11 11 12 9 13
REMARK SMILES IDX 5 14 6 15 7 17 8 18 10 20 4 21 3 22 2 23 1 24 19 25 20 26
REMARK SMILES IDX 21 27 22 28 23 29 24 31 25 32 26 33 87 34 27 35 86 36 28 37
REMARK SMILES IDX 29 38 30 39 80 40 31 41 85 42 79 43 81 44 32 45 84 46 78 47
REMARK SMILES IDX 77 48 33 50 65 51 45 52 64 53 46 54 49 55 63 56 82 57 47 58
REMARK SMILES IDX 48 59 62 61 83 62 50 63 34 64 35 65 43 66 36 67 37 68 41 69
REMARK SMILES IDX 44 70 38 71 39 72 42 73 40 74 66 75 67 76 75 77 68 78 69 79
REMARK SMILES IDX 73 80 76 81 70 82 71 83 74 84 72 85 51 86 52 87 60 88 53 89
REMARK SMILES IDX 54 90 58 91 61 92 55 93 56 94 59 95 57 96
REMARK H PARENT 18 4 12 9 5 16 8 19 22 30 81 49 49 60
REMARK Flexibility Score: inf
ROOT
ATOM      1  C   UNL A   1      32.718  29.096  24.530  1.00  0.00     0.229 C 
ATOM      2  O   UNL A   1      33.668  29.092  23.747  1.00  0.00    -0.275 OA
ATOM      3  N   UNL A   1      32.642  30.123  25.422  1.00  0.00    -0.356 N 
ATOM      4  H   UNL A   1      33.429  30.714  25.434  1.00  0.00     0.163 HD
ENDROOT
BRANCH   1   5
ATOM      5  C   UNL A   1      31.645  28.029  24.516  1.00  0.00     0.142 C 
ATOM      6  N   UNL A   1      31.742  25.655  24.623  1.00  0.00    -0.324 N 
ATOM      7  C   UNL A   1      31.851  25.984  23.218  1.00  0.00     0.263 C 
ATOM      8  C   UNL A   1      31.882  26.841  25.448  1.00  0.00     0.194 C 
ATOM      9  H   UNL A   1      32.557  25.063  24.780  1.00  0.00     0.348 HD
ATOM     10  C   UNL A   1      31.457  27.447  23.118  1.00  0.00     0.081 C 
ATOM     11  C   UNL A   1      33.177  26.784  26.254  1.00  0.00     0.076 C 
BRANCH   6  12
ATOM     12  C   UNL A   1      30.895  24.570  25.095  1.00  0.00     0.364 C 
BRANCH  12  13
ATOM     13  C   UNL A   1      31.455  23.736  26.242  1.00  0.00     0.283 C 
ATOM     14  N   UNL A   1      33.330  22.554  23.896  1.00  0.00    -0.335 N 
ATOM     15  C   UNL A   1      33.535  22.918  25.180  1.00  0.00     0.321 C 
ATOM     16  H   UNL A   1      34.014  22.862  23.258  1.00  0.00     0.165 HD
ATOM     17  O   UNL A   1      34.678  23.191  25.538  1.00  0.00    -0.248 OA
ATOM     18  N   UNL A   1      32.512  22.874  26.069  1.00  0.00    -0.273 N 
ATOM     19  H   UNL A   1      32.530  22.107  26.686  1.00  0.00     0.175 HD
ATOM     20  O   UNL A   1      30.974  23.824  27.378  1.00  0.00    -0.268 OA
BRANCH  14  21
ATOM     21  C   UNL A   1      32.249  21.774  23.314  1.00  0.00     0.146 C 
BRANCH  21  22
ATOM     22  C   UNL A   1      32.345  20.264  23.578  1.00  0.00     0.181 C 
BRANCH  22  23
ATOM     23  O   UNL A   1      32.083  19.915  24.940  1.00  0.00    -0.383 OA
ATOM     24  C   UNL A   1      32.888  18.862  25.451  1.00  0.00     0.194 C 
ENDBRANCH  22  23
ENDBRANCH  21  22
ENDBRANCH  14  21
ENDBRANCH  12  13
ENDBRANCH   6  12
ENDBRANCH   1   5
BRANCH   3  25
ATOM     25  C   UNL A   1      31.592  30.490  26.356  1.00  0.00     0.117 C 
BRANCH  25  26
ATOM     26  C   UNL A   1      31.465  31.998  26.521  1.00  0.00     0.042 C 
BRANCH  26  27
ATOM     27  C   UNL A   1      32.654  32.667  27.197  1.00  0.00     0.118 C 
BRANCH  27  28
ATOM     28  N   UNL A   1      32.402  34.053  27.562  1.00  0.00    -0.352 N 
ATOM     29  C   UNL A   1      33.008  34.827  28.519  1.00  0.00     0.251 C 
ATOM     30  H   UNL A   1      31.693  34.500  27.046  1.00  0.00     0.163 HD
ATOM     31  O   UNL A   1      32.555  35.940  28.782  1.00  0.00    -0.269 OA
BRANCH  29  32
ATOM     32  C   UNL A   1      34.181  34.317  29.255  1.00  0.00     0.039 A 
ATOM     33  C   UNL A   1      33.973  33.539  30.396  1.00  0.00     0.014 A 
ATOM     34  C   UNL A   1      35.481  34.602  28.829  1.00  0.00     0.014 A 
ATOM     35  C   UNL A   1      35.066  32.995  31.072  1.00  0.00     0.010 A 
ATOM     36  C   UNL A   1      36.565  33.990  29.452  1.00  0.00     0.010 A 
ATOM     37  C   UNL A   1      36.368  33.183  30.582  1.00  0.00    -0.014 A 
BRANCH  37  38
ATOM     38  C   UNL A   1      37.538  32.549  31.244  1.00  0.00     0.031 A 
ATOM     39  C   UNL A   1      38.272  31.425  30.566  1.00  0.00     0.074 A 
ATOM     40  C   UNL A   1      37.905  32.952  32.476  1.00  0.00     0.049 A 
ATOM     41  N   UNL A   1      39.270  30.703  31.007  1.00  0.00    -0.248 NA
ATOM     42  C   UNL A   1      37.808  31.048  29.221  1.00  0.00     0.031 C 
ATOM     43  C   UNL A   1      37.251  34.008  33.251  1.00  0.00     0.029 A 
ATOM     44  N   UNL A   1      38.918  32.519  33.295  1.00  0.00    -0.354 N 
ATOM     45  C   UNL A   1      39.551  29.790  29.998  1.00  0.00     0.074 A 
ATOM     46  C   UNL A   1      38.575  30.002  28.951  1.00  0.00     0.031 C 
ATOM     47  C   UNL A   1      37.895  34.160  34.419  1.00  0.00     0.029 A 
ATOM     48  C   UNL A   1      38.979  33.184  34.496  1.00  0.00     0.049 A 
ATOM     49  H   UNL A   1      39.541  31.799  33.046  1.00  0.00     0.167 HD
ATOM     50  C   UNL A   1      40.551  28.880  29.936  1.00  0.00     0.037 A 
ATOM     51  C   UNL A   1      39.809  33.017  35.544  1.00  0.00     0.037 A 
ATOM     52  C   UNL A   1      41.527  28.677  30.975  1.00  0.00     0.049 A 
ATOM     53  C   UNL A   1      40.880  31.962  35.465  1.00  0.00     0.074 A 
ATOM     54  C   UNL A   1      42.592  27.794  30.999  1.00  0.00     0.029 A 
ATOM     55  N   UNL A   1      41.554  29.369  32.177  1.00  0.00    -0.354 N 
ATOM     56  N   UNL A   1      41.169  31.143  34.483  1.00  0.00    -0.248 NA
ATOM     57  C   UNL A   1      41.745  31.811  36.644  1.00  0.00     0.031 C 
ATOM     58  C   UNL A   1      43.236  27.919  32.234  1.00  0.00     0.029 A 
ATOM     59  C   UNL A   1      42.608  28.920  32.957  1.00  0.00     0.049 A 
ATOM     60  H   UNL A   1      40.918  30.073  32.439  1.00  0.00     0.167 HD
ATOM     61  C   UNL A   1      42.272  30.413  34.907  1.00  0.00     0.074 A 
ATOM     62  C   UNL A   1      42.608  30.896  36.230  1.00  0.00     0.031 C 
ATOM     63  C   UNL A   1      42.944  29.428  34.262  1.00  0.00     0.037 A 
BRANCH  50  64
ATOM     64  C   UNL A   1      40.651  28.040  28.695  1.00  0.00     0.064 A 
ATOM     65  C   UNL A   1      41.394  28.466  27.582  1.00  0.00     0.173 A 
ATOM     66  C   UNL A   1      40.044  26.777  28.631  1.00  0.00     0.173 A 
ATOM     67  F   UNL A   1      41.985  29.670  27.586  1.00  0.00    -0.203 F 
ATOM     68  C   UNL A   1      41.502  27.671  26.444  1.00  0.00     0.198 A 
ATOM     69  C   UNL A   1      40.181  25.971  27.504  1.00  0.00     0.198 A 
ATOM     70  F   UNL A   1      39.327  26.318  29.668  1.00  0.00    -0.203 F 
ATOM     71  F   UNL A   1      42.176  28.121  25.377  1.00  0.00    -0.200 F 
ATOM     72  C   UNL A   1      40.904  26.421  26.409  1.00  0.00     0.200 A 
ATOM     73  F   UNL A   1      39.615  24.756  27.478  1.00  0.00    -0.200 F 
ATOM     74  F   UNL A   1      41.019  25.651  25.318  1.00  0.00    -0.200 F 
ENDBRANCH  50  64
BRANCH  51  75
ATOM     75  C   UNL A   1      39.680  33.874  36.753  1.00  0.00     0.064 A 
ATOM     76  C   UNL A   1      38.891  33.469  37.841  1.00  0.00     0.173 A 
ATOM     77  C   UNL A   1      40.299  35.129  36.833  1.00  0.00     0.173 A 
ATOM     78  F   UNL A   1      38.261  32.284  37.806  1.00  0.00    -0.203 F 
ATOM     79  C   UNL A   1      38.696  34.300  38.941  1.00  0.00     0.198 A 
ATOM     80  C   UNL A   1      40.132  35.946  37.949  1.00  0.00     0.198 A 
ATOM     81  F   UNL A   1      41.069  35.564  35.824  1.00  0.00    -0.203 F 
ATOM     82  F   UNL A   1      37.883  33.915  39.934  1.00  0.00    -0.200 F 
ATOM     83  C   UNL A   1      39.319  35.538  38.996  1.00  0.00     0.200 A 
ATOM     84  F   UNL A   1      40.749  37.134  38.006  1.00  0.00    -0.200 F 
ATOM     85  F   UNL A   1      39.126  36.341  40.051  1.00  0.00    -0.200 F 
ENDBRANCH  51  75
BRANCH  63  86
ATOM     86  C   UNL A   1      44.146  28.848  34.950  1.00  0.00     0.064 A 
ATOM     87  C   UNL A   1      44.053  27.719  35.777  1.00  0.00     0.173 A 
ATOM     88  C   UNL A   1      45.416  29.413  34.751  1.00  0.00     0.173 A 
ATOM     89  F   UNL A   1      42.861  27.151  36.013  1.00  0.00    -0.203 F 
ATOM     90  C   UNL A   1      45.181  27.197  36.405  1.00  0.00     0.198 A 
ATOM     91  C   UNL A   1      46.547  28.866  35.351  1.00  0.00     0.198 A 
ATOM     92  F   UNL A   1      45.562  30.489  33.964  1.00  0.00    -0.203 F 
ATOM     93  F   UNL A   1      45.060  26.153  37.236  1.00  0.00    -0.200 F 
ATOM     94  C   UNL A   1      46.427  27.766  36.185  1.00  0.00     0.200 A 
ATOM     95  F   UNL A   1      47.751  29.407  35.124  1.00  0.00    -0.200 F 
ATOM     96  F   UNL A   1      47.513  27.256  36.784  1.00  0.00    -0.200 F 
ENDBRANCH  63  86
ENDBRANCH  37  38
ENDBRANCH  29  32
ENDBRANCH  27  28
ENDBRANCH  26  27
ENDBRANCH  25  26
ENDBRANCH   3  25
TORSDOF 15
ENDMDL
