MODEL 1
REMARK VINA RESULT:     -13.2      0.000      0.000
REMARK SMILES C#Cc1cc(Cl)cc2c1O[C@H](C(F)(F)F)C(C(=O)NCCCNC(=O)c1ccc(-c3c4nc(c(-c5c(F)c(F)c(F)c(F)c5F)c5ccc([nH]5)c(-c5c(F)c(F)c(F)c(F)c5F)c5nc(c(-c6c(F)c(F)c(F)c(F)c6F)c6ccc3[nH]6)C=C5)C=C4)cc1)=C2
REMARK SMILES IDX 21 1 20 2 19 3 17 4 18 5 16 7 3 8 4 9 9 10 5 11 8 12 10 13
REMARK SMILES IDX 6 14 7 15 89 16 11 17 2 18 1 19 12 20 13 21 14 22 15 23
REMARK SMILES IDX 22 24 23 25 24 26 25 28 26 29 27 30 88 31 28 32 87 33 29 34
REMARK SMILES IDX 30 35 31 36 81 37 32 38 86 39 80 40 82 41 33 42 85 43 79 44
REMARK SMILES IDX 78 45 34 47 66 48 46 49 65 50 47 51 50 52 64 53 83 54 48 55
REMARK SMILES IDX 49 56 63 58 84 59 51 60 35 61 36 62 44 63 37 64 38 65 42 66
REMARK SMILES IDX 45 67 39 68 40 69 43 70 41 71 67 72 68 73 76 74 69 75 70 76
REMARK SMILES IDX 74 77 77 78 71 79 72 80 75 81 73 82 52 83 53 84 61 85 54 86
REMARK SMILES IDX 55 87 59 88 62 89 56 90 57 91 60 92 58 93
REMARK H PARENT 19 6 23 27 82 46 50 57
REMARK Flexibility Score: inf
ROOT
ATOM      1  C   UNL A   1      31.381  32.266  26.552  1.00  0.00     0.042 C 
ENDROOT
BRANCH   1   2
ATOM      2  C   UNL A   1      31.488  30.762  26.382  1.00  0.00     0.118 C 
BRANCH   2   3
ATOM      3  N   UNL A   1      31.369  30.365  24.986  1.00  0.00    -0.352 N 
ATOM      4  C   UNL A   1      31.509  29.229  24.262  1.00  0.00     0.251 C 
ATOM      5  O   UNL A   1      31.295  29.341  23.051  1.00  0.00    -0.270 OA
ATOM      6  H   UNL A   1      31.120  31.127  24.415  1.00  0.00     0.163 HD
BRANCH   4   7
ATOM      7  C   UNL A   1      31.898  27.907  24.828  1.00  0.00     0.067 C 
ATOM      8  C   UNL A   1      32.931  24.064  26.172  1.00  0.00     0.068 A 
ATOM      9  C   UNL A   1      31.944  23.214  26.665  1.00  0.00     0.041 A 
ATOM     10  C   UNL A   1      32.572  25.328  25.683  1.00  0.00     0.143 A 
ATOM     11  C   UNL A   1      30.612  23.629  26.658  1.00  0.00     0.043 A 
ATOM     12  C   UNL A   1      31.237  25.747  25.676  1.00  0.00     0.020 A 
ATOM     13  O   UNL A   1      33.572  26.102  25.167  1.00  0.00    -0.474 OA
ATOM     14  Cl  UNL A   1      29.392  22.571  27.255  1.00  0.00    -0.084 Cl
ATOM     15  C   UNL A   1      30.252  24.887  26.167  1.00  0.00     0.032 A 
ATOM     16  C   UNL A   1      30.899  27.053  25.117  1.00  0.00     0.025 C 
ATOM     17  C   UNL A   1      33.320  27.522  25.095  1.00  0.00     0.314 C 
BRANCH   8  18
ATOM     18  C   UNL A   1      34.305  23.656  26.177  1.00  0.00    -0.067 C 
ATOM     19  C   UNL A   1      35.453  23.308  26.114  1.00  0.00     0.010 C 
ENDBRANCH   8  18
BRANCH  17  20
ATOM     20  C   UNL A   1      33.898  28.213  26.347  1.00  0.00     0.429 C 
ATOM     21  F   UNL A   1      34.998  27.553  26.786  1.00  0.00    -0.167 F 
ATOM     22  F   UNL A   1      34.289  29.488  26.106  1.00  0.00    -0.167 F 
ATOM     23  F   UNL A   1      33.016  28.264  27.369  1.00  0.00    -0.167 F 
ENDBRANCH  17  20
ENDBRANCH   4   7
ENDBRANCH   2   3
ENDBRANCH   1   2
BRANCH   1  24
ATOM     24  C   UNL A   1      32.582  32.822  27.296  1.00  0.00     0.118 C 
BRANCH  24  25
ATOM     25  N   UNL A   1      32.408  34.238  27.623  1.00  0.00    -0.352 N 
ATOM     26  C   UNL A   1      32.983  34.992  28.615  1.00  0.00     0.251 C 
ATOM     27  H   UNL A   1      31.783  34.726  27.040  1.00  0.00     0.163 HD
ATOM     28  O   UNL A   1      32.524  36.089  28.910  1.00  0.00    -0.269 OA
BRANCH  26  29
ATOM     29  C   UNL A   1      34.150  34.455  29.334  1.00  0.00     0.039 A 
ATOM     30  C   UNL A   1      33.964  33.761  30.529  1.00  0.00     0.014 A 
ATOM     31  C   UNL A   1      35.427  34.612  28.793  1.00  0.00     0.014 A 
ATOM     32  C   UNL A   1      35.060  33.152  31.136  1.00  0.00     0.010 A 
ATOM     33  C   UNL A   1      36.487  33.896  29.322  1.00  0.00     0.010 A 
ATOM     34  C   UNL A   1      36.319  33.174  30.510  1.00  0.00    -0.014 A 
BRANCH  34  35
ATOM     35  C   UNL A   1      37.479  32.471  31.102  1.00  0.00     0.031 A 
ATOM     36  C   UNL A   1      37.960  32.849  32.474  1.00  0.00     0.074 A 
ATOM     37  C   UNL A   1      38.110  31.517  30.390  1.00  0.00     0.049 A 
ATOM     38  N   UNL A   1      38.950  32.346  33.166  1.00  0.00    -0.248 NA
ATOM     39  C   UNL A   1      37.258  33.952  33.152  1.00  0.00     0.031 C 
ATOM     40  C   UNL A   1      37.761  31.111  29.028  1.00  0.00     0.029 A 
ATOM     41  N   UNL A   1      39.169  30.709  30.716  1.00  0.00    -0.354 N 
ATOM     42  C   UNL A   1      38.979  33.064  34.352  1.00  0.00     0.074 A 
ATOM     43  C   UNL A   1      37.972  34.095  34.257  1.00  0.00     0.031 C 
ATOM     44  C   UNL A   1      38.551  30.091  28.656  1.00  0.00     0.029 A 
ATOM     45  C   UNL A   1      39.493  29.804  29.734  1.00  0.00     0.049 A 
ATOM     46  H   UNL A   1      39.652  30.771  31.571  1.00  0.00     0.167 HD
ATOM     47  C   UNL A   1      39.745  32.850  35.445  1.00  0.00     0.037 A 
ATOM     48  C   UNL A   1      40.439  28.846  29.712  1.00  0.00     0.037 A 
ATOM     49  C   UNL A   1      40.730  31.808  35.538  1.00  0.00     0.049 A 
ATOM     50  C   UNL A   1      41.313  28.659  30.923  1.00  0.00     0.074 A 
ATOM     51  C   UNL A   1      41.533  31.482  36.614  1.00  0.00     0.029 A 
ATOM     52  N   UNL A   1      41.046  30.927  34.515  1.00  0.00    -0.354 N 
ATOM     53  N   UNL A   1      41.278  29.292  32.072  1.00  0.00    -0.248 NA
ATOM     54  C   UNL A   1      42.354  27.625  30.841  1.00  0.00     0.031 C 
ATOM     55  C   UNL A   1      42.382  30.446  36.220  1.00  0.00     0.029 A 
ATOM     56  C   UNL A   1      42.059  30.077  34.923  1.00  0.00     0.049 A 
ATOM     57  H   UNL A   1      40.614  30.908  33.630  1.00  0.00     0.167 HD
ATOM     58  C   UNL A   1      42.269  28.719  32.856  1.00  0.00     0.074 A 
ATOM     59  C   UNL A   1      42.879  27.674  32.060  1.00  0.00     0.031 C 
ATOM     60  C   UNL A   1      42.642  29.033  34.121  1.00  0.00     0.037 A 
BRANCH  47  61
ATOM     61  C   UNL A   1      39.537  33.741  36.634  1.00  0.00     0.064 A 
ATOM     62  C   UNL A   1      38.725  33.348  37.710  1.00  0.00     0.173 A 
ATOM     63  C   UNL A   1      40.209  34.967  36.734  1.00  0.00     0.173 A 
ATOM     64  F   UNL A   1      38.048  32.190  37.658  1.00  0.00    -0.203 F 
ATOM     65  C   UNL A   1      38.582  34.157  38.832  1.00  0.00     0.198 A 
ATOM     66  C   UNL A   1      40.092  35.757  37.875  1.00  0.00     0.198 A 
ATOM     67  F   UNL A   1      40.999  35.391  35.736  1.00  0.00    -0.203 F 
ATOM     68  F   UNL A   1      37.768  33.779  39.828  1.00  0.00    -0.200 F 
ATOM     69  C   UNL A   1      39.274  35.354  38.920  1.00  0.00     0.200 A 
ATOM     70  F   UNL A   1      40.776  36.906  37.965  1.00  0.00    -0.200 F 
ATOM     71  F   UNL A   1      39.154  36.122  40.013  1.00  0.00    -0.200 F 
ENDBRANCH  47  61
BRANCH  48  72
ATOM     72  C   UNL A   1      40.575  27.968  28.519  1.00  0.00     0.064 A 
ATOM     73  C   UNL A   1      39.922  26.728  28.460  1.00  0.00     0.173 A 
ATOM     74  C   UNL A   1      41.334  28.355  27.405  1.00  0.00     0.173 A 
ATOM     75  F   UNL A   1      39.196  26.303  29.505  1.00  0.00    -0.203 F 
ATOM     76  C   UNL A   1      40.034  25.906  27.340  1.00  0.00     0.198 A 
ATOM     77  C   UNL A   1      41.419  27.548  26.272  1.00  0.00     0.198 A 
ATOM     78  F   UNL A   1      41.974  29.533  27.405  1.00  0.00    -0.203 F 
ATOM     79  F   UNL A   1      39.430  24.710  27.327  1.00  0.00    -0.200 F 
ATOM     80  C   UNL A   1      40.774  26.321  26.244  1.00  0.00     0.200 A 
ATOM     81  F   UNL A   1      42.119  27.962  25.207  1.00  0.00    -0.200 F 
ATOM     82  F   UNL A   1      40.868  25.537  25.161  1.00  0.00    -0.200 F 
ENDBRANCH  48  72
BRANCH  60  83
ATOM     83  C   UNL A   1      43.749  28.237  34.748  1.00  0.00     0.064 A 
ATOM     84  C   UNL A   1      45.078  28.679  34.714  1.00  0.00     0.173 A 
ATOM     85  C   UNL A   1      43.457  27.087  35.500  1.00  0.00     0.173 A 
ATOM     86  F   UNL A   1      45.411  29.766  34.001  1.00  0.00    -0.203 F 
ATOM     87  C   UNL A   1      46.075  28.001  35.410  1.00  0.00     0.198 A 
ATOM     88  C   UNL A   1      44.449  26.431  36.222  1.00  0.00     0.198 A 
ATOM     89  F   UNL A   1      42.197  26.629  35.573  1.00  0.00    -0.203 F 
ATOM     90  F   UNL A   1      47.343  28.429  35.346  1.00  0.00    -0.200 F 
ATOM     91  C   UNL A   1      45.757  26.889  36.175  1.00  0.00     0.200 A 
ATOM     92  F   UNL A   1      44.134  25.373  36.981  1.00  0.00    -0.200 F 
ATOM     93  F   UNL A   1      46.712  26.258  36.873  1.00  0.00    -0.200 F 
ENDBRANCH  60  83
ENDBRANCH  34  35
ENDBRANCH  26  29
ENDBRANCH  24  25
ENDBRANCH   1  24
TORSDOF 12
ENDMDL
MODEL 2
REMARK VINA RESULT:     -13.1      0.164      1.601
REMARK SMILES C#Cc1cc(Cl)cc2c1O[C@H](C(F)(F)F)C(C(=O)NCCCNC(=O)c1ccc(-c3c4nc(c(-c5c(F)c(F)c(F)c(F)c5F)c5ccc([nH]5)c(-c5c(F)c(F)c(F)c(F)c5F)c5nc(c(-c6c(F)c(F)c(F)c(F)c6F)c6ccc3[nH]6)C=C5)C=C4)cc1)=C2
REMARK SMILES IDX 21 1 20 2 19 3 17 4 18 5 16 7 3 8 4 9 9 10 5 11 8 12 10 13
REMARK SMILES IDX 6 14 7 15 89 16 11 17 2 18 1 19 12 20 13 21 14 22 15 23
REMARK SMILES IDX 22 24 23 25 24 26 25 28 26 29 27 30 88 31 28 32 87 33 29 34
REMARK SMILES IDX 30 35 31 36 81 37 32 38 86 39 80 40 82 41 33 42 85 43 79 44
REMARK SMILES IDX 78 45 34 47 66 48 46 49 65 50 47 51 50 52 64 53 83 54 48 55
REMARK SMILES IDX 49 56 63 58 84 59 51 60 35 61 36 62 44 63 37 64 38 65 42 66
REMARK SMILES IDX 45 67 39 68 40 69 43 70 41 71 67 72 68 73 76 74 69 75 70 76
REMARK SMILES IDX 74 77 77 78 71 79 72 80 75 81 73 82 52 83 53 84 61 85 54 86
REMARK SMILES IDX 55 87 59 88 62 89 56 90 57 91 60 92 58 93
REMARK H PARENT 19 6 23 27 82 46 50 57
REMARK Flexibility Score: inf
ROOT
ATOM      1  C   UNL A   1      31.386  32.264  26.518  1.00  0.00     0.042 C 
ENDROOT
BRANCH   1   2
ATOM      2  C   UNL A   1      31.467  30.757  26.364  1.00  0.00     0.118 C 
BRANCH   2   3
ATOM      3  N   UNL A   1      31.387  30.349  24.969  1.00  0.00    -0.352 N 
ATOM      4  C   UNL A   1      31.554  29.209  24.257  1.00  0.00     0.251 C 
ATOM      5  O   UNL A   1      31.372  29.311  23.040  1.00  0.00    -0.270 OA
ATOM      6  H   UNL A   1      31.149  31.106  24.386  1.00  0.00     0.163 HD
BRANCH   4   7
ATOM      7  C   UNL A   1      31.937  27.894  24.843  1.00  0.00     0.067 C 
ATOM      8  C   UNL A   1      32.956  24.068  26.243  1.00  0.00     0.068 A 
ATOM      9  C   UNL A   1      31.964  23.223  26.736  1.00  0.00     0.041 A 
ATOM     10  C   UNL A   1      32.602  25.325  25.735  1.00  0.00     0.143 A 
ATOM     11  C   UNL A   1      30.632  23.638  26.710  1.00  0.00     0.043 A 
ATOM     12  C   UNL A   1      31.268  25.744  25.709  1.00  0.00     0.020 A 
ATOM     13  O   UNL A   1      33.608  26.093  25.220  1.00  0.00    -0.474 OA
ATOM     14  Cl  UNL A   1      29.407  22.587  27.307  1.00  0.00    -0.084 Cl
ATOM     15  C   UNL A   1      30.278  24.890  26.200  1.00  0.00     0.032 A 
ATOM     16  C   UNL A   1      30.936  27.043  25.131  1.00  0.00     0.025 C 
ATOM     17  C   UNL A   1      33.357  27.512  25.130  1.00  0.00     0.314 C 
BRANCH   8  18
ATOM     18  C   UNL A   1      34.330  23.659  26.267  1.00  0.00    -0.067 C 
ATOM     19  C   UNL A   1      35.483  23.325  26.220  1.00  0.00     0.010 C 
ENDBRANCH   8  18
BRANCH  17  20
ATOM     20  C   UNL A   1      33.921  28.218  26.379  1.00  0.00     0.429 C 
ATOM     21  F   UNL A   1      35.061  27.610  26.791  1.00  0.00    -0.167 F 
ATOM     22  F   UNL A   1      34.244  29.513  26.146  1.00  0.00    -0.167 F 
ATOM     23  F   UNL A   1      33.056  28.214  27.416  1.00  0.00    -0.167 F 
ENDBRANCH  17  20
ENDBRANCH   4   7
ENDBRANCH   2   3
ENDBRANCH   1   2
BRANCH   1  24
ATOM     24  C   UNL A   1      32.581  32.804  27.283  1.00  0.00     0.118 C 
BRANCH  24  25
ATOM     25  N   UNL A   1      32.415  34.219  27.619  1.00  0.00    -0.352 N 
ATOM     26  C   UNL A   1      33.003  34.966  28.609  1.00  0.00     0.251 C 
ATOM     27  H   UNL A   1      31.785  34.711  27.046  1.00  0.00     0.163 HD
ATOM     28  O   UNL A   1      32.549  36.063  28.914  1.00  0.00    -0.269 OA
BRANCH  26  29
ATOM     29  C   UNL A   1      34.176  34.422  29.312  1.00  0.00     0.039 A 
ATOM     30  C   UNL A   1      33.997  33.684  30.481  1.00  0.00     0.014 A 
ATOM     31  C   UNL A   1      35.452  34.619  28.781  1.00  0.00     0.014 A 
ATOM     32  C   UNL A   1      35.101  33.071  31.070  1.00  0.00     0.010 A 
ATOM     33  C   UNL A   1      36.521  33.902  29.289  1.00  0.00     0.010 A 
ATOM     34  C   UNL A   1      36.361  33.135  30.450  1.00  0.00    -0.014 A 
BRANCH  34  35
ATOM     35  C   UNL A   1      37.531  32.430  31.020  1.00  0.00     0.031 A 
ATOM     36  C   UNL A   1      38.031  32.800  32.388  1.00  0.00     0.074 A 
ATOM     37  C   UNL A   1      38.152  31.481  30.294  1.00  0.00     0.049 A 
ATOM     38  N   UNL A   1      39.031  32.293  33.062  1.00  0.00    -0.248 NA
ATOM     39  C   UNL A   1      37.337  33.898  33.083  1.00  0.00     0.031 C 
ATOM     40  C   UNL A   1      37.783  31.082  28.934  1.00  0.00     0.029 A 
ATOM     41  N   UNL A   1      39.217  30.673  30.599  1.00  0.00    -0.354 N 
ATOM     42  C   UNL A   1      39.076  33.005  34.252  1.00  0.00     0.074 A 
ATOM     43  C   UNL A   1      38.068  34.035  34.178  1.00  0.00     0.031 C 
ATOM     44  C   UNL A   1      38.569  30.066  28.545  1.00  0.00     0.029 A 
ATOM     45  C   UNL A   1      39.527  29.774  29.607  1.00  0.00     0.049 A 
ATOM     46  H   UNL A   1      39.712  30.730  31.448  1.00  0.00     0.167 HD
ATOM     47  C   UNL A   1      39.859  32.785  35.332  1.00  0.00     0.037 A 
ATOM     48  C   UNL A   1      40.474  28.817  29.565  1.00  0.00     0.037 A 
ATOM     49  C   UNL A   1      40.846  31.744  35.405  1.00  0.00     0.049 A 
ATOM     50  C   UNL A   1      41.366  28.623  30.763  1.00  0.00     0.074 A 
ATOM     51  C   UNL A   1      41.665  31.412  36.467  1.00  0.00     0.029 A 
ATOM     52  N   UNL A   1      41.148  30.869  34.371  1.00  0.00    -0.354 N 
ATOM     53  N   UNL A   1      41.347  29.249  31.916  1.00  0.00    -0.248 NA
ATOM     54  C   UNL A   1      42.406  27.592  30.659  1.00  0.00     0.031 C 
ATOM     55  C   UNL A   1      42.509  30.379  36.055  1.00  0.00     0.029 A 
ATOM     56  C   UNL A   1      42.168  30.018  34.760  1.00  0.00     0.049 A 
ATOM     57  H   UNL A   1      40.703  30.855  33.493  1.00  0.00     0.167 HD
ATOM     58  C   UNL A   1      42.350  28.673  32.682  1.00  0.00     0.074 A 
ATOM     59  C   UNL A   1      42.949  27.634  31.870  1.00  0.00     0.031 C 
ATOM     60  C   UNL A   1      42.741  28.979  33.943  1.00  0.00     0.037 A 
BRANCH  47  61
ATOM     61  C   UNL A   1      39.667  33.669  36.530  1.00  0.00     0.064 A 
ATOM     62  C   UNL A   1      40.268  34.935  36.609  1.00  0.00     0.173 A 
ATOM     63  C   UNL A   1      38.819  33.279  37.576  1.00  0.00     0.173 A 
ATOM     64  F   UNL A   1      41.100  35.350  35.641  1.00  0.00    -0.203 F 
ATOM     65  C   UNL A   1      40.040  35.769  37.699  1.00  0.00     0.198 A 
ATOM     66  C   UNL A   1      38.564  34.131  38.647  1.00  0.00     0.198 A 
ATOM     67  F   UNL A   1      38.218  32.080  37.550  1.00  0.00    -0.203 F 
ATOM     68  F   UNL A   1      40.658  36.956  37.772  1.00  0.00    -0.200 F 
ATOM     69  C   UNL A   1      39.179  35.373  38.711  1.00  0.00     0.200 A 
ATOM     70  F   UNL A   1      37.719  33.753  39.615  1.00  0.00    -0.200 F 
ATOM     71  F   UNL A   1      38.942  36.187  39.748  1.00  0.00    -0.200 F 
ENDBRANCH  47  61
BRANCH  48  72
ATOM     72  C   UNL A   1      40.593  27.946  28.365  1.00  0.00     0.064 A 
ATOM     73  C   UNL A   1      41.370  28.337  27.266  1.00  0.00     0.173 A 
ATOM     74  C   UNL A   1      39.957  26.698  28.299  1.00  0.00     0.173 A 
ATOM     75  F   UNL A   1      41.987  29.529  27.271  1.00  0.00    -0.203 F 
ATOM     76  C   UNL A   1      41.497  27.520  26.144  1.00  0.00     0.198 A 
ATOM     77  C   UNL A   1      40.110  25.866  27.191  1.00  0.00     0.198 A 
ATOM     78  F   UNL A   1      39.206  26.271  29.326  1.00  0.00    -0.203 F 
ATOM     79  F   UNL A   1      42.215  27.935  25.092  1.00  0.00    -0.200 F 
ATOM     80  C   UNL A   1      40.874  26.281  26.112  1.00  0.00     0.200 A 
ATOM     81  F   UNL A   1      39.523  24.662  27.174  1.00  0.00    -0.200 F 
ATOM     82  F   UNL A   1      41.009  25.489  25.039  1.00  0.00    -0.200 F 
ENDBRANCH  48  72
BRANCH  60  83
ATOM     83  C   UNL A   1      43.857  28.181  34.549  1.00  0.00     0.064 A 
ATOM     84  C   UNL A   1      45.176  28.655  34.556  1.00  0.00     0.173 A 
ATOM     85  C   UNL A   1      43.582  26.991  35.242  1.00  0.00     0.173 A 
ATOM     86  F   UNL A   1      45.492  29.782  33.899  1.00  0.00    -0.203 F 
ATOM     87  C   UNL A   1      46.179  27.969  35.234  1.00  0.00     0.198 A 
ATOM     88  C   UNL A   1      44.580  26.325  35.948  1.00  0.00     0.198 A 
ATOM     89  F   UNL A   1      42.333  26.501  35.275  1.00  0.00    -0.203 F 
ATOM     90  F   UNL A   1      47.437  28.428  35.209  1.00  0.00    -0.200 F 
ATOM     91  C   UNL A   1      45.877  26.815  35.942  1.00  0.00     0.200 A 
ATOM     92  F   UNL A   1      44.280  25.226  36.652  1.00  0.00    -0.200 F 
ATOM     93  F   UNL A   1      46.837  26.175  36.624  1.00  0.00    -0.200 F 
ENDBRANCH  60  83
ENDBRANCH  34  35
ENDBRANCH  26  29
ENDBRANCH  24  25
ENDBRANCH   1  24
TORSDOF 12
ENDMDL
MODEL 3
REMARK VINA RESULT:     -13.1      1.321      2.114
REMARK SMILES C#Cc1cc(Cl)cc2c1O[C@H](C(F)(F)F)C(C(=O)NCCCNC(=O)c1ccc(-c3c4nc(c(-c5c(F)c(F)c(F)c(F)c5F)c5ccc([nH]5)c(-c5c(F)c(F)c(F)c(F)c5F)c5nc(c(-c6c(F)c(F)c(F)c(F)c6F)c6ccc3[nH]6)C=C5)C=C4)cc1)=C2
REMARK SMILES IDX 21 1 20 2 19 3 17 4 18 5 16 7 3 8 4 9 9 10 5 11 8 12 10 13
REMARK SMILES IDX 6 14 7 15 89 16 11 17 2 18 1 19 12 20 13 21 14 22 15 23
REMARK SMILES IDX 22 24 23 25 24 26 25 28 26 29 27 30 88 31 28 32 87 33 29 34
REMARK SMILES IDX 30 35 31 36 81 37 32 38 86 39 80 40 82 41 33 42 85 43 79 44
REMARK SMILES IDX 78 45 34 47 66 48 46 49 65 50 47 51 50 52 64 53 83 54 48 55
REMARK SMILES IDX 49 56 63 58 84 59 51 60 35 61 36 62 44 63 37 64 38 65 42 66
REMARK SMILES IDX 45 67 39 68 40 69 43 70 41 71 67 72 68 73 76 74 69 75 70 76
REMARK SMILES IDX 74 77 77 78 71 79 72 80 75 81 73 82 52 83 53 84 61 85 54 86
REMARK SMILES IDX 55 87 59 88 62 89 56 90 57 91 60 92 58 93
REMARK H PARENT 19 6 23 27 82 46 50 57
REMARK Flexibility Score: inf
ROOT
ATOM      1  C   UNL A   1      31.452  31.943  26.694  1.00  0.00     0.042 C 
ENDROOT
BRANCH   1   2
ATOM      2  C   UNL A   1      31.637  30.454  26.466  1.00  0.00     0.118 C 
BRANCH   2   3
ATOM      3  N   UNL A   1      32.226  30.175  25.165  1.00  0.00    -0.352 N 
ATOM      4  C   UNL A   1      32.550  29.079  24.437  1.00  0.00     0.251 C 
ATOM      5  O   UNL A   1      33.043  29.305  23.328  1.00  0.00    -0.270 OA
ATOM      6  H   UNL A   1      32.451  31.004  24.685  1.00  0.00     0.163 HD
BRANCH   4   7
ATOM      7  C   UNL A   1      32.353  27.673  24.890  1.00  0.00     0.067 C 
ATOM      8  C   UNL A   1      31.885  23.792  26.423  1.00  0.00     0.068 A 
ATOM      9  C   UNL A   1      32.977  22.929  26.471  1.00  0.00     0.041 A 
ATOM     10  C   UNL A   1      32.059  25.100  25.953  1.00  0.00     0.143 A 
ATOM     11  C   UNL A   1      34.231  23.382  26.057  1.00  0.00     0.043 A 
ATOM     12  C   UNL A   1      33.314  25.557  25.536  1.00  0.00     0.020 A 
ATOM     13  O   UNL A   1      30.966  25.919  25.973  1.00  0.00    -0.474 OA
ATOM     14  Cl  UNL A   1      35.582  22.318  26.129  1.00  0.00    -0.084 Cl
ATOM     15  C   UNL A   1      34.406  24.688  25.591  1.00  0.00     0.032 A 
ATOM     16  C   UNL A   1      33.463  26.941  25.094  1.00  0.00     0.025 C 
ATOM     17  C   UNL A   1      31.000  27.066  25.097  1.00  0.00     0.314 C 
BRANCH   8  18
ATOM     18  C   UNL A   1      30.590  23.341  26.839  1.00  0.00    -0.067 C 
ATOM     19  C   UNL A   1      29.529  22.953  27.251  1.00  0.00     0.010 C 
ENDBRANCH   8  18
BRANCH  17  20
ATOM     20  C   UNL A   1      30.293  26.724  23.769  1.00  0.00     0.429 C 
ATOM     21  F   UNL A   1      29.500  27.752  23.378  1.00  0.00    -0.167 F 
ATOM     22  F   UNL A   1      31.164  26.508  22.754  1.00  0.00    -0.167 F 
ATOM     23  F   UNL A   1      29.519  25.620  23.859  1.00  0.00    -0.167 F 
ENDBRANCH  17  20
ENDBRANCH   4   7
ENDBRANCH   2   3
ENDBRANCH   1   2
BRANCH   1  24
ATOM     24  C   UNL A   1      32.715  32.575  27.252  1.00  0.00     0.118 C 
BRANCH  24  25
ATOM     25  N   UNL A   1      32.502  33.974  27.625  1.00  0.00    -0.352 N 
ATOM     26  C   UNL A   1      33.044  34.706  28.651  1.00  0.00     0.251 C 
ATOM     27  H   UNL A   1      31.873  34.466  27.050  1.00  0.00     0.163 HD
ATOM     28  O   UNL A   1      32.553  35.781  28.977  1.00  0.00    -0.269 OA
BRANCH  26  29
ATOM     29  C   UNL A   1      34.214  34.174  29.368  1.00  0.00     0.039 A 
ATOM     30  C   UNL A   1      34.027  33.317  30.451  1.00  0.00     0.014 A 
ATOM     31  C   UNL A   1      35.500  34.500  28.931  1.00  0.00     0.014 A 
ATOM     32  C   UNL A   1      35.139  32.722  31.044  1.00  0.00     0.010 A 
ATOM     33  C   UNL A   1      36.588  33.806  29.431  1.00  0.00     0.010 A 
ATOM     34  C   UNL A   1      36.421  32.925  30.506  1.00  0.00    -0.014 A 
BRANCH  34  35
ATOM     35  C   UNL A   1      37.606  32.243  31.075  1.00  0.00     0.031 A 
ATOM     36  C   UNL A   1      38.099  32.623  32.443  1.00  0.00     0.074 A 
ATOM     37  C   UNL A   1      38.246  31.308  30.348  1.00  0.00     0.049 A 
ATOM     38  N   UNL A   1      39.110  32.137  33.116  1.00  0.00    -0.248 NA
ATOM     39  C   UNL A   1      37.383  33.706  33.138  1.00  0.00     0.031 C 
ATOM     40  C   UNL A   1      37.885  30.902  28.988  1.00  0.00     0.029 A 
ATOM     41  N   UNL A   1      39.328  30.522  30.652  1.00  0.00    -0.354 N 
ATOM     42  C   UNL A   1      39.141  32.849  34.306  1.00  0.00     0.074 A 
ATOM     43  C   UNL A   1      38.111  33.858  34.233  1.00  0.00     0.031 C 
ATOM     44  C   UNL A   1      38.692  29.903  28.598  1.00  0.00     0.029 A 
ATOM     45  C   UNL A   1      39.656  29.630  29.659  1.00  0.00     0.049 A 
ATOM     46  H   UNL A   1      39.822  30.589  31.500  1.00  0.00     0.167 HD
ATOM     47  C   UNL A   1      39.929  32.645  35.386  1.00  0.00     0.037 A 
ATOM     48  C   UNL A   1      40.623  28.693  29.617  1.00  0.00     0.037 A 
ATOM     49  C   UNL A   1      40.937  31.624  35.457  1.00  0.00     0.049 A 
ATOM     50  C   UNL A   1      41.519  28.517  30.814  1.00  0.00     0.074 A 
ATOM     51  C   UNL A   1      41.764  31.309  36.519  1.00  0.00     0.029 A 
ATOM     52  N   UNL A   1      41.256  30.756  34.423  1.00  0.00    -0.354 N 
ATOM     53  N   UNL A   1      41.488  29.142  31.967  1.00  0.00    -0.248 NA
ATOM     54  C   UNL A   1      42.581  27.508  30.709  1.00  0.00     0.031 C 
ATOM     55  C   UNL A   1      42.629  30.294  36.106  1.00  0.00     0.029 A 
ATOM     56  C   UNL A   1      42.295  29.926  34.811  1.00  0.00     0.049 A 
ATOM     57  H   UNL A   1      40.812  30.733  33.545  1.00  0.00     0.167 HD
ATOM     58  C   UNL A   1      42.503  28.586  32.732  1.00  0.00     0.074 A 
ATOM     59  C   UNL A   1      43.123  27.560  31.919  1.00  0.00     0.031 C 
ATOM     60  C   UNL A   1      42.888  28.900  33.993  1.00  0.00     0.037 A 
BRANCH  47  61
ATOM     61  C   UNL A   1      39.719  33.523  36.584  1.00  0.00     0.064 A 
ATOM     62  C   UNL A   1      40.339  34.779  36.688  1.00  0.00     0.173 A 
ATOM     63  C   UNL A   1      38.837  33.141  37.604  1.00  0.00     0.173 A 
ATOM     64  F   UNL A   1      41.204  35.186  35.747  1.00  0.00    -0.203 F 
ATOM     65  C   UNL A   1      40.096  35.609  37.778  1.00  0.00     0.198 A 
ATOM     66  C   UNL A   1      38.567  33.991  38.674  1.00  0.00     0.198 A 
ATOM     67  F   UNL A   1      38.216  31.953  37.553  1.00  0.00    -0.203 F 
ATOM     68  F   UNL A   1      40.732  36.785  37.875  1.00  0.00    -0.200 F 
ATOM     69  C   UNL A   1      39.201  35.221  38.763  1.00  0.00     0.200 A 
ATOM     70  F   UNL A   1      37.689  33.621  39.616  1.00  0.00    -0.200 F 
ATOM     71  F   UNL A   1      38.949  36.033  39.799  1.00  0.00    -0.200 F 
ENDBRANCH  47  61
BRANCH  48  72
ATOM     72  C   UNL A   1      40.759  27.825  28.416  1.00  0.00     0.064 A 
ATOM     73  C   UNL A   1      40.090  26.596  28.337  1.00  0.00     0.173 A 
ATOM     74  C   UNL A   1      41.537  28.214  27.314  1.00  0.00     0.173 A 
ATOM     75  F   UNL A   1      39.347  26.171  29.369  1.00  0.00    -0.203 F 
ATOM     76  C   UNL A   1      40.203  25.784  27.209  1.00  0.00     0.198 A 
ATOM     77  C   UNL A   1      41.623  27.417  26.174  1.00  0.00     0.198 A 
ATOM     78  F   UNL A   1      42.193  29.383  27.334  1.00  0.00    -0.203 F 
ATOM     79  F   UNL A   1      39.583  24.597  27.176  1.00  0.00    -0.200 F 
ATOM     80  C   UNL A   1      40.961  26.200  26.126  1.00  0.00     0.200 A 
ATOM     81  F   UNL A   1      42.340  27.833  25.122  1.00  0.00    -0.200 F 
ATOM     82  F   UNL A   1      41.056  25.426  25.035  1.00  0.00    -0.200 F 
ENDBRANCH  48  72
BRANCH  60  83
ATOM     83  C   UNL A   1      44.021  28.125  34.598  1.00  0.00     0.064 A 
ATOM     84  C   UNL A   1      45.334  28.614  34.579  1.00  0.00     0.173 A 
ATOM     85  C   UNL A   1      43.769  26.945  35.316  1.00  0.00     0.173 A 
ATOM     86  F   UNL A   1      45.630  29.732  33.898  1.00  0.00    -0.203 F 
ATOM     87  C   UNL A   1      46.354  27.950  35.256  1.00  0.00     0.198 A 
ATOM     88  C   UNL A   1      44.782  26.303  36.020  1.00  0.00     0.198 A 
ATOM     89  F   UNL A   1      42.526  26.441  35.374  1.00  0.00    -0.203 F 
ATOM     90  F   UNL A   1      47.606  28.423  35.206  1.00  0.00    -0.200 F 
ATOM     91  C   UNL A   1      46.074  26.805  35.988  1.00  0.00     0.200 A 
ATOM     92  F   UNL A   1      44.504  25.213  36.747  1.00  0.00    -0.200 F 
ATOM     93  F   UNL A   1      47.050  26.189  36.668  1.00  0.00    -0.200 F 
ENDBRANCH  60  83
ENDBRANCH  34  35
ENDBRANCH  26  29
ENDBRANCH  24  25
ENDBRANCH   1  24
TORSDOF 12
ENDMDL
