MODEL 1
REMARK VINA RESULT:     -12.0      0.000      0.000
REMARK SMILES Cc1cc(I)ccc1[C@H]([NH3+])C(=O)NCCCNC(=O)c1ccc(-c2c3nc(c(-c4c(F)c(F)c(F)c(F)c4F)c4ccc([nH]4)c(-c4c(F)c(F)c(F)c(F)c4F)c4nc(c(-c5c(F)c(F)c(F)c(F)c5F)c5ccc2[nH]5)C=C4)C=C3)cc1
REMARK SMILES IDX 15 1 14 2 13 3 11 4 12 5 9 7 8 8 1 9 2 10 3 11 4 12 7 13
REMARK SMILES IDX 5 14 6 15 10 16 16 20 17 21 18 22 19 24 20 25 21 26 82 27
REMARK SMILES IDX 22 28 81 29 23 30 24 31 25 32 75 33 26 34 80 35 74 36 76 37
REMARK SMILES IDX 27 38 79 39 73 40 72 41 28 43 60 44 40 45 59 46 41 47 44 48
REMARK SMILES IDX 58 49 77 50 42 51 43 52 57 54 78 55 45 56 29 57 30 58 38 59
REMARK SMILES IDX 31 60 32 61 36 62 39 63 33 64 34 65 37 66 35 67 61 68 62 69
REMARK SMILES IDX 70 70 63 71 64 72 68 73 71 74 65 75 66 76 69 77 67 78 46 79
REMARK SMILES IDX 47 80 55 81 48 82 49 83 53 84 56 85 50 86 51 87 54 88 52 89
REMARK H PARENT 13 6 10 17 10 18 10 19 17 23 76 42 44 53
REMARK Flexibility Score: inf
ROOT
ATOM      1  C   UNL A   1      31.756  29.136  26.628  1.00  0.00     0.042 C 
ENDROOT
BRANCH   1   2
ATOM      2  C   UNL A   1      32.145  27.669  26.602  1.00  0.00     0.118 C 
BRANCH   2   3
ATOM      3  N   UNL A   1      31.027  26.783  26.876  1.00  0.00    -0.351 N 
ATOM      4  C   UNL A   1      30.375  25.943  26.015  1.00  0.00     0.283 C 
ATOM      5  O   UNL A   1      29.546  25.165  26.501  1.00  0.00    -0.268 OA
ATOM      6  H   UNL A   1      30.694  26.789  27.802  1.00  0.00     0.163 HD
BRANCH   4   7
ATOM      7  C   UNL A   1      30.630  25.986  24.496  1.00  0.00     0.302 C 
BRANCH   7   8
ATOM      8  C   UNL A   1      30.259  27.243  23.695  1.00  0.00     0.022 A 
ATOM      9  C   UNL A   1      32.597  28.046  22.848  1.00  0.00     0.045 C 
ATOM     10  C   UNL A   1      31.109  28.165  23.043  1.00  0.00    -0.040 A 
ATOM     11  C   UNL A   1      30.547  29.335  22.471  1.00  0.00     0.018 A 
ATOM     12  C   UNL A   1      29.172  29.548  22.436  1.00  0.00     0.013 A 
ATOM     13  C   UNL A   1      28.859  27.460  23.561  1.00  0.00     0.012 A 
ATOM     14  I   UNL A   1      28.402  31.273  21.580  1.00  0.00    -0.044 I 
ATOM     15  C   UNL A   1      28.319  28.591  22.950  1.00  0.00     0.015 A 
ENDBRANCH   7   8
BRANCH   7  16
ATOM     16  N   UNL A   1      30.045  24.747  23.910  1.00  0.00    -0.343 N 
ATOM     17  H   UNL A   1      30.791  24.175  23.512  1.00  0.00     0.345 HD
ATOM     18  H   UNL A   1      29.382  24.998  23.177  1.00  0.00     0.345 HD
ATOM     19  H   UNL A   1      29.564  24.220  24.638  1.00  0.00     0.345 HD
ENDBRANCH   7  16
ENDBRANCH   4   7
ENDBRANCH   2   3
ENDBRANCH   1   2
BRANCH   1  20
ATOM     20  C   UNL A   1      32.820  30.079  26.083  1.00  0.00     0.118 C 
BRANCH  20  21
ATOM     21  N   UNL A   1      32.707  31.450  26.574  1.00  0.00    -0.352 N 
ATOM     22  C   UNL A   1      33.510  32.156  27.437  1.00  0.00     0.251 C 
ATOM     23  H   UNL A   1      31.929  31.948  26.232  1.00  0.00     0.163 HD
ATOM     24  O   UNL A   1      33.177  33.267  27.822  1.00  0.00    -0.269 OA
BRANCH  22  25
ATOM     25  C   UNL A   1      34.764  31.549  27.933  1.00  0.00     0.039 A 
ATOM     26  C   UNL A   1      35.895  32.355  28.088  1.00  0.00     0.014 A 
ATOM     27  C   UNL A   1      34.810  30.200  28.287  1.00  0.00     0.014 A 
ATOM     28  C   UNL A   1      37.036  31.832  28.701  1.00  0.00     0.010 A 
ATOM     29  C   UNL A   1      35.905  29.713  28.991  1.00  0.00     0.010 A 
ATOM     30  C   UNL A   1      37.027  30.525  29.214  1.00  0.00    -0.014 A 
BRANCH  30  31
ATOM     31  C   UNL A   1      38.168  29.977  29.991  1.00  0.00     0.031 A 
ATOM     32  C   UNL A   1      38.395  30.431  31.406  1.00  0.00     0.074 A 
ATOM     33  C   UNL A   1      39.055  29.156  29.393  1.00  0.00     0.049 A 
ATOM     34  N   UNL A   1      39.411  30.201  32.199  1.00  0.00    -0.248 NA
ATOM     35  C   UNL A   1      37.359  31.295  31.996  1.00  0.00     0.031 C 
ATOM     36  C   UNL A   1      38.981  28.689  28.006  1.00  0.00     0.029 A 
ATOM     37  N   UNL A   1      40.205  28.580  29.873  1.00  0.00    -0.354 N 
ATOM     38  C   UNL A   1      39.151  30.916  33.361  1.00  0.00     0.074 A 
ATOM     39  C   UNL A   1      37.910  31.630  33.153  1.00  0.00     0.031 C 
ATOM     40  C   UNL A   1      40.022  27.879  27.758  1.00  0.00     0.029 A 
ATOM     41  C   UNL A   1      40.860  27.801  28.949  1.00  0.00     0.049 A 
ATOM     42  H   UNL A   1      40.530  28.712  30.793  1.00  0.00     0.167 HD
ATOM     43  C   UNL A   1      39.868  30.952  34.509  1.00  0.00     0.037 A 
ATOM     44  C   UNL A   1      42.012  27.111  29.051  1.00  0.00     0.037 A 
ATOM     45  C   UNL A   1      41.072  30.199  34.733  1.00  0.00     0.049 A 
ATOM     46  C   UNL A   1      42.769  27.141  30.351  1.00  0.00     0.074 A 
ATOM     47  C   UNL A   1      41.844  30.123  35.879  1.00  0.00     0.029 A 
ATOM     48  N   UNL A   1      41.671  29.376  33.790  1.00  0.00    -0.354 N 
ATOM     49  N   UNL A   1      42.489  27.784  31.459  1.00  0.00    -0.248 NA
ATOM     50  C   UNL A   1      44.002  26.344  30.418  1.00  0.00     0.031 C 
ATOM     51  C   UNL A   1      42.923  29.271  35.623  1.00  0.00     0.029 A 
ATOM     52  C   UNL A   1      42.803  28.788  34.331  1.00  0.00     0.049 A 
ATOM     53  H   UNL A   1      41.340  29.231  32.875  1.00  0.00     0.167 HD
ATOM     54  C   UNL A   1      43.488  27.447  32.359  1.00  0.00     0.074 A 
ATOM     55  C   UNL A   1      44.377  26.531  31.675  1.00  0.00     0.031 C 
ATOM     56  C   UNL A   1      43.659  27.861  33.638  1.00  0.00     0.037 A 
BRANCH  43  57
ATOM     57  C   UNL A   1      39.352  31.817  35.621  1.00  0.00     0.064 A 
ATOM     58  C   UNL A   1      38.435  31.328  36.563  1.00  0.00     0.173 A 
ATOM     59  C   UNL A   1      39.806  33.136  35.769  1.00  0.00     0.173 A 
ATOM     60  F   UNL A   1      37.960  30.077  36.455  1.00  0.00    -0.203 F 
ATOM     61  C   UNL A   1      37.970  32.135  37.597  1.00  0.00     0.198 A 
ATOM     62  C   UNL A   1      39.360  33.931  36.823  1.00  0.00     0.198 A 
ATOM     63  F   UNL A   1      40.686  33.652  34.898  1.00  0.00    -0.203 F 
ATOM     64  F   UNL A   1      37.059  31.660  38.457  1.00  0.00    -0.200 F 
ATOM     65  C   UNL A   1      38.439  33.433  37.730  1.00  0.00     0.200 A 
ATOM     66  F   UNL A   1      39.822  35.183  36.957  1.00  0.00    -0.200 F 
ATOM     67  F   UNL A   1      37.997  34.206  38.732  1.00  0.00    -0.200 F 
ENDBRANCH  43  57
BRANCH  44  68
ATOM     68  C   UNL A   1      42.508  26.307  27.905  1.00  0.00     0.064 A 
ATOM     69  C   UNL A   1      43.422  26.851  26.992  1.00  0.00     0.173 A 
ATOM     70  C   UNL A   1      42.068  24.995  27.684  1.00  0.00     0.173 A 
ATOM     71  F   UNL A   1      43.856  28.110  27.150  1.00  0.00    -0.203 F 
ATOM     72  C   UNL A   1      43.857  26.124  25.886  1.00  0.00     0.198 A 
ATOM     73  C   UNL A   1      42.525  24.257  26.592  1.00  0.00     0.198 A 
ATOM     74  F   UNL A   1      41.198  24.425  28.531  1.00  0.00    -0.203 F 
ATOM     75  F   UNL A   1      44.691  26.688  25.001  1.00  0.00    -0.200 F 
ATOM     76  C   UNL A   1      43.411  24.826  25.689  1.00  0.00     0.200 A 
ATOM     77  F   UNL A   1      42.101  22.999  26.411  1.00  0.00    -0.200 F 
ATOM     78  F   UNL A   1      43.825  24.128  24.624  1.00  0.00    -0.200 F 
ENDBRANCH  44  68
BRANCH  56  79
ATOM     79  C   UNL A   1      44.819  27.291  34.394  1.00  0.00     0.064 A 
ATOM     80  C   UNL A   1      46.064  27.935  34.424  1.00  0.00     0.173 A 
ATOM     81  C   UNL A   1      44.670  26.107  35.133  1.00  0.00     0.173 A 
ATOM     82  F   UNL A   1      46.258  29.061  33.721  1.00  0.00    -0.203 F 
ATOM     83  C   UNL A   1      47.125  27.403  35.151  1.00  0.00     0.198 A 
ATOM     84  C   UNL A   1      45.725  25.591  35.878  1.00  0.00     0.198 A 
ATOM     85  F   UNL A   1      43.497  25.458  35.139  1.00  0.00    -0.203 F 
ATOM     86  F   UNL A   1      48.318  28.012  35.133  1.00  0.00    -0.200 F 
ATOM     87  C   UNL A   1      46.953  26.236  35.883  1.00  0.00     0.200 A 
ATOM     88  F   UNL A   1      45.555  24.470  36.593  1.00  0.00    -0.200 F 
ATOM     89  F   UNL A   1      47.975  25.729  36.586  1.00  0.00    -0.200 F 
ENDBRANCH  56  79
ENDBRANCH  30  31
ENDBRANCH  22  25
ENDBRANCH  20  21
ENDBRANCH   1  20
TORSDOF 12
ENDMDL
MODEL 2
REMARK VINA RESULT:     -11.9      0.462      7.720
REMARK SMILES Cc1cc(I)ccc1[C@H]([NH3+])C(=O)NCCCNC(=O)c1ccc(-c2c3nc(c(-c4c(F)c(F)c(F)c(F)c4F)c4ccc([nH]4)c(-c4c(F)c(F)c(F)c(F)c4F)c4nc(c(-c5c(F)c(F)c(F)c(F)c5F)c5ccc2[nH]5)C=C4)C=C3)cc1
REMARK SMILES IDX 15 1 14 2 13 3 11 4 12 5 9 7 8 8 1 9 2 10 3 11 4 12 7 13
REMARK SMILES IDX 5 14 6 15 10 16 16 20 17 21 18 22 19 24 20 25 21 26 82 27
REMARK SMILES IDX 22 28 81 29 23 30 24 31 25 32 75 33 26 34 80 35 74 36 76 37
REMARK SMILES IDX 27 38 79 39 73 40 72 41 28 43 60 44 40 45 59 46 41 47 44 48
REMARK SMILES IDX 58 49 77 50 42 51 43 52 57 54 78 55 45 56 29 57 30 58 38 59
REMARK SMILES IDX 31 60 32 61 36 62 39 63 33 64 34 65 37 66 35 67 61 68 62 69
REMARK SMILES IDX 70 70 63 71 64 72 68 73 71 74 65 75 66 76 69 77 67 78 46 79
REMARK SMILES IDX 47 80 55 81 48 82 49 83 53 84 56 85 50 86 51 87 54 88 52 89
REMARK H PARENT 13 6 10 17 10 18 10 19 17 23 76 42 44 53
REMARK Flexibility Score: inf
ROOT
ATOM      1  C   UNL A   1      31.799  28.855  26.626  1.00  0.00     0.042 C 
ENDROOT
BRANCH   1   2
ATOM      2  C   UNL A   1      32.292  27.418  26.614  1.00  0.00     0.118 C 
BRANCH   2   3
ATOM      3  N   UNL A   1      31.238  26.458  26.888  1.00  0.00    -0.351 N 
ATOM      4  C   UNL A   1      30.638  25.582  26.025  1.00  0.00     0.283 C 
ATOM      5  O   UNL A   1      29.866  24.747  26.512  1.00  0.00    -0.268 OA
ATOM      6  H   UNL A   1      30.912  26.434  27.817  1.00  0.00     0.163 HD
BRANCH   4   7
ATOM      7  C   UNL A   1      30.878  25.653  24.506  1.00  0.00     0.302 C 
BRANCH   7   8
ATOM      8  C   UNL A   1      30.445  26.900  23.722  1.00  0.00     0.022 A 
ATOM      9  C   UNL A   1      32.723  27.741  22.754  1.00  0.00     0.045 C 
ATOM     10  C   UNL A   1      31.244  27.835  23.025  1.00  0.00    -0.040 A 
ATOM     11  C   UNL A   1      30.634  28.993  22.480  1.00  0.00     0.018 A 
ATOM     12  C   UNL A   1      29.256  29.183  22.514  1.00  0.00     0.013 A 
ATOM     13  C   UNL A   1      29.036  27.093  23.659  1.00  0.00     0.012 A 
ATOM     14  I   UNL A   1      28.414  30.892  21.695  1.00  0.00    -0.044 I 
ATOM     15  C   UNL A   1      28.447  28.213  23.073  1.00  0.00     0.015 A 
ENDBRANCH   7   8
BRANCH   7  16
ATOM     16  N   UNL A   1      30.344  24.395  23.910  1.00  0.00    -0.343 N 
ATOM     17  H   UNL A   1      29.387  24.550  23.592  1.00  0.00     0.345 HD
ATOM     18  H   UNL A   1      30.354  23.656  24.611  1.00  0.00     0.345 HD
ATOM     19  H   UNL A   1      30.924  24.121  23.118  1.00  0.00     0.345 HD
ENDBRANCH   7  16
ENDBRANCH   4   7
ENDBRANCH   2   3
ENDBRANCH   1   2
BRANCH   1  20
ATOM     20  C   UNL A   1      32.784  29.861  26.046  1.00  0.00     0.118 C 
BRANCH  20  21
ATOM     21  N   UNL A   1      32.542  31.239  26.470  1.00  0.00    -0.352 N 
ATOM     22  C   UNL A   1      33.279  32.061  27.288  1.00  0.00     0.251 C 
ATOM     23  H   UNL A   1      31.719  31.642  26.111  1.00  0.00     0.163 HD
ATOM     24  O   UNL A   1      32.843  33.153  27.621  1.00  0.00    -0.269 OA
BRANCH  22  25
ATOM     25  C   UNL A   1      34.588  31.602  27.802  1.00  0.00     0.039 A 
ATOM     26  C   UNL A   1      35.646  32.513  27.879  1.00  0.00     0.014 A 
ATOM     27  C   UNL A   1      34.758  30.291  28.247  1.00  0.00     0.014 A 
ATOM     28  C   UNL A   1      36.835  32.136  28.505  1.00  0.00     0.010 A 
ATOM     29  C   UNL A   1      35.900  29.952  28.962  1.00  0.00     0.010 A 
ATOM     30  C   UNL A   1      36.949  30.872  29.106  1.00  0.00    -0.014 A 
BRANCH  30  31
ATOM     31  C   UNL A   1      38.144  30.482  29.898  1.00  0.00     0.031 A 
ATOM     32  C   UNL A   1      39.136  29.509  29.323  1.00  0.00     0.074 A 
ATOM     33  C   UNL A   1      38.281  30.919  31.166  1.00  0.00     0.049 A 
ATOM     34  N   UNL A   1      40.152  28.920  29.902  1.00  0.00    -0.248 NA
ATOM     35  C   UNL A   1      38.934  29.113  27.919  1.00  0.00     0.031 C 
ATOM     36  C   UNL A   1      37.356  31.817  31.861  1.00  0.00     0.029 A 
ATOM     37  N   UNL A   1      39.246  30.651  32.105  1.00  0.00    -0.354 N 
ATOM     38  C   UNL A   1      40.685  28.065  28.946  1.00  0.00     0.074 A 
ATOM     39  C   UNL A   1      39.851  28.170  27.768  1.00  0.00     0.031 C 
ATOM     40  C   UNL A   1      37.813  32.047  33.102  1.00  0.00     0.029 A 
ATOM     41  C   UNL A   1      39.037  31.281  33.308  1.00  0.00     0.049 A 
ATOM     42  H   UNL A   1      40.017  30.063  31.932  1.00  0.00     0.167 HD
ATOM     43  C   UNL A   1      41.786  27.282  29.033  1.00  0.00     0.037 A 
ATOM     44  C   UNL A   1      39.749  31.237  34.450  1.00  0.00     0.037 A 
ATOM     45  C   UNL A   1      42.643  27.220  30.185  1.00  0.00     0.049 A 
ATOM     46  C   UNL A   1      40.989  30.387  34.506  1.00  0.00     0.074 A 
ATOM     47  C   UNL A   1      43.813  26.501  30.355  1.00  0.00     0.029 A 
ATOM     48  N   UNL A   1      42.428  27.920  31.364  1.00  0.00    -0.354 N 
ATOM     49  N   UNL A   1      41.509  29.618  33.580  1.00  0.00    -0.248 NA
ATOM     50  C   UNL A   1      41.746  30.401  35.766  1.00  0.00     0.031 C 
ATOM     51  C   UNL A   1      44.296  26.749  31.644  1.00  0.00     0.029 A 
ATOM     52  C   UNL A   1      43.445  27.649  32.264  1.00  0.00     0.049 A 
ATOM     53  H   UNL A   1      41.666  28.519  31.534  1.00  0.00     0.167 HD
ATOM     54  C   UNL A   1      42.665  29.085  34.131  1.00  0.00     0.074 A 
ATOM     55  C   UNL A   1      42.779  29.626  35.469  1.00  0.00     0.031 C 
ATOM     56  C   UNL A   1      43.551  28.219  33.582  1.00  0.00     0.037 A 
BRANCH  43  57
ATOM     57  C   UNL A   1      42.141  26.449  27.836  1.00  0.00     0.064 A 
ATOM     58  C   UNL A   1      43.076  26.890  26.889  1.00  0.00     0.173 A 
ATOM     59  C   UNL A   1      41.567  25.182  27.654  1.00  0.00     0.173 A 
ATOM     60  F   UNL A   1      43.641  28.101  27.012  1.00  0.00    -0.203 F 
ATOM     61  C   UNL A   1      43.405  26.105  25.788  1.00  0.00     0.198 A 
ATOM     62  C   UNL A   1      41.921  24.387  26.566  1.00  0.00     0.198 A 
ATOM     63  F   UNL A   1      40.669  24.711  28.532  1.00  0.00    -0.203 F 
ATOM     64  F   UNL A   1      44.266  26.568  24.872  1.00  0.00    -0.200 F 
ATOM     65  C   UNL A   1      42.833  24.852  25.631  1.00  0.00     0.200 A 
ATOM     66  F   UNL A   1      41.376  23.171  26.421  1.00  0.00    -0.200 F 
ATOM     67  F   UNL A   1      43.158  24.093  24.575  1.00  0.00    -0.200 F 
ENDBRANCH  43  57
BRANCH  44  68
ATOM     68  C   UNL A   1      39.332  32.044  35.626  1.00  0.00     0.064 A 
ATOM     69  C   UNL A   1      38.450  31.515  36.578  1.00  0.00     0.173 A 
ATOM     70  C   UNL A   1      39.782  33.358  35.812  1.00  0.00     0.173 A 
ATOM     71  F   UNL A   1      37.975  30.269  36.432  1.00  0.00    -0.203 F 
ATOM     72  C   UNL A   1      38.012  32.279  37.658  1.00  0.00     0.198 A 
ATOM     73  C   UNL A   1      39.365  34.112  36.908  1.00  0.00     0.198 A 
ATOM     74  F   UNL A   1      40.631  33.909  34.932  1.00  0.00    -0.203 F 
ATOM     75  F   UNL A   1      37.128  31.765  38.525  1.00  0.00    -0.200 F 
ATOM     76  C   UNL A   1      38.473  33.576  37.825  1.00  0.00     0.200 A 
ATOM     77  F   UNL A   1      39.822  35.361  37.072  1.00  0.00    -0.200 F 
ATOM     78  F   UNL A   1      38.050  34.311  38.861  1.00  0.00    -0.200 F 
ENDBRANCH  44  68
BRANCH  56  79
ATOM     79  C   UNL A   1      44.744  27.844  34.406  1.00  0.00     0.064 A 
ATOM     80  C   UNL A   1      45.921  28.606  34.384  1.00  0.00     0.173 A 
ATOM     81  C   UNL A   1      44.691  26.733  35.262  1.00  0.00     0.173 A 
ATOM     82  F   UNL A   1      46.022  29.667  33.571  1.00  0.00    -0.203 F 
ATOM     83  C   UNL A   1      47.011  28.255  35.175  1.00  0.00     0.198 A 
ATOM     84  C   UNL A   1      45.774  26.401  36.070  1.00  0.00     0.198 A 
ATOM     85  F   UNL A   1      43.585  25.977  35.321  1.00  0.00    -0.203 F 
ATOM     86  F   UNL A   1      48.141  28.972  35.109  1.00  0.00    -0.200 F 
ATOM     87  C   UNL A   1      46.935  27.158  36.022  1.00  0.00     0.200 A 
ATOM     88  F   UNL A   1      45.695  25.348  36.895  1.00  0.00    -0.200 F 
ATOM     89  F   UNL A   1      47.984  26.827  36.787  1.00  0.00    -0.200 F 
ENDBRANCH  56  79
ENDBRANCH  30  31
ENDBRANCH  22  25
ENDBRANCH  20  21
ENDBRANCH   1  20
TORSDOF 12
ENDMDL
MODEL 3
REMARK VINA RESULT:     -11.9      0.507      7.634
REMARK SMILES Cc1cc(I)ccc1[C@H]([NH3+])C(=O)NCCCNC(=O)c1ccc(-c2c3nc(c(-c4c(F)c(F)c(F)c(F)c4F)c4ccc([nH]4)c(-c4c(F)c(F)c(F)c(F)c4F)c4nc(c(-c5c(F)c(F)c(F)c(F)c5F)c5ccc2[nH]5)C=C4)C=C3)cc1
REMARK SMILES IDX 15 1 14 2 13 3 11 4 12 5 9 7 8 8 1 9 2 10 3 11 4 12 7 13
REMARK SMILES IDX 5 14 6 15 10 16 16 20 17 21 18 22 19 24 20 25 21 26 82 27
REMARK SMILES IDX 22 28 81 29 23 30 24 31 25 32 75 33 26 34 80 35 74 36 76 37
REMARK SMILES IDX 27 38 79 39 73 40 72 41 28 43 60 44 40 45 59 46 41 47 44 48
REMARK SMILES IDX 58 49 77 50 42 51 43 52 57 54 78 55 45 56 29 57 30 58 38 59
REMARK SMILES IDX 31 60 32 61 36 62 39 63 33 64 34 65 37 66 35 67 61 68 62 69
REMARK SMILES IDX 70 70 63 71 64 72 68 73 71 74 65 75 66 76 69 77 67 78 46 79
REMARK SMILES IDX 47 80 55 81 48 82 49 83 53 84 56 85 50 86 51 87 54 88 52 89
REMARK H PARENT 13 6 10 17 10 18 10 19 17 23 76 42 44 53
REMARK Flexibility Score: inf
ROOT
ATOM      1  C   UNL A   1      31.814  28.757  26.539  1.00  0.00     0.042 C 
ENDROOT
BRANCH   1   2
ATOM      2  C   UNL A   1      32.324  27.327  26.596  1.00  0.00     0.118 C 
BRANCH   2   3
ATOM      3  N   UNL A   1      31.279  26.367  26.908  1.00  0.00    -0.351 N 
ATOM      4  C   UNL A   1      30.664  25.476  26.073  1.00  0.00     0.283 C 
ATOM      5  O   UNL A   1      29.906  24.647  26.589  1.00  0.00    -0.268 OA
ATOM      6  H   UNL A   1      30.974  26.357  27.845  1.00  0.00     0.163 HD
BRANCH   4   7
ATOM      7  C   UNL A   1      30.870  25.524  24.547  1.00  0.00     0.302 C 
BRANCH   7   8
ATOM      8  C   UNL A   1      30.416  26.759  23.754  1.00  0.00     0.022 A 
ATOM      9  C   UNL A   1      32.670  27.595  22.730  1.00  0.00     0.045 C 
ATOM     10  C   UNL A   1      31.197  27.686  23.028  1.00  0.00    -0.040 A 
ATOM     11  C   UNL A   1      30.571  28.834  22.478  1.00  0.00     0.018 A 
ATOM     12  C   UNL A   1      29.193  29.018  22.537  1.00  0.00     0.013 A 
ATOM     13  C   UNL A   1      29.005  26.944  23.716  1.00  0.00     0.012 A 
ATOM     14  I   UNL A   1      28.327  30.711  21.709  1.00  0.00    -0.044 I 
ATOM     15  C   UNL A   1      28.399  28.053  23.126  1.00  0.00     0.015 A 
ENDBRANCH   7   8
BRANCH   7  16
ATOM     16  N   UNL A   1      30.326  24.257  23.983  1.00  0.00    -0.343 N 
ATOM     17  H   UNL A   1      29.581  24.472  23.320  1.00  0.00     0.345 HD
ATOM     18  H   UNL A   1      29.954  23.681  24.737  1.00  0.00     0.345 HD
ATOM     19  H   UNL A   1      31.071  23.750  23.504  1.00  0.00     0.345 HD
ENDBRANCH   7  16
ENDBRANCH   4   7
ENDBRANCH   2   3
ENDBRANCH   1   2
BRANCH   1  20
ATOM     20  C   UNL A   1      32.832  29.766  26.027  1.00  0.00     0.118 C 
BRANCH  20  21
ATOM     21  N   UNL A   1      32.561  31.143  26.437  1.00  0.00    -0.352 N 
ATOM     22  C   UNL A   1      33.273  31.985  27.257  1.00  0.00     0.251 C 
ATOM     23  H   UNL A   1      31.734  31.528  26.066  1.00  0.00     0.163 HD
ATOM     24  O   UNL A   1      32.813  33.071  27.576  1.00  0.00    -0.269 OA
BRANCH  22  25
ATOM     25  C   UNL A   1      34.585  31.554  27.789  1.00  0.00     0.039 A 
ATOM     26  C   UNL A   1      35.605  32.498  27.928  1.00  0.00     0.014 A 
ATOM     27  C   UNL A   1      34.791  30.234  28.190  1.00  0.00     0.014 A 
ATOM     28  C   UNL A   1      36.791  32.141  28.571  1.00  0.00     0.010 A 
ATOM     29  C   UNL A   1      35.926  29.910  28.922  1.00  0.00     0.010 A 
ATOM     30  C   UNL A   1      36.936  30.861  29.129  1.00  0.00    -0.014 A 
BRANCH  30  31
ATOM     31  C   UNL A   1      38.124  30.484  29.938  1.00  0.00     0.031 A 
ATOM     32  C   UNL A   1      39.141  29.532  29.372  1.00  0.00     0.074 A 
ATOM     33  C   UNL A   1      38.232  30.913  31.211  1.00  0.00     0.049 A 
ATOM     34  N   UNL A   1      40.157  28.955  29.964  1.00  0.00    -0.248 NA
ATOM     35  C   UNL A   1      38.970  29.144  27.962  1.00  0.00     0.031 C 
ATOM     36  C   UNL A   1      37.281  31.791  31.897  1.00  0.00     0.029 A 
ATOM     37  N   UNL A   1      39.186  30.654  32.164  1.00  0.00    -0.354 N 
ATOM     38  C   UNL A   1      40.720  28.116  29.011  1.00  0.00     0.074 A 
ATOM     39  C   UNL A   1      39.905  28.218  27.820  1.00  0.00     0.031 C 
ATOM     40  C   UNL A   1      37.713  32.018  33.148  1.00  0.00     0.029 A 
ATOM     41  C   UNL A   1      38.946  31.271  33.369  1.00  0.00     0.049 A 
ATOM     42  H   UNL A   1      39.969  30.080  32.000  1.00  0.00     0.167 HD
ATOM     43  C   UNL A   1      41.833  27.351  29.111  1.00  0.00     0.037 A 
ATOM     44  C   UNL A   1      39.639  31.230  34.522  1.00  0.00     0.037 A 
ATOM     45  C   UNL A   1      42.671  27.295  30.277  1.00  0.00     0.049 A 
ATOM     46  C   UNL A   1      40.893  30.400  34.592  1.00  0.00     0.074 A 
ATOM     47  C   UNL A   1      43.850  26.594  30.461  1.00  0.00     0.029 A 
ATOM     48  N   UNL A   1      42.424  27.981  31.456  1.00  0.00    -0.354 N 
ATOM     49  N   UNL A   1      41.440  29.647  33.670  1.00  0.00    -0.248 NA
ATOM     50  C   UNL A   1      41.628  30.417  35.865  1.00  0.00     0.031 C 
ATOM     51  C   UNL A   1      44.307  26.839  31.760  1.00  0.00     0.029 A 
ATOM     52  C   UNL A   1      43.431  27.720  32.372  1.00  0.00     0.049 A 
ATOM     53  H   UNL A   1      41.650  28.567  31.618  1.00  0.00     0.167 HD
ATOM     54  C   UNL A   1      42.595  29.128  34.236  1.00  0.00     0.074 A 
ATOM     55  C   UNL A   1      42.678  29.661  35.580  1.00  0.00     0.031 C 
ATOM     56  C   UNL A   1      43.505  28.282  33.695  1.00  0.00     0.037 A 
BRANCH  43  57
ATOM     57  C   UNL A   1      42.221  26.533  27.914  1.00  0.00     0.064 A 
ATOM     58  C   UNL A   1      41.678  25.259  27.692  1.00  0.00     0.173 A 
ATOM     59  C   UNL A   1      43.117  27.041  26.962  1.00  0.00     0.173 A 
ATOM     60  F   UNL A   1      40.828  24.723  28.581  1.00  0.00    -0.203 F 
ATOM     61  C   UNL A   1      42.037  24.512  26.574  1.00  0.00     0.198 A 
ATOM     62  C   UNL A   1      43.451  26.303  25.829  1.00  0.00     0.198 A 
ATOM     63  F   UNL A   1      43.662  28.256  27.125  1.00  0.00    -0.203 F 
ATOM     64  F   UNL A   1      41.541  23.279  26.408  1.00  0.00    -0.200 F 
ATOM     65  C   UNL A   1      42.917  25.038  25.640  1.00  0.00     0.200 A 
ATOM     66  F   UNL A   1      44.293  26.815  24.921  1.00  0.00    -0.200 F 
ATOM     67  F   UNL A   1      43.256  24.320  24.559  1.00  0.00    -0.200 F 
ENDBRANCH  43  57
BRANCH  44  68
ATOM     68  C   UNL A   1      39.189  32.020  35.697  1.00  0.00     0.064 A 
ATOM     69  C   UNL A   1      39.631  33.337  35.884  1.00  0.00     0.173 A 
ATOM     70  C   UNL A   1      38.332  31.477  36.663  1.00  0.00     0.173 A 
ATOM     71  F   UNL A   1      40.470  33.894  34.997  1.00  0.00    -0.203 F 
ATOM     72  C   UNL A   1      39.256  34.071  37.006  1.00  0.00     0.198 A 
ATOM     73  C   UNL A   1      37.934  32.221  37.773  1.00  0.00     0.198 A 
ATOM     74  F   UNL A   1      37.875  30.222  36.528  1.00  0.00    -0.203 F 
ATOM     75  F   UNL A   1      39.736  35.310  37.186  1.00  0.00    -0.200 F 
ATOM     76  C   UNL A   1      38.404  33.514  37.948  1.00  0.00     0.200 A 
ATOM     77  F   UNL A   1      37.102  31.684  38.674  1.00  0.00    -0.200 F 
ATOM     78  F   UNL A   1      38.046  34.218  39.030  1.00  0.00    -0.200 F 
ENDBRANCH  44  68
BRANCH  56  79
ATOM     79  C   UNL A   1      44.690  27.920  34.537  1.00  0.00     0.064 A 
ATOM     80  C   UNL A   1      44.688  26.785  35.360  1.00  0.00     0.173 A 
ATOM     81  C   UNL A   1      45.858  28.697  34.485  1.00  0.00     0.173 A 
ATOM     82  F   UNL A   1      43.589  26.022  35.453  1.00  0.00    -0.203 F 
ATOM     83  C   UNL A   1      45.806  26.451  36.117  1.00  0.00     0.198 A 
ATOM     84  C   UNL A   1      46.983  28.346  35.225  1.00  0.00     0.198 A 
ATOM     85  F   UNL A   1      45.909  29.789  33.709  1.00  0.00    -0.203 F 
ATOM     86  F   UNL A   1      45.770  25.386  36.929  1.00  0.00    -0.200 F 
ATOM     87  C   UNL A   1      46.955  27.227  36.044  1.00  0.00     0.200 A 
ATOM     88  F   UNL A   1      48.095  29.090  35.145  1.00  0.00    -0.200 F 
ATOM     89  F   UNL A   1      48.033  26.900  36.770  1.00  0.00    -0.200 F 
ENDBRANCH  56  79
ENDBRANCH  30  31
ENDBRANCH  22  25
ENDBRANCH  20  21
ENDBRANCH   1  20
TORSDOF 12
ENDMDL
