MODEL 1
REMARK VINA RESULT:     -12.7      0.000      0.000
REMARK SMILES C[C@@H](Oc1ccccc1Cl)C(=O)Nc1ccc(C(=O)NCCCNC(=O)c2ccc(-c3c4nc(c(-c5c(F)c(F)c(F)c(F)c5F)c5ccc([nH]5)c(-c5c(F)c(F)c(F)c(F)c5F)c5nc(c(-c6c(F)c(F)c(F)c(F)c6F)c6ccc3[nH]6)C=C5)C=C4)cc2)cc1
REMARK SMILES IDX 21 1 20 2 18 3 19 4 17 6 14 7 15 8 91 9 16 10 90 11 13 12
REMARK SMILES IDX 11 13 12 14 2 16 1 17 3 18 4 19 5 20 9 21 6 22 8 23 10 24
REMARK SMILES IDX 7 25 22 26 23 27 24 28 25 29 26 31 27 32 28 33 89 34 29 35
REMARK SMILES IDX 88 36 30 37 31 38 32 39 82 40 33 41 87 42 81 43 83 44 34 45
REMARK SMILES IDX 86 46 80 47 79 48 35 50 67 51 47 52 66 53 48 54 51 55 65 56
REMARK SMILES IDX 84 57 49 58 50 59 64 61 85 62 52 63 36 64 37 65 45 66 38 67
REMARK SMILES IDX 39 68 43 69 46 70 40 71 41 72 44 73 42 74 68 75 69 76 77 77
REMARK SMILES IDX 70 78 71 79 75 80 78 81 72 82 73 83 76 84 74 85 53 86 54 87
REMARK SMILES IDX 62 88 55 89 56 90 60 91 63 92 57 93 58 94 61 95 59 96
REMARK H PARENT 20 5 13 15 24 30 83 49 51 60
REMARK Flexibility Score: inf
ROOT
ATOM      1  C   UNL A   1      31.457  30.829  26.464  1.00  0.00     0.118 C 
ENDROOT
BRANCH   1   2
ATOM      2  N   UNL A   1      32.304  30.453  25.343  1.00  0.00    -0.352 N 
ATOM      3  C   UNL A   1      32.399  29.272  24.649  1.00  0.00     0.251 C 
ATOM      4  O   UNL A   1      33.115  29.232  23.651  1.00  0.00    -0.269 OA
ATOM      5  H   UNL A   1      32.909  31.164  25.031  1.00  0.00     0.163 HD
BRANCH   3   6
ATOM      6  C   UNL A   1      31.604  28.074  25.024  1.00  0.00     0.039 A 
ATOM      7  C   UNL A   1      30.421  25.644  25.724  1.00  0.00     0.041 A 
ATOM      8  C   UNL A   1      31.187  26.332  26.663  1.00  0.00     0.027 A 
ATOM      9  C   UNL A   1      30.104  26.249  24.510  1.00  0.00     0.027 A 
ATOM     10  C   UNL A   1      31.803  27.532  26.301  1.00  0.00     0.016 A 
ATOM     11  C   UNL A   1      30.676  27.475  24.171  1.00  0.00     0.016 A 
BRANCH   7  12
ATOM     12  N   UNL A   1      29.981  24.357  26.037  1.00  0.00    -0.323 N 
ATOM     13  C   UNL A   1      30.730  23.237  26.286  1.00  0.00     0.265 C 
ATOM     14  O   UNL A   1      30.124  22.167  26.435  1.00  0.00    -0.270 OA
ATOM     15  H   UNL A   1      29.005  24.239  26.083  1.00  0.00     0.170 HD
BRANCH  13  16
ATOM     16  C   UNL A   1      32.274  23.277  26.457  1.00  0.00     0.259 C 
ATOM     17  C   UNL A   1      32.674  22.542  27.733  1.00  0.00     0.064 C 
BRANCH  16  18
ATOM     18  O   UNL A   1      33.009  22.778  25.338  1.00  0.00    -0.479 OA
BRANCH  18  19
ATOM     19  C   UNL A   1      33.239  23.697  24.348  1.00  0.00     0.139 A 
ATOM     20  C   UNL A   1      33.915  24.882  24.657  1.00  0.00     0.048 A 
ATOM     21  C   UNL A   1      32.673  23.535  23.078  1.00  0.00     0.083 A 
ATOM     22  C   UNL A   1      34.050  25.882  23.690  1.00  0.00     0.004 A 
ATOM     23  C   UNL A   1      32.807  24.537  22.115  1.00  0.00     0.024 A 
ATOM     24  Cl  UNL A   1      31.798  22.113  22.643  1.00  0.00    -0.080 Cl
ATOM     25  C   UNL A   1      33.496  25.711  22.422  1.00  0.00     0.002 A 
ENDBRANCH  18  19
ENDBRANCH  16  18
ENDBRANCH  13  16
ENDBRANCH   7  12
ENDBRANCH   3   6
ENDBRANCH   1   2
BRANCH   1  26
ATOM     26  C   UNL A   1      31.369  32.346  26.616  1.00  0.00     0.042 C 
BRANCH  26  27
ATOM     27  C   UNL A   1      32.622  32.964  27.226  1.00  0.00     0.118 C 
BRANCH  27  28
ATOM     28  N   UNL A   1      32.397  34.329  27.686  1.00  0.00    -0.352 N 
ATOM     29  C   UNL A   1      32.988  35.022  28.711  1.00  0.00     0.251 C 
ATOM     30  H   UNL A   1      31.715  34.831  27.183  1.00  0.00     0.163 HD
ATOM     31  O   UNL A   1      32.522  36.110  29.054  1.00  0.00    -0.269 OA
BRANCH  29  32
ATOM     32  C   UNL A   1      34.162  34.475  29.422  1.00  0.00     0.039 A 
ATOM     33  C   UNL A   1      33.967  33.841  30.653  1.00  0.00     0.014 A 
ATOM     34  C   UNL A   1      35.455  34.610  28.907  1.00  0.00     0.014 A 
ATOM     35  C   UNL A   1      35.055  33.291  31.336  1.00  0.00     0.010 A 
ATOM     36  C   UNL A   1      36.528  33.994  29.550  1.00  0.00     0.010 A 
ATOM     37  C   UNL A   1      36.340  33.333  30.773  1.00  0.00    -0.014 A 
BRANCH  37  38
ATOM     38  C   UNL A   1      37.498  32.691  31.447  1.00  0.00     0.031 A 
ATOM     39  C   UNL A   1      38.212  31.537  30.795  1.00  0.00     0.074 A 
ATOM     40  C   UNL A   1      37.866  33.103  32.675  1.00  0.00     0.049 A 
ATOM     41  N   UNL A   1      39.191  30.800  31.257  1.00  0.00    -0.248 NA
ATOM     42  C   UNL A   1      37.745  31.143  29.457  1.00  0.00     0.031 C 
ATOM     43  C   UNL A   1      37.226  34.180  33.431  1.00  0.00     0.029 A 
ATOM     44  N   UNL A   1      38.860  32.657  33.511  1.00  0.00    -0.354 N 
ATOM     45  C   UNL A   1      39.444  29.851  30.276  1.00  0.00     0.074 A 
ATOM     46  C   UNL A   1      38.483  30.070  29.217  1.00  0.00     0.031 C 
ATOM     47  C   UNL A   1      37.854  34.325  34.608  1.00  0.00     0.029 A 
ATOM     48  C   UNL A   1      38.913  33.326  34.709  1.00  0.00     0.049 A 
ATOM     49  H   UNL A   1      39.477  31.927  33.274  1.00  0.00     0.167 HD
ATOM     50  C   UNL A   1      40.406  28.897  30.251  1.00  0.00     0.037 A 
ATOM     51  C   UNL A   1      39.718  33.146  35.774  1.00  0.00     0.037 A 
ATOM     52  C   UNL A   1      41.375  28.697  31.297  1.00  0.00     0.049 A 
ATOM     53  C   UNL A   1      40.771  32.072  35.726  1.00  0.00     0.074 A 
ATOM     54  C   UNL A   1      42.427  27.798  31.339  1.00  0.00     0.029 A 
ATOM     55  N   UNL A   1      41.407  29.405  32.490  1.00  0.00    -0.354 N 
ATOM     56  N   UNL A   1      41.046  31.225  34.763  1.00  0.00    -0.248 NA
ATOM     57  C   UNL A   1      41.629  31.933  36.910  1.00  0.00     0.031 C 
ATOM     58  C   UNL A   1      43.063  27.927  32.578  1.00  0.00     0.029 A 
ATOM     59  C   UNL A   1      42.446  28.946  33.286  1.00  0.00     0.049 A 
ATOM     60  H   UNL A   1      40.784  30.128  32.735  1.00  0.00     0.167 HD
ATOM     61  C   UNL A   1      42.125  30.476  35.212  1.00  0.00     0.074 A 
ATOM     62  C   UNL A   1      42.464  30.978  36.526  1.00  0.00     0.031 C 
ATOM     63  C   UNL A   1      42.776  29.462  34.589  1.00  0.00     0.037 A 
BRANCH  50  64
ATOM     64  C   UNL A   1      40.459  27.993  29.052  1.00  0.00     0.064 A 
ATOM     65  C   UNL A   1      39.724  26.799  28.993  1.00  0.00     0.173 A 
ATOM     66  C   UNL A   1      41.225  28.344  27.929  1.00  0.00     0.173 A 
ATOM     67  F   UNL A   1      38.983  26.411  30.043  1.00  0.00    -0.203 F 
ATOM     68  C   UNL A   1      39.778  25.976  27.872  1.00  0.00     0.198 A 
ATOM     69  C   UNL A   1      41.251  27.535  26.796  1.00  0.00     0.198 A 
ATOM     70  F   UNL A   1      41.942  29.478  27.926  1.00  0.00    -0.203 F 
ATOM     71  F   UNL A   1      39.108  24.815  27.862  1.00  0.00    -0.200 F 
ATOM     72  C   UNL A   1      40.535  26.348  26.771  1.00  0.00     0.200 A 
ATOM     73  F   UNL A   1      41.971  27.903  25.727  1.00  0.00    -0.200 F 
ATOM     74  F   UNL A   1      40.579  25.558  25.689  1.00  0.00    -0.200 F 
ENDBRANCH  50  64
BRANCH  51  75
ATOM     75  C   UNL A   1      39.572  34.017  36.971  1.00  0.00     0.064 A 
ATOM     76  C   UNL A   1      40.195  35.271  37.028  1.00  0.00     0.173 A 
ATOM     77  C   UNL A   1      38.816  33.613  38.080  1.00  0.00     0.173 A 
ATOM     78  F   UNL A   1      40.946  35.693  36.000  1.00  0.00    -0.203 F 
ATOM     79  C   UNL A   1      40.086  36.079  38.158  1.00  0.00     0.198 A 
ATOM     80  C   UNL A   1      38.681  34.435  39.198  1.00  0.00     0.198 A 
ATOM     81  F   UNL A   1      38.195  32.425  38.075  1.00  0.00    -0.203 F 
ATOM     82  F   UNL A   1      40.732  37.252  38.206  1.00  0.00    -0.200 F 
ATOM     83  C   UNL A   1      39.323  35.663  39.240  1.00  0.00     0.200 A 
ATOM     84  F   UNL A   1      37.931  34.037  40.235  1.00  0.00    -0.200 F 
ATOM     85  F   UNL A   1      39.215  36.442  40.325  1.00  0.00    -0.200 F 
ENDBRANCH  51  75
BRANCH  63  86
ATOM     86  C   UNL A   1      43.947  28.854  35.305  1.00  0.00     0.064 A 
ATOM     87  C   UNL A   1      45.255  29.326  35.120  1.00  0.00     0.173 A 
ATOM     88  C   UNL A   1      43.751  27.808  36.222  1.00  0.00     0.173 A 
ATOM     89  F   UNL A   1      45.498  30.313  34.244  1.00  0.00    -0.203 F 
ATOM     90  C   UNL A   1      46.326  28.756  35.803  1.00  0.00     0.198 A 
ATOM     91  C   UNL A   1      44.820  27.263  36.928  1.00  0.00     0.198 A 
ATOM     92  F   UNL A   1      42.520  27.324  36.442  1.00  0.00    -0.203 F 
ATOM     93  F   UNL A   1      47.572  29.189  35.572  1.00  0.00    -0.200 F 
ATOM     94  C   UNL A   1      46.107  27.732  36.712  1.00  0.00     0.200 A 
ATOM     95  F   UNL A   1      44.603  26.284  37.817  1.00  0.00    -0.200 F 
ATOM     96  F   UNL A   1      47.137  27.190  37.376  1.00  0.00    -0.200 F 
ENDBRANCH  63  86
ENDBRANCH  37  38
ENDBRANCH  29  32
ENDBRANCH  27  28
ENDBRANCH  26  27
ENDBRANCH   1  26
TORSDOF 14
ENDMDL
MODEL 2
REMARK VINA RESULT:     -12.7      5.787     11.040
REMARK SMILES C[C@@H](Oc1ccccc1Cl)C(=O)Nc1ccc(C(=O)NCCCNC(=O)c2ccc(-c3c4nc(c(-c5c(F)c(F)c(F)c(F)c5F)c5ccc([nH]5)c(-c5c(F)c(F)c(F)c(F)c5F)c5nc(c(-c6c(F)c(F)c(F)c(F)c6F)c6ccc3[nH]6)C=C5)C=C4)cc2)cc1
REMARK SMILES IDX 21 1 20 2 18 3 19 4 17 6 14 7 15 8 91 9 16 10 90 11 13 12
REMARK SMILES IDX 11 13 12 14 2 16 1 17 3 18 4 19 5 20 9 21 6 22 8 23 10 24
REMARK SMILES IDX 7 25 22 26 23 27 24 28 25 29 26 31 27 32 28 33 89 34 29 35
REMARK SMILES IDX 88 36 30 37 31 38 32 39 82 40 33 41 87 42 81 43 83 44 34 45
REMARK SMILES IDX 86 46 80 47 79 48 35 50 67 51 47 52 66 53 48 54 51 55 65 56
REMARK SMILES IDX 84 57 49 58 50 59 64 61 85 62 52 63 36 64 37 65 45 66 38 67
REMARK SMILES IDX 39 68 43 69 46 70 40 71 41 72 44 73 42 74 68 75 69 76 77 77
REMARK SMILES IDX 70 78 71 79 75 80 78 81 72 82 73 83 76 84 74 85 53 86 54 87
REMARK SMILES IDX 62 88 55 89 56 90 60 91 63 92 57 93 58 94 61 95 59 96
REMARK H PARENT 20 5 13 15 24 30 83 49 51 60
REMARK Flexibility Score: inf
ROOT
ATOM      1  C   UNL A   1      37.347  20.860  24.798  1.00  0.00     0.118 C 
ENDROOT
BRANCH   1   2
ATOM      2  N   UNL A   1      37.773  22.009  25.580  1.00  0.00    -0.352 N 
ATOM      3  C   UNL A   1      37.248  23.276  25.671  1.00  0.00     0.251 C 
ATOM      4  O   UNL A   1      37.720  24.051  26.500  1.00  0.00    -0.269 OA
ATOM      5  H   UNL A   1      38.570  21.854  26.136  1.00  0.00     0.163 HD
BRANCH   3   6
ATOM      6  C   UNL A   1      36.083  23.704  24.855  1.00  0.00     0.039 A 
ATOM      7  C   UNL A   1      33.690  24.364  23.576  1.00  0.00     0.041 A 
ATOM      8  C   UNL A   1      34.080  25.069  24.713  1.00  0.00     0.027 A 
ATOM      9  C   UNL A   1      34.571  23.462  22.984  1.00  0.00     0.027 A 
ATOM     10  C   UNL A   1      35.262  24.717  25.369  1.00  0.00     0.016 A 
ATOM     11  C   UNL A   1      35.778  23.150  23.611  1.00  0.00     0.016 A 
BRANCH   7  12
ATOM     12  N   UNL A   1      32.417  24.593  23.053  1.00  0.00    -0.323 N 
ATOM     13  C   UNL A   1      31.208  24.537  23.697  1.00  0.00     0.265 C 
ATOM     14  O   UNL A   1      30.188  24.670  23.007  1.00  0.00    -0.270 OA
ATOM     15  H   UNL A   1      32.383  24.824  22.097  1.00  0.00     0.170 HD
BRANCH  13  16
ATOM     16  C   UNL A   1      31.080  24.390  25.239  1.00  0.00     0.259 C 
ATOM     17  C   UNL A   1      29.976  25.306  25.758  1.00  0.00     0.064 C 
BRANCH  16  18
ATOM     18  O   UNL A   1      30.879  23.052  25.693  1.00  0.00    -0.479 OA
BRANCH  18  19
ATOM     19  C   UNL A   1      31.988  22.459  26.238  1.00  0.00     0.139 A 
ATOM     20  C   UNL A   1      32.494  22.937  27.451  1.00  0.00     0.048 A 
ATOM     21  C   UNL A   1      32.704  21.492  25.523  1.00  0.00     0.083 A 
ATOM     22  C   UNL A   1      33.693  22.426  27.958  1.00  0.00     0.004 A 
ATOM     23  C   UNL A   1      33.902  20.985  26.031  1.00  0.00     0.024 A 
ATOM     24  Cl  UNL A   1      32.153  20.883  24.006  1.00  0.00    -0.080 Cl
ATOM     25  C   UNL A   1      34.396  21.453  27.249  1.00  0.00     0.002 A 
ENDBRANCH  18  19
ENDBRANCH  16  18
ENDBRANCH  13  16
ENDBRANCH   7  12
ENDBRANCH   3   6
ENDBRANCH   1   2
BRANCH   1  26
ATOM     26  C   UNL A   1      38.279  19.668  25.001  1.00  0.00     0.042 C 
BRANCH  26  27
ATOM     27  C   UNL A   1      39.287  19.875  26.125  1.00  0.00     0.118 C 
BRANCH  27  28
ATOM     28  N   UNL A   1      40.406  18.944  26.043  1.00  0.00    -0.352 N 
ATOM     29  C   UNL A   1      41.755  19.186  26.050  1.00  0.00     0.251 C 
ATOM     30  H   UNL A   1      40.153  17.995  25.971  1.00  0.00     0.163 HD
ATOM     31  O   UNL A   1      42.536  18.270  25.783  1.00  0.00    -0.269 OA
BRANCH  29  32
ATOM     32  C   UNL A   1      42.287  20.532  26.353  1.00  0.00     0.039 A 
ATOM     33  C   UNL A   1      42.680  21.353  25.291  1.00  0.00     0.014 A 
ATOM     34  C   UNL A   1      42.432  20.979  27.669  1.00  0.00     0.014 A 
ATOM     35  C   UNL A   1      43.162  22.640  25.546  1.00  0.00     0.010 A 
ATOM     36  C   UNL A   1      42.839  22.289  27.918  1.00  0.00     0.010 A 
ATOM     37  C   UNL A   1      43.212  23.131  26.860  1.00  0.00    -0.014 A 
BRANCH  37  38
ATOM     38  C   UNL A   1      43.651  24.521  27.146  1.00  0.00     0.031 A 
ATOM     39  C   UNL A   1      42.665  25.540  27.651  1.00  0.00     0.074 A 
ATOM     40  C   UNL A   1      44.922  24.885  26.889  1.00  0.00     0.049 A 
ATOM     41  N   UNL A   1      42.838  26.817  27.887  1.00  0.00    -0.248 NA
ATOM     42  C   UNL A   1      41.295  25.065  27.901  1.00  0.00     0.031 C 
ATOM     43  C   UNL A   1      45.961  24.002  26.356  1.00  0.00     0.029 A 
ATOM     44  N   UNL A   1      45.555  26.095  27.029  1.00  0.00    -0.354 N 
ATOM     45  C   UNL A   1      41.600  27.297  28.294  1.00  0.00     0.074 A 
ATOM     46  C   UNL A   1      40.673  26.189  28.224  1.00  0.00     0.031 C 
ATOM     47  C   UNL A   1      47.105  24.693  26.233  1.00  0.00     0.029 A 
ATOM     48  C   UNL A   1      46.871  26.076  26.638  1.00  0.00     0.049 A 
ATOM     49  H   UNL A   1      45.108  26.900  27.377  1.00  0.00     0.167 HD
ATOM     50  C   UNL A   1      41.274  28.544  28.710  1.00  0.00     0.037 A 
ATOM     51  C   UNL A   1      47.785  27.065  26.599  1.00  0.00     0.037 A 
ATOM     52  C   UNL A   1      42.206  29.638  28.800  1.00  0.00     0.049 A 
ATOM     53  C   UNL A   1      47.393  28.445  27.057  1.00  0.00     0.074 A 
ATOM     54  C   UNL A   1      41.987  30.922  29.266  1.00  0.00     0.029 A 
ATOM     55  N   UNL A   1      43.535  29.576  28.409  1.00  0.00    -0.354 N 
ATOM     56  N   UNL A   1      46.237  28.871  27.506  1.00  0.00    -0.248 NA
ATOM     57  C   UNL A   1      48.435  29.480  27.007  1.00  0.00     0.031 C 
ATOM     58  C   UNL A   1      43.170  31.652  29.110  1.00  0.00     0.029 A 
ATOM     59  C   UNL A   1      44.143  30.808  28.601  1.00  0.00     0.049 A 
ATOM     60  H   UNL A   1      43.983  28.776  28.050  1.00  0.00     0.167 HD
ATOM     61  C   UNL A   1      46.420  30.211  27.820  1.00  0.00     0.074 A 
ATOM     62  C   UNL A   1      47.802  30.523  27.525  1.00  0.00     0.031 C 
ATOM     63  C   UNL A   1      45.523  31.101  28.310  1.00  0.00     0.037 A 
BRANCH  50  64
ATOM     64  C   UNL A   1      39.845  28.795  29.102  1.00  0.00     0.064 A 
ATOM     65  C   UNL A   1      39.401  28.624  30.422  1.00  0.00     0.173 A 
ATOM     66  C   UNL A   1      38.915  29.250  28.154  1.00  0.00     0.173 A 
ATOM     67  F   UNL A   1      40.245  28.181  31.367  1.00  0.00    -0.203 F 
ATOM     68  C   UNL A   1      38.075  28.868  30.772  1.00  0.00     0.198 A 
ATOM     69  C   UNL A   1      37.599  29.525  28.514  1.00  0.00     0.198 A 
ATOM     70  F   UNL A   1      39.286  29.440  26.879  1.00  0.00    -0.203 F 
ATOM     71  F   UNL A   1      37.663  28.646  32.028  1.00  0.00    -0.200 F 
ATOM     72  C   UNL A   1      37.177  29.325  29.820  1.00  0.00     0.200 A 
ATOM     73  F   UNL A   1      36.736  29.982  27.596  1.00  0.00    -0.200 F 
ATOM     74  F   UNL A   1      35.904  29.568  30.160  1.00  0.00    -0.200 F 
ENDBRANCH  50  64
BRANCH  51  75
ATOM     75  C   UNL A   1      49.166  26.783  26.127  1.00  0.00     0.064 A 
ATOM     76  C   UNL A   1      49.527  26.996  24.790  1.00  0.00     0.173 A 
ATOM     77  C   UNL A   1      50.150  26.292  26.997  1.00  0.00     0.173 A 
ATOM     78  F   UNL A   1      48.615  27.446  23.914  1.00  0.00    -0.203 F 
ATOM     79  C   UNL A   1      50.811  26.707  24.335  1.00  0.00     0.198 A 
ATOM     80  C   UNL A   1      51.444  26.033  26.548  1.00  0.00     0.198 A 
ATOM     81  F   UNL A   1      49.859  26.076  28.288  1.00  0.00    -0.203 F 
ATOM     82  F   UNL A   1      51.115  26.873  23.040  1.00  0.00    -0.200 F 
ATOM     83  C   UNL A   1      51.771  26.231  25.216  1.00  0.00     0.200 A 
ATOM     84  F   UNL A   1      52.372  25.588  27.406  1.00  0.00    -0.200 F 
ATOM     85  F   UNL A   1      53.008  25.957  24.779  1.00  0.00    -0.200 F 
ENDBRANCH  51  75
BRANCH  63  86
ATOM     86  C   UNL A   1      46.017  32.490  28.595  1.00  0.00     0.064 A 
ATOM     87  C   UNL A   1      46.586  32.834  29.830  1.00  0.00     0.173 A 
ATOM     88  C   UNL A   1      45.956  33.481  27.602  1.00  0.00     0.173 A 
ATOM     89  F   UNL A   1      46.655  31.929  30.817  1.00  0.00    -0.203 F 
ATOM     90  C   UNL A   1      47.050  34.125  30.069  1.00  0.00     0.198 A 
ATOM     91  C   UNL A   1      46.452  34.761  27.833  1.00  0.00     0.198 A 
ATOM     92  F   UNL A   1      45.428  33.202  26.401  1.00  0.00    -0.203 F 
ATOM     93  F   UNL A   1      47.544  34.444  31.273  1.00  0.00    -0.200 F 
ATOM     94  C   UNL A   1      46.990  35.084  29.070  1.00  0.00     0.200 A 
ATOM     95  F   UNL A   1      46.406  35.681  26.861  1.00  0.00    -0.200 F 
ATOM     96  F   UNL A   1      47.446  36.324  29.299  1.00  0.00    -0.200 F 
ENDBRANCH  63  86
ENDBRANCH  37  38
ENDBRANCH  29  32
ENDBRANCH  27  28
ENDBRANCH  26  27
ENDBRANCH   1  26
TORSDOF 14
ENDMDL
MODEL 3
REMARK VINA RESULT:     -12.7      1.186      2.324
REMARK SMILES C[C@@H](Oc1ccccc1Cl)C(=O)Nc1ccc(C(=O)NCCCNC(=O)c2ccc(-c3c4nc(c(-c5c(F)c(F)c(F)c(F)c5F)c5ccc([nH]5)c(-c5c(F)c(F)c(F)c(F)c5F)c5nc(c(-c6c(F)c(F)c(F)c(F)c6F)c6ccc3[nH]6)C=C5)C=C4)cc2)cc1
REMARK SMILES IDX 21 1 20 2 18 3 19 4 17 6 14 7 15 8 91 9 16 10 90 11 13 12
REMARK SMILES IDX 11 13 12 14 2 16 1 17 3 18 4 19 5 20 9 21 6 22 8 23 10 24
REMARK SMILES IDX 7 25 22 26 23 27 24 28 25 29 26 31 27 32 28 33 89 34 29 35
REMARK SMILES IDX 88 36 30 37 31 38 32 39 82 40 33 41 87 42 81 43 83 44 34 45
REMARK SMILES IDX 86 46 80 47 79 48 35 50 67 51 47 52 66 53 48 54 51 55 65 56
REMARK SMILES IDX 84 57 49 58 50 59 64 61 85 62 52 63 36 64 37 65 45 66 38 67
REMARK SMILES IDX 39 68 43 69 46 70 40 71 41 72 44 73 42 74 68 75 69 76 77 77
REMARK SMILES IDX 70 78 71 79 75 80 78 81 72 82 73 83 76 84 74 85 53 86 54 87
REMARK SMILES IDX 62 88 55 89 56 90 60 91 63 92 57 93 58 94 61 95 59 96
REMARK H PARENT 20 5 13 15 24 30 83 49 51 60
REMARK Flexibility Score: inf
ROOT
ATOM      1  C   UNL A   1      31.745  30.639  26.700  1.00  0.00     0.118 C 
ENDROOT
BRANCH   1   2
ATOM      2  N   UNL A   1      33.136  30.319  26.973  1.00  0.00    -0.352 N 
ATOM      3  C   UNL A   1      33.803  29.118  26.940  1.00  0.00     0.251 C 
ATOM      4  O   UNL A   1      35.022  29.117  27.099  1.00  0.00    -0.269 OA
ATOM      5  H   UNL A   1      33.693  31.091  27.225  1.00  0.00     0.163 HD
BRANCH   3   6
ATOM      6  C   UNL A   1      33.105  27.841  26.642  1.00  0.00     0.039 A 
ATOM      7  C   UNL A   1      31.853  25.515  25.737  1.00  0.00     0.041 A 
ATOM      8  C   UNL A   1      33.241  25.618  25.673  1.00  0.00     0.027 A 
ATOM      9  C   UNL A   1      31.115  26.488  26.407  1.00  0.00     0.027 A 
ATOM     10  C   UNL A   1      33.863  26.795  26.098  1.00  0.00     0.016 A 
ATOM     11  C   UNL A   1      31.745  27.639  26.881  1.00  0.00     0.016 A 
BRANCH   7  12
ATOM     12  N   UNL A   1      31.237  24.422  25.127  1.00  0.00    -0.323 N 
ATOM     13  C   UNL A   1      31.373  23.975  23.838  1.00  0.00     0.265 C 
ATOM     14  O   UNL A   1      30.641  23.043  23.477  1.00  0.00    -0.270 OA
ATOM     15  H   UNL A   1      30.624  23.903  25.697  1.00  0.00     0.170 HD
BRANCH  13  16
ATOM     16  C   UNL A   1      32.442  24.538  22.860  1.00  0.00     0.259 C 
ATOM     17  C   UNL A   1      33.078  23.396  22.073  1.00  0.00     0.064 C 
BRANCH  16  18
ATOM     18  O   UNL A   1      31.963  25.552  21.976  1.00  0.00    -0.479 OA
BRANCH  18  19
ATOM     19  C   UNL A   1      32.329  26.828  22.317  1.00  0.00     0.139 A 
ATOM     20  C   UNL A   1      33.670  27.209  22.202  1.00  0.00     0.048 A 
ATOM     21  C   UNL A   1      31.411  27.697  22.919  1.00  0.00     0.083 A 
ATOM     22  C   UNL A   1      34.081  28.465  22.660  1.00  0.00     0.004 A 
ATOM     23  C   UNL A   1      31.826  28.949  23.377  1.00  0.00     0.024 A 
ATOM     24  Cl  UNL A   1      29.751  27.276  23.120  1.00  0.00    -0.080 Cl
ATOM     25  C   UNL A   1      33.160  29.333  23.247  1.00  0.00     0.002 A 
ENDBRANCH  18  19
ENDBRANCH  16  18
ENDBRANCH  13  16
ENDBRANCH   7  12
ENDBRANCH   3   6
ENDBRANCH   1   2
BRANCH   1  26
ATOM     26  C   UNL A   1      31.475  32.135  26.841  1.00  0.00     0.042 C 
BRANCH  26  27
ATOM     27  C   UNL A   1      32.741  32.958  27.053  1.00  0.00     0.118 C 
BRANCH  27  28
ATOM     28  N   UNL A   1      32.455  34.286  27.583  1.00  0.00    -0.352 N 
ATOM     29  C   UNL A   1      32.997  34.941  28.658  1.00  0.00     0.251 C 
ATOM     30  H   UNL A   1      31.766  34.790  27.092  1.00  0.00     0.163 HD
ATOM     31  O   UNL A   1      32.483  35.990  29.051  1.00  0.00    -0.269 OA
BRANCH  29  32
ATOM     32  C   UNL A   1      34.176  34.397  29.366  1.00  0.00     0.039 A 
ATOM     33  C   UNL A   1      33.979  33.701  30.563  1.00  0.00     0.014 A 
ATOM     34  C   UNL A   1      35.472  34.595  28.882  1.00  0.00     0.014 A 
ATOM     35  C   UNL A   1      35.072  33.154  31.240  1.00  0.00     0.010 A 
ATOM     36  C   UNL A   1      36.553  33.984  29.516  1.00  0.00     0.010 A 
ATOM     37  C   UNL A   1      36.365  33.261  30.703  1.00  0.00    -0.014 A 
BRANCH  37  38
ATOM     38  C   UNL A   1      37.530  32.624  31.369  1.00  0.00     0.031 A 
ATOM     39  C   UNL A   1      38.257  31.487  30.702  1.00  0.00     0.074 A 
ATOM     40  C   UNL A   1      37.893  33.024  32.602  1.00  0.00     0.049 A 
ATOM     41  N   UNL A   1      39.245  30.755  31.154  1.00  0.00    -0.248 NA
ATOM     42  C   UNL A   1      37.795  31.105  29.359  1.00  0.00     0.031 C 
ATOM     43  C   UNL A   1      37.241  34.084  33.372  1.00  0.00     0.029 A 
ATOM     44  N   UNL A   1      38.893  32.579  33.432  1.00  0.00    -0.354 N 
ATOM     45  C   UNL A   1      39.509  29.822  30.160  1.00  0.00     0.074 A 
ATOM     46  C   UNL A   1      38.545  30.043  29.105  1.00  0.00     0.031 C 
ATOM     47  C   UNL A   1      37.868  34.221  34.551  1.00  0.00     0.029 A 
ATOM     48  C   UNL A   1      38.938  33.233  34.639  1.00  0.00     0.049 A 
ATOM     49  H   UNL A   1      39.518  31.859  33.185  1.00  0.00     0.167 HD
ATOM     50  C   UNL A   1      40.482  28.880  30.123  1.00  0.00     0.037 A 
ATOM     51  C   UNL A   1      39.745  33.049  35.702  1.00  0.00     0.037 A 
ATOM     52  C   UNL A   1      41.454  28.678  31.167  1.00  0.00     0.049 A 
ATOM     53  C   UNL A   1      40.811  31.988  35.639  1.00  0.00     0.074 A 
ATOM     54  C   UNL A   1      42.516  27.791  31.197  1.00  0.00     0.029 A 
ATOM     55  N   UNL A   1      41.478  29.371  32.368  1.00  0.00    -0.354 N 
ATOM     56  N   UNL A   1      41.096  31.157  34.665  1.00  0.00    -0.248 NA
ATOM     57  C   UNL A   1      41.672  31.844  36.821  1.00  0.00     0.031 C 
ATOM     58  C   UNL A   1      43.151  27.912  32.437  1.00  0.00     0.029 A 
ATOM     59  C   UNL A   1      42.522  28.914  33.158  1.00  0.00     0.049 A 
ATOM     60  H   UNL A   1      40.847  30.083  32.623  1.00  0.00     0.167 HD
ATOM     61  C   UNL A   1      42.184  30.415  35.104  1.00  0.00     0.074 A 
ATOM     62  C   UNL A   1      42.517  30.904  36.425  1.00  0.00     0.031 C 
ATOM     63  C   UNL A   1      42.847  29.417  34.468  1.00  0.00     0.037 A 
BRANCH  50  64
ATOM     64  C   UNL A   1      40.546  27.993  28.913  1.00  0.00     0.064 A 
ATOM     65  C   UNL A   1      39.802  26.806  28.827  1.00  0.00     0.173 A 
ATOM     66  C   UNL A   1      41.331  28.353  27.806  1.00  0.00     0.173 A 
ATOM     67  F   UNL A   1      39.043  26.409  29.860  1.00  0.00    -0.203 F 
ATOM     68  C   UNL A   1      39.867  25.998  27.695  1.00  0.00     0.198 A 
ATOM     69  C   UNL A   1      41.367  27.560  26.662  1.00  0.00     0.198 A 
ATOM     70  F   UNL A   1      42.056  29.481  27.829  1.00  0.00    -0.203 F 
ATOM     71  F   UNL A   1      39.188  24.842  27.659  1.00  0.00    -0.200 F 
ATOM     72  C   UNL A   1      40.642  26.378  26.611  1.00  0.00     0.200 A 
ATOM     73  F   UNL A   1      42.105  27.937  25.609  1.00  0.00    -0.200 F 
ATOM     74  F   UNL A   1      40.695  25.604  25.519  1.00  0.00    -0.200 F 
ENDBRANCH  50  64
BRANCH  51  75
ATOM     75  C   UNL A   1      39.590  33.902  36.910  1.00  0.00     0.064 A 
ATOM     76  C   UNL A   1      38.817  33.474  37.997  1.00  0.00     0.173 A 
ATOM     77  C   UNL A   1      40.202  35.160  37.000  1.00  0.00     0.173 A 
ATOM     78  F   UNL A   1      38.194  32.287  37.951  1.00  0.00    -0.203 F 
ATOM     79  C   UNL A   1      38.644  34.280  39.120  1.00  0.00     0.198 A 
ATOM     80  C   UNL A   1      40.054  35.953  38.137  1.00  0.00     0.198 A 
ATOM     81  F   UNL A   1      40.957  35.615  35.989  1.00  0.00    -0.203 F 
ATOM     82  F   UNL A   1      37.860  33.867  40.125  1.00  0.00    -0.200 F 
ATOM     83  C   UNL A   1      39.268  35.517  39.192  1.00  0.00     0.200 A 
ATOM     84  F   UNL A   1      40.672  37.140  38.208  1.00  0.00    -0.200 F 
ATOM     85  F   UNL A   1      39.105  36.291  40.273  1.00  0.00    -0.200 F 
ENDBRANCH  51  75
BRANCH  63  86
ATOM     86  C   UNL A   1      44.025  28.813  35.176  1.00  0.00     0.064 A 
ATOM     87  C   UNL A   1      43.887  27.714  36.036  1.00  0.00     0.173 A 
ATOM     88  C   UNL A   1      45.317  29.318  34.959  1.00  0.00     0.173 A 
ATOM     89  F   UNL A   1      42.672  27.202  36.289  1.00  0.00    -0.203 F 
ATOM     90  C   UNL A   1      44.994  27.160  36.674  1.00  0.00     0.198 A 
ATOM     91  C   UNL A   1      46.426  28.741  35.572  1.00  0.00     0.198 A 
ATOM     92  F   UNL A   1      45.505  30.364  34.141  1.00  0.00    -0.203 F 
ATOM     93  F   UNL A   1      44.832  26.142  37.530  1.00  0.00    -0.200 F 
ATOM     94  C   UNL A   1      46.262  27.668  36.436  1.00  0.00     0.200 A 
ATOM     95  F   UNL A   1      47.651  29.224  35.329  1.00  0.00    -0.200 F 
ATOM     96  F   UNL A   1      47.328  27.128  37.043  1.00  0.00    -0.200 F 
ENDBRANCH  63  86
ENDBRANCH  37  38
ENDBRANCH  29  32
ENDBRANCH  27  28
ENDBRANCH  26  27
ENDBRANCH   1  26
TORSDOF 14
ENDMDL
