MODEL 1
REMARK VINA RESULT:     -11.4      0.000      0.000
REMARK SMILES CCc1ccccc1O[C@H]1CCC[C@@]([NH2+]C)(C(=O)NCCCNC(=O)c2ccc(-c3c4nc(c(-c5c(F)c(F)c(F)c(F)c5F)c5ccc([nH]5)c(-c5c(F)c(F)c(F)c(F)c5F)c5nc(c(-c6c(F)c(F)c(F)c(F)c6F)c6ccc3[nH]6)C=C5)C=C4)cc2)C1
REMARK SMILES IDX 20 1 19 2 17 3 18 4 14 6 10 7 11 8 89 9 12 10 13 11 9 12
REMARK SMILES IDX 8 13 3 14 4 15 5 16 7 17 6 18 2 19 1 20 15 21 16 22 21 25
REMARK SMILES IDX 22 26 23 27 24 28 25 30 26 31 27 32 88 33 28 34 87 35 29 36
REMARK SMILES IDX 30 37 31 38 81 39 32 40 86 41 80 42 82 43 33 44 85 45 79 46
REMARK SMILES IDX 78 47 34 49 66 50 46 51 65 52 47 53 50 54 64 55 83 56 48 57
REMARK SMILES IDX 49 58 63 60 84 61 51 62 35 63 36 64 44 65 37 66 38 67 42 68
REMARK SMILES IDX 45 69 39 70 40 71 43 72 41 73 67 74 68 75 76 76 69 77 70 78
REMARK SMILES IDX 74 79 77 80 71 81 72 82 75 83 73 84 52 85 53 86 61 87 54 88
REMARK SMILES IDX 55 89 59 90 62 91 56 92 57 93 60 94 58 95
REMARK H PARENT 19 5 15 23 15 24 23 29 82 48 50 59
REMARK Flexibility Score: inf
ROOT
ATOM      1  C   UNL A   1      33.635  28.237  24.686  1.00  0.00     0.118 C 
ENDROOT
BRANCH   1   2
ATOM      2  N   UNL A   1      33.937  27.277  23.643  1.00  0.00    -0.351 N 
ATOM      3  C   UNL A   1      33.120  26.591  22.794  1.00  0.00     0.281 C 
ATOM      4  O   UNL A   1      33.677  26.152  21.781  1.00  0.00    -0.268 OA
ATOM      5  H   UNL A   1      34.897  27.088  23.527  1.00  0.00     0.163 HD
BRANCH   3   6
ATOM      6  C   UNL A   1      31.566  26.484  22.993  1.00  0.00     0.178 C 
ATOM      7  C   UNL A   1      31.295  23.868  23.215  1.00  0.00     0.180 C 
ATOM      8  C   UNL A   1      30.847  24.089  24.667  1.00  0.00     0.046 C 
ATOM      9  C   UNL A   1      31.027  25.149  22.376  1.00  0.00     0.124 C 
ATOM     10  C   UNL A   1      31.501  25.319  25.273  1.00  0.00     0.011 C 
ATOM     11  C   UNL A   1      31.115  26.551  24.471  1.00  0.00     0.079 C 
BRANCH   7  12
ATOM     12  O   UNL A   1      32.685  23.539  23.128  1.00  0.00    -0.490 OA
BRANCH  12  13
ATOM     13  C   UNL A   1      33.162  22.354  23.628  1.00  0.00     0.122 A 
ATOM     14  C   UNL A   1      34.411  22.414  24.276  1.00  0.00    -0.006 A 
ATOM     15  C   UNL A   1      34.919  21.269  24.914  1.00  0.00     0.007 A 
ATOM     16  C   UNL A   1      34.209  20.072  24.898  1.00  0.00     0.001 A 
ATOM     17  C   UNL A   1      32.492  21.128  23.564  1.00  0.00     0.047 A 
ATOM     18  C   UNL A   1      33.005  19.999  24.209  1.00  0.00     0.004 A 
BRANCH  14  19
ATOM     19  C   UNL A   1      35.267  23.660  24.248  1.00  0.00     0.036 C 
ATOM     20  C   UNL A   1      35.208  24.398  25.580  1.00  0.00     0.009 C 
ENDBRANCH  14  19
ENDBRANCH  12  13
ENDBRANCH   7  12
BRANCH   6  21
ATOM     21  N   UNL A   1      30.924  27.669  22.332  1.00  0.00    -0.336 N 
ATOM     22  C   UNL A   1      30.136  28.516  23.222  1.00  0.00     0.331 C 
ATOM     23  H   UNL A   1      30.309  27.326  21.595  1.00  0.00     0.346 HD
ATOM     24  H   UNL A   1      31.686  28.251  21.985  1.00  0.00     0.346 HD
ENDBRANCH   6  21
ENDBRANCH   3   6
ENDBRANCH   1   2
BRANCH   1  25
ATOM     25  C   UNL A   1      34.171  27.802  26.048  1.00  0.00     0.042 C 
BRANCH  25  26
ATOM     26  C   UNL A   1      33.366  28.313  27.238  1.00  0.00     0.118 C 
BRANCH  26  27
ATOM     27  N   UNL A   1      33.368  29.765  27.342  1.00  0.00    -0.352 N 
ATOM     28  C   UNL A   1      34.317  30.624  27.831  1.00  0.00     0.251 C 
ATOM     29  H   UNL A   1      32.552  30.202  27.006  1.00  0.00     0.163 HD
ATOM     30  O   UNL A   1      34.031  31.812  27.977  1.00  0.00    -0.269 OA
BRANCH  28  31
ATOM     31  C   UNL A   1      35.673  30.154  28.193  1.00  0.00     0.039 A 
ATOM     32  C   UNL A   1      35.902  29.739  29.510  1.00  0.00     0.014 A 
ATOM     33  C   UNL A   1      36.735  30.188  27.285  1.00  0.00     0.014 A 
ATOM     34  C   UNL A   1      37.177  29.326  29.904  1.00  0.00     0.010 A 
ATOM     35  C   UNL A   1      37.991  29.711  27.659  1.00  0.00     0.010 A 
ATOM     36  C   UNL A   1      38.229  29.292  28.976  1.00  0.00    -0.014 A 
BRANCH  36  37
ATOM     37  C   UNL A   1      39.588  28.858  29.386  1.00  0.00     0.031 A 
ATOM     38  C   UNL A   1      40.423  29.730  30.285  1.00  0.00     0.074 A 
ATOM     39  C   UNL A   1      40.091  27.700  28.916  1.00  0.00     0.049 A 
ATOM     40  N   UNL A   1      41.645  29.543  30.720  1.00  0.00    -0.248 NA
ATOM     41  C   UNL A   1      39.815  30.991  30.734  1.00  0.00     0.031 C 
ATOM     42  C   UNL A   1      39.404  26.792  27.996  1.00  0.00     0.029 A 
ATOM     43  N   UNL A   1      41.300  27.092  29.143  1.00  0.00    -0.354 N 
ATOM     44  C   UNL A   1      41.955  30.670  31.470  1.00  0.00     0.074 A 
ATOM     45  C   UNL A   1      40.812  31.555  31.398  1.00  0.00     0.031 C 
ATOM     46  C   UNL A   1      40.195  25.735  27.752  1.00  0.00     0.029 A 
ATOM     47  C   UNL A   1      41.450  25.900  28.478  1.00  0.00     0.049 A 
ATOM     48  H   UNL A   1      41.995  27.474  29.728  1.00  0.00     0.167 HD
ATOM     49  C   UNL A   1      43.083  30.935  32.173  1.00  0.00     0.037 A 
ATOM     50  C   UNL A   1      42.484  25.037  28.460  1.00  0.00     0.037 A 
ATOM     51  C   UNL A   1      44.202  30.037  32.279  1.00  0.00     0.049 A 
ATOM     52  C   UNL A   1      43.700  25.329  29.295  1.00  0.00     0.074 A 
ATOM     53  C   UNL A   1      45.368  30.189  33.012  1.00  0.00     0.029 A 
ATOM     54  N   UNL A   1      44.292  28.810  31.639  1.00  0.00    -0.354 N 
ATOM     55  N   UNL A   1      43.957  26.369  30.050  1.00  0.00    -0.248 NA
ATOM     56  C   UNL A   1      44.765  24.316  29.288  1.00  0.00     0.031 C 
ATOM     57  C   UNL A   1      46.173  29.066  32.793  1.00  0.00     0.029 A 
ATOM     58  C   UNL A   1      45.493  28.196  31.956  1.00  0.00     0.049 A 
ATOM     59  H   UNL A   1      43.602  28.431  31.046  1.00  0.00     0.167 HD
ATOM     60  C   UNL A   1      45.192  26.123  30.631  1.00  0.00     0.074 A 
ATOM     61  C   UNL A   1      45.630  24.828  30.152  1.00  0.00     0.031 C 
ATOM     62  C   UNL A   1      45.903  26.900  31.485  1.00  0.00     0.037 A 
BRANCH  49  63
ATOM     63  C   UNL A   1      43.160  32.250  32.891  1.00  0.00     0.064 A 
ATOM     64  C   UNL A   1      43.679  33.396  32.270  1.00  0.00     0.173 A 
ATOM     65  C   UNL A   1      42.674  32.376  34.201  1.00  0.00     0.173 A 
ATOM     66  F   UNL A   1      44.168  33.326  31.022  1.00  0.00    -0.203 F 
ATOM     67  C   UNL A   1      43.731  34.615  32.943  1.00  0.00     0.198 A 
ATOM     68  C   UNL A   1      42.703  33.602  34.861  1.00  0.00     0.198 A 
ATOM     69  F   UNL A   1      42.163  31.312  34.838  1.00  0.00    -0.203 F 
ATOM     70  F   UNL A   1      44.270  35.686  32.344  1.00  0.00    -0.200 F 
ATOM     71  C   UNL A   1      43.236  34.718  34.234  1.00  0.00     0.200 A 
ATOM     72  F   UNL A   1      42.214  33.703  36.105  1.00  0.00    -0.200 F 
ATOM     73  F   UNL A   1      43.280  35.893  34.877  1.00  0.00    -0.200 F 
ENDBRANCH  49  63
BRANCH  50  74
ATOM     74  C   UNL A   1      42.395  23.792  27.657  1.00  0.00     0.064 A 
ATOM     75  C   UNL A   1      42.795  23.773  26.313  1.00  0.00     0.173 A 
ATOM     76  C   UNL A   1      41.902  22.601  28.209  1.00  0.00     0.173 A 
ATOM     77  F   UNL A   1      43.254  24.893  25.737  1.00  0.00    -0.203 F 
ATOM     78  C   UNL A   1      42.683  22.617  25.545  1.00  0.00     0.198 A 
ATOM     79  C   UNL A   1      41.814  21.438  27.447  1.00  0.00     0.198 A 
ATOM     80  F   UNL A   1      41.512  22.566  29.492  1.00  0.00    -0.203 F 
ATOM     81  F   UNL A   1      43.029  22.639  24.251  1.00  0.00    -0.200 F 
ATOM     82  C   UNL A   1      42.197  21.449  26.113  1.00  0.00     0.200 A 
ATOM     83  F   UNL A   1      41.356  20.308  28.003  1.00  0.00    -0.200 F 
ATOM     84  F   UNL A   1      42.089  20.336  25.375  1.00  0.00    -0.200 F 
ENDBRANCH  50  74
BRANCH  62  85
ATOM     85  C   UNL A   1      47.203  26.350  31.991  1.00  0.00     0.064 A 
ATOM     86  C   UNL A   1      47.270  25.567  33.152  1.00  0.00     0.173 A 
ATOM     87  C   UNL A   1      48.393  26.591  31.288  1.00  0.00     0.173 A 
ATOM     88  F   UNL A   1      46.161  25.321  33.865  1.00  0.00    -0.203 F 
ATOM     89  C   UNL A   1      48.488  25.071  33.609  1.00  0.00     0.198 A 
ATOM     90  C   UNL A   1      49.605  26.071  31.734  1.00  0.00     0.198 A 
ATOM     91  F   UNL A   1      48.381  27.329  30.168  1.00  0.00    -0.203 F 
ATOM     92  F   UNL A   1      48.537  24.367  34.748  1.00  0.00    -0.200 F 
ATOM     93  C   UNL A   1      49.653  25.319  32.898  1.00  0.00     0.200 A 
ATOM     94  F   UNL A   1      50.728  26.304  31.040  1.00  0.00    -0.200 F 
ATOM     95  F   UNL A   1      50.824  24.841  33.340  1.00  0.00    -0.200 F 
ENDBRANCH  62  85
ENDBRANCH  36  37
ENDBRANCH  28  31
ENDBRANCH  26  27
ENDBRANCH  25  26
ENDBRANCH   1  25
TORSDOF 14
ENDMDL
MODEL 2
REMARK VINA RESULT:     -11.4      2.905      4.336
REMARK SMILES CCc1ccccc1O[C@H]1CCC[C@@]([NH2+]C)(C(=O)NCCCNC(=O)c2ccc(-c3c4nc(c(-c5c(F)c(F)c(F)c(F)c5F)c5ccc([nH]5)c(-c5c(F)c(F)c(F)c(F)c5F)c5nc(c(-c6c(F)c(F)c(F)c(F)c6F)c6ccc3[nH]6)C=C5)C=C4)cc2)C1
REMARK SMILES IDX 20 1 19 2 17 3 18 4 14 6 10 7 11 8 89 9 12 10 13 11 9 12
REMARK SMILES IDX 8 13 3 14 4 15 5 16 7 17 6 18 2 19 1 20 15 21 16 22 21 25
REMARK SMILES IDX 22 26 23 27 24 28 25 30 26 31 27 32 88 33 28 34 87 35 29 36
REMARK SMILES IDX 30 37 31 38 81 39 32 40 86 41 80 42 82 43 33 44 85 45 79 46
REMARK SMILES IDX 78 47 34 49 66 50 46 51 65 52 47 53 50 54 64 55 83 56 48 57
REMARK SMILES IDX 49 58 63 60 84 61 51 62 35 63 36 64 44 65 37 66 38 67 42 68
REMARK SMILES IDX 45 69 39 70 40 71 43 72 41 73 67 74 68 75 76 76 69 77 70 78
REMARK SMILES IDX 74 79 77 80 71 81 72 82 75 83 73 84 52 85 53 86 61 87 54 88
REMARK SMILES IDX 55 89 59 90 62 91 56 92 57 93 60 94 58 95
REMARK H PARENT 19 5 15 23 15 24 23 29 82 48 50 59
REMARK Flexibility Score: inf
ROOT
ATOM      1  C   UNL A   1      31.008  30.796  25.168  1.00  0.00     0.118 C 
ENDROOT
BRANCH   1   2
ATOM      2  N   UNL A   1      32.106  29.859  25.048  1.00  0.00    -0.351 N 
ATOM      3  C   UNL A   1      32.402  28.946  24.079  1.00  0.00     0.281 C 
ATOM      4  O   UNL A   1      33.581  28.574  24.061  1.00  0.00    -0.268 OA
ATOM      5  H   UNL A   1      32.749  29.886  25.794  1.00  0.00     0.163 HD
BRANCH   3   6
ATOM      6  C   UNL A   1      31.380  28.501  22.974  1.00  0.00     0.178 C 
ATOM      7  C   UNL A   1      31.702  25.883  23.052  1.00  0.00     0.180 C 
ATOM      8  C   UNL A   1      30.259  25.772  23.562  1.00  0.00     0.046 C 
ATOM      9  C   UNL A   1      31.883  27.204  22.253  1.00  0.00     0.124 C 
ATOM     10  C   UNL A   1      29.857  26.992  24.373  1.00  0.00     0.011 C 
ATOM     11  C   UNL A   1      29.952  28.236  23.506  1.00  0.00     0.079 C 
BRANCH   7  12
ATOM     12  O   UNL A   1      32.652  25.854  24.122  1.00  0.00    -0.490 OA
BRANCH  12  13
ATOM     13  C   UNL A   1      33.474  24.772  24.307  1.00  0.00     0.122 A 
ATOM     14  C   UNL A   1      33.231  23.999  25.460  1.00  0.00    -0.006 A 
ATOM     15  C   UNL A   1      33.953  22.811  25.666  1.00  0.00     0.007 A 
ATOM     16  C   UNL A   1      34.918  22.398  24.752  1.00  0.00     0.001 A 
ATOM     17  C   UNL A   1      34.492  24.379  23.433  1.00  0.00     0.047 A 
ATOM     18  C   UNL A   1      35.198  23.191  23.646  1.00  0.00     0.004 A 
BRANCH  14  19
ATOM     19  C   UNL A   1      32.261  24.446  26.530  1.00  0.00     0.036 C 
ATOM     20  C   UNL A   1      30.997  23.594  26.517  1.00  0.00     0.009 C 
ENDBRANCH  14  19
ENDBRANCH  12  13
ENDBRANCH   7  12
BRANCH   6  21
ATOM     21  N   UNL A   1      31.230  29.627  21.992  1.00  0.00    -0.336 N 
ATOM     22  C   UNL A   1      29.853  30.021  21.715  1.00  0.00     0.331 C 
ATOM     23  H   UNL A   1      31.660  29.340  21.113  1.00  0.00     0.346 HD
ATOM     24  H   UNL A   1      31.680  30.439  22.416  1.00  0.00     0.346 HD
ENDBRANCH   6  21
ENDBRANCH   3   6
ENDBRANCH   1   2
BRANCH   1  25
ATOM     25  C   UNL A   1      31.056  31.583  26.476  1.00  0.00     0.042 C 
BRANCH  25  26
ATOM     26  C   UNL A   1      32.451  32.043  26.888  1.00  0.00     0.118 C 
BRANCH  26  27
ATOM     27  N   UNL A   1      32.495  33.450  27.260  1.00  0.00    -0.352 N 
ATOM     28  C   UNL A   1      33.313  34.117  28.134  1.00  0.00     0.251 C 
ATOM     29  H   UNL A   1      31.826  34.015  26.810  1.00  0.00     0.163 HD
ATOM     30  O   UNL A   1      33.056  35.286  28.421  1.00  0.00    -0.269 OA
BRANCH  28  31
ATOM     31  C   UNL A   1      34.492  33.463  28.744  1.00  0.00     0.039 A 
ATOM     32  C   UNL A   1      34.280  32.546  29.780  1.00  0.00     0.014 A 
ATOM     33  C   UNL A   1      35.798  33.791  28.369  1.00  0.00     0.014 A 
ATOM     34  C   UNL A   1      35.366  31.936  30.411  1.00  0.00     0.010 A 
ATOM     35  C   UNL A   1      36.880  33.131  28.951  1.00  0.00     0.010 A 
ATOM     36  C   UNL A   1      36.676  32.211  29.989  1.00  0.00    -0.014 A 
BRANCH  36  37
ATOM     37  C   UNL A   1      37.838  31.569  30.655  1.00  0.00     0.031 A 
ATOM     38  C   UNL A   1      38.211  31.953  32.062  1.00  0.00     0.074 A 
ATOM     39  C   UNL A   1      38.585  30.673  29.981  1.00  0.00     0.049 A 
ATOM     40  N   UNL A   1      39.212  31.535  32.797  1.00  0.00    -0.248 NA
ATOM     41  C   UNL A   1      37.363  32.957  32.720  1.00  0.00     0.031 C 
ATOM     42  C   UNL A   1      38.360  30.258  28.596  1.00  0.00     0.029 A 
ATOM     43  N   UNL A   1      39.689  29.957  30.369  1.00  0.00    -0.354 N 
ATOM     44  C   UNL A   1      39.125  32.242  33.990  1.00  0.00     0.074 A 
ATOM     45  C   UNL A   1      38.001  33.145  33.866  1.00  0.00     0.031 C 
ATOM     46  C   UNL A   1      39.286  29.346  28.256  1.00  0.00     0.029 A 
ATOM     47  C   UNL A   1      40.181  29.130  29.389  1.00  0.00     0.049 A 
ATOM     48  H   UNL A   1      40.091  30.028  31.265  1.00  0.00     0.167 HD
ATOM     49  C   UNL A   1      39.900  32.134  35.096  1.00  0.00     0.037 A 
ATOM     50  C   UNL A   1      41.233  28.289  29.406  1.00  0.00     0.037 A 
ATOM     51  C   UNL A   1      40.991  31.206  35.235  1.00  0.00     0.049 A 
ATOM     52  C   UNL A   1      42.040  28.147  30.667  1.00  0.00     0.074 A 
ATOM     53  C   UNL A   1      41.801  30.981  36.335  1.00  0.00     0.029 A 
ATOM     54  N   UNL A   1      41.420  30.340  34.241  1.00  0.00    -0.354 N 
ATOM     55  N   UNL A   1      41.910  28.776  31.810  1.00  0.00    -0.248 NA
ATOM     56  C   UNL A   1      43.133  27.163  30.645  1.00  0.00     0.031 C 
ATOM     57  C   UNL A   1      42.737  29.998  35.997  1.00  0.00     0.029 A 
ATOM     58  C   UNL A   1      42.485  29.582  34.700  1.00  0.00     0.049 A 
ATOM     59  H   UNL A   1      41.026  30.274  33.340  1.00  0.00     0.167 HD
ATOM     60  C   UNL A   1      42.878  28.244  32.650  1.00  0.00     0.074 A 
ATOM     61  C   UNL A   1      43.581  27.231  31.890  1.00  0.00     0.031 C 
ATOM     62  C   UNL A   1      43.161  28.566  33.936  1.00  0.00     0.037 A 
BRANCH  49  63
ATOM     63  C   UNL A   1      39.589  33.039  36.252  1.00  0.00     0.064 A 
ATOM     64  C   UNL A   1      38.617  32.704  37.205  1.00  0.00     0.173 A 
ATOM     65  C   UNL A   1      40.300  34.236  36.430  1.00  0.00     0.173 A 
ATOM     66  F   UNL A   1      37.901  31.577  37.073  1.00  0.00    -0.203 F 
ATOM     67  C   UNL A   1      38.348  33.547  38.282  1.00  0.00     0.198 A 
ATOM     68  C   UNL A   1      40.048  35.063  37.522  1.00  0.00     0.198 A 
ATOM     69  F   UNL A   1      41.244  34.600  35.550  1.00  0.00    -0.203 F 
ATOM     70  F   UNL A   1      37.385  33.227  39.156  1.00  0.00    -0.200 F 
ATOM     71  C   UNL A   1      39.069  34.721  38.443  1.00  0.00     0.200 A 
ATOM     72  F   UNL A   1      40.752  36.191  37.683  1.00  0.00    -0.200 F 
ATOM     73  F   UNL A   1      38.815  35.526  39.483  1.00  0.00    -0.200 F 
ENDBRANCH  49  63
BRANCH  50  74
ATOM     74  C   UNL A   1      41.556  27.483  28.202  1.00  0.00     0.064 A 
ATOM     75  C   UNL A   1      42.483  27.944  27.257  1.00  0.00     0.173 A 
ATOM     76  C   UNL A   1      40.942  26.245  27.967  1.00  0.00     0.173 A 
ATOM     77  F   UNL A   1      43.080  29.132  27.430  1.00  0.00    -0.203 F 
ATOM     78  C   UNL A   1      42.766  27.208  26.109  1.00  0.00     0.198 A 
ATOM     79  C   UNL A   1      41.245  25.498  26.831  1.00  0.00     0.198 A 
ATOM     80  F   UNL A   1      40.053  25.758  28.845  1.00  0.00    -0.203 F 
ATOM     81  F   UNL A   1      43.621  27.693  25.198  1.00  0.00    -0.200 F 
ATOM     82  C   UNL A   1      42.150  25.984  25.898  1.00  0.00     0.200 A 
ATOM     83  F   UNL A   1      40.657  24.309  26.637  1.00  0.00    -0.200 F 
ATOM     84  F   UNL A   1      42.422  25.275  24.794  1.00  0.00    -0.200 F 
ENDBRANCH  50  74
BRANCH  62  85
ATOM     85  C   UNL A   1      44.244  27.784  34.615  1.00  0.00     0.064 A 
ATOM     86  C   UNL A   1      45.570  28.241  34.654  1.00  0.00     0.173 A 
ATOM     87  C   UNL A   1      43.946  26.571  35.255  1.00  0.00     0.173 A 
ATOM     88  F   UNL A   1      45.906  29.387  34.044  1.00  0.00    -0.203 F 
ATOM     89  C   UNL A   1      46.564  27.496  35.283  1.00  0.00     0.198 A 
ATOM     90  C   UNL A   1      44.938  25.842  35.905  1.00  0.00     0.198 A 
ATOM     91  F   UNL A   1      42.693  26.094  35.251  1.00  0.00    -0.203 F 
ATOM     92  F   UNL A   1      47.832  27.927  35.265  1.00  0.00    -0.200 F 
ATOM     93  C   UNL A   1      46.247  26.301  35.912  1.00  0.00     0.200 A 
ATOM     94  F   UNL A   1      44.629  24.693  36.520  1.00  0.00    -0.200 F 
ATOM     95  F   UNL A   1      47.205  25.586  36.516  1.00  0.00    -0.200 F 
ENDBRANCH  62  85
ENDBRANCH  36  37
ENDBRANCH  28  31
ENDBRANCH  26  27
ENDBRANCH  25  26
ENDBRANCH   1  25
TORSDOF 14
ENDMDL
MODEL 3
REMARK VINA RESULT:     -11.4      2.636      7.787
REMARK SMILES CCc1ccccc1O[C@H]1CCC[C@@]([NH2+]C)(C(=O)NCCCNC(=O)c2ccc(-c3c4nc(c(-c5c(F)c(F)c(F)c(F)c5F)c5ccc([nH]5)c(-c5c(F)c(F)c(F)c(F)c5F)c5nc(c(-c6c(F)c(F)c(F)c(F)c6F)c6ccc3[nH]6)C=C5)C=C4)cc2)C1
REMARK SMILES IDX 20 1 19 2 17 3 18 4 14 6 10 7 11 8 89 9 12 10 13 11 9 12
REMARK SMILES IDX 8 13 3 14 4 15 5 16 7 17 6 18 2 19 1 20 15 21 16 22 21 25
REMARK SMILES IDX 22 26 23 27 24 28 25 30 26 31 27 32 88 33 28 34 87 35 29 36
REMARK SMILES IDX 30 37 31 38 81 39 32 40 86 41 80 42 82 43 33 44 85 45 79 46
REMARK SMILES IDX 78 47 34 49 66 50 46 51 65 52 47 53 50 54 64 55 83 56 48 57
REMARK SMILES IDX 49 58 63 60 84 61 51 62 35 63 36 64 44 65 37 66 38 67 42 68
REMARK SMILES IDX 45 69 39 70 40 71 43 72 41 73 67 74 68 75 76 76 69 77 70 78
REMARK SMILES IDX 74 79 77 80 71 81 72 82 75 83 73 84 52 85 53 86 61 87 54 88
REMARK SMILES IDX 55 89 59 90 62 91 56 92 57 93 60 94 58 95
REMARK H PARENT 19 5 15 23 15 24 23 29 82 48 50 59
REMARK Flexibility Score: inf
ROOT
ATOM      1  C   UNL A   1      33.736  26.654  25.693  1.00  0.00     0.118 C 
ENDROOT
BRANCH   1   2
ATOM      2  N   UNL A   1      34.287  25.764  24.691  1.00  0.00    -0.351 N 
ATOM      3  C   UNL A   1      33.902  24.519  24.291  1.00  0.00     0.281 C 
ATOM      4  O   UNL A   1      34.317  24.182  23.176  1.00  0.00    -0.268 OA
ATOM      5  H   UNL A   1      35.074  26.120  24.218  1.00  0.00     0.163 HD
BRANCH   3   6
ATOM      6  C   UNL A   1      32.893  23.628  25.100  1.00  0.00     0.178 C 
ATOM      7  C   UNL A   1      34.297  21.405  25.325  1.00  0.00     0.180 C 
ATOM      8  C   UNL A   1      34.343  21.648  26.840  1.00  0.00     0.046 C 
ATOM      9  C   UNL A   1      33.061  22.120  24.709  1.00  0.00     0.124 C 
ATOM     10  C   UNL A   1      34.316  23.131  27.169  1.00  0.00     0.011 C 
ATOM     11  C   UNL A   1      33.036  23.749  26.635  1.00  0.00     0.079 C 
BRANCH   7  12
ATOM     12  O   UNL A   1      35.479  21.875  24.670  1.00  0.00    -0.490 OA
BRANCH  12  13
ATOM     13  C   UNL A   1      36.698  21.298  24.916  1.00  0.00     0.122 A 
ATOM     14  C   UNL A   1      37.704  22.158  25.400  1.00  0.00    -0.006 A 
ATOM     15  C   UNL A   1      38.948  21.627  25.783  1.00  0.00     0.007 A 
ATOM     16  C   UNL A   1      39.203  20.263  25.674  1.00  0.00     0.001 A 
ATOM     17  C   UNL A   1      36.993  19.941  24.750  1.00  0.00     0.047 A 
ATOM     18  C   UNL A   1      38.232  19.425  25.142  1.00  0.00     0.004 A 
BRANCH  14  19
ATOM     19  C   UNL A   1      37.515  23.657  25.455  1.00  0.00     0.036 C 
ATOM     20  C   UNL A   1      38.150  24.246  26.710  1.00  0.00     0.009 C 
ENDBRANCH  14  19
ENDBRANCH  12  13
ENDBRANCH   7  12
BRANCH   6  21
ATOM     21  N   UNL A   1      31.501  24.100  24.796  1.00  0.00    -0.336 N 
ATOM     22  C   UNL A   1      30.666  24.341  25.967  1.00  0.00     0.331 C 
ATOM     23  H   UNL A   1      31.044  23.392  24.222  1.00  0.00     0.346 HD
ATOM     24  H   UNL A   1      31.600  25.000  24.326  1.00  0.00     0.346 HD
ENDBRANCH   6  21
ENDBRANCH   3   6
ENDBRANCH   1   2
BRANCH   1  25
ATOM     25  C   UNL A   1      32.870  27.753  25.081  1.00  0.00     0.042 C 
BRANCH  25  26
ATOM     26  C   UNL A   1      33.594  29.075  24.848  1.00  0.00     0.118 C 
BRANCH  26  27
ATOM     27  N   UNL A   1      32.923  30.205  25.472  1.00  0.00    -0.352 N 
ATOM     28  C   UNL A   1      33.204  30.884  26.629  1.00  0.00     0.251 C 
ATOM     29  H   UNL A   1      32.135  30.537  24.982  1.00  0.00     0.163 HD
ATOM     30  O   UNL A   1      32.392  31.706  27.054  1.00  0.00    -0.269 OA
BRANCH  28  31
ATOM     31  C   UNL A   1      34.455  30.646  27.381  1.00  0.00     0.039 A 
ATOM     32  C   UNL A   1      34.666  29.377  27.934  1.00  0.00     0.014 A 
ATOM     33  C   UNL A   1      35.383  31.664  27.616  1.00  0.00     0.014 A 
ATOM     34  C   UNL A   1      35.815  29.121  28.685  1.00  0.00     0.010 A 
ATOM     35  C   UNL A   1      36.563  31.390  28.308  1.00  0.00     0.010 A 
ATOM     36  C   UNL A   1      36.783  30.122  28.864  1.00  0.00    -0.014 A 
BRANCH  36  37
ATOM     37  C   UNL A   1      38.006  29.861  29.663  1.00  0.00     0.031 A 
ATOM     38  C   UNL A   1      39.082  28.956  29.126  1.00  0.00     0.074 A 
ATOM     39  C   UNL A   1      38.133  30.402  30.890  1.00  0.00     0.049 A 
ATOM     40  N   UNL A   1      40.203  28.575  29.688  1.00  0.00    -0.248 NA
ATOM     41  C   UNL A   1      38.859  28.382  27.791  1.00  0.00     0.031 C 
ATOM     42  C   UNL A   1      37.137  31.252  31.545  1.00  0.00     0.029 A 
ATOM     43  N   UNL A   1      39.150  30.311  31.808  1.00  0.00    -0.354 N 
ATOM     44  C   UNL A   1      40.801  27.703  28.788  1.00  0.00     0.074 A 
ATOM     45  C   UNL A   1      39.902  27.577  27.661  1.00  0.00     0.031 C 
ATOM     46  C   UNL A   1      37.601  31.619  32.751  1.00  0.00     0.029 A 
ATOM     47  C   UNL A   1      38.912  31.015  32.963  1.00  0.00     0.049 A 
ATOM     48  H   UNL A   1      39.971  29.792  31.652  1.00  0.00     0.167 HD
ATOM     49  C   UNL A   1      42.000  27.079  28.883  1.00  0.00     0.037 A 
ATOM     50  C   UNL A   1      39.671  31.158  34.067  1.00  0.00     0.037 A 
ATOM     51  C   UNL A   1      42.912  27.238  29.984  1.00  0.00     0.049 A 
ATOM     52  C   UNL A   1      41.022  30.500  34.120  1.00  0.00     0.074 A 
ATOM     53  C   UNL A   1      44.175  26.693  30.147  1.00  0.00     0.029 A 
ATOM     54  N   UNL A   1      42.662  28.009  31.110  1.00  0.00    -0.354 N 
ATOM     55  N   UNL A   1      41.604  29.728  33.235  1.00  0.00    -0.248 NA
ATOM     56  C   UNL A   1      41.831  30.750  35.322  1.00  0.00     0.031 C 
ATOM     57  C   UNL A   1      44.677  27.112  31.384  1.00  0.00     0.029 A 
ATOM     58  C   UNL A   1      43.744  27.951  31.973  1.00  0.00     0.049 A 
ATOM     59  H   UNL A   1      41.837  28.521  31.271  1.00  0.00     0.167 HD
ATOM     60  C   UNL A   1      42.854  29.426  33.755  1.00  0.00     0.074 A 
ATOM     61  C   UNL A   1      42.954  30.110  35.028  1.00  0.00     0.031 C 
ATOM     62  C   UNL A   1      43.834  28.652  33.227  1.00  0.00     0.037 A 
BRANCH  49  63
ATOM     63  C   UNL A   1      42.400  26.170  27.758  1.00  0.00     0.064 A 
ATOM     64  C   UNL A   1      43.333  26.568  26.789  1.00  0.00     0.173 A 
ATOM     65  C   UNL A   1      41.874  24.872  27.670  1.00  0.00     0.173 A 
ATOM     66  F   UNL A   1      43.856  27.803  26.822  1.00  0.00    -0.203 F 
ATOM     67  C   UNL A   1      43.706  25.709  25.759  1.00  0.00     0.198 A 
ATOM     68  C   UNL A   1      42.269  24.007  26.654  1.00  0.00     0.198 A 
ATOM     69  F   UNL A   1      40.981  24.441  28.574  1.00  0.00    -0.203 F 
ATOM     70  F   UNL A   1      44.567  26.126  24.820  1.00  0.00    -0.200 F 
ATOM     71  C   UNL A   1      43.180  24.427  25.696  1.00  0.00     0.200 A 
ATOM     72  F   UNL A   1      41.769  22.764  26.601  1.00  0.00    -0.200 F 
ATOM     73  F   UNL A   1      43.547  23.599  24.708  1.00  0.00    -0.200 F 
ENDBRANCH  49  63
BRANCH  50  74
ATOM     74  C   UNL A   1      39.187  31.993  35.194  1.00  0.00     0.064 A 
ATOM     75  C   UNL A   1      38.461  31.425  36.251  1.00  0.00     0.173 A 
ATOM     76  C   UNL A   1      39.431  33.374  35.235  1.00  0.00     0.173 A 
ATOM     77  F   UNL A   1      38.187  30.112  36.244  1.00  0.00    -0.203 F 
ATOM     78  C   UNL A   1      37.977  32.209  37.295  1.00  0.00     0.198 A 
ATOM     79  C   UNL A   1      38.967  34.153  36.294  1.00  0.00     0.198 A 
ATOM     80  F   UNL A   1      40.125  33.963  34.252  1.00  0.00    -0.203 F 
ATOM     81  F   UNL A   1      37.246  31.648  38.268  1.00  0.00    -0.200 F 
ATOM     82  C   UNL A   1      38.233  33.572  37.318  1.00  0.00     0.200 A 
ATOM     83  F   UNL A   1      39.227  35.467  36.319  1.00  0.00    -0.200 F 
ATOM     84  F   UNL A   1      37.767  34.326  38.322  1.00  0.00    -0.200 F 
ENDBRANCH  50  74
BRANCH  62  85
ATOM     85  C   UNL A   1      45.112  28.541  34.002  1.00  0.00     0.064 A 
ATOM     86  C   UNL A   1      46.169  29.443  33.814  1.00  0.00     0.173 A 
ATOM     87  C   UNL A   1      45.270  27.531  34.964  1.00  0.00     0.173 A 
ATOM     88  F   UNL A   1      46.070  30.416  32.896  1.00  0.00    -0.203 F 
ATOM     89  C   UNL A   1      47.351  29.319  34.539  1.00  0.00     0.198 A 
ATOM     90  C   UNL A   1      46.444  27.427  35.705  1.00  0.00     0.198 A 
ATOM     91  F   UNL A   1      44.286  26.648  35.186  1.00  0.00    -0.203 F 
ATOM     92  F   UNL A   1      48.367  30.161  34.308  1.00  0.00    -0.200 F 
ATOM     93  C   UNL A   1      47.485  28.315  35.487  1.00  0.00     0.200 A 
ATOM     94  F   UNL A   1      46.568  26.462  36.627  1.00  0.00    -0.200 F 
ATOM     95  F   UNL A   1      48.624  28.198  36.182  1.00  0.00    -0.200 F 
ENDBRANCH  62  85
ENDBRANCH  36  37
ENDBRANCH  28  31
ENDBRANCH  26  27
ENDBRANCH  25  26
ENDBRANCH   1  25
TORSDOF 14
ENDMDL
