MODEL 1
REMARK VINA RESULT:     -12.9      0.000      0.000
REMARK SMILES Cc1ccc(S(=O)(=O)N2C[C@@H](CC(=O)NCCCNC(=O)c3ccc(-c4c5nc(c(-c6c(F)c(F)c(F)c(F)c6F)c6ccc([nH]6)c(-c6c(F)c(F)c(F)c(F)c6F)c6nc(c(-c7c(F)c(F)c(F)c(F)c7F)c7ccc4[nH]7)C=C6)C=C5)cc3)c3ccccc32)c(C)c1
REMARK SMILES IDX 16 1 15 2 13 3 14 4 12 6 11 7 9 8 10 9 90 10 85 11 89 12
REMARK SMILES IDX 86 13 88 14 87 15 6 16 7 17 8 18 5 19 1 20 2 21 3 22 93 23
REMARK SMILES IDX 4 24 91 25 92 26 17 27 18 28 19 29 20 30 21 32 22 33 23 34
REMARK SMILES IDX 84 35 24 36 83 37 25 38 26 39 27 40 77 41 28 42 82 43 76 44
REMARK SMILES IDX 78 45 29 46 81 47 75 48 74 49 30 51 62 52 42 53 61 54 43 55
REMARK SMILES IDX 46 56 60 57 79 58 44 59 45 60 59 62 80 63 47 64 31 65 32 66
REMARK SMILES IDX 40 67 33 68 34 69 38 70 41 71 35 72 36 73 39 74 37 75 63 76
REMARK SMILES IDX 64 77 72 78 65 79 66 80 70 81 73 82 67 83 68 84 71 85 69 86
REMARK SMILES IDX 48 87 49 88 57 89 50 90 51 91 55 92 58 93 52 94 53 95 56 96
REMARK SMILES IDX 54 97
REMARK H PARENT 15 5 19 31 78 50 46 61
REMARK Flexibility Score: inf
ROOT
ATOM      1  C   UNL A   1      36.915  20.309  24.854  1.00  0.00     0.117 C 
ENDROOT
BRANCH   1   2
ATOM      2  N   UNL A   1      37.183  21.456  23.994  1.00  0.00    -0.356 N 
ATOM      3  C   UNL A   1      36.392  22.524  23.687  1.00  0.00     0.220 C 
ATOM      4  O   UNL A   1      36.715  23.231  22.731  1.00  0.00    -0.275 OA
ATOM      5  H   UNL A   1      38.071  21.459  23.570  1.00  0.00     0.163 HD
BRANCH   3   6
ATOM      6  C   UNL A   1      35.192  22.873  24.538  1.00  0.00     0.110 C 
BRANCH   6   7
ATOM      7  C   UNL A   1      33.889  23.017  23.736  1.00  0.00     0.051 C 
ATOM      8  N   UNL A   1      33.074  25.264  24.187  1.00  0.00    -0.265 N 
ATOM      9  C   UNL A   1      33.798  24.443  23.149  1.00  0.00     0.144 C 
ATOM     10  C   UNL A   1      32.277  24.324  24.928  1.00  0.00     0.055 A 
ATOM     11  C   UNL A   1      32.659  23.020  24.603  1.00  0.00    -0.018 A 
ATOM     12  C   UNL A   1      31.302  24.561  25.882  1.00  0.00     0.027 A 
ATOM     13  C   UNL A   1      31.941  21.934  25.075  1.00  0.00     0.006 A 
ATOM     14  C   UNL A   1      30.628  23.467  26.430  1.00  0.00     0.002 A 
ATOM     15  C   UNL A   1      30.919  22.166  26.002  1.00  0.00     0.000 A 
BRANCH   8  16
ATOM     16  S   UNL A   1      32.260  26.619  23.514  1.00  0.00     0.264 S 
ATOM     17  O   UNL A   1      30.848  26.300  23.473  1.00  0.00    -0.201 OA
ATOM     18  O   UNL A   1      32.980  27.003  22.313  1.00  0.00    -0.201 OA
BRANCH  16  19
ATOM     19  C   UNL A   1      32.510  27.956  24.671  1.00  0.00     0.090 A 
ATOM     20  C   UNL A   1      33.251  31.139  27.479  1.00  0.00     0.044 C 
ATOM     21  C   UNL A   1      32.990  30.015  26.520  1.00  0.00    -0.051 A 
ATOM     22  C   UNL A   1      33.816  28.892  26.495  1.00  0.00     0.005 A 
ATOM     23  C   UNL A   1      31.938  30.111  25.599  1.00  0.00     0.008 A 
ATOM     24  C   UNL A   1      33.586  27.873  25.570  1.00  0.00     0.023 A 
ATOM     25  C   UNL A   1      31.677  29.089  24.665  1.00  0.00    -0.030 A 
ATOM     26  C   UNL A   1      30.574  29.345  23.672  1.00  0.00     0.046 C 
ENDBRANCH  16  19
ENDBRANCH   8  16
ENDBRANCH   6   7
ENDBRANCH   3   6
ENDBRANCH   1   2
BRANCH   1  27
ATOM     27  C   UNL A   1      38.158  19.434  24.980  1.00  0.00     0.042 C 
BRANCH  27  28
ATOM     28  C   UNL A   1      39.230  19.977  25.916  1.00  0.00     0.118 C 
BRANCH  28  29
ATOM     29  N   UNL A   1      40.380  19.097  25.980  1.00  0.00    -0.352 N 
ATOM     30  C   UNL A   1      41.727  19.351  26.055  1.00  0.00     0.251 C 
ATOM     31  H   UNL A   1      40.153  18.139  25.969  1.00  0.00     0.163 HD
ATOM     32  O   UNL A   1      42.495  18.420  25.815  1.00  0.00    -0.269 OA
BRANCH  30  33
ATOM     33  C   UNL A   1      42.303  20.680  26.406  1.00  0.00     0.039 A 
ATOM     34  C   UNL A   1      42.262  21.066  27.754  1.00  0.00     0.014 A 
ATOM     35  C   UNL A   1      42.749  21.611  25.465  1.00  0.00     0.014 A 
ATOM     36  C   UNL A   1      42.660  22.350  28.148  1.00  0.00     0.010 A 
ATOM     37  C   UNL A   1      43.234  22.864  25.869  1.00  0.00     0.010 A 
ATOM     38  C   UNL A   1      43.165  23.264  27.212  1.00  0.00    -0.014 A 
BRANCH  38  39
ATOM     39  C   UNL A   1      43.568  24.640  27.625  1.00  0.00     0.031 A 
ATOM     40  C   UNL A   1      42.528  25.671  27.994  1.00  0.00     0.074 A 
ATOM     41  C   UNL A   1      44.873  24.980  27.663  1.00  0.00     0.049 A 
ATOM     42  N   UNL A   1      42.688  26.920  28.361  1.00  0.00    -0.248 NA
ATOM     43  C   UNL A   1      41.121  25.251  27.921  1.00  0.00     0.031 C 
ATOM     44  C   UNL A   1      45.984  24.097  27.311  1.00  0.00     0.029 A 
ATOM     45  N   UNL A   1      45.485  26.159  28.016  1.00  0.00    -0.354 N 
ATOM     46  C   UNL A   1      41.408  27.434  28.542  1.00  0.00     0.074 A 
ATOM     47  C   UNL A   1      40.482  26.378  28.197  1.00  0.00     0.031 C 
ATOM     48  C   UNL A   1      47.142  24.752  27.496  1.00  0.00     0.029 A 
ATOM     49  C   UNL A   1      46.856  26.115  27.937  1.00  0.00     0.049 A 
ATOM     50  H   UNL A   1      44.987  26.960  28.299  1.00  0.00     0.167 HD
ATOM     51  C   UNL A   1      41.036  28.663  28.977  1.00  0.00     0.037 A 
ATOM     52  C   UNL A   1      47.781  27.064  28.183  1.00  0.00     0.037 A 
ATOM     53  C   UNL A   1      41.955  29.709  29.350  1.00  0.00     0.049 A 
ATOM     54  C   UNL A   1      47.340  28.428  28.642  1.00  0.00     0.074 A 
ATOM     55  C   UNL A   1      41.672  30.964  29.864  1.00  0.00     0.029 A 
ATOM     56  N   UNL A   1      43.335  29.626  29.243  1.00  0.00    -0.354 N 
ATOM     57  N   UNL A   1      46.131  28.874  28.876  1.00  0.00    -0.248 NA
ATOM     58  C   UNL A   1      48.400  29.420  28.878  1.00  0.00     0.031 C 
ATOM     59  C   UNL A   1      42.875  31.662  30.010  1.00  0.00     0.029 A 
ATOM     60  C   UNL A   1      43.914  30.819  29.651  1.00  0.00     0.049 A 
ATOM     61  H   UNL A   1      43.830  28.837  28.926  1.00  0.00     0.167 HD
ATOM     62  C   UNL A   1      46.284  30.184  29.315  1.00  0.00     0.074 A 
ATOM     63  C   UNL A   1      47.706  30.454  29.333  1.00  0.00     0.031 C 
ATOM     64  C   UNL A   1      45.332  31.080  29.673  1.00  0.00     0.037 A 
BRANCH  51  65
ATOM     65  C   UNL A   1      39.564  28.957  29.067  1.00  0.00     0.064 A 
ATOM     66  C   UNL A   1      38.866  28.889  30.283  1.00  0.00     0.173 A 
ATOM     67  C   UNL A   1      38.848  29.356  27.926  1.00  0.00     0.173 A 
ATOM     68  F   UNL A   1      39.498  28.509  31.404  1.00  0.00    -0.203 F 
ATOM     69  C   UNL A   1      37.504  29.173  30.347  1.00  0.00     0.198 A 
ATOM     70  C   UNL A   1      37.494  29.673  28.000  1.00  0.00     0.198 A 
ATOM     71  F   UNL A   1      39.465  29.450  26.739  1.00  0.00    -0.203 F 
ATOM     72  F   UNL A   1      36.849  29.046  31.509  1.00  0.00    -0.200 F 
ATOM     73  C   UNL A   1      36.820  29.571  29.208  1.00  0.00     0.200 A 
ATOM     74  F   UNL A   1      36.839  30.075  26.902  1.00  0.00    -0.200 F 
ATOM     75  F   UNL A   1      35.511  29.851  29.273  1.00  0.00    -0.200 F 
ENDBRANCH  51  65
BRANCH  52  76
ATOM     76  C   UNL A   1      49.227  26.753  28.021  1.00  0.00     0.064 A 
ATOM     77  C   UNL A   1      49.835  26.790  26.759  1.00  0.00     0.173 A 
ATOM     78  C   UNL A   1      50.026  26.397  29.119  1.00  0.00     0.173 A 
ATOM     79  F   UNL A   1      49.109  27.101  25.674  1.00  0.00    -0.203 F 
ATOM     80  C   UNL A   1      51.179  26.462  26.596  1.00  0.00     0.198 A 
ATOM     81  C   UNL A   1      51.378  26.101  28.959  1.00  0.00     0.198 A 
ATOM     82  F   UNL A   1      49.494  26.348  30.348  1.00  0.00    -0.203 F 
ATOM     83  F   UNL A   1      51.721  26.456  25.370  1.00  0.00    -0.200 F 
ATOM     84  C   UNL A   1      51.951  26.125  27.697  1.00  0.00     0.200 A 
ATOM     85  F   UNL A   1      52.124  25.790  30.027  1.00  0.00    -0.200 F 
ATOM     86  F   UNL A   1      53.245  25.813  27.541  1.00  0.00    -0.200 F 
ENDBRANCH  52  76
BRANCH  64  87
ATOM     87  C   UNL A   1      45.795  32.426  30.156  1.00  0.00     0.064 A 
ATOM     88  C   UNL A   1      46.095  32.667  31.506  1.00  0.00     0.173 A 
ATOM     89  C   UNL A   1      45.966  33.485  29.249  1.00  0.00     0.173 A 
ATOM     90  F   UNL A   1      45.934  31.695  32.416  1.00  0.00    -0.203 F 
ATOM     91  C   UNL A   1      46.516  33.923  31.933  1.00  0.00     0.198 A 
ATOM     92  C   UNL A   1      46.422  34.729  29.675  1.00  0.00     0.198 A 
ATOM     93  F   UNL A   1      45.701  33.309  27.946  1.00  0.00    -0.203 F 
ATOM     94  F   UNL A   1      46.741  34.145  33.236  1.00  0.00    -0.200 F 
ATOM     95  C   UNL A   1      46.686  34.951  31.018  1.00  0.00     0.200 A 
ATOM     96  F   UNL A   1      46.602  35.716  28.786  1.00  0.00    -0.200 F 
ATOM     97  F   UNL A   1      47.098  36.157  31.430  1.00  0.00    -0.200 F 
ENDBRANCH  64  87
ENDBRANCH  38  39
ENDBRANCH  30  33
ENDBRANCH  28  29
ENDBRANCH  27  28
ENDBRANCH   1  27
TORSDOF 13
ENDMDL
MODEL 2
REMARK VINA RESULT:     -12.9      4.867      9.067
REMARK SMILES Cc1ccc(S(=O)(=O)N2C[C@@H](CC(=O)NCCCNC(=O)c3ccc(-c4c5nc(c(-c6c(F)c(F)c(F)c(F)c6F)c6ccc([nH]6)c(-c6c(F)c(F)c(F)c(F)c6F)c6nc(c(-c7c(F)c(F)c(F)c(F)c7F)c7ccc4[nH]7)C=C6)C=C5)cc3)c3ccccc32)c(C)c1
REMARK SMILES IDX 16 1 15 2 13 3 14 4 12 6 11 7 9 8 10 9 90 10 85 11 89 12
REMARK SMILES IDX 86 13 88 14 87 15 6 16 7 17 8 18 5 19 1 20 2 21 3 22 93 23
REMARK SMILES IDX 4 24 91 25 92 26 17 27 18 28 19 29 20 30 21 32 22 33 23 34
REMARK SMILES IDX 84 35 24 36 83 37 25 38 26 39 27 40 77 41 28 42 82 43 76 44
REMARK SMILES IDX 78 45 29 46 81 47 75 48 74 49 30 51 62 52 42 53 61 54 43 55
REMARK SMILES IDX 46 56 60 57 79 58 44 59 45 60 59 62 80 63 47 64 31 65 32 66
REMARK SMILES IDX 40 67 33 68 34 69 38 70 41 71 35 72 36 73 39 74 37 75 63 76
REMARK SMILES IDX 64 77 72 78 65 79 66 80 70 81 73 82 67 83 68 84 71 85 69 86
REMARK SMILES IDX 48 87 49 88 57 89 50 90 51 91 55 92 58 93 52 94 53 95 56 96
REMARK SMILES IDX 54 97
REMARK H PARENT 15 5 19 31 78 50 46 61
REMARK Flexibility Score: inf
ROOT
ATOM      1  C   UNL A   1      30.642  30.559  25.251  1.00  0.00     0.117 C 
ENDROOT
BRANCH   1   2
ATOM      2  N   UNL A   1      30.221  30.604  23.855  1.00  0.00    -0.356 N 
ATOM      3  C   UNL A   1      29.966  29.586  22.984  1.00  0.00     0.220 C 
ATOM      4  O   UNL A   1      29.888  29.853  21.783  1.00  0.00    -0.275 OA
ATOM      5  H   UNL A   1      30.103  31.509  23.485  1.00  0.00     0.163 HD
BRANCH   3   6
ATOM      6  C   UNL A   1      29.714  28.181  23.483  1.00  0.00     0.110 C 
BRANCH   6   7
ATOM      7  C   UNL A   1      30.872  27.211  23.202  1.00  0.00     0.051 C 
ATOM      8  N   UNL A   1      30.977  25.724  25.125  1.00  0.00    -0.265 N 
ATOM      9  C   UNL A   1      30.494  25.796  23.697  1.00  0.00     0.144 C 
ATOM     10  C   UNL A   1      32.057  26.670  25.210  1.00  0.00     0.055 A 
ATOM     11  C   UNL A   1      32.079  27.467  24.063  1.00  0.00    -0.018 A 
ATOM     12  C   UNL A   1      32.954  26.886  26.242  1.00  0.00     0.027 A 
ATOM     13  C   UNL A   1      33.117  28.356  23.840  1.00  0.00     0.006 A 
ATOM     14  C   UNL A   1      33.955  27.843  26.064  1.00  0.00     0.002 A 
ATOM     15  C   UNL A   1      34.059  28.546  24.856  1.00  0.00     0.000 A 
BRANCH   8  16
ATOM     16  S   UNL A   1      31.304  24.117  25.634  1.00  0.00     0.264 S 
ATOM     17  O   UNL A   1      30.599  23.225  24.737  1.00  0.00    -0.201 OA
ATOM     18  O   UNL A   1      31.089  24.065  27.069  1.00  0.00    -0.201 OA
BRANCH  16  19
ATOM     19  C   UNL A   1      33.060  23.885  25.403  1.00  0.00     0.090 A 
ATOM     20  C   UNL A   1      37.303  23.266  24.977  1.00  0.00     0.044 C 
ATOM     21  C   UNL A   1      35.830  23.502  25.139  1.00  0.00    -0.051 A 
ATOM     22  C   UNL A   1      35.243  23.513  26.404  1.00  0.00     0.005 A 
ATOM     23  C   UNL A   1      35.018  23.660  24.008  1.00  0.00     0.008 A 
ATOM     24  C   UNL A   1      33.866  23.693  26.536  1.00  0.00     0.023 A 
ATOM     25  C   UNL A   1      33.627  23.857  24.116  1.00  0.00    -0.030 A 
ATOM     26  C   UNL A   1      32.851  23.928  22.829  1.00  0.00     0.046 C 
ENDBRANCH  16  19
ENDBRANCH   8  16
ENDBRANCH   6   7
ENDBRANCH   3   6
ENDBRANCH   1   2
BRANCH   1  27
ATOM     27  C   UNL A   1      30.892  31.968  25.779  1.00  0.00     0.042 C 
BRANCH  27  28
ATOM     28  C   UNL A   1      32.037  32.082  26.777  1.00  0.00     0.118 C 
BRANCH  28  29
ATOM     29  N   UNL A   1      32.267  33.457  27.172  1.00  0.00    -0.352 N 
ATOM     30  C   UNL A   1      33.182  34.027  28.023  1.00  0.00     0.251 C 
ATOM     31  H   UNL A   1      31.654  34.103  26.753  1.00  0.00     0.163 HD
ATOM     32  O   UNL A   1      32.974  35.183  28.389  1.00  0.00    -0.269 OA
BRANCH  30  33
ATOM     33  C   UNL A   1      34.400  33.327  28.522  1.00  0.00     0.039 A 
ATOM     34  C   UNL A   1      34.219  32.323  29.484  1.00  0.00     0.014 A 
ATOM     35  C   UNL A   1      35.704  33.703  28.194  1.00  0.00     0.014 A 
ATOM     36  C   UNL A   1      35.317  31.710  30.100  1.00  0.00     0.010 A 
ATOM     37  C   UNL A   1      36.805  33.026  28.743  1.00  0.00     0.010 A 
ATOM     38  C   UNL A   1      36.628  32.044  29.728  1.00  0.00    -0.014 A 
BRANCH  38  39
ATOM     39  C   UNL A   1      37.800  31.409  30.400  1.00  0.00     0.031 A 
ATOM     40  C   UNL A   1      38.159  31.763  31.823  1.00  0.00     0.074 A 
ATOM     41  C   UNL A   1      38.560  30.517  29.733  1.00  0.00     0.049 A 
ATOM     42  N   UNL A   1      39.149  31.327  32.565  1.00  0.00    -0.248 NA
ATOM     43  C   UNL A   1      37.305  32.752  32.498  1.00  0.00     0.031 C 
ATOM     44  C   UNL A   1      38.348  30.098  28.348  1.00  0.00     0.029 A 
ATOM     45  N   UNL A   1      39.664  29.800  30.130  1.00  0.00    -0.354 N 
ATOM     46  C   UNL A   1      39.047  32.000  33.777  1.00  0.00     0.074 A 
ATOM     47  C   UNL A   1      37.929  32.910  33.656  1.00  0.00     0.031 C 
ATOM     48  C   UNL A   1      39.268  29.176  28.021  1.00  0.00     0.029 A 
ATOM     49  C   UNL A   1      40.164  28.970  29.157  1.00  0.00     0.049 A 
ATOM     50  H   UNL A   1      40.059  29.875  31.029  1.00  0.00     0.167 HD
ATOM     51  C   UNL A   1      39.799  31.861  34.897  1.00  0.00     0.037 A 
ATOM     52  C   UNL A   1      41.225  28.140  29.170  1.00  0.00     0.037 A 
ATOM     53  C   UNL A   1      40.895  30.935  35.033  1.00  0.00     0.049 A 
ATOM     54  C   UNL A   1      42.058  28.021  30.418  1.00  0.00     0.074 A 
ATOM     55  C   UNL A   1      41.672  30.676  36.150  1.00  0.00     0.029 A 
ATOM     56  N   UNL A   1      41.375  30.121  34.018  1.00  0.00    -0.354 N 
ATOM     57  N   UNL A   1      41.905  28.612  31.577  1.00  0.00    -0.248 NA
ATOM     58  C   UNL A   1      43.211  27.110  30.359  1.00  0.00     0.031 C 
ATOM     59  C   UNL A   1      42.660  29.752  35.794  1.00  0.00     0.029 A 
ATOM     60  C   UNL A   1      42.458  29.384  34.474  1.00  0.00     0.049 A 
ATOM     61  H   UNL A   1      41.001  30.073  33.109  1.00  0.00     0.167 HD
ATOM     62  C   UNL A   1      42.918  28.123  32.393  1.00  0.00     0.074 A 
ATOM     63  C   UNL A   1      43.669  27.172  31.601  1.00  0.00     0.031 C 
ATOM     64  C   UNL A   1      43.198  28.434  33.683  1.00  0.00     0.037 A 
BRANCH  51  65
ATOM     65  C   UNL A   1      39.471  32.739  36.074  1.00  0.00     0.064 A 
ATOM     66  C   UNL A   1      38.524  32.362  37.040  1.00  0.00     0.173 A 
ATOM     67  C   UNL A   1      40.145  33.956  36.261  1.00  0.00     0.173 A 
ATOM     68  F   UNL A   1      37.847  31.212  36.909  1.00  0.00    -0.203 F 
ATOM     69  C   UNL A   1      38.240  33.185  38.127  1.00  0.00     0.198 A 
ATOM     70  C   UNL A   1      39.883  34.761  37.368  1.00  0.00     0.198 A 
ATOM     71  F   UNL A   1      41.067  34.363  35.376  1.00  0.00    -0.203 F 
ATOM     72  F   UNL A   1      37.293  32.829  39.006  1.00  0.00    -0.200 F 
ATOM     73  C   UNL A   1      38.925  34.380  38.295  1.00  0.00     0.200 A 
ATOM     74  F   UNL A   1      40.558  35.906  37.537  1.00  0.00    -0.200 F 
ATOM     75  F   UNL A   1      38.655  35.168  39.345  1.00  0.00    -0.200 F 
ENDBRANCH  51  65
BRANCH  52  76
ATOM     76  C   UNL A   1      41.555  27.335  27.963  1.00  0.00     0.064 A 
ATOM     77  C   UNL A   1      41.008  26.058  27.776  1.00  0.00     0.173 A 
ATOM     78  C   UNL A   1      42.435  27.816  26.981  1.00  0.00     0.173 A 
ATOM     79  F   UNL A   1      40.180  25.543  28.698  1.00  0.00    -0.203 F 
ATOM     80  C   UNL A   1      41.344  25.285  26.667  1.00  0.00     0.198 A 
ATOM     81  C   UNL A   1      42.745  27.055  25.856  1.00  0.00     0.198 A 
ATOM     82  F   UNL A   1      42.985  29.032  27.110  1.00  0.00    -0.203 F 
ATOM     83  F   UNL A   1      40.845  24.047  26.541  1.00  0.00    -0.200 F 
ATOM     84  C   UNL A   1      42.206  25.786  25.705  1.00  0.00     0.200 A 
ATOM     85  F   UNL A   1      43.566  27.549  24.921  1.00  0.00    -0.200 F 
ATOM     86  F   UNL A   1      42.526  25.044  24.636  1.00  0.00    -0.200 F 
ENDBRANCH  52  76
BRANCH  64  87
ATOM     87  C   UNL A   1      44.342  27.708  34.337  1.00  0.00     0.064 A 
ATOM     88  C   UNL A   1      45.642  28.236  34.354  1.00  0.00     0.173 A 
ATOM     89  C   UNL A   1      44.126  26.479  34.980  1.00  0.00     0.173 A 
ATOM     90  F   UNL A   1      45.906  29.400  33.741  1.00  0.00    -0.203 F 
ATOM     91  C   UNL A   1      46.688  27.544  34.960  1.00  0.00     0.198 A 
ATOM     92  C   UNL A   1      45.167  25.809  35.616  1.00  0.00     0.198 A 
ATOM     93  F   UNL A   1      42.901  25.932  35.001  1.00  0.00    -0.203 F 
ATOM     94  F   UNL A   1      47.932  28.041  34.912  1.00  0.00    -0.200 F 
ATOM     95  C   UNL A   1      46.449  26.336  35.596  1.00  0.00     0.200 A 
ATOM     96  F   UNL A   1      44.930  24.648  36.245  1.00  0.00    -0.200 F 
ATOM     97  F   UNL A   1      47.455  25.675  36.184  1.00  0.00    -0.200 F 
ENDBRANCH  64  87
ENDBRANCH  38  39
ENDBRANCH  30  33
ENDBRANCH  28  29
ENDBRANCH  27  28
ENDBRANCH   1  27
TORSDOF 13
ENDMDL
MODEL 3
REMARK VINA RESULT:     -12.9      4.299     10.594
REMARK SMILES Cc1ccc(S(=O)(=O)N2C[C@@H](CC(=O)NCCCNC(=O)c3ccc(-c4c5nc(c(-c6c(F)c(F)c(F)c(F)c6F)c6ccc([nH]6)c(-c6c(F)c(F)c(F)c(F)c6F)c6nc(c(-c7c(F)c(F)c(F)c(F)c7F)c7ccc4[nH]7)C=C6)C=C5)cc3)c3ccccc32)c(C)c1
REMARK SMILES IDX 16 1 15 2 13 3 14 4 12 6 11 7 9 8 10 9 90 10 85 11 89 12
REMARK SMILES IDX 86 13 88 14 87 15 6 16 7 17 8 18 5 19 1 20 2 21 3 22 93 23
REMARK SMILES IDX 4 24 91 25 92 26 17 27 18 28 19 29 20 30 21 32 22 33 23 34
REMARK SMILES IDX 84 35 24 36 83 37 25 38 26 39 27 40 77 41 28 42 82 43 76 44
REMARK SMILES IDX 78 45 29 46 81 47 75 48 74 49 30 51 62 52 42 53 61 54 43 55
REMARK SMILES IDX 46 56 60 57 79 58 44 59 45 60 59 62 80 63 47 64 31 65 32 66
REMARK SMILES IDX 40 67 33 68 34 69 38 70 41 71 35 72 36 73 39 74 37 75 63 76
REMARK SMILES IDX 64 77 72 78 65 79 66 80 70 81 73 82 67 83 68 84 71 85 69 86
REMARK SMILES IDX 48 87 49 88 57 89 50 90 51 91 55 92 58 93 52 94 53 95 56 96
REMARK SMILES IDX 54 97
REMARK H PARENT 15 5 19 31 78 50 46 61
REMARK Flexibility Score: inf
ROOT
ATOM      1  C   UNL A   1      42.296  19.954  26.211  1.00  0.00     0.117 C 
ENDROOT
BRANCH   1   2
ATOM      2  N   UNL A   1      43.142  19.464  25.129  1.00  0.00    -0.356 N 
ATOM      3  C   UNL A   1      44.321  19.952  24.648  1.00  0.00     0.220 C 
ATOM      4  O   UNL A   1      44.721  19.541  23.558  1.00  0.00    -0.275 OA
ATOM      5  H   UNL A   1      42.810  18.656  24.675  1.00  0.00     0.163 HD
BRANCH   3   6
ATOM      6  C   UNL A   1      45.151  20.918  25.464  1.00  0.00     0.110 C 
BRANCH   6   7
ATOM      7  C   UNL A   1      44.641  22.367  25.409  1.00  0.00     0.051 C 
ATOM      8  N   UNL A   1      46.596  23.775  25.748  1.00  0.00    -0.265 N 
ATOM      9  C   UNL A   1      45.674  23.252  24.675  1.00  0.00     0.144 C 
ATOM     10  C   UNL A   1      45.818  23.761  26.958  1.00  0.00     0.055 A 
ATOM     11  C   UNL A   1      44.637  23.043  26.752  1.00  0.00    -0.018 A 
ATOM     12  C   UNL A   1      46.122  24.287  28.202  1.00  0.00     0.027 A 
ATOM     13  C   UNL A   1      43.652  23.011  27.725  1.00  0.00     0.006 A 
ATOM     14  C   UNL A   1      45.169  24.184  29.218  1.00  0.00     0.002 A 
ATOM     15  C   UNL A   1      43.928  23.584  28.970  1.00  0.00     0.000 A 
BRANCH   8  16
ATOM     16  S   UNL A   1      47.342  25.260  25.317  1.00  0.00     0.264 S 
ATOM     17  O   UNL A   1      47.487  25.271  23.876  1.00  0.00    -0.201 OA
ATOM     18  O   UNL A   1      48.489  25.439  26.189  1.00  0.00    -0.201 OA
BRANCH  16  19
ATOM     19  C   UNL A   1      46.183  26.536  25.783  1.00  0.00     0.090 A 
ATOM     20  C   UNL A   1      43.275  29.523  26.876  1.00  0.00     0.044 C 
ATOM     21  C   UNL A   1      44.284  28.489  26.472  1.00  0.00    -0.051 A 
ATOM     22  C   UNL A   1      43.925  27.426  25.644  1.00  0.00     0.005 A 
ATOM     23  C   UNL A   1      45.592  28.555  26.971  1.00  0.00     0.008 A 
ATOM     24  C   UNL A   1      44.864  26.449  25.310  1.00  0.00     0.023 A 
ATOM     25  C   UNL A   1      46.562  27.589  26.637  1.00  0.00    -0.030 A 
ATOM     26  C   UNL A   1      47.905  27.719  27.302  1.00  0.00     0.046 C 
ENDBRANCH  16  19
ENDBRANCH   8  16
ENDBRANCH   6   7
ENDBRANCH   3   6
ENDBRANCH   1   2
BRANCH   1  27
ATOM     27  C   UNL A   1      41.513  21.184  25.762  1.00  0.00     0.042 C 
BRANCH  27  28
ATOM     28  C   UNL A   1      40.401  21.613  26.710  1.00  0.00     0.118 C 
BRANCH  28  29
ATOM     29  N   UNL A   1      39.296  22.223  25.996  1.00  0.00    -0.352 N 
ATOM     30  C   UNL A   1      38.681  23.443  26.126  1.00  0.00     0.251 C 
ATOM     31  H   UNL A   1      38.916  21.657  25.286  1.00  0.00     0.163 HD
ATOM     32  O   UNL A   1      37.589  23.591  25.578  1.00  0.00    -0.269 OA
BRANCH  30  33
ATOM     33  C   UNL A   1      39.259  24.587  26.889  1.00  0.00     0.039 A 
ATOM     34  C   UNL A   1      38.886  24.719  28.235  1.00  0.00     0.014 A 
ATOM     35  C   UNL A   1      40.028  25.600  26.312  1.00  0.00     0.014 A 
ATOM     36  C   UNL A   1      39.277  25.836  28.984  1.00  0.00     0.010 A 
ATOM     37  C   UNL A   1      40.497  26.673  27.086  1.00  0.00     0.010 A 
ATOM     38  C   UNL A   1      40.100  26.824  28.423  1.00  0.00    -0.014 A 
BRANCH  38  39
ATOM     39  C   UNL A   1      40.499  28.027  29.211  1.00  0.00     0.031 A 
ATOM     40  C   UNL A   1      41.893  28.152  29.778  1.00  0.00     0.074 A 
ATOM     41  C   UNL A   1      39.609  29.016  29.432  1.00  0.00     0.049 A 
ATOM     42  N   UNL A   1      42.415  29.114  30.500  1.00  0.00    -0.248 NA
ATOM     43  C   UNL A   1      42.818  27.038  29.518  1.00  0.00     0.031 C 
ATOM     44  C   UNL A   1      38.222  29.021  28.967  1.00  0.00     0.029 A 
ATOM     45  N   UNL A   1      39.737  30.208  30.105  1.00  0.00    -0.354 N 
ATOM     46  C   UNL A   1      43.714  28.713  30.794  1.00  0.00     0.074 A 
ATOM     47  C   UNL A   1      43.886  27.399  30.214  1.00  0.00     0.031 C 
ATOM     48  C   UNL A   1      37.638  30.172  29.338  1.00  0.00     0.029 A 
ATOM     49  C   UNL A   1      38.593  30.968  30.106  1.00  0.00     0.049 A 
ATOM     50  H   UNL A   1      40.572  30.491  30.544  1.00  0.00     0.167 HD
ATOM     51  C   UNL A   1      44.683  29.384  31.464  1.00  0.00     0.037 A 
ATOM     52  C   UNL A   1      38.334  32.166  30.665  1.00  0.00     0.037 A 
ATOM     53  C   UNL A   1      44.526  30.706  32.017  1.00  0.00     0.049 A 
ATOM     54  C   UNL A   1      39.421  32.880  31.424  1.00  0.00     0.074 A 
ATOM     55  C   UNL A   1      45.472  31.492  32.655  1.00  0.00     0.029 A 
ATOM     56  N   UNL A   1      43.346  31.435  32.006  1.00  0.00    -0.354 N 
ATOM     57  N   UNL A   1      40.663  32.519  31.632  1.00  0.00    -0.248 NA
ATOM     58  C   UNL A   1      39.067  34.176  32.023  1.00  0.00     0.031 C 
ATOM     59  C   UNL A   1      44.849  32.669  33.084  1.00  0.00     0.029 A 
ATOM     60  C   UNL A   1      43.532  32.647  32.654  1.00  0.00     0.049 A 
ATOM     61  H   UNL A   1      42.503  31.136  31.597  1.00  0.00     0.167 HD
ATOM     62  C   UNL A   1      41.247  33.553  32.354  1.00  0.00     0.074 A 
ATOM     63  C   UNL A   1      40.227  34.564  32.533  1.00  0.00     0.031 C 
ATOM     64  C   UNL A   1      42.514  33.653  32.824  1.00  0.00     0.037 A 
BRANCH  51  65
ATOM     65  C   UNL A   1      46.008  28.698  31.649  1.00  0.00     0.064 A 
ATOM     66  C   UNL A   1      47.097  28.943  30.797  1.00  0.00     0.173 A 
ATOM     67  C   UNL A   1      46.207  27.815  32.722  1.00  0.00     0.173 A 
ATOM     68  F   UNL A   1      46.963  29.775  29.753  1.00  0.00    -0.203 F 
ATOM     69  C   UNL A   1      48.319  28.303  30.990  1.00  0.00     0.198 A 
ATOM     70  C   UNL A   1      47.441  27.203  32.933  1.00  0.00     0.198 A 
ATOM     71  F   UNL A   1      45.206  27.551  33.576  1.00  0.00    -0.203 F 
ATOM     72  F   UNL A   1      49.325  28.512  30.130  1.00  0.00    -0.200 F 
ATOM     73  C   UNL A   1      48.493  27.440  32.061  1.00  0.00     0.200 A 
ATOM     74  F   UNL A   1      47.612  26.383  33.979  1.00  0.00    -0.200 F 
ATOM     75  F   UNL A   1      49.672  26.831  32.250  1.00  0.00    -0.200 F 
ENDBRANCH  51  65
BRANCH  52  76
ATOM     76  C   UNL A   1      36.989  32.784  30.514  1.00  0.00     0.064 A 
ATOM     77  C   UNL A   1      36.653  33.505  29.359  1.00  0.00     0.173 A 
ATOM     78  C   UNL A   1      36.019  32.680  31.522  1.00  0.00     0.173 A 
ATOM     79  F   UNL A   1      37.555  33.654  28.376  1.00  0.00    -0.203 F 
ATOM     80  C   UNL A   1      35.410  34.118  29.229  1.00  0.00     0.198 A 
ATOM     81  C   UNL A   1      34.763  33.266  31.376  1.00  0.00     0.198 A 
ATOM     82  F   UNL A   1      36.288  31.998  32.645  1.00  0.00    -0.203 F 
ATOM     83  F   UNL A   1      35.135  34.846  28.137  1.00  0.00    -0.200 F 
ATOM     84  C   UNL A   1      34.463  33.992  30.234  1.00  0.00     0.200 A 
ATOM     85  F   UNL A   1      33.846  33.129  32.342  1.00  0.00    -0.200 F 
ATOM     86  F   UNL A   1      33.264  34.578  30.106  1.00  0.00    -0.200 F 
ENDBRANCH  52  76
BRANCH  64  87
ATOM     87  C   UNL A   1      42.887  34.921  33.543  1.00  0.00     0.064 A 
ATOM     88  C   UNL A   1      43.328  36.061  32.855  1.00  0.00     0.173 A 
ATOM     89  C   UNL A   1      42.774  35.002  34.940  1.00  0.00     0.173 A 
ATOM     90  F   UNL A   1      43.468  36.033  31.521  1.00  0.00    -0.203 F 
ATOM     91  C   UNL A   1      43.674  37.223  33.541  1.00  0.00     0.198 A 
ATOM     92  C   UNL A   1      43.087  36.176  35.618  1.00  0.00     0.198 A 
ATOM     93  F   UNL A   1      42.351  33.944  35.648  1.00  0.00    -0.203 F 
ATOM     94  F   UNL A   1      44.148  38.280  32.867  1.00  0.00    -0.200 F 
ATOM     95  C   UNL A   1      43.547  37.282  34.920  1.00  0.00     0.200 A 
ATOM     96  F   UNL A   1      42.947  36.237  36.951  1.00  0.00    -0.200 F 
ATOM     97  F   UNL A   1      43.874  38.403  35.578  1.00  0.00    -0.200 F 
ENDBRANCH  64  87
ENDBRANCH  38  39
ENDBRANCH  30  33
ENDBRANCH  28  29
ENDBRANCH  27  28
ENDBRANCH   1  27
TORSDOF 13
ENDMDL
