MODEL 1
REMARK VINA RESULT:     -13.7      0.000      0.000
REMARK SMILES O=C(NCCCNC(=O)[C@H]1Cc2[nH]cnc2CN1C(=O)c1ccncc1Cl)c1ccc(-c2c3nc(c(-c4c(F)c(F)c(F)c(F)c4F)c4ccc([nH]4)c(-c4c(F)c(F)c(F)c(F)c4F)c4nc(c(-c5c(F)c(F)c(F)c(F)c5F)c5ccc2[nH]5)C=C4)C=C3)cc1
REMARK SMILES IDX 5 1 4 2 3 3 1 4 2 5 28 7 29 8 90 9 30 10 89 11 31 12 32 13
REMARK SMILES IDX 33 14 83 15 34 16 88 17 82 18 84 19 35 20 87 21 81 22 80 23
REMARK SMILES IDX 36 25 68 26 48 27 67 28 49 29 52 30 66 31 85 32 50 33 51 34
REMARK SMILES IDX 65 36 86 37 53 38 37 39 38 40 46 41 39 42 40 43 44 44 47 45
REMARK SMILES IDX 41 46 42 47 45 48 43 49 69 50 70 51 78 52 71 53 72 54 76 55
REMARK SMILES IDX 79 56 73 57 74 58 77 59 75 60 54 61 55 62 63 63 56 64 57 65
REMARK SMILES IDX 61 66 64 67 58 68 59 69 62 70 60 71 6 72 7 73 8 74 9 76
REMARK SMILES IDX 10 77 11 78 18 79 12 80 17 81 13 82 16 83 14 84 15 86 19 87
REMARK SMILES IDX 20 88 21 89 22 90 26 91 23 92 25 93 27 94 24 95
REMARK H PARENT 3 6 84 24 52 35 7 75 13 85
REMARK Flexibility Score: inf
ROOT
ATOM      1  C   UNL A   1      32.508  29.195  27.266  1.00  0.00     0.042 C 
ENDROOT
BRANCH   1   2
ATOM      2  C   UNL A   1      33.397  30.386  26.902  1.00  0.00     0.118 C 
BRANCH   2   3
ATOM      3  N   UNL A   1      33.639  31.325  27.981  1.00  0.00    -0.352 N 
ATOM      4  O   UNL A   1      34.566  32.668  29.465  1.00  0.00    -0.269 OA
ATOM      5  C   UNL A   1      34.722  31.683  28.726  1.00  0.00     0.251 C 
ATOM      6  H   UNL A   1      32.828  31.822  28.236  1.00  0.00     0.163 HD
BRANCH   5   7
ATOM      7  C   UNL A   1      36.022  30.963  28.778  1.00  0.00     0.039 A 
ATOM      8  C   UNL A   1      36.204  29.593  28.582  1.00  0.00     0.014 A 
ATOM      9  C   UNL A   1      37.146  31.748  29.102  1.00  0.00     0.014 A 
ATOM     10  C   UNL A   1      37.448  29.008  28.809  1.00  0.00     0.010 A 
ATOM     11  C   UNL A   1      38.394  31.173  29.311  1.00  0.00     0.010 A 
ATOM     12  C   UNL A   1      38.532  29.793  29.205  1.00  0.00    -0.014 A 
BRANCH  12  13
ATOM     13  C   UNL A   1      39.830  29.147  29.383  1.00  0.00     0.031 A 
ATOM     14  C   UNL A   1      40.274  28.988  30.799  1.00  0.00     0.074 A 
ATOM     15  C   UNL A   1      40.521  28.586  28.372  1.00  0.00     0.049 A 
ATOM     16  N   UNL A   1      41.369  29.401  31.352  1.00  0.00    -0.248 NA
ATOM     17  C   UNL A   1      39.341  28.339  31.734  1.00  0.00     0.031 C 
ATOM     18  C   UNL A   1      40.085  28.385  26.989  1.00  0.00     0.029 A 
ATOM     19  N   UNL A   1      41.739  27.970  28.404  1.00  0.00    -0.354 N 
ATOM     20  C   UNL A   1      41.340  28.935  32.668  1.00  0.00     0.074 A 
ATOM     21  C   UNL A   1      40.022  28.396  32.879  1.00  0.00     0.031 C 
ATOM     22  C   UNL A   1      40.920  27.513  26.380  1.00  0.00     0.029 A 
ATOM     23  C   UNL A   1      42.013  27.195  27.285  1.00  0.00     0.049 A 
ATOM     24  H   UNL A   1      42.369  28.067  29.154  1.00  0.00     0.167 HD
ATOM     25  C   UNL A   1      42.473  28.845  33.420  1.00  0.00     0.037 A 
ATOM     26  C   UNL A   1      43.025  26.304  27.141  1.00  0.00     0.037 A 
ATOM     27  C   UNL A   1      43.510  29.702  32.908  1.00  0.00     0.049 A 
ATOM     28  C   UNL A   1      44.055  26.615  28.160  1.00  0.00     0.074 A 
ATOM     29  C   UNL A   1      43.641  31.062  32.704  1.00  0.00     0.029 A 
ATOM     30  N   UNL A   1      44.552  29.132  32.220  1.00  0.00    -0.354 N 
ATOM     31  N   UNL A   1      44.811  27.676  28.139  1.00  0.00    -0.248 NA
ATOM     32  C   UNL A   1      43.968  25.934  29.443  1.00  0.00     0.031 C 
ATOM     33  C   UNL A   1      44.428  31.186  31.520  1.00  0.00     0.029 A 
ATOM     34  C   UNL A   1      44.758  29.896  31.104  1.00  0.00     0.049 A 
ATOM     35  H   UNL A   1      45.054  28.326  32.481  1.00  0.00     0.167 HD
ATOM     36  C   UNL A   1      44.937  28.040  29.470  1.00  0.00     0.074 A 
ATOM     37  C   UNL A   1      44.488  26.878  30.230  1.00  0.00     0.031 C 
ATOM     38  C   UNL A   1      45.123  29.345  29.825  1.00  0.00     0.037 A 
BRANCH  25  39
ATOM     39  C   UNL A   1      42.777  27.709  34.378  1.00  0.00     0.064 A 
ATOM     40  C   UNL A   1      43.237  26.481  33.852  1.00  0.00     0.173 A 
ATOM     41  C   UNL A   1      42.322  27.659  35.713  1.00  0.00     0.173 A 
ATOM     42  F   UNL A   1      43.707  26.406  32.598  1.00  0.00    -0.203 F 
ATOM     43  C   UNL A   1      43.118  25.282  34.559  1.00  0.00     0.198 A 
ATOM     44  C   UNL A   1      42.255  26.466  36.434  1.00  0.00     0.198 A 
ATOM     45  F   UNL A   1      41.822  28.728  36.341  1.00  0.00    -0.203 F 
ATOM     46  F   UNL A   1      43.420  24.123  33.956  1.00  0.00    -0.200 F 
ATOM     47  C   UNL A   1      42.610  25.273  35.843  1.00  0.00     0.200 A 
ATOM     48  F   UNL A   1      41.754  26.478  37.677  1.00  0.00    -0.200 F 
ATOM     49  F   UNL A   1      42.417  24.118  36.492  1.00  0.00    -0.200 F 
ENDBRANCH  25  39
BRANCH  26  50
ATOM     50  C   UNL A   1      43.029  25.029  26.385  1.00  0.00     0.064 A 
ATOM     51  C   UNL A   1      43.909  24.822  25.309  1.00  0.00     0.173 A 
ATOM     52  C   UNL A   1      42.368  23.888  26.880  1.00  0.00     0.173 A 
ATOM     53  F   UNL A   1      44.616  25.845  24.810  1.00  0.00    -0.203 F 
ATOM     54  C   UNL A   1      44.129  23.547  24.777  1.00  0.00     0.198 A 
ATOM     55  C   UNL A   1      42.580  22.619  26.342  1.00  0.00     0.198 A 
ATOM     56  F   UNL A   1      41.576  23.966  27.960  1.00  0.00    -0.203 F 
ATOM     57  F   UNL A   1      45.022  23.378  23.791  1.00  0.00    -0.200 F 
ATOM     58  C   UNL A   1      43.470  22.446  25.298  1.00  0.00     0.200 A 
ATOM     59  F   UNL A   1      41.965  21.557  26.882  1.00  0.00    -0.200 F 
ATOM     60  F   UNL A   1      43.726  21.216  24.829  1.00  0.00    -0.200 F 
ENDBRANCH  26  50
BRANCH  38  61
ATOM     61  C   UNL A   1      45.482  30.320  28.743  1.00  0.00     0.064 A 
ATOM     62  C   UNL A   1      44.539  30.962  27.923  1.00  0.00     0.173 A 
ATOM     63  C   UNL A   1      46.819  30.721  28.629  1.00  0.00     0.173 A 
ATOM     64  F   UNL A   1      43.230  30.709  28.047  1.00  0.00    -0.203 F 
ATOM     65  C   UNL A   1      44.928  31.928  26.997  1.00  0.00     0.198 A 
ATOM     66  C   UNL A   1      47.200  31.713  27.731  1.00  0.00     0.198 A 
ATOM     67  F   UNL A   1      47.753  30.183  29.429  1.00  0.00    -0.203 F 
ATOM     68  F   UNL A   1      44.012  32.518  26.217  1.00  0.00    -0.200 F 
ATOM     69  C   UNL A   1      46.258  32.307  26.908  1.00  0.00     0.200 A 
ATOM     70  F   UNL A   1      48.479  32.114  27.684  1.00  0.00    -0.200 F 
ATOM     71  F   UNL A   1      46.626  33.266  26.048  1.00  0.00    -0.200 F 
ENDBRANCH  38  61
ENDBRANCH  12  13
ENDBRANCH   5   7
ENDBRANCH   2   3
ENDBRANCH   1   2
BRANCH   1  72
ATOM     72  C   UNL A   1      33.050  27.831  26.847  1.00  0.00     0.117 C 
BRANCH  72  73
ATOM     73  N   UNL A   1      33.810  27.863  25.610  1.00  0.00    -0.354 N 
ATOM     74  C   UNL A   1      33.435  28.176  24.338  1.00  0.00     0.243 C 
ATOM     75  H   UNL A   1      34.758  27.618  25.707  1.00  0.00     0.163 HD
ATOM     76  O   UNL A   1      34.343  28.381  23.527  1.00  0.00    -0.273 OA
BRANCH  74  77
ATOM     77  C   UNL A   1      31.955  28.309  23.943  1.00  0.00     0.181 C 
ATOM     78  C   UNL A   1      31.964  29.212  22.668  1.00  0.00     0.091 C 
ATOM     79  N   UNL A   1      31.032  27.124  23.753  1.00  0.00    -0.320 N 
ATOM     80  C   UNL A   1      30.562  29.444  22.261  1.00  0.00     0.042 A 
ATOM     81  C   UNL A   1      29.598  27.478  23.549  1.00  0.00     0.178 C 
ATOM     82  N   UNL A   1      30.054  30.421  21.461  1.00  0.00    -0.348 N 
ATOM     83  C   UNL A   1      29.495  28.667  22.647  1.00  0.00     0.081 A 
ATOM     84  C   UNL A   1      28.699  30.218  21.414  1.00  0.00     0.197 A 
ATOM     85  H   UNL A   1      30.559  31.132  21.005  1.00  0.00     0.167 HD
ATOM     86  N   UNL A   1      28.332  29.174  22.128  1.00  0.00    -0.240 NA
BRANCH  79  87
ATOM     87  C   UNL A   1      31.346  25.782  23.587  1.00  0.00     0.256 C 
ATOM     88  O   UNL A   1      31.319  25.209  22.485  1.00  0.00    -0.269 OA
BRANCH  87  89
ATOM     89  C   UNL A   1      31.700  24.912  24.706  1.00  0.00     0.061 A 
ATOM     90  C   UNL A   1      30.707  24.639  25.652  1.00  0.00     0.035 A 
ATOM     91  C   UNL A   1      33.002  24.465  24.913  1.00  0.00     0.072 A 
ATOM     92  C   UNL A   1      31.044  23.853  26.738  1.00  0.00     0.112 A 
ATOM     93  C   UNL A   1      33.230  23.675  26.029  1.00  0.00     0.132 A 
ATOM     94  Cl  UNL A   1      34.316  24.855  23.871  1.00  0.00    -0.082 Cl
ATOM     95  N   UNL A   1      32.283  23.354  26.945  1.00  0.00    -0.263 NA
ENDBRANCH  87  89
ENDBRANCH  79  87
ENDBRANCH  74  77
ENDBRANCH  72  73
ENDBRANCH   1  72
TORSDOF 12
ENDMDL
MODEL 2
REMARK VINA RESULT:     -13.7      1.303      3.232
REMARK SMILES O=C(NCCCNC(=O)[C@H]1Cc2[nH]cnc2CN1C(=O)c1ccncc1Cl)c1ccc(-c2c3nc(c(-c4c(F)c(F)c(F)c(F)c4F)c4ccc([nH]4)c(-c4c(F)c(F)c(F)c(F)c4F)c4nc(c(-c5c(F)c(F)c(F)c(F)c5F)c5ccc2[nH]5)C=C4)C=C3)cc1
REMARK SMILES IDX 5 1 4 2 3 3 1 4 2 5 28 7 29 8 90 9 30 10 89 11 31 12 32 13
REMARK SMILES IDX 33 14 83 15 34 16 88 17 82 18 84 19 35 20 87 21 81 22 80 23
REMARK SMILES IDX 36 25 68 26 48 27 67 28 49 29 52 30 66 31 85 32 50 33 51 34
REMARK SMILES IDX 65 36 86 37 53 38 37 39 38 40 46 41 39 42 40 43 44 44 47 45
REMARK SMILES IDX 41 46 42 47 45 48 43 49 69 50 70 51 78 52 71 53 72 54 76 55
REMARK SMILES IDX 79 56 73 57 74 58 77 59 75 60 54 61 55 62 63 63 56 64 57 65
REMARK SMILES IDX 61 66 64 67 58 68 59 69 62 70 60 71 6 72 7 73 8 74 9 76
REMARK SMILES IDX 10 77 11 78 18 79 12 80 17 81 13 82 16 83 14 84 15 86 19 87
REMARK SMILES IDX 20 88 21 89 22 90 26 91 23 92 25 93 27 94 24 95
REMARK H PARENT 3 6 84 24 52 35 7 75 13 85
REMARK Flexibility Score: inf
ROOT
ATOM      1  C   UNL A   1      32.520  28.874  27.109  1.00  0.00     0.042 C 
ENDROOT
BRANCH   1   2
ATOM      2  C   UNL A   1      33.331  30.057  26.574  1.00  0.00     0.118 C 
BRANCH   2   3
ATOM      3  N   UNL A   1      33.567  31.122  27.530  1.00  0.00    -0.352 N 
ATOM      4  O   UNL A   1      34.486  32.646  28.834  1.00  0.00    -0.269 OA
ATOM      5  C   UNL A   1      34.650  31.581  28.218  1.00  0.00     0.251 C 
ATOM      6  H   UNL A   1      32.752  31.637  27.729  1.00  0.00     0.163 HD
BRANCH   5   7
ATOM      7  C   UNL A   1      35.959  30.888  28.346  1.00  0.00     0.039 A 
ATOM      8  C   UNL A   1      36.187  29.528  28.129  1.00  0.00     0.014 A 
ATOM      9  C   UNL A   1      37.037  31.687  28.774  1.00  0.00     0.014 A 
ATOM     10  C   UNL A   1      37.425  28.963  28.432  1.00  0.00     0.010 A 
ATOM     11  C   UNL A   1      38.280  31.134  29.059  1.00  0.00     0.010 A 
ATOM     12  C   UNL A   1      38.458  29.760  28.927  1.00  0.00    -0.014 A 
BRANCH  12  13
ATOM     13  C   UNL A   1      39.754  29.138  29.183  1.00  0.00     0.031 A 
ATOM     14  C   UNL A   1      40.123  29.002  30.623  1.00  0.00     0.074 A 
ATOM     15  C   UNL A   1      40.508  28.576  28.218  1.00  0.00     0.049 A 
ATOM     16  N   UNL A   1      41.180  29.439  31.230  1.00  0.00    -0.248 NA
ATOM     17  C   UNL A   1      39.151  28.349  31.514  1.00  0.00     0.031 C 
ATOM     18  C   UNL A   1      40.151  28.353  26.815  1.00  0.00     0.029 A 
ATOM     19  N   UNL A   1      41.732  27.981  28.323  1.00  0.00    -0.354 N 
ATOM     20  C   UNL A   1      41.086  28.987  32.547  1.00  0.00     0.074 A 
ATOM     21  C   UNL A   1      39.768  28.430  32.693  1.00  0.00     0.031 C 
ATOM     22  C   UNL A   1      41.032  27.488  26.264  1.00  0.00     0.029 A 
ATOM     23  C   UNL A   1      42.079  27.198  27.230  1.00  0.00     0.049 A 
ATOM     24  H   UNL A   1      42.319  28.097  29.105  1.00  0.00     0.167 HD
ATOM     25  C   UNL A   1      42.178  28.924  33.360  1.00  0.00     0.037 A 
ATOM     26  C   UNL A   1      43.111  26.322  27.152  1.00  0.00     0.037 A 
ATOM     27  C   UNL A   1      43.228  29.793  32.895  1.00  0.00     0.049 A 
ATOM     28  C   UNL A   1      44.079  26.661  28.222  1.00  0.00     0.074 A 
ATOM     29  C   UNL A   1      43.349  31.152  32.682  1.00  0.00     0.029 A 
ATOM     30  N   UNL A   1      44.314  29.232  32.273  1.00  0.00    -0.354 N 
ATOM     31  N   UNL A   1      44.818  27.734  28.229  1.00  0.00    -0.248 NA
ATOM     32  C   UNL A   1      43.932  25.993  29.506  1.00  0.00     0.031 C 
ATOM     33  C   UNL A   1      44.196  31.275  31.542  1.00  0.00     0.029 A 
ATOM     34  C   UNL A   1      44.569  29.987  31.160  1.00  0.00     0.049 A 
ATOM     35  H   UNL A   1      44.814  28.437  32.570  1.00  0.00     0.167 HD
ATOM     36  C   UNL A   1      44.865  28.115  29.561  1.00  0.00     0.074 A 
ATOM     37  C   UNL A   1      44.394  26.954  30.309  1.00  0.00     0.031 C 
ATOM     38  C   UNL A   1      45.012  29.427  29.909  1.00  0.00     0.037 A 
BRANCH  25  39
ATOM     39  C   UNL A   1      42.447  27.804  34.347  1.00  0.00     0.064 A 
ATOM     40  C   UNL A   1      43.009  26.599  33.871  1.00  0.00     0.173 A 
ATOM     41  C   UNL A   1      41.877  27.734  35.636  1.00  0.00     0.173 A 
ATOM     42  F   UNL A   1      43.593  26.545  32.665  1.00  0.00    -0.203 F 
ATOM     43  C   UNL A   1      42.882  25.396  34.570  1.00  0.00     0.198 A 
ATOM     44  C   UNL A   1      41.801  26.539  36.354  1.00  0.00     0.198 A 
ATOM     45  F   UNL A   1      41.273  28.778  36.212  1.00  0.00    -0.203 F 
ATOM     46  F   UNL A   1      43.291  24.252  34.002  1.00  0.00    -0.200 F 
ATOM     47  C   UNL A   1      42.262  25.364  35.803  1.00  0.00     0.200 A 
ATOM     48  F   UNL A   1      41.190  26.528  37.547  1.00  0.00    -0.200 F 
ATOM     49  F   UNL A   1      42.065  24.202  36.438  1.00  0.00    -0.200 F 
ENDBRANCH  25  39
BRANCH  26  50
ATOM     50  C   UNL A   1      43.177  25.039  26.414  1.00  0.00     0.064 A 
ATOM     51  C   UNL A   1      44.077  24.854  25.351  1.00  0.00     0.173 A 
ATOM     52  C   UNL A   1      42.556  23.878  26.916  1.00  0.00     0.173 A 
ATOM     53  F   UNL A   1      44.748  25.899  24.847  1.00  0.00    -0.203 F 
ATOM     54  C   UNL A   1      44.355  23.583  24.837  1.00  0.00     0.198 A 
ATOM     55  C   UNL A   1      42.826  22.612  26.396  1.00  0.00     0.198 A 
ATOM     56  F   UNL A   1      41.749  23.937  27.985  1.00  0.00    -0.203 F 
ATOM     57  F   UNL A   1      45.267  23.438  23.865  1.00  0.00    -0.200 F 
ATOM     58  C   UNL A   1      43.736  22.462  25.366  1.00  0.00     0.200 A 
ATOM     59  F   UNL A   1      42.249  21.533  26.943  1.00  0.00    -0.200 F 
ATOM     60  F   UNL A   1      44.047  21.238  24.916  1.00  0.00    -0.200 F 
ENDBRANCH  26  50
BRANCH  38  61
ATOM     61  C   UNL A   1      45.414  30.395  28.837  1.00  0.00     0.064 A 
ATOM     62  C   UNL A   1      44.506  31.016  27.961  1.00  0.00     0.173 A 
ATOM     63  C   UNL A   1      46.750  30.814  28.788  1.00  0.00     0.173 A 
ATOM     64  F   UNL A   1      43.196  30.745  28.019  1.00  0.00    -0.203 F 
ATOM     65  C   UNL A   1      44.931  31.977  27.046  1.00  0.00     0.198 A 
ATOM     66  C   UNL A   1      47.164  31.802  27.901  1.00  0.00     0.198 A 
ATOM     67  F   UNL A   1      47.648  30.298  29.642  1.00  0.00    -0.203 F 
ATOM     68  F   UNL A   1      44.049  32.546  26.213  1.00  0.00    -0.200 F 
ATOM     69  C   UNL A   1      46.258  32.374  27.022  1.00  0.00     0.200 A 
ATOM     70  F   UNL A   1      48.437  32.220  27.915  1.00  0.00    -0.200 F 
ATOM     71  F   UNL A   1      46.658  33.329  26.172  1.00  0.00    -0.200 F 
ENDBRANCH  38  61
ENDBRANCH  12  13
ENDBRANCH   5   7
ENDBRANCH   2   3
ENDBRANCH   1   2
BRANCH   1  72
ATOM     72  C   UNL A   1      32.948  27.507  26.581  1.00  0.00     0.117 C 
BRANCH  72  73
ATOM     73  N   UNL A   1      31.949  26.470  26.779  1.00  0.00    -0.354 N 
ATOM     74  C   UNL A   1      32.021  25.118  26.630  1.00  0.00     0.243 C 
ATOM     75  H   UNL A   1      31.070  26.802  27.072  1.00  0.00     0.163 HD
ATOM     76  O   UNL A   1      31.104  24.456  27.124  1.00  0.00    -0.273 OA
BRANCH  74  77
ATOM     77  C   UNL A   1      33.210  24.447  25.921  1.00  0.00     0.181 C 
ATOM     78  C   UNL A   1      33.143  22.950  26.364  1.00  0.00     0.091 C 
ATOM     79  N   UNL A   1      33.460  24.553  24.431  1.00  0.00    -0.320 N 
ATOM     80  C   UNL A   1      34.300  22.246  25.773  1.00  0.00     0.042 A 
ATOM     81  C   UNL A   1      34.760  23.982  23.976  1.00  0.00     0.178 C 
ATOM     82  N   UNL A   1      34.862  21.063  26.143  1.00  0.00    -0.348 N 
ATOM     83  C   UNL A   1      35.028  22.698  24.697  1.00  0.00     0.081 A 
ATOM     84  C   UNL A   1      35.923  20.856  25.300  1.00  0.00     0.197 A 
ATOM     85  H   UNL A   1      34.565  20.472  26.872  1.00  0.00     0.167 HD
ATOM     86  N   UNL A   1      36.053  21.831  24.424  1.00  0.00    -0.240 NA
BRANCH  79  87
ATOM     87  C   UNL A   1      32.598  24.958  23.421  1.00  0.00     0.256 C 
ATOM     88  O   UNL A   1      32.095  24.172  22.601  1.00  0.00    -0.269 OA
BRANCH  87  89
ATOM     89  C   UNL A   1      32.236  26.358  23.209  1.00  0.00     0.061 A 
ATOM     90  C   UNL A   1      33.263  27.248  22.879  1.00  0.00     0.035 A 
ATOM     91  C   UNL A   1      30.949  26.833  23.445  1.00  0.00     0.072 A 
ATOM     92  C   UNL A   1      32.937  28.583  22.720  1.00  0.00     0.112 A 
ATOM     93  C   UNL A   1      30.728  28.187  23.248  1.00  0.00     0.132 A 
ATOM     94  Cl  UNL A   1      29.651  25.834  23.976  1.00  0.00    -0.082 Cl
ATOM     95  N   UNL A   1      31.689  29.073  22.886  1.00  0.00    -0.263 NA
ENDBRANCH  87  89
ENDBRANCH  79  87
ENDBRANCH  74  77
ENDBRANCH  72  73
ENDBRANCH   1  72
TORSDOF 12
ENDMDL
MODEL 3
REMARK VINA RESULT:     -13.7      2.988      7.979
REMARK SMILES O=C(NCCCNC(=O)[C@H]1Cc2[nH]cnc2CN1C(=O)c1ccncc1Cl)c1ccc(-c2c3nc(c(-c4c(F)c(F)c(F)c(F)c4F)c4ccc([nH]4)c(-c4c(F)c(F)c(F)c(F)c4F)c4nc(c(-c5c(F)c(F)c(F)c(F)c5F)c5ccc2[nH]5)C=C4)C=C3)cc1
REMARK SMILES IDX 5 1 4 2 3 3 1 4 2 5 28 7 29 8 90 9 30 10 89 11 31 12 32 13
REMARK SMILES IDX 33 14 83 15 34 16 88 17 82 18 84 19 35 20 87 21 81 22 80 23
REMARK SMILES IDX 36 25 68 26 48 27 67 28 49 29 52 30 66 31 85 32 50 33 51 34
REMARK SMILES IDX 65 36 86 37 53 38 37 39 38 40 46 41 39 42 40 43 44 44 47 45
REMARK SMILES IDX 41 46 42 47 45 48 43 49 69 50 70 51 78 52 71 53 72 54 76 55
REMARK SMILES IDX 79 56 73 57 74 58 77 59 75 60 54 61 55 62 63 63 56 64 57 65
REMARK SMILES IDX 61 66 64 67 58 68 59 69 62 70 60 71 6 72 7 73 8 74 9 76
REMARK SMILES IDX 10 77 11 78 18 79 12 80 17 81 13 82 16 83 14 84 15 86 19 87
REMARK SMILES IDX 20 88 21 89 22 90 26 91 23 92 25 93 27 94 24 95
REMARK H PARENT 3 6 84 24 52 35 7 75 13 85
REMARK Flexibility Score: inf
ROOT
ATOM      1  C   UNL A   1      36.573  22.533  24.408  1.00  0.00     0.042 C 
ENDROOT
BRANCH   1   2
ATOM      2  C   UNL A   1      37.053  21.912  25.722  1.00  0.00     0.118 C 
BRANCH   2   3
ATOM      3  N   UNL A   1      38.434  21.467  25.724  1.00  0.00    -0.352 N 
ATOM      4  O   UNL A   1      40.567  21.151  26.188  1.00  0.00    -0.269 OA
ATOM      5  C   UNL A   1      39.593  21.914  26.284  1.00  0.00     0.251 C 
ATOM      6  H   UNL A   1      38.566  20.647  25.195  1.00  0.00     0.163 HD
BRANCH   5   7
ATOM      7  C   UNL A   1      39.798  23.241  26.921  1.00  0.00     0.039 A 
ATOM      8  C   UNL A   1      39.019  24.378  26.706  1.00  0.00     0.014 A 
ATOM      9  C   UNL A   1      40.913  23.346  27.776  1.00  0.00     0.014 A 
ATOM     10  C   UNL A   1      39.402  25.608  27.240  1.00  0.00     0.010 A 
ATOM     11  C   UNL A   1      41.290  24.564  28.329  1.00  0.00     0.010 A 
ATOM     12  C   UNL A   1      40.554  25.704  28.023  1.00  0.00    -0.014 A 
BRANCH  12  13
ATOM     13  C   UNL A   1      40.892  27.000  28.606  1.00  0.00     0.031 A 
ATOM     14  C   UNL A   1      42.150  27.620  28.097  1.00  0.00     0.074 A 
ATOM     15  C   UNL A   1      40.066  27.680  29.425  1.00  0.00     0.049 A 
ATOM     16  N   UNL A   1      43.184  28.015  28.769  1.00  0.00    -0.248 NA
ATOM     17  C   UNL A   1      42.300  27.754  26.639  1.00  0.00     0.031 C 
ATOM     18  C   UNL A   1      38.680  27.358  29.772  1.00  0.00     0.029 A 
ATOM     19  N   UNL A   1      40.266  28.882  30.040  1.00  0.00    -0.354 N 
ATOM     20  C   UNL A   1      44.055  28.590  27.840  1.00  0.00     0.074 A 
ATOM     21  C   UNL A   1      43.516  28.293  26.540  1.00  0.00     0.031 C 
ATOM     22  C   UNL A   1      38.103  28.437  30.349  1.00  0.00     0.029 A 
ATOM     23  C   UNL A   1      39.107  29.473  30.524  1.00  0.00     0.049 A 
ATOM     24  H   UNL A   1      41.156  29.293  30.134  1.00  0.00     0.167 HD
ATOM     25  C   UNL A   1      45.046  29.442  28.223  1.00  0.00     0.037 A 
ATOM     26  C   UNL A   1      38.969  30.746  30.970  1.00  0.00     0.037 A 
ATOM     27  C   UNL A   1      45.374  29.272  29.615  1.00  0.00     0.049 A 
ATOM     28  C   UNL A   1      40.318  31.264  31.300  1.00  0.00     0.074 A 
ATOM     29  C   UNL A   1      45.845  28.228  30.387  1.00  0.00     0.029 A 
ATOM     30  N   UNL A   1      44.939  30.215  30.511  1.00  0.00    -0.354 N 
ATOM     31  N   UNL A   1      41.037  30.850  32.305  1.00  0.00    -0.248 NA
ATOM     32  C   UNL A   1      41.047  31.970  30.258  1.00  0.00     0.031 C 
ATOM     33  C   UNL A   1      45.210  28.388  31.654  1.00  0.00     0.029 A 
ATOM     34  C   UNL A   1      44.427  29.539  31.584  1.00  0.00     0.049 A 
ATOM     35  H   UNL A   1      44.986  31.193  30.401  1.00  0.00     0.167 HD
ATOM     36  C   UNL A   1      42.338  30.853  31.827  1.00  0.00     0.074 A 
ATOM     37  C   UNL A   1      42.296  31.648  30.604  1.00  0.00     0.031 C 
ATOM     38  C   UNL A   1      43.265  29.978  32.314  1.00  0.00     0.037 A 
BRANCH  25  39
ATOM     39  C   UNL A   1      45.453  30.684  27.453  1.00  0.00     0.064 A 
ATOM     40  C   UNL A   1      46.820  30.887  27.163  1.00  0.00     0.173 A 
ATOM     41  C   UNL A   1      44.630  31.820  27.295  1.00  0.00     0.173 A 
ATOM     42  F   UNL A   1      47.699  29.878  27.263  1.00  0.00    -0.203 F 
ATOM     43  C   UNL A   1      47.337  32.153  26.876  1.00  0.00     0.198 A 
ATOM     44  C   UNL A   1      45.144  33.072  26.956  1.00  0.00     0.198 A 
ATOM     45  F   UNL A   1      43.321  31.801  27.565  1.00  0.00    -0.203 F 
ATOM     46  F   UNL A   1      48.663  32.319  26.766  1.00  0.00    -0.200 F 
ATOM     47  C   UNL A   1      46.500  33.247  26.791  1.00  0.00     0.200 A 
ATOM     48  F   UNL A   1      44.316  34.124  26.883  1.00  0.00    -0.200 F 
ATOM     49  F   UNL A   1      47.000  34.475  26.598  1.00  0.00    -0.200 F 
ENDBRANCH  25  39
BRANCH  26  50
ATOM     50  C   UNL A   1      37.794  31.641  30.853  1.00  0.00     0.064 A 
ATOM     51  C   UNL A   1      37.344  32.094  29.601  1.00  0.00     0.173 A 
ATOM     52  C   UNL A   1      36.922  31.844  31.940  1.00  0.00     0.173 A 
ATOM     53  F   UNL A   1      38.090  31.896  28.505  1.00  0.00    -0.203 F 
ATOM     54  C   UNL A   1      36.089  32.692  29.444  1.00  0.00     0.198 A 
ATOM     55  C   UNL A   1      35.675  32.450  31.785  1.00  0.00     0.198 A 
ATOM     56  F   UNL A   1      37.221  31.370  33.159  1.00  0.00    -0.203 F 
ATOM     57  F   UNL A   1      35.668  33.054  28.224  1.00  0.00    -0.200 F 
ATOM     58  C   UNL A   1      35.252  32.862  30.535  1.00  0.00     0.200 A 
ATOM     59  F   UNL A   1      34.860  32.572  32.842  1.00  0.00    -0.200 F 
ATOM     60  F   UNL A   1      34.026  33.379  30.376  1.00  0.00    -0.200 F 
ENDBRANCH  26  50
BRANCH  38  61
ATOM     61  C   UNL A   1      42.929  29.227  33.568  1.00  0.00     0.064 A 
ATOM     62  C   UNL A   1      42.144  28.061  33.596  1.00  0.00     0.173 A 
ATOM     63  C   UNL A   1      43.540  29.625  34.764  1.00  0.00     0.173 A 
ATOM     64  F   UNL A   1      41.613  27.559  32.474  1.00  0.00    -0.203 F 
ATOM     65  C   UNL A   1      41.943  27.357  34.781  1.00  0.00     0.198 A 
ATOM     66  C   UNL A   1      43.369  28.899  35.938  1.00  0.00     0.198 A 
ATOM     67  F   UNL A   1      44.347  30.697  34.782  1.00  0.00    -0.203 F 
ATOM     68  F   UNL A   1      41.180  26.255  34.786  1.00  0.00    -0.200 F 
ATOM     69  C   UNL A   1      42.562  27.773  35.950  1.00  0.00     0.200 A 
ATOM     70  F   UNL A   1      44.010  29.274  37.054  1.00  0.00    -0.200 F 
ATOM     71  F   UNL A   1      42.403  27.071  37.080  1.00  0.00    -0.200 F 
ENDBRANCH  38  61
ENDBRANCH  12  13
ENDBRANCH   5   7
ENDBRANCH   2   3
ENDBRANCH   1   2
BRANCH   1  72
ATOM     72  C   UNL A   1      35.726  23.794  24.561  1.00  0.00     0.117 C 
BRANCH  72  73
ATOM     73  N   UNL A   1      34.898  24.080  23.402  1.00  0.00    -0.354 N 
ATOM     74  C   UNL A   1      34.019  25.092  23.159  1.00  0.00     0.243 C 
ATOM     75  H   UNL A   1      34.988  23.432  22.667  1.00  0.00     0.163 HD
ATOM     76  O   UNL A   1      33.655  25.240  21.988  1.00  0.00    -0.273 OA
BRANCH  74  77
ATOM     77  C   UNL A   1      33.540  26.030  24.278  1.00  0.00     0.181 C 
ATOM     78  C   UNL A   1      32.916  27.253  23.532  1.00  0.00     0.091 C 
ATOM     79  N   UNL A   1      32.643  25.584  25.414  1.00  0.00    -0.320 N 
ATOM     80  C   UNL A   1      32.488  28.239  24.547  1.00  0.00     0.042 A 
ATOM     81  C   UNL A   1      32.444  26.600  26.487  1.00  0.00     0.178 C 
ATOM     82  N   UNL A   1      32.231  29.567  24.394  1.00  0.00    -0.348 N 
ATOM     83  C   UNL A   1      32.267  27.954  25.873  1.00  0.00     0.081 A 
ATOM     84  C   UNL A   1      31.894  30.042  25.635  1.00  0.00     0.197 A 
ATOM     85  H   UNL A   1      32.278  30.085  23.558  1.00  0.00     0.167 HD
ATOM     86  N   UNL A   1      31.917  29.094  26.548  1.00  0.00    -0.240 NA
BRANCH  79  87
ATOM     87  C   UNL A   1      31.865  24.439  25.524  1.00  0.00     0.256 C 
ATOM     88  O   UNL A   1      30.628  24.444  25.407  1.00  0.00    -0.269 OA
BRANCH  87  89
ATOM     89  C   UNL A   1      32.433  23.127  25.826  1.00  0.00     0.061 A 
ATOM     90  C   UNL A   1      33.075  22.968  27.059  1.00  0.00     0.035 A 
ATOM     91  C   UNL A   1      32.460  22.099  24.888  1.00  0.00     0.072 A 
ATOM     92  C   UNL A   1      33.654  21.744  27.335  1.00  0.00     0.112 A 
ATOM     93  C   UNL A   1      33.059  20.908  25.271  1.00  0.00     0.132 A 
ATOM     94  Cl  UNL A   1      31.808  22.244  23.301  1.00  0.00    -0.082 Cl
ATOM     95  N   UNL A   1      33.652  20.703  26.473  1.00  0.00    -0.263 NA
ENDBRANCH  87  89
ENDBRANCH  79  87
ENDBRANCH  74  77
ENDBRANCH  72  73
ENDBRANCH   1  72
TORSDOF 12
ENDMDL
