MODEL 1
REMARK VINA RESULT:     -13.4      0.000      0.000
REMARK SMILES C[C@H](c1ccccc1)N1C(=O)c2ccc(C(=O)NCCCNC(=O)c3ccc(-c4c5nc(c(-c6c(F)c(F)c(F)c(F)c6F)c6ccc([nH]6)c(-c6c(F)c(F)c(F)c(F)c6F)c6nc(c(-c7c(F)c(F)c(F)c(F)c7F)c7ccc4[nH]7)C=C6)C=C5)cc3)cc2C1=O
REMARK SMILES IDX 20 1 19 2 18 3 16 4 17 5 15 7 9 8 10 9 90 10 11 11 12 12
REMARK SMILES IDX 89 13 91 14 13 15 88 16 14 17 2 18 1 19 3 20 4 21 8 22 5 23
REMARK SMILES IDX 7 24 6 25 21 26 22 27 23 28 24 30 25 31 26 32 87 33 27 34
REMARK SMILES IDX 86 35 28 36 29 37 30 38 80 39 31 40 85 41 79 42 81 43 32 44
REMARK SMILES IDX 84 45 78 46 77 47 33 49 65 50 45 51 64 52 46 53 49 54 63 55
REMARK SMILES IDX 82 56 47 57 48 58 62 60 83 61 50 62 34 63 35 64 43 65 36 66
REMARK SMILES IDX 37 67 41 68 44 69 38 70 39 71 42 72 40 73 66 74 67 75 75 76
REMARK SMILES IDX 68 77 69 78 73 79 76 80 70 81 71 82 74 83 72 84 51 85 52 86
REMARK SMILES IDX 60 87 53 88 54 89 58 90 61 91 55 92 56 93 59 94 57 95
REMARK H PARENT 18 6 22 29 81 48 49 59
REMARK Flexibility Score: inf
ROOT
ATOM      1  C   UNL A   1      31.506  32.252  26.919  1.00  0.00     0.042 C 
ENDROOT
BRANCH   1   2
ATOM      2  C   UNL A   1      31.837  30.763  26.894  1.00  0.00     0.118 C 
BRANCH   2   3
ATOM      3  N   UNL A   1      33.121  30.450  27.499  1.00  0.00    -0.352 N 
ATOM      4  C   UNL A   1      34.048  29.470  27.266  1.00  0.00     0.251 C 
ATOM      5  O   UNL A   1      35.003  29.378  28.035  1.00  0.00    -0.269 OA
ATOM      6  H   UNL A   1      33.376  31.068  28.222  1.00  0.00     0.163 HD
BRANCH   4   7
ATOM      7  C   UNL A   1      33.933  28.489  26.159  1.00  0.00     0.040 A 
ATOM      8  N   UNL A   1      33.278  24.618  23.756  1.00  0.00    -0.267 N 
ATOM      9  C   UNL A   1      33.591  25.730  23.022  1.00  0.00     0.262 C 
ATOM     10  C   UNL A   1      33.308  24.893  25.099  1.00  0.00     0.262 C 
ATOM     11  O   UNL A   1      33.815  25.863  21.834  1.00  0.00    -0.269 OA
ATOM     12  C   UNL A   1      33.703  26.838  23.961  1.00  0.00     0.053 A 
ATOM     13  C   UNL A   1      33.565  26.327  25.236  1.00  0.00     0.054 A 
ATOM     14  O   UNL A   1      33.187  24.141  26.048  1.00  0.00    -0.269 OA
ATOM     15  C   UNL A   1      33.903  28.181  23.723  1.00  0.00     0.015 A 
ATOM     16  C   UNL A   1      33.660  27.129  26.362  1.00  0.00     0.028 A 
ATOM     17  C   UNL A   1      34.013  29.010  24.841  1.00  0.00     0.015 A 
BRANCH   8  18
ATOM     18  C   UNL A   1      32.997  23.288  23.210  1.00  0.00     0.121 C 
ATOM     19  C   UNL A   1      31.519  22.907  23.332  1.00  0.00     0.037 C 
BRANCH  18  20
ATOM     20  C   UNL A   1      33.943  22.235  23.782  1.00  0.00    -0.025 A 
ATOM     21  C   UNL A   1      33.477  21.014  24.295  1.00  0.00     0.006 A 
ATOM     22  C   UNL A   1      35.322  22.494  23.848  1.00  0.00     0.006 A 
ATOM     23  C   UNL A   1      34.347  20.103  24.896  1.00  0.00     0.000 A 
ATOM     24  C   UNL A   1      36.197  21.570  24.426  1.00  0.00     0.000 A 
ATOM     25  C   UNL A   1      35.708  20.382  24.962  1.00  0.00     0.000 A 
ENDBRANCH  18  20
ENDBRANCH   8  18
ENDBRANCH   4   7
ENDBRANCH   2   3
ENDBRANCH   1   2
BRANCH   1  26
ATOM     26  C   UNL A   1      32.708  33.192  27.008  1.00  0.00     0.118 C 
BRANCH  26  27
ATOM     27  N   UNL A   1      32.417  34.435  27.707  1.00  0.00    -0.352 N 
ATOM     28  C   UNL A   1      32.959  34.989  28.840  1.00  0.00     0.251 C 
ATOM     29  H   UNL A   1      31.704  34.973  27.295  1.00  0.00     0.163 HD
ATOM     30  O   UNL A   1      32.430  35.984  29.329  1.00  0.00    -0.269 OA
BRANCH  28  31
ATOM     31  C   UNL A   1      34.154  34.410  29.498  1.00  0.00     0.039 A 
ATOM     32  C   UNL A   1      33.981  33.726  30.708  1.00  0.00     0.014 A 
ATOM     33  C   UNL A   1      35.440  34.589  28.987  1.00  0.00     0.014 A 
ATOM     34  C   UNL A   1      35.083  33.171  31.365  1.00  0.00     0.010 A 
ATOM     35  C   UNL A   1      36.531  33.978  29.606  1.00  0.00     0.010 A 
ATOM     36  C   UNL A   1      36.364  33.264  30.803  1.00  0.00    -0.014 A 
BRANCH  36  37
ATOM     37  C   UNL A   1      37.541  32.629  31.454  1.00  0.00     0.031 A 
ATOM     38  C   UNL A   1      38.261  31.493  30.781  1.00  0.00     0.074 A 
ATOM     39  C   UNL A   1      37.922  33.031  32.682  1.00  0.00     0.049 A 
ATOM     40  N   UNL A   1      39.245  30.754  31.229  1.00  0.00    -0.248 NA
ATOM     41  C   UNL A   1      37.796  31.122  29.435  1.00  0.00     0.031 C 
ATOM     42  C   UNL A   1      37.283  34.093  33.460  1.00  0.00     0.029 A 
ATOM     43  N   UNL A   1      38.930  32.583  33.499  1.00  0.00    -0.354 N 
ATOM     44  C   UNL A   1      39.499  29.819  30.235  1.00  0.00     0.074 A 
ATOM     45  C   UNL A   1      38.542  30.058  29.176  1.00  0.00     0.031 C 
ATOM     46  C   UNL A   1      37.921  34.225  34.633  1.00  0.00     0.029 A 
ATOM     47  C   UNL A   1      38.993  33.236  34.704  1.00  0.00     0.049 A 
ATOM     48  H   UNL A   1      39.549  31.861  33.243  1.00  0.00     0.167 HD
ATOM     49  C   UNL A   1      40.454  28.858  30.200  1.00  0.00     0.037 A 
ATOM     50  C   UNL A   1      39.818  33.054  35.754  1.00  0.00     0.037 A 
ATOM     51  C   UNL A   1      41.431  28.644  31.235  1.00  0.00     0.049 A 
ATOM     52  C   UNL A   1      40.882  31.994  35.682  1.00  0.00     0.074 A 
ATOM     53  C   UNL A   1      42.477  27.739  31.262  1.00  0.00     0.029 A 
ATOM     54  N   UNL A   1      41.483  29.349  32.428  1.00  0.00    -0.354 N 
ATOM     55  N   UNL A   1      41.145  31.152  34.713  1.00  0.00    -0.248 NA
ATOM     56  C   UNL A   1      41.768  31.865  36.848  1.00  0.00     0.031 C 
ATOM     57  C   UNL A   1      43.145  27.874  32.484  1.00  0.00     0.029 A 
ATOM     58  C   UNL A   1      42.535  28.890  33.204  1.00  0.00     0.049 A 
ATOM     59  H   UNL A   1      40.864  30.070  32.686  1.00  0.00     0.167 HD
ATOM     60  C   UNL A   1      42.238  30.410  35.140  1.00  0.00     0.074 A 
ATOM     61  C   UNL A   1      42.598  30.910  36.451  1.00  0.00     0.031 C 
ATOM     62  C   UNL A   1      42.885  29.404  34.502  1.00  0.00     0.037 A 
BRANCH  49  63
ATOM     63  C   UNL A   1      40.494  27.964  28.996  1.00  0.00     0.064 A 
ATOM     64  C   UNL A   1      39.747  26.779  28.937  1.00  0.00     0.173 A 
ATOM     65  C   UNL A   1      41.259  28.314  27.873  1.00  0.00     0.173 A 
ATOM     66  F   UNL A   1      39.009  26.393  29.989  1.00  0.00    -0.203 F 
ATOM     67  C   UNL A   1      39.785  25.963  27.809  1.00  0.00     0.198 A 
ATOM     68  C   UNL A   1      41.275  27.510  26.736  1.00  0.00     0.198 A 
ATOM     69  F   UNL A   1      41.987  29.442  27.875  1.00  0.00    -0.203 F 
ATOM     70  F   UNL A   1      39.099  24.812  27.793  1.00  0.00    -0.200 F 
ATOM     71  C   UNL A   1      40.544  26.331  26.708  1.00  0.00     0.200 A 
ATOM     72  F   UNL A   1      41.999  27.873  25.669  1.00  0.00    -0.200 F 
ATOM     73  F   UNL A   1      40.576  25.547  25.623  1.00  0.00    -0.200 F 
ENDBRANCH  49  63
BRANCH  50  74
ATOM     74  C   UNL A   1      39.685  33.916  36.955  1.00  0.00     0.064 A 
ATOM     75  C   UNL A   1      38.926  33.497  38.057  1.00  0.00     0.173 A 
ATOM     76  C   UNL A   1      40.311  35.168  37.029  1.00  0.00     0.173 A 
ATOM     77  F   UNL A   1      38.292  32.316  38.021  1.00  0.00    -0.203 F 
ATOM     78  C   UNL A   1      38.787  34.305  39.182  1.00  0.00     0.198 A 
ATOM     79  C   UNL A   1      40.191  35.965  38.165  1.00  0.00     0.198 A 
ATOM     80  F   UNL A   1      41.051  35.611  36.002  1.00  0.00    -0.203 F 
ATOM     81  F   UNL A   1      38.027  33.897  40.207  1.00  0.00    -0.200 F 
ATOM     82  C   UNL A   1      39.425  35.536  39.238  1.00  0.00     0.200 A 
ATOM     83  F   UNL A   1      40.818  37.148  38.221  1.00  0.00    -0.200 F 
ATOM     84  F   UNL A   1      39.295  36.310  40.325  1.00  0.00    -0.200 F 
ENDBRANCH  50  74
BRANCH  62  85
ATOM     85  C   UNL A   1      44.067  28.799  35.199  1.00  0.00     0.064 A 
ATOM     86  C   UNL A   1      43.927  27.697  36.054  1.00  0.00     0.173 A 
ATOM     87  C   UNL A   1      45.357  29.304  34.977  1.00  0.00     0.173 A 
ATOM     88  F   UNL A   1      42.712  27.189  36.309  1.00  0.00    -0.203 F 
ATOM     89  C   UNL A   1      45.037  27.135  36.680  1.00  0.00     0.198 A 
ATOM     90  C   UNL A   1      46.466  28.725  35.586  1.00  0.00     0.198 A 
ATOM     91  F   UNL A   1      45.541  30.355  34.164  1.00  0.00    -0.203 F 
ATOM     92  F   UNL A   1      44.877  26.108  37.527  1.00  0.00    -0.200 F 
ATOM     93  C   UNL A   1      46.305  27.645  36.442  1.00  0.00     0.200 A 
ATOM     94  F   UNL A   1      47.691  29.213  35.348  1.00  0.00    -0.200 F 
ATOM     95  F   UNL A   1      47.371  27.099  37.042  1.00  0.00    -0.200 F 
ENDBRANCH  62  85
ENDBRANCH  36  37
ENDBRANCH  28  31
ENDBRANCH  26  27
ENDBRANCH   1  26
TORSDOF 12
ENDMDL
MODEL 2
REMARK VINA RESULT:     -13.4      0.212      1.940
REMARK SMILES C[C@H](c1ccccc1)N1C(=O)c2ccc(C(=O)NCCCNC(=O)c3ccc(-c4c5nc(c(-c6c(F)c(F)c(F)c(F)c6F)c6ccc([nH]6)c(-c6c(F)c(F)c(F)c(F)c6F)c6nc(c(-c7c(F)c(F)c(F)c(F)c7F)c7ccc4[nH]7)C=C6)C=C5)cc3)cc2C1=O
REMARK SMILES IDX 20 1 19 2 18 3 16 4 17 5 15 7 9 8 10 9 90 10 11 11 12 12
REMARK SMILES IDX 89 13 91 14 13 15 88 16 14 17 2 18 1 19 3 20 4 21 8 22 5 23
REMARK SMILES IDX 7 24 6 25 21 26 22 27 23 28 24 30 25 31 26 32 87 33 27 34
REMARK SMILES IDX 86 35 28 36 29 37 30 38 80 39 31 40 85 41 79 42 81 43 32 44
REMARK SMILES IDX 84 45 78 46 77 47 33 49 65 50 45 51 64 52 46 53 49 54 63 55
REMARK SMILES IDX 82 56 47 57 48 58 62 60 83 61 50 62 34 63 35 64 43 65 36 66
REMARK SMILES IDX 37 67 41 68 44 69 38 70 39 71 42 72 40 73 66 74 67 75 75 76
REMARK SMILES IDX 68 77 69 78 73 79 76 80 70 81 71 82 74 83 72 84 51 85 52 86
REMARK SMILES IDX 60 87 53 88 54 89 58 90 61 91 55 92 56 93 59 94 57 95
REMARK H PARENT 18 6 22 29 81 48 49 59
REMARK Flexibility Score: inf
ROOT
ATOM      1  C   UNL A   1      31.441  32.278  26.888  1.00  0.00     0.042 C 
ENDROOT
BRANCH   1   2
ATOM      2  C   UNL A   1      31.777  30.790  26.869  1.00  0.00     0.118 C 
BRANCH   2   3
ATOM      3  N   UNL A   1      33.063  30.484  27.475  1.00  0.00    -0.352 N 
ATOM      4  C   UNL A   1      33.995  29.508  27.243  1.00  0.00     0.251 C 
ATOM      5  O   UNL A   1      34.951  29.423  28.011  1.00  0.00    -0.269 OA
ATOM      6  H   UNL A   1      33.315  31.104  28.197  1.00  0.00     0.163 HD
BRANCH   4   7
ATOM      7  C   UNL A   1      33.885  28.525  26.137  1.00  0.00     0.040 A 
ATOM      8  N   UNL A   1      33.417  24.618  23.749  1.00  0.00    -0.267 N 
ATOM      9  C   UNL A   1      33.554  25.760  23.005  1.00  0.00     0.262 C 
ATOM     10  C   UNL A   1      33.533  24.890  25.088  1.00  0.00     0.262 C 
ATOM     11  O   UNL A   1      33.662  25.919  21.805  1.00  0.00    -0.269 OA
ATOM     12  C   UNL A   1      33.635  26.869  23.946  1.00  0.00     0.053 A 
ATOM     13  C   UNL A   1      33.657  26.342  25.221  1.00  0.00     0.054 A 
ATOM     14  O   UNL A   1      33.568  24.125  26.035  1.00  0.00    -0.269 OA
ATOM     15  C   UNL A   1      33.679  28.226  23.709  1.00  0.00     0.015 A 
ATOM     16  C   UNL A   1      33.766  27.145  26.345  1.00  0.00     0.028 A 
ATOM     17  C   UNL A   1      33.800  29.058  24.824  1.00  0.00     0.015 A 
BRANCH   8  18
ATOM     18  C   UNL A   1      33.225  23.269  23.212  1.00  0.00     0.121 C 
ATOM     19  C   UNL A   1      31.781  22.782  23.359  1.00  0.00     0.037 C 
BRANCH  18  20
ATOM     20  C   UNL A   1      34.253  22.290  23.771  1.00  0.00    -0.025 A 
ATOM     21  C   UNL A   1      33.877  21.101  24.417  1.00  0.00     0.006 A 
ATOM     22  C   UNL A   1      35.623  22.590  23.690  1.00  0.00     0.006 A 
ATOM     23  C   UNL A   1      34.828  20.264  25.002  1.00  0.00     0.000 A 
ATOM     24  C   UNL A   1      36.578  21.739  24.252  1.00  0.00     0.000 A 
ATOM     25  C   UNL A   1      36.180  20.583  24.920  1.00  0.00     0.000 A 
ENDBRANCH  18  20
ENDBRANCH   8  18
ENDBRANCH   4   7
ENDBRANCH   2   3
ENDBRANCH   1   2
BRANCH   1  26
ATOM     26  C   UNL A   1      32.641  33.223  26.935  1.00  0.00     0.118 C 
BRANCH  26  27
ATOM     27  N   UNL A   1      32.362  34.474  27.625  1.00  0.00    -0.352 N 
ATOM     28  C   UNL A   1      32.903  35.025  28.760  1.00  0.00     0.251 C 
ATOM     29  H   UNL A   1      31.661  35.021  27.204  1.00  0.00     0.163 HD
ATOM     30  O   UNL A   1      32.385  36.030  29.240  1.00  0.00    -0.269 OA
BRANCH  28  31
ATOM     31  C   UNL A   1      34.084  34.432  29.431  1.00  0.00     0.039 A 
ATOM     32  C   UNL A   1      33.893  33.769  30.649  1.00  0.00     0.014 A 
ATOM     33  C   UNL A   1      35.375  34.579  28.922  1.00  0.00     0.014 A 
ATOM     34  C   UNL A   1      34.981  33.201  31.319  1.00  0.00     0.010 A 
ATOM     35  C   UNL A   1      36.452  33.955  29.555  1.00  0.00     0.010 A 
ATOM     36  C   UNL A   1      36.266  33.261  30.761  1.00  0.00    -0.014 A 
BRANCH  36  37
ATOM     37  C   UNL A   1      37.428  32.612  31.424  1.00  0.00     0.031 A 
ATOM     38  C   UNL A   1      38.141  31.467  30.760  1.00  0.00     0.074 A 
ATOM     39  C   UNL A   1      37.800  33.010  32.657  1.00  0.00     0.049 A 
ATOM     40  N   UNL A   1      39.111  30.716  31.220  1.00  0.00    -0.248 NA
ATOM     41  C   UNL A   1      37.687  31.101  29.410  1.00  0.00     0.031 C 
ATOM     42  C   UNL A   1      37.165  34.080  33.427  1.00  0.00     0.029 A 
ATOM     43  N   UNL A   1      38.793  32.550  33.485  1.00  0.00    -0.354 N 
ATOM     44  C   UNL A   1      39.365  29.777  30.229  1.00  0.00     0.074 A 
ATOM     45  C   UNL A   1      38.423  30.028  29.159  1.00  0.00     0.031 C 
ATOM     46  C   UNL A   1      37.792  34.205  34.607  1.00  0.00     0.029 A 
ATOM     47  C   UNL A   1      38.851  33.203  34.691  1.00  0.00     0.049 A 
ATOM     48  H   UNL A   1      39.406  31.820  33.236  1.00  0.00     0.167 HD
ATOM     49  C   UNL A   1      40.308  28.805  30.205  1.00  0.00     0.037 A 
ATOM     50  C   UNL A   1      39.661  33.011  35.750  1.00  0.00     0.037 A 
ATOM     51  C   UNL A   1      41.271  28.579  31.252  1.00  0.00     0.049 A 
ATOM     52  C   UNL A   1      40.713  31.938  35.690  1.00  0.00     0.074 A 
ATOM     53  C   UNL A   1      42.305  27.661  31.290  1.00  0.00     0.029 A 
ATOM     54  N   UNL A   1      41.318  29.284  32.444  1.00  0.00    -0.354 N 
ATOM     55  N   UNL A   1      40.977  31.093  34.725  1.00  0.00    -0.248 NA
ATOM     56  C   UNL A   1      41.585  31.799  36.866  1.00  0.00     0.031 C 
ATOM     57  C   UNL A   1      42.961  27.789  32.520  1.00  0.00     0.029 A 
ATOM     58  C   UNL A   1      42.356  28.813  33.232  1.00  0.00     0.049 A 
ATOM     59  H   UNL A   1      40.705  30.013  32.695  1.00  0.00     0.167 HD
ATOM     60  C   UNL A   1      42.056  30.338  35.164  1.00  0.00     0.074 A 
ATOM     61  C   UNL A   1      42.407  30.834  36.479  1.00  0.00     0.031 C 
ATOM     62  C   UNL A   1      42.698  29.324  34.534  1.00  0.00     0.037 A 
BRANCH  49  63
ATOM     63  C   UNL A   1      40.350  27.910  29.002  1.00  0.00     0.064 A 
ATOM     64  C   UNL A   1      41.116  28.234  27.872  1.00  0.00     0.173 A 
ATOM     65  C   UNL A   1      39.646  26.697  28.991  1.00  0.00     0.173 A 
ATOM     66  F   UNL A   1      41.798  29.388  27.828  1.00  0.00    -0.203 F 
ATOM     67  C   UNL A   1      41.154  27.389  26.766  1.00  0.00     0.198 A 
ATOM     68  C   UNL A   1      39.707  25.841  27.894  1.00  0.00     0.198 A 
ATOM     69  F   UNL A   1      38.903  26.336  30.049  1.00  0.00    -0.203 F 
ATOM     70  F   UNL A   1      41.857  27.741  25.681  1.00  0.00    -0.200 F 
ATOM     71  C   UNL A   1      40.455  26.191  26.780  1.00  0.00     0.200 A 
ATOM     72  F   UNL A   1      39.040  24.679  27.913  1.00  0.00    -0.200 F 
ATOM     73  F   UNL A   1      40.496  25.378  25.716  1.00  0.00    -0.200 F 
ENDBRANCH  49  63
BRANCH  50  74
ATOM     74  C   UNL A   1      39.526  33.876  36.949  1.00  0.00     0.064 A 
ATOM     75  C   UNL A   1      40.155  35.127  37.004  1.00  0.00     0.173 A 
ATOM     76  C   UNL A   1      38.767  33.475  38.057  1.00  0.00     0.173 A 
ATOM     77  F   UNL A   1      40.909  35.542  35.975  1.00  0.00    -0.203 F 
ATOM     78  C   UNL A   1      40.042  35.939  38.129  1.00  0.00     0.198 A 
ATOM     79  C   UNL A   1      38.634  34.299  39.173  1.00  0.00     0.198 A 
ATOM     80  F   UNL A   1      38.143  32.289  38.050  1.00  0.00    -0.203 F 
ATOM     81  F   UNL A   1      40.683  37.115  38.172  1.00  0.00    -0.200 F 
ATOM     82  C   UNL A   1      39.277  35.527  39.211  1.00  0.00     0.200 A 
ATOM     83  F   UNL A   1      37.886  33.903  40.211  1.00  0.00    -0.200 F 
ATOM     84  F   UNL A   1      39.165  36.312  40.291  1.00  0.00    -0.200 F 
ENDBRANCH  50  74
BRANCH  62  85
ATOM     85  C   UNL A   1      43.864  28.704  35.244  1.00  0.00     0.064 A 
ATOM     86  C   UNL A   1      45.166  29.200  35.084  1.00  0.00     0.173 A 
ATOM     87  C   UNL A   1      43.671  27.628  36.123  1.00  0.00     0.173 A 
ATOM     88  F   UNL A   1      45.402  30.218  34.243  1.00  0.00    -0.203 F 
ATOM     89  C   UNL A   1      46.236  28.625  35.763  1.00  0.00     0.198 A 
ATOM     90  C   UNL A   1      44.740  27.071  36.818  1.00  0.00     0.198 A 
ATOM     91  F   UNL A   1      42.443  27.122  36.311  1.00  0.00    -0.203 F 
ATOM     92  F   UNL A   1      47.479  29.088  35.565  1.00  0.00    -0.200 F 
ATOM     93  C   UNL A   1      46.022  27.567  36.634  1.00  0.00     0.200 A 
ATOM     94  F   UNL A   1      44.530  26.054  37.665  1.00  0.00    -0.200 F 
ATOM     95  F   UNL A   1      47.054  27.018  37.290  1.00  0.00    -0.200 F 
ENDBRANCH  62  85
ENDBRANCH  36  37
ENDBRANCH  28  31
ENDBRANCH  26  27
ENDBRANCH   1  26
TORSDOF 12
ENDMDL
MODEL 3
REMARK VINA RESULT:     -13.3      1.537      2.285
REMARK SMILES C[C@H](c1ccccc1)N1C(=O)c2ccc(C(=O)NCCCNC(=O)c3ccc(-c4c5nc(c(-c6c(F)c(F)c(F)c(F)c6F)c6ccc([nH]6)c(-c6c(F)c(F)c(F)c(F)c6F)c6nc(c(-c7c(F)c(F)c(F)c(F)c7F)c7ccc4[nH]7)C=C6)C=C5)cc3)cc2C1=O
REMARK SMILES IDX 20 1 19 2 18 3 16 4 17 5 15 7 9 8 10 9 90 10 11 11 12 12
REMARK SMILES IDX 89 13 91 14 13 15 88 16 14 17 2 18 1 19 3 20 4 21 8 22 5 23
REMARK SMILES IDX 7 24 6 25 21 26 22 27 23 28 24 30 25 31 26 32 87 33 27 34
REMARK SMILES IDX 86 35 28 36 29 37 30 38 80 39 31 40 85 41 79 42 81 43 32 44
REMARK SMILES IDX 84 45 78 46 77 47 33 49 65 50 45 51 64 52 46 53 49 54 63 55
REMARK SMILES IDX 82 56 47 57 48 58 62 60 83 61 50 62 34 63 35 64 43 65 36 66
REMARK SMILES IDX 37 67 41 68 44 69 38 70 39 71 42 72 40 73 66 74 67 75 75 76
REMARK SMILES IDX 68 77 69 78 73 79 76 80 70 81 71 82 74 83 72 84 51 85 52 86
REMARK SMILES IDX 60 87 53 88 54 89 58 90 61 91 55 92 56 93 59 94 57 95
REMARK H PARENT 18 6 22 29 81 48 49 59
REMARK Flexibility Score: inf
ROOT
ATOM      1  C   UNL A   1      31.027  31.865  26.365  1.00  0.00     0.042 C 
ENDROOT
BRANCH   1   2
ATOM      2  C   UNL A   1      31.163  30.711  25.377  1.00  0.00     0.118 C 
BRANCH   2   3
ATOM      3  N   UNL A   1      30.279  30.831  24.229  1.00  0.00    -0.352 N 
ATOM      4  C   UNL A   1      29.879  29.948  23.262  1.00  0.00     0.251 C 
ATOM      5  O   UNL A   1      29.207  30.375  22.326  1.00  0.00    -0.269 OA
ATOM      6  H   UNL A   1      29.888  31.729  24.127  1.00  0.00     0.163 HD
BRANCH   4   7
ATOM      7  C   UNL A   1      30.252  28.512  23.269  1.00  0.00     0.040 A 
ATOM      8  N   UNL A   1      32.544  24.555  22.734  1.00  0.00    -0.267 N 
ATOM      9  C   UNL A   1      31.307  24.455  23.312  1.00  0.00     0.262 C 
ATOM     10  C   UNL A   1      32.804  25.847  22.355  1.00  0.00     0.262 C 
ATOM     11  O   UNL A   1      30.657  23.480  23.637  1.00  0.00    -0.269 OA
ATOM     12  C   UNL A   1      30.786  25.810  23.431  1.00  0.00     0.053 A 
ATOM     13  C   UNL A   1      31.681  26.663  22.818  1.00  0.00     0.054 A 
ATOM     14  O   UNL A   1      33.745  26.298  21.728  1.00  0.00    -0.269 OA
ATOM     15  C   UNL A   1      29.630  26.262  24.031  1.00  0.00     0.015 A 
ATOM     16  C   UNL A   1      31.453  28.027  22.732  1.00  0.00     0.028 A 
ATOM     17  C   UNL A   1      29.370  27.632  23.949  1.00  0.00     0.015 A 
BRANCH   8  18
ATOM     18  C   UNL A   1      33.463  23.442  22.491  1.00  0.00     0.121 C 
ATOM     19  C   UNL A   1      32.737  22.099  22.376  1.00  0.00     0.037 C 
BRANCH  18  20
ATOM     20  C   UNL A   1      34.606  23.426  23.503  1.00  0.00    -0.025 A 
ATOM     21  C   UNL A   1      34.455  23.926  24.808  1.00  0.00     0.006 A 
ATOM     22  C   UNL A   1      35.870  22.943  23.126  1.00  0.00     0.006 A 
ATOM     23  C   UNL A   1      35.535  23.986  25.689  1.00  0.00     0.000 A 
ATOM     24  C   UNL A   1      36.946  22.979  24.017  1.00  0.00     0.000 A 
ATOM     25  C   UNL A   1      36.782  23.513  25.293  1.00  0.00     0.000 A 
ENDBRANCH  18  20
ENDBRANCH   8  18
ENDBRANCH   4   7
ENDBRANCH   2   3
ENDBRANCH   1   2
BRANCH   1  26
ATOM     26  C   UNL A   1      32.342  32.445  26.884  1.00  0.00     0.118 C 
BRANCH  26  27
ATOM     27  N   UNL A   1      32.229  33.830  27.318  1.00  0.00    -0.352 N 
ATOM     28  C   UNL A   1      32.920  34.545  28.265  1.00  0.00     0.251 C 
ATOM     29  H   UNL A   1      31.533  34.345  26.851  1.00  0.00     0.163 HD
ATOM     30  O   UNL A   1      32.529  35.670  28.565  1.00  0.00    -0.269 OA
BRANCH  28  31
ATOM     31  C   UNL A   1      34.112  33.990  28.947  1.00  0.00     0.039 A 
ATOM     32  C   UNL A   1      33.919  33.046  29.963  1.00  0.00     0.014 A 
ATOM     33  C   UNL A   1      35.404  34.432  28.655  1.00  0.00     0.014 A 
ATOM     34  C   UNL A   1      35.017  32.502  30.636  1.00  0.00     0.010 A 
ATOM     35  C   UNL A   1      36.503  33.841  29.280  1.00  0.00     0.010 A 
ATOM     36  C   UNL A   1      36.322  32.872  30.278  1.00  0.00    -0.014 A 
BRANCH  36  37
ATOM     37  C   UNL A   1      37.506  32.262  30.939  1.00  0.00     0.031 A 
ATOM     38  C   UNL A   1      38.276  31.164  30.258  1.00  0.00     0.074 A 
ATOM     39  C   UNL A   1      37.850  32.651  32.183  1.00  0.00     0.049 A 
ATOM     40  N   UNL A   1      39.274  30.448  30.711  1.00  0.00    -0.248 NA
ATOM     41  C   UNL A   1      37.848  30.806  28.897  1.00  0.00     0.031 C 
ATOM     42  C   UNL A   1      37.161  33.675  32.968  1.00  0.00     0.029 A 
ATOM     43  N   UNL A   1      38.856  32.219  33.010  1.00  0.00    -0.354 N 
ATOM     44  C   UNL A   1      39.578  29.542  29.703  1.00  0.00     0.074 A 
ATOM     45  C   UNL A   1      38.634  29.772  28.630  1.00  0.00     0.031 C 
ATOM     46  C   UNL A   1      37.773  33.804  34.156  1.00  0.00     0.029 A 
ATOM     47  C   UNL A   1      38.875  32.849  34.229  1.00  0.00     0.049 A 
ATOM     48  H   UNL A   1      39.504  31.523  32.752  1.00  0.00     0.167 HD
ATOM     49  C   UNL A   1      40.564  28.614  29.668  1.00  0.00     0.037 A 
ATOM     50  C   UNL A   1      39.685  32.672  35.291  1.00  0.00     0.037 A 
ATOM     51  C   UNL A   1      41.528  28.411  30.718  1.00  0.00     0.049 A 
ATOM     52  C   UNL A   1      40.785  31.649  35.219  1.00  0.00     0.074 A 
ATOM     53  C   UNL A   1      42.603  27.539  30.748  1.00  0.00     0.029 A 
ATOM     54  N   UNL A   1      41.534  29.092  31.925  1.00  0.00    -0.354 N 
ATOM     55  N   UNL A   1      41.094  30.836  34.239  1.00  0.00    -0.248 NA
ATOM     56  C   UNL A   1      41.652  31.524  36.399  1.00  0.00     0.031 C 
ATOM     57  C   UNL A   1      43.242  27.671  31.985  1.00  0.00     0.029 A 
ATOM     58  C   UNL A   1      42.586  28.651  32.712  1.00  0.00     0.049 A 
ATOM     59  H   UNL A   1      40.887  29.787  32.185  1.00  0.00     0.167 HD
ATOM     60  C   UNL A   1      42.202  30.121  34.672  1.00  0.00     0.074 A 
ATOM     61  C   UNL A   1      42.520  30.606  36.000  1.00  0.00     0.031 C 
ATOM     62  C   UNL A   1      42.894  29.150  34.028  1.00  0.00     0.037 A 
BRANCH  49  63
ATOM     63  C   UNL A   1      40.656  27.747  28.447  1.00  0.00     0.064 A 
ATOM     64  C   UNL A   1      39.987  26.517  28.369  1.00  0.00     0.173 A 
ATOM     65  C   UNL A   1      41.393  28.166  27.330  1.00  0.00     0.173 A 
ATOM     66  F   UNL A   1      39.279  26.066  29.415  1.00  0.00    -0.203 F 
ATOM     67  C   UNL A   1      40.073  25.726  27.226  1.00  0.00     0.198 A 
ATOM     68  C   UNL A   1      41.456  27.385  26.178  1.00  0.00     0.198 A 
ATOM     69  F   UNL A   1      42.047  29.337  27.350  1.00  0.00    -0.203 F 
ATOM     70  F   UNL A   1      39.461  24.534  27.190  1.00  0.00    -0.200 F 
ATOM     71  C   UNL A   1      40.802  26.163  26.130  1.00  0.00     0.200 A 
ATOM     72  F   UNL A   1      42.151  27.814  25.115  1.00  0.00    -0.200 F 
ATOM     73  F   UNL A   1      40.880  25.403  25.030  1.00  0.00    -0.200 F 
ENDBRANCH  49  63
BRANCH  50  74
ATOM     74  C   UNL A   1      39.501  33.505  36.506  1.00  0.00     0.064 A 
ATOM     75  C   UNL A   1      38.714  33.050  37.573  1.00  0.00     0.173 A 
ATOM     76  C   UNL A   1      40.106  34.763  36.628  1.00  0.00     0.173 A 
ATOM     77  F   UNL A   1      38.098  31.862  37.490  1.00  0.00    -0.203 F 
ATOM     78  C   UNL A   1      38.527  33.830  38.711  1.00  0.00     0.198 A 
ATOM     79  C   UNL A   1      39.938  35.532  37.778  1.00  0.00     0.198 A 
ATOM     80  F   UNL A   1      40.872  35.240  35.637  1.00  0.00    -0.203 F 
ATOM     81  F   UNL A   1      37.740  33.388  39.701  1.00  0.00    -0.200 F 
ATOM     82  C   UNL A   1      39.145  35.068  38.816  1.00  0.00     0.200 A 
ATOM     83  F   UNL A   1      40.545  36.723  37.880  1.00  0.00    -0.200 F 
ATOM     84  F   UNL A   1      38.968  35.815  39.914  1.00  0.00    -0.200 F 
ENDBRANCH  50  74
BRANCH  62  85
ATOM     85  C   UNL A   1      44.081  28.570  34.735  1.00  0.00     0.064 A 
ATOM     86  C   UNL A   1      45.348  29.164  34.649  1.00  0.00     0.173 A 
ATOM     87  C   UNL A   1      43.942  27.428  35.538  1.00  0.00     0.173 A 
ATOM     88  F   UNL A   1      45.534  30.248  33.881  1.00  0.00    -0.203 F 
ATOM     89  C   UNL A   1      46.438  28.623  35.326  1.00  0.00     0.198 A 
ATOM     90  C   UNL A   1      45.028  26.903  36.232  1.00  0.00     0.198 A 
ATOM     91  F   UNL A   1      42.749  26.826  35.654  1.00  0.00    -0.203 F 
ATOM     92  F   UNL A   1      47.649  29.183  35.197  1.00  0.00    -0.200 F 
ATOM     93  C   UNL A   1      46.276  27.498  36.121  1.00  0.00     0.200 A 
ATOM     94  F   UNL A   1      44.868  25.821  37.006  1.00  0.00    -0.200 F 
ATOM     95  F   UNL A   1      47.326  26.982  36.775  1.00  0.00    -0.200 F 
ENDBRANCH  62  85
ENDBRANCH  36  37
ENDBRANCH  28  31
ENDBRANCH  26  27
ENDBRANCH   1  26
TORSDOF 12
ENDMDL
