MODEL 1
REMARK VINA RESULT:     -12.2      0.000      0.000
REMARK SMILES COc1ccc(-c2ccc(S(=O)(=O)NC(C)(C)C)cc2)c(C(=O)NCCCNC(=O)c2ccc(-c3c4nc(c(-c5c(F)c(F)c(F)c(F)c5F)c5ccc([nH]5)c(-c5c(F)c(F)c(F)c(F)c5F)c5nc(c(-c6c(F)c(F)c(F)c(F)c6F)c6ccc3[nH]6)C=C5)C=C4)cc2)c1
REMARK SMILES IDX 25 1 24 2 22 3 23 4 21 6 3 7 4 8 94 9 5 10 6 11 2 12 1 13
REMARK SMILES IDX 7 14 8 15 20 16 9 17 19 18 10 19 11 20 12 21 13 22 14 23
REMARK SMILES IDX 15 25 16 26 17 27 18 28 26 29 27 30 28 31 29 32 30 34 31 35
REMARK SMILES IDX 32 36 93 37 33 38 92 39 34 40 35 41 36 42 86 43 37 44 91 45
REMARK SMILES IDX 85 46 87 47 38 48 90 49 84 50 83 51 39 53 71 54 51 55 70 56
REMARK SMILES IDX 52 57 55 58 69 59 88 60 53 61 54 62 68 64 89 65 56 66 40 67
REMARK SMILES IDX 41 68 49 69 42 70 43 71 47 72 50 73 44 74 45 75 48 76 46 77
REMARK SMILES IDX 72 78 73 79 81 80 74 81 75 82 79 83 82 84 76 85 77 86 80 87
REMARK SMILES IDX 78 88 57 89 58 90 66 91 59 92 60 93 64 94 67 95 61 96 62 97
REMARK SMILES IDX 65 98 63 99
REMARK H PARENT 24 5 14 24 28 33 87 52 55 63
REMARK Flexibility Score: inf
ROOT
ATOM      1  C   UNL A   1      33.650  28.601  24.898  1.00  0.00     0.118 C 
ENDROOT
BRANCH   1   2
ATOM      2  N   UNL A   1      33.814  27.755  23.722  1.00  0.00    -0.352 N 
ATOM      3  C   UNL A   1      32.929  27.219  22.808  1.00  0.00     0.252 C 
ATOM      4  O   UNL A   1      33.416  26.697  21.810  1.00  0.00    -0.269 OA
ATOM      5  H   UNL A   1      34.752  27.516  23.543  1.00  0.00     0.163 HD
BRANCH   3   6
ATOM      6  C   UNL A   1      31.451  27.234  23.025  1.00  0.00     0.051 A 
ATOM      7  C   UNL A   1      29.327  28.369  22.612  1.00  0.00     0.119 A 
ATOM      8  C   UNL A   1      28.704  27.520  23.517  1.00  0.00     0.047 A 
ATOM      9  C   UNL A   1      30.682  28.192  22.340  1.00  0.00     0.060 A 
ATOM     10  C   UNL A   1      29.420  26.474  24.100  1.00  0.00     0.013 A 
ATOM     11  C   UNL A   1      30.796  26.280  23.841  1.00  0.00    -0.005 A 
BRANCH   7  12
ATOM     12  O   UNL A   1      28.520  29.322  22.057  1.00  0.00    -0.497 OA
ATOM     13  C   UNL A   1      29.148  30.524  21.626  1.00  0.00     0.278 C 
ENDBRANCH   7  12
BRANCH  11  14
ATOM     14  C   UNL A   1      31.404  25.025  24.331  1.00  0.00    -0.018 A 
ATOM     15  C   UNL A   1      31.433  23.906  23.472  1.00  0.00     0.010 A 
ATOM     16  C   UNL A   1      31.974  24.890  25.606  1.00  0.00     0.010 A 
ATOM     17  C   UNL A   1      31.998  22.695  23.869  1.00  0.00     0.022 A 
ATOM     18  C   UNL A   1      32.586  23.690  25.995  1.00  0.00     0.022 A 
ATOM     19  C   UNL A   1      32.575  22.592  25.134  1.00  0.00     0.082 A 
BRANCH  19  20
ATOM     20  S   UNL A   1      33.259  21.030  25.607  1.00  0.00     0.241 S 
ATOM     21  O   UNL A   1      33.563  21.083  27.019  1.00  0.00    -0.207 OA
ATOM     22  O   UNL A   1      32.377  20.016  25.068  1.00  0.00    -0.207 OA
BRANCH  20  23
ATOM     23  N   UNL A   1      34.686  20.865  24.747  1.00  0.00    -0.206 NA
ATOM     24  H   UNL A   1      34.413  20.945  23.768  1.00  0.00     0.141 HD
BRANCH  23  25
ATOM     25  C   UNL A   1      35.903  21.696  24.871  1.00  0.00     0.025 C 
ATOM     26  C   UNL A   1      35.902  22.553  26.139  1.00  0.00     0.028 C 
ATOM     27  C   UNL A   1      37.081  20.706  24.957  1.00  0.00     0.028 C 
ATOM     28  C   UNL A   1      36.102  22.578  23.637  1.00  0.00     0.028 C 
ENDBRANCH  23  25
ENDBRANCH  20  23
ENDBRANCH  19  20
ENDBRANCH  11  14
ENDBRANCH   3   6
ENDBRANCH   1   2
BRANCH   1  29
ATOM     29  C   UNL A   1      33.999  27.943  26.224  1.00  0.00     0.042 C 
BRANCH  29  30
ATOM     30  C   UNL A   1      33.329  28.529  27.458  1.00  0.00     0.118 C 
BRANCH  30  31
ATOM     31  N   UNL A   1      33.442  29.976  27.552  1.00  0.00    -0.352 N 
ATOM     32  C   UNL A   1      34.444  30.799  28.004  1.00  0.00     0.251 C 
ATOM     33  H   UNL A   1      32.647  30.459  27.229  1.00  0.00     0.163 HD
ATOM     34  O   UNL A   1      34.214  32.002  28.110  1.00  0.00    -0.269 OA
BRANCH  32  35
ATOM     35  C   UNL A   1      35.778  30.286  28.395  1.00  0.00     0.039 A 
ATOM     36  C   UNL A   1      36.808  30.320  27.445  1.00  0.00     0.014 A 
ATOM     37  C   UNL A   1      36.025  29.709  29.641  1.00  0.00     0.014 A 
ATOM     38  C   UNL A   1      38.083  29.841  27.765  1.00  0.00     0.010 A 
ATOM     39  C   UNL A   1      37.318  29.320  29.995  1.00  0.00     0.010 A 
ATOM     40  C   UNL A   1      38.359  29.371  29.058  1.00  0.00    -0.014 A 
BRANCH  40  41
ATOM     41  C   UNL A   1      39.721  28.910  29.439  1.00  0.00     0.031 A 
ATOM     42  C   UNL A   1      40.593  29.758  30.325  1.00  0.00     0.074 A 
ATOM     43  C   UNL A   1      40.198  27.752  28.940  1.00  0.00     0.049 A 
ATOM     44  N   UNL A   1      41.832  29.563  30.706  1.00  0.00    -0.248 NA
ATOM     45  C   UNL A   1      40.006  31.012  30.827  1.00  0.00     0.031 C 
ATOM     46  C   UNL A   1      39.477  26.862  28.029  1.00  0.00     0.029 A 
ATOM     47  N   UNL A   1      41.409  27.130  29.121  1.00  0.00    -0.354 N 
ATOM     48  C   UNL A   1      42.176  30.674  31.465  1.00  0.00     0.074 A 
ATOM     49  C   UNL A   1      41.036  31.564  31.451  1.00  0.00     0.031 C 
ATOM     50  C   UNL A   1      40.245  25.795  27.755  1.00  0.00     0.029 A 
ATOM     51  C   UNL A   1      41.526  25.942  28.440  1.00  0.00     0.049 A 
ATOM     52  H   UNL A   1      42.126  27.498  29.687  1.00  0.00     0.167 HD
ATOM     53  C   UNL A   1      43.327  30.919  32.136  1.00  0.00     0.037 A 
ATOM     54  C   UNL A   1      42.549  25.069  28.376  1.00  0.00     0.037 A 
ATOM     55  C   UNL A   1      44.445  30.015  32.185  1.00  0.00     0.049 A 
ATOM     56  C   UNL A   1      43.806  25.352  29.153  1.00  0.00     0.074 A 
ATOM     57  C   UNL A   1      45.632  30.144  32.886  1.00  0.00     0.029 A 
ATOM     58  N   UNL A   1      44.509  28.804  31.511  1.00  0.00    -0.354 N 
ATOM     59  N   UNL A   1      44.095  26.379  29.914  1.00  0.00    -0.248 NA
ATOM     60  C   UNL A   1      44.876  24.349  29.067  1.00  0.00     0.031 C 
ATOM     61  C   UNL A   1      46.428  29.026  32.611  1.00  0.00     0.029 A 
ATOM     62  C   UNL A   1      45.720  28.182  31.771  1.00  0.00     0.049 A 
ATOM     63  H   UNL A   1      43.800  28.440  30.933  1.00  0.00     0.167 HD
ATOM     64  C   UNL A   1      45.364  26.133  30.419  1.00  0.00     0.074 A 
ATOM     65  C   UNL A   1      45.784  24.853  29.891  1.00  0.00     0.031 C 
ATOM     66  C   UNL A   1      46.116  26.901  31.245  1.00  0.00     0.037 A 
BRANCH  53  67
ATOM     67  C   UNL A   1      43.432  32.217  32.884  1.00  0.00     0.064 A 
ATOM     68  C   UNL A   1      43.955  33.371  32.281  1.00  0.00     0.173 A 
ATOM     69  C   UNL A   1      42.971  32.319  34.205  1.00  0.00     0.173 A 
ATOM     70  F   UNL A   1      44.421  33.323  31.023  1.00  0.00    -0.203 F 
ATOM     71  C   UNL A   1      44.040  34.570  32.983  1.00  0.00     0.198 A 
ATOM     72  C   UNL A   1      43.032  33.528  34.894  1.00  0.00     0.198 A 
ATOM     73  F   UNL A   1      42.456  31.248  34.827  1.00  0.00    -0.203 F 
ATOM     74  F   UNL A   1      44.589  35.647  32.401  1.00  0.00    -0.200 F 
ATOM     75  C   UNL A   1      43.572  34.650  34.285  1.00  0.00     0.200 A 
ATOM     76  F   UNL A   1      42.568  33.606  36.150  1.00  0.00    -0.200 F 
ATOM     77  F   UNL A   1      43.650  35.807  34.957  1.00  0.00    -0.200 F 
ENDBRANCH  53  67
BRANCH  54  78
ATOM     78  C   UNL A   1      42.415  23.825  27.575  1.00  0.00     0.064 A 
ATOM     79  C   UNL A   1      41.892  22.658  28.149  1.00  0.00     0.173 A 
ATOM     80  C   UNL A   1      42.808  23.772  26.231  1.00  0.00     0.173 A 
ATOM     81  F   UNL A   1      41.521  22.654  29.438  1.00  0.00    -0.203 F 
ATOM     82  C   UNL A   1      41.786  21.479  27.414  1.00  0.00     0.198 A 
ATOM     83  C   UNL A   1      42.678  22.600  25.490  1.00  0.00     0.198 A 
ATOM     84  F   UNL A   1      43.310  24.864  25.634  1.00  0.00    -0.203 F 
ATOM     85  F   UNL A   1      41.324  20.366  28.001  1.00  0.00    -0.200 F 
ATOM     86  C   UNL A   1      42.174  21.453  26.084  1.00  0.00     0.200 A 
ATOM     87  F   UNL A   1      43.041  22.582  24.200  1.00  0.00    -0.200 F 
ATOM     88  F   UNL A   1      42.070  20.319  25.376  1.00  0.00    -0.200 F 
ENDBRANCH  54  78
BRANCH  66  89
ATOM     89  C   UNL A   1      47.454  26.360  31.655  1.00  0.00     0.064 A 
ATOM     90  C   UNL A   1      48.613  26.628  30.913  1.00  0.00     0.173 A 
ATOM     91  C   UNL A   1      47.580  25.587  32.819  1.00  0.00     0.173 A 
ATOM     92  F   UNL A   1      48.540  27.350  29.784  1.00  0.00    -0.203 F 
ATOM     93  C   UNL A   1      49.847  26.122  31.309  1.00  0.00     0.198 A 
ATOM     94  C   UNL A   1      48.820  25.105  33.226  1.00  0.00     0.198 A 
ATOM     95  F   UNL A   1      46.500  25.307  33.565  1.00  0.00    -0.203 F 
ATOM     96  F   UNL A   1      50.935  26.351  30.561  1.00  0.00    -0.200 F 
ATOM     97  C   UNL A   1      49.951  25.366  32.468  1.00  0.00     0.200 A 
ATOM     98  F   UNL A   1      48.920  24.384  34.351  1.00  0.00    -0.200 F 
ATOM     99  F   UNL A   1      51.141  24.881  32.848  1.00  0.00    -0.200 F 
ENDBRANCH  66  89
ENDBRANCH  40  41
ENDBRANCH  32  35
ENDBRANCH  30  31
ENDBRANCH  29  30
ENDBRANCH   1  29
TORSDOF 15
ENDMDL
MODEL 2
REMARK VINA RESULT:     -12.2      3.760      8.269
REMARK SMILES COc1ccc(-c2ccc(S(=O)(=O)NC(C)(C)C)cc2)c(C(=O)NCCCNC(=O)c2ccc(-c3c4nc(c(-c5c(F)c(F)c(F)c(F)c5F)c5ccc([nH]5)c(-c5c(F)c(F)c(F)c(F)c5F)c5nc(c(-c6c(F)c(F)c(F)c(F)c6F)c6ccc3[nH]6)C=C5)C=C4)cc2)c1
REMARK SMILES IDX 25 1 24 2 22 3 23 4 21 6 3 7 4 8 94 9 5 10 6 11 2 12 1 13
REMARK SMILES IDX 7 14 8 15 20 16 9 17 19 18 10 19 11 20 12 21 13 22 14 23
REMARK SMILES IDX 15 25 16 26 17 27 18 28 26 29 27 30 28 31 29 32 30 34 31 35
REMARK SMILES IDX 32 36 93 37 33 38 92 39 34 40 35 41 36 42 86 43 37 44 91 45
REMARK SMILES IDX 85 46 87 47 38 48 90 49 84 50 83 51 39 53 71 54 51 55 70 56
REMARK SMILES IDX 52 57 55 58 69 59 88 60 53 61 54 62 68 64 89 65 56 66 40 67
REMARK SMILES IDX 41 68 49 69 42 70 43 71 47 72 50 73 44 74 45 75 48 76 46 77
REMARK SMILES IDX 72 78 73 79 81 80 74 81 75 82 79 83 82 84 76 85 77 86 80 87
REMARK SMILES IDX 78 88 57 89 58 90 66 91 59 92 60 93 64 94 67 95 61 96 62 97
REMARK SMILES IDX 65 98 63 99
REMARK H PARENT 24 5 14 24 28 33 87 52 55 63
REMARK Flexibility Score: inf
ROOT
ATOM      1  C   UNL A   1      36.906  20.817  24.471  1.00  0.00     0.118 C 
ENDROOT
BRANCH   1   2
ATOM      2  N   UNL A   1      35.977  21.331  25.470  1.00  0.00    -0.352 N 
ATOM      3  C   UNL A   1      34.654  21.065  25.760  1.00  0.00     0.252 C 
ATOM      4  O   UNL A   1      34.211  21.540  26.801  1.00  0.00    -0.269 OA
ATOM      5  H   UNL A   1      36.377  22.009  26.061  1.00  0.00     0.163 HD
BRANCH   3   6
ATOM      6  C   UNL A   1      33.780  20.271  24.844  1.00  0.00     0.051 A 
ATOM      7  C   UNL A   1      33.052  18.057  24.111  1.00  0.00     0.119 A 
ATOM      8  C   UNL A   1      32.363  18.640  23.056  1.00  0.00     0.047 A 
ATOM      9  C   UNL A   1      33.716  18.877  25.020  1.00  0.00     0.060 A 
ATOM     10  C   UNL A   1      32.298  20.030  22.946  1.00  0.00     0.013 A 
ATOM     11  C   UNL A   1      32.969  20.878  23.855  1.00  0.00    -0.005 A 
BRANCH   7  12
ATOM     12  O   UNL A   1      33.002  16.692  24.155  1.00  0.00    -0.497 OA
ATOM     13  C   UNL A   1      33.677  16.060  25.237  1.00  0.00     0.278 C 
ENDBRANCH   7  12
BRANCH  11  14
ATOM     14  C   UNL A   1      32.661  22.322  23.784  1.00  0.00    -0.018 A 
ATOM     15  C   UNL A   1      33.398  23.128  22.890  1.00  0.00     0.010 A 
ATOM     16  C   UNL A   1      31.657  22.936  24.548  1.00  0.00     0.010 A 
ATOM     17  C   UNL A   1      33.153  24.496  22.769  1.00  0.00     0.022 A 
ATOM     18  C   UNL A   1      31.373  24.301  24.397  1.00  0.00     0.022 A 
ATOM     19  C   UNL A   1      32.137  25.078  23.525  1.00  0.00     0.082 A 
BRANCH  19  20
ATOM     20  S   UNL A   1      31.876  26.821  23.359  1.00  0.00     0.241 S 
ATOM     21  O   UNL A   1      33.118  27.420  22.928  1.00  0.00    -0.207 OA
ATOM     22  O   UNL A   1      30.660  26.982  22.590  1.00  0.00    -0.207 OA
BRANCH  20  23
ATOM     23  N   UNL A   1      31.500  27.385  24.890  1.00  0.00    -0.206 NA
ATOM     24  H   UNL A   1      31.121  26.575  25.382  1.00  0.00     0.141 HD
BRANCH  23  25
ATOM     25  C   UNL A   1      32.420  28.021  25.857  1.00  0.00     0.025 C 
ATOM     26  C   UNL A   1      32.848  29.424  25.424  1.00  0.00     0.028 C 
ATOM     27  C   UNL A   1      31.627  28.141  27.174  1.00  0.00     0.028 C 
ATOM     28  C   UNL A   1      33.649  27.147  26.112  1.00  0.00     0.028 C 
ENDBRANCH  23  25
ENDBRANCH  20  23
ENDBRANCH  19  20
ENDBRANCH  11  14
ENDBRANCH   3   6
ENDBRANCH   1   2
BRANCH   1  29
ATOM     29  C   UNL A   1      37.820  19.699  24.950  1.00  0.00     0.042 C 
BRANCH  29  30
ATOM     30  C   UNL A   1      38.870  20.087  25.979  1.00  0.00     0.118 C 
BRANCH  30  31
ATOM     31  N   UNL A   1      40.027  19.205  25.994  1.00  0.00    -0.352 N 
ATOM     32  C   UNL A   1      41.373  19.444  26.124  1.00  0.00     0.251 C 
ATOM     33  H   UNL A   1      39.801  18.252  25.891  1.00  0.00     0.163 HD
ATOM     34  O   UNL A   1      42.155  18.512  25.950  1.00  0.00    -0.269 OA
BRANCH  32  35
ATOM     35  C   UNL A   1      41.914  20.788  26.435  1.00  0.00     0.039 A 
ATOM     36  C   UNL A   1      42.135  21.677  25.375  1.00  0.00     0.014 A 
ATOM     37  C   UNL A   1      42.276  21.171  27.727  1.00  0.00     0.014 A 
ATOM     38  C   UNL A   1      42.650  22.955  25.618  1.00  0.00     0.010 A 
ATOM     39  C   UNL A   1      42.697  22.477  27.983  1.00  0.00     0.010 A 
ATOM     40  C   UNL A   1      42.900  23.380  26.932  1.00  0.00    -0.014 A 
BRANCH  40  41
ATOM     41  C   UNL A   1      43.395  24.753  27.220  1.00  0.00     0.031 A 
ATOM     42  C   UNL A   1      42.465  25.795  27.781  1.00  0.00     0.074 A 
ATOM     43  C   UNL A   1      44.668  25.081  26.922  1.00  0.00     0.049 A 
ATOM     44  N   UNL A   1      42.689  27.063  28.028  1.00  0.00    -0.248 NA
ATOM     45  C   UNL A   1      41.088  25.365  28.076  1.00  0.00     0.031 C 
ATOM     46  C   UNL A   1      45.657  24.181  26.326  1.00  0.00     0.029 A 
ATOM     47  N   UNL A   1      45.346  26.266  27.071  1.00  0.00    -0.354 N 
ATOM     48  C   UNL A   1      41.482  27.581  28.479  1.00  0.00     0.074 A 
ATOM     49  C   UNL A   1      40.515  26.507  28.426  1.00  0.00     0.031 C 
ATOM     50  C   UNL A   1      46.821  24.835  26.188  1.00  0.00     0.029 A 
ATOM     51  C   UNL A   1      46.653  26.209  26.651  1.00  0.00     0.049 A 
ATOM     52  H   UNL A   1      44.936  27.079  27.445  1.00  0.00     0.167 HD
ATOM     53  C   UNL A   1      41.210  28.831  28.925  1.00  0.00     0.037 A 
ATOM     54  C   UNL A   1      47.608  27.159  26.641  1.00  0.00     0.037 A 
ATOM     55  C   UNL A   1      42.181  29.888  29.019  1.00  0.00     0.049 A 
ATOM     56  C   UNL A   1      47.287  28.530  27.167  1.00  0.00     0.074 A 
ATOM     57  C   UNL A   1      42.019  31.171  29.514  1.00  0.00     0.029 A 
ATOM     58  N   UNL A   1      43.505  29.779  28.618  1.00  0.00    -0.354 N 
ATOM     59  N   UNL A   1      46.157  28.990  27.646  1.00  0.00    -0.248 NA
ATOM     60  C   UNL A   1      48.379  29.514  27.158  1.00  0.00     0.031 C 
ATOM     61  C   UNL A   1      43.236  31.849  29.381  1.00  0.00     0.029 A 
ATOM     62  C   UNL A   1      44.167  30.976  28.843  1.00  0.00     0.049 A 
ATOM     63  H   UNL A   1      43.913  28.972  28.230  1.00  0.00     0.167 HD
ATOM     64  C   UNL A   1      46.407  30.303  28.020  1.00  0.00     0.074 A 
ATOM     65  C   UNL A   1      47.800  30.563  27.728  1.00  0.00     0.031 C 
ATOM     66  C   UNL A   1      45.558  31.213  28.556  1.00  0.00     0.037 A 
BRANCH  53  67
ATOM     67  C   UNL A   1      39.801  29.122  29.357  1.00  0.00     0.064 A 
ATOM     68  C   UNL A   1      38.820  29.524  28.438  1.00  0.00     0.173 A 
ATOM     69  C   UNL A   1      39.418  28.964  30.698  1.00  0.00     0.173 A 
ATOM     70  F   UNL A   1      39.137  29.701  27.146  1.00  0.00    -0.203 F 
ATOM     71  C   UNL A   1      37.516  29.784  28.849  1.00  0.00     0.198 A 
ATOM     72  C   UNL A   1      38.105  29.198  31.101  1.00  0.00     0.198 A 
ATOM     73  F   UNL A   1      40.316  28.578  31.617  1.00  0.00    -0.203 F 
ATOM     74  F   UNL A   1      36.608  30.213  27.961  1.00  0.00    -0.200 F 
ATOM     75  C   UNL A   1      37.157  29.614  30.178  1.00  0.00     0.200 A 
ATOM     76  F   UNL A   1      37.758  29.023  32.383  1.00  0.00    -0.200 F 
ATOM     77  F   UNL A   1      35.900  29.860  30.572  1.00  0.00    -0.200 F 
ENDBRANCH  53  67
BRANCH  54  78
ATOM     78  C   UNL A   1      48.972  26.834  26.150  1.00  0.00     0.064 A 
ATOM     79  C   UNL A   1      49.311  27.022  24.803  1.00  0.00     0.173 A 
ATOM     80  C   UNL A   1      49.959  26.326  27.006  1.00  0.00     0.173 A 
ATOM     81  F   UNL A   1      48.394  27.486  23.941  1.00  0.00    -0.203 F 
ATOM     82  C   UNL A   1      50.579  26.696  24.326  1.00  0.00     0.198 A 
ATOM     83  C   UNL A   1      51.235  26.025  26.534  1.00  0.00     0.198 A 
ATOM     84  F   UNL A   1      49.687  26.133  28.305  1.00  0.00    -0.203 F 
ATOM     85  F   UNL A   1      50.862  26.845  23.024  1.00  0.00    -0.200 F 
ATOM     86  C   UNL A   1      51.541  26.203  25.194  1.00  0.00     0.200 A 
ATOM     87  F   UNL A   1      52.166  25.561  27.378  1.00  0.00    -0.200 F 
ATOM     88  F   UNL A   1      52.762  25.891  24.736  1.00  0.00    -0.200 F 
ENDBRANCH  54  78
BRANCH  66  89
ATOM     89  C   UNL A   1      46.122  32.562  28.892  1.00  0.00     0.064 A 
ATOM     90  C   UNL A   1      46.696  32.827  30.143  1.00  0.00     0.173 A 
ATOM     91  C   UNL A   1      46.110  33.592  27.940  1.00  0.00     0.173 A 
ATOM     92  F   UNL A   1      46.716  31.878  31.092  1.00  0.00    -0.203 F 
ATOM     93  C   UNL A   1      47.218  34.083  30.438  1.00  0.00     0.198 A 
ATOM     94  C   UNL A   1      46.657  34.839  28.228  1.00  0.00     0.198 A 
ATOM     95  F   UNL A   1      45.575  33.385  26.727  1.00  0.00    -0.203 F 
ATOM     96  F   UNL A   1      47.721  34.329  31.655  1.00  0.00    -0.200 F 
ATOM     97  C   UNL A   1      47.203  35.086  29.479  1.00  0.00     0.200 A 
ATOM     98  F   UNL A   1      46.651  35.802  27.298  1.00  0.00    -0.200 F 
ATOM     99  F   UNL A   1      47.708  36.294  29.764  1.00  0.00    -0.200 F 
ENDBRANCH  66  89
ENDBRANCH  40  41
ENDBRANCH  32  35
ENDBRANCH  30  31
ENDBRANCH  29  30
ENDBRANCH   1  29
TORSDOF 15
ENDMDL
MODEL 3
REMARK VINA RESULT:     -12.2      2.873      4.322
REMARK SMILES COc1ccc(-c2ccc(S(=O)(=O)NC(C)(C)C)cc2)c(C(=O)NCCCNC(=O)c2ccc(-c3c4nc(c(-c5c(F)c(F)c(F)c(F)c5F)c5ccc([nH]5)c(-c5c(F)c(F)c(F)c(F)c5F)c5nc(c(-c6c(F)c(F)c(F)c(F)c6F)c6ccc3[nH]6)C=C5)C=C4)cc2)c1
REMARK SMILES IDX 25 1 24 2 22 3 23 4 21 6 3 7 4 8 94 9 5 10 6 11 2 12 1 13
REMARK SMILES IDX 7 14 8 15 20 16 9 17 19 18 10 19 11 20 12 21 13 22 14 23
REMARK SMILES IDX 15 25 16 26 17 27 18 28 26 29 27 30 28 31 29 32 30 34 31 35
REMARK SMILES IDX 32 36 93 37 33 38 92 39 34 40 35 41 36 42 86 43 37 44 91 45
REMARK SMILES IDX 85 46 87 47 38 48 90 49 84 50 83 51 39 53 71 54 51 55 70 56
REMARK SMILES IDX 52 57 55 58 69 59 88 60 53 61 54 62 68 64 89 65 56 66 40 67
REMARK SMILES IDX 41 68 49 69 42 70 43 71 47 72 50 73 44 74 45 75 48 76 46 77
REMARK SMILES IDX 72 78 73 79 81 80 74 81 75 82 79 83 82 84 76 85 77 86 80 87
REMARK SMILES IDX 78 88 57 89 58 90 66 91 59 92 60 93 64 94 67 95 61 96 62 97
REMARK SMILES IDX 65 98 63 99
REMARK H PARENT 24 5 14 24 28 33 87 52 55 63
REMARK Flexibility Score: inf
ROOT
ATOM      1  C   UNL A   1      31.870  30.043  25.625  1.00  0.00     0.118 C 
ENDROOT
BRANCH   1   2
ATOM      2  N   UNL A   1      32.470  29.431  24.446  1.00  0.00    -0.352 N 
ATOM      3  C   UNL A   1      31.974  29.069  23.210  1.00  0.00     0.252 C 
ATOM      4  O   UNL A   1      32.797  28.744  22.359  1.00  0.00    -0.269 OA
ATOM      5  H   UNL A   1      33.429  29.235  24.555  1.00  0.00     0.163 HD
BRANCH   3   6
ATOM      6  C   UNL A   1      30.510  29.035  22.915  1.00  0.00     0.051 A 
ATOM      7  C   UNL A   1      28.606  30.130  21.845  1.00  0.00     0.119 A 
ATOM      8  C   UNL A   1      27.749  29.227  22.460  1.00  0.00     0.047 A 
ATOM      9  C   UNL A   1      29.979  30.001  22.042  1.00  0.00     0.060 A 
ATOM     10  C   UNL A   1      28.267  28.176  23.217  1.00  0.00     0.013 A 
ATOM     11  C   UNL A   1      29.657  28.030  23.432  1.00  0.00    -0.005 A 
BRANCH   7  12
ATOM     12  O   UNL A   1      27.996  31.084  21.081  1.00  0.00    -0.497 OA
ATOM     13  C   UNL A   1      28.191  32.439  21.468  1.00  0.00     0.278 C 
ENDBRANCH   7  12
BRANCH  11  14
ATOM     14  C   UNL A   1      30.114  26.772  24.059  1.00  0.00    -0.018 A 
ATOM     15  C   UNL A   1      30.308  26.743  25.456  1.00  0.00     0.010 A 
ATOM     16  C   UNL A   1      30.352  25.592  23.338  1.00  0.00     0.010 A 
ATOM     17  C   UNL A   1      30.732  25.588  26.111  1.00  0.00     0.022 A 
ATOM     18  C   UNL A   1      30.732  24.413  23.995  1.00  0.00     0.022 A 
ATOM     19  C   UNL A   1      30.942  24.423  25.375  1.00  0.00     0.082 A 
BRANCH  19  20
ATOM     20  S   UNL A   1      31.503  22.985  26.242  1.00  0.00     0.241 S 
ATOM     21  O   UNL A   1      31.596  23.316  27.645  1.00  0.00    -0.207 OA
ATOM     22  O   UNL A   1      30.682  21.884  25.784  1.00  0.00    -0.207 OA
BRANCH  20  23
ATOM     23  N   UNL A   1      33.037  22.656  25.656  1.00  0.00    -0.206 NA
ATOM     24  H   UNL A   1      33.569  23.511  25.818  1.00  0.00     0.141 HD
BRANCH  23  25
ATOM     25  C   UNL A   1      33.938  21.562  26.080  1.00  0.00     0.025 C 
ATOM     26  C   UNL A   1      33.500  20.199  25.540  1.00  0.00     0.028 C 
ATOM     27  C   UNL A   1      35.318  21.900  25.482  1.00  0.00     0.028 C 
ATOM     28  C   UNL A   1      34.071  21.510  27.603  1.00  0.00     0.028 C 
ENDBRANCH  23  25
ENDBRANCH  20  23
ENDBRANCH  19  20
ENDBRANCH  11  14
ENDBRANCH   3   6
ENDBRANCH   1   2
BRANCH   1  29
ATOM     29  C   UNL A   1      32.710  31.120  26.296  1.00  0.00     0.042 C 
BRANCH  29  30
ATOM     30  C   UNL A   1      31.998  31.973  27.335  1.00  0.00     0.118 C 
BRANCH  30  31
ATOM     31  N   UNL A   1      32.414  33.368  27.328  1.00  0.00    -0.352 N 
ATOM     32  C   UNL A   1      33.491  34.015  27.880  1.00  0.00     0.251 C 
ATOM     33  H   UNL A   1      31.805  33.962  26.833  1.00  0.00     0.163 HD
ATOM     34  O   UNL A   1      33.521  35.243  27.846  1.00  0.00    -0.269 OA
BRANCH  32  35
ATOM     35  C   UNL A   1      34.602  33.288  28.540  1.00  0.00     0.039 A 
ATOM     36  C   UNL A   1      35.914  33.718  28.299  1.00  0.00     0.014 A 
ATOM     37  C   UNL A   1      34.395  32.155  29.328  1.00  0.00     0.014 A 
ATOM     38  C   UNL A   1      36.996  33.061  28.894  1.00  0.00     0.010 A 
ATOM     39  C   UNL A   1      35.463  31.558  29.999  1.00  0.00     0.010 A 
ATOM     40  C   UNL A   1      36.777  31.996  29.782  1.00  0.00    -0.014 A 
BRANCH  40  41
ATOM     41  C   UNL A   1      37.907  31.317  30.470  1.00  0.00     0.031 A 
ATOM     42  C   UNL A   1      38.246  31.659  31.896  1.00  0.00     0.074 A 
ATOM     43  C   UNL A   1      38.668  30.433  29.793  1.00  0.00     0.049 A 
ATOM     44  N   UNL A   1      39.237  31.231  32.640  1.00  0.00    -0.248 NA
ATOM     45  C   UNL A   1      37.375  32.637  32.568  1.00  0.00     0.031 C 
ATOM     46  C   UNL A   1      38.479  30.052  28.392  1.00  0.00     0.029 A 
ATOM     47  N   UNL A   1      39.759  29.702  30.191  1.00  0.00    -0.354 N 
ATOM     48  C   UNL A   1      39.120  31.904  33.850  1.00  0.00     0.074 A 
ATOM     49  C   UNL A   1      37.996  32.805  33.726  1.00  0.00     0.031 C 
ATOM     50  C   UNL A   1      39.403  29.137  28.057  1.00  0.00     0.029 A 
ATOM     51  C   UNL A   1      40.270  28.893  29.205  1.00  0.00     0.049 A 
ATOM     52  H   UNL A   1      40.140  29.751  31.098  1.00  0.00     0.167 HD
ATOM     53  C   UNL A   1      39.866  31.764  34.973  1.00  0.00     0.037 A 
ATOM     54  C   UNL A   1      41.319  28.048  29.225  1.00  0.00     0.037 A 
ATOM     55  C   UNL A   1      40.958  30.838  35.111  1.00  0.00     0.049 A 
ATOM     56  C   UNL A   1      42.113  27.892  30.493  1.00  0.00     0.074 A 
ATOM     57  C   UNL A   1      41.736  30.578  36.227  1.00  0.00     0.029 A 
ATOM     58  N   UNL A   1      41.420  30.009  34.099  1.00  0.00    -0.354 N 
ATOM     59  N   UNL A   1      41.956  28.491  31.647  1.00  0.00    -0.248 NA
ATOM     60  C   UNL A   1      43.227  26.934  30.461  1.00  0.00     0.031 C 
ATOM     61  C   UNL A   1      42.690  29.615  35.880  1.00  0.00     0.029 A 
ATOM     62  C   UNL A   1      42.480  29.245  34.562  1.00  0.00     0.049 A 
ATOM     63  H   UNL A   1      41.051  29.969  33.188  1.00  0.00     0.167 HD
ATOM     64  C   UNL A   1      42.928  27.965  32.486  1.00  0.00     0.074 A 
ATOM     65  C   UNL A   1      43.662  26.986  31.713  1.00  0.00     0.031 C 
ATOM     66  C   UNL A   1      43.192  28.267  33.781  1.00  0.00     0.037 A 
BRANCH  53  67
ATOM     67  C   UNL A   1      39.516  32.629  36.150  1.00  0.00     0.064 A 
ATOM     68  C   UNL A   1      38.558  32.230  37.094  1.00  0.00     0.173 A 
ATOM     69  C   UNL A   1      40.171  33.852  36.357  1.00  0.00     0.173 A 
ATOM     70  F   UNL A   1      37.894  31.075  36.935  1.00  0.00    -0.203 F 
ATOM     71  C   UNL A   1      38.248  33.037  38.185  1.00  0.00     0.198 A 
ATOM     72  C   UNL A   1      39.879  34.643  37.466  1.00  0.00     0.198 A 
ATOM     73  F   UNL A   1      41.100  34.278  35.488  1.00  0.00    -0.203 F 
ATOM     74  F   UNL A   1      37.293  32.657  39.047  1.00  0.00    -0.200 F 
ATOM     75  C   UNL A   1      38.913  34.239  38.374  1.00  0.00     0.200 A 
ATOM     76  F   UNL A   1      40.531  35.800  37.653  1.00  0.00    -0.200 F 
ATOM     77  F   UNL A   1      38.617  35.012  39.428  1.00  0.00    -0.200 F 
ENDBRANCH  53  67
BRANCH  54  78
ATOM     78  C   UNL A   1      41.657  27.256  28.014  1.00  0.00     0.064 A 
ATOM     79  C   UNL A   1      42.526  27.772  27.042  1.00  0.00     0.173 A 
ATOM     80  C   UNL A   1      41.122  25.979  27.799  1.00  0.00     0.173 A 
ATOM     81  F   UNL A   1      43.047  28.999  27.193  1.00  0.00    -0.203 F 
ATOM     82  C   UNL A   1      42.829  27.049  25.890  1.00  0.00     0.198 A 
ATOM     83  C   UNL A   1      41.446  25.246  26.660  1.00  0.00     0.198 A 
ATOM     84  F   UNL A   1      40.291  25.439  28.703  1.00  0.00    -0.203 F 
ATOM     85  F   UNL A   1      43.626  27.585  24.956  1.00  0.00    -0.200 F 
ATOM     86  C   UNL A   1      42.293  25.784  25.703  1.00  0.00     0.200 A 
ATOM     87  F   UNL A   1      40.937  24.019  26.489  1.00  0.00    -0.200 F 
ATOM     88  F   UNL A   1      42.586  25.087  24.597  1.00  0.00    -0.200 F 
ENDBRANCH  54  78
BRANCH  66  89
ATOM     89  C   UNL A   1      44.297  27.506  34.451  1.00  0.00     0.064 A 
ATOM     90  C   UNL A   1      44.066  26.273  35.076  1.00  0.00     0.173 A 
ATOM     91  C   UNL A   1      45.608  28.005  34.442  1.00  0.00     0.173 A 
ATOM     92  F   UNL A   1      42.826  25.762  35.124  1.00  0.00    -0.203 F 
ATOM     93  C   UNL A   1      45.104  25.578  35.690  1.00  0.00     0.198 A 
ATOM     94  C   UNL A   1      46.649  27.296  35.033  1.00  0.00     0.198 A 
ATOM     95  F   UNL A   1      45.880  29.180  33.851  1.00  0.00    -0.203 F 
ATOM     96  F   UNL A   1      44.854  24.424  36.323  1.00  0.00    -0.200 F 
ATOM     97  C   UNL A   1      46.395  26.087  35.663  1.00  0.00     0.200 A 
ATOM     98  F   UNL A   1      47.896  27.783  34.997  1.00  0.00    -0.200 F 
ATOM     99  F   UNL A   1      47.393  25.415  36.253  1.00  0.00    -0.200 F 
ENDBRANCH  66  89
ENDBRANCH  40  41
ENDBRANCH  32  35
ENDBRANCH  30  31
ENDBRANCH  29  30
ENDBRANCH   1  29
TORSDOF 15
ENDMDL
