MODEL 1
REMARK VINA RESULT:     -11.9      0.000      0.000
REMARK SMILES CC[C@](C)([NH2+]C[C@H]1Cc2ccccc2S1)C(=O)NCCCNC(=O)c1ccc(-c2c3nc(c(-c4c(F)c(F)c(F)c(F)c4F)c4ccc([nH]4)c(-c4c(F)c(F)c(F)c(F)c4F)c4nc(c(-c5c(F)c(F)c(F)c(F)c5F)c5ccc2[nH]5)C=C4)C=C3)cc1
REMARK SMILES IDX 19 1 18 2 16 3 17 4 3 6 4 7 2 8 1 9 5 10 6 13 7 14 8 15
REMARK SMILES IDX 15 16 9 17 14 18 10 19 13 20 11 21 12 22 20 23 21 24 22 25
REMARK SMILES IDX 23 26 24 28 25 29 26 30 87 31 27 32 86 33 28 34 29 35 30 36
REMARK SMILES IDX 80 37 31 38 85 39 79 40 81 41 32 42 84 43 78 44 77 45 33 47
REMARK SMILES IDX 65 48 45 49 64 50 46 51 49 52 63 53 82 54 47 55 48 56 62 58
REMARK SMILES IDX 83 59 50 60 34 61 35 62 43 63 36 64 37 65 41 66 44 67 38 68
REMARK SMILES IDX 39 69 42 70 40 71 66 72 67 73 75 74 68 75 69 76 73 77 76 78
REMARK SMILES IDX 70 79 71 80 74 81 72 82 51 83 52 84 60 85 53 86 54 87 58 88
REMARK SMILES IDX 61 89 55 90 56 91 59 92 57 93
REMARK H PARENT 18 5 5 11 5 12 22 27 81 46 49 57
REMARK Flexibility Score: inf
ROOT
ATOM      1  C   UNL A   1      31.364  30.761  26.497  1.00  0.00     0.118 C 
ENDROOT
BRANCH   1   2
ATOM      2  N   UNL A   1      31.968  30.268  25.275  1.00  0.00    -0.351 N 
ATOM      3  C   UNL A   1      32.834  29.254  25.004  1.00  0.00     0.281 C 
ATOM      4  O   UNL A   1      33.334  29.325  23.872  1.00  0.00    -0.268 OA
ATOM      5  H   UNL A   1      31.694  30.771  24.473  1.00  0.00     0.163 HD
BRANCH   3   6
ATOM      6  C   UNL A   1      33.142  28.039  25.959  1.00  0.00     0.172 C 
ATOM      7  C   UNL A   1      31.741  27.544  26.444  1.00  0.00     0.090 C 
BRANCH   6   8
ATOM      8  C   UNL A   1      33.956  28.433  27.211  1.00  0.00     0.075 C 
ATOM      9  C   UNL A   1      34.909  29.615  27.061  1.00  0.00     0.011 C 
ENDBRANCH   6   8
BRANCH   6  10
ATOM     10  N   UNL A   1      33.657  26.816  25.273  1.00  0.00    -0.333 N 
ATOM     11  H   UNL A   1      34.545  26.602  25.728  1.00  0.00     0.347 HD
ATOM     12  H   UNL A   1      33.616  27.118  24.299  1.00  0.00     0.347 HD
BRANCH  10  13
ATOM     13  C   UNL A   1      32.945  25.550  25.190  1.00  0.00     0.276 C 
BRANCH  13  14
ATOM     14  C   UNL A   1      32.292  25.117  23.844  1.00  0.00     0.111 C 
ATOM     15  C   UNL A   1      30.765  24.886  24.008  1.00  0.00     0.057 C 
ATOM     16  S   UNL A   1      32.419  26.338  22.490  1.00  0.00    -0.116 SA
ATOM     17  C   UNL A   1      30.058  26.156  23.619  1.00  0.00    -0.033 A 
ATOM     18  C   UNL A   1      30.823  27.014  22.829  1.00  0.00     0.011 A 
ATOM     19  C   UNL A   1      28.743  26.487  23.933  1.00  0.00     0.005 A 
ATOM     20  C   UNL A   1      30.328  28.239  22.403  1.00  0.00     0.015 A 
ATOM     21  C   UNL A   1      28.230  27.713  23.500  1.00  0.00     0.000 A 
ATOM     22  C   UNL A   1      29.024  28.593  22.752  1.00  0.00     0.001 A 
ENDBRANCH  13  14
ENDBRANCH  10  13
ENDBRANCH   6  10
ENDBRANCH   3   6
ENDBRANCH   1   2
BRANCH   1  23
ATOM     23  C   UNL A   1      31.403  32.289  26.516  1.00  0.00     0.042 C 
BRANCH  23  24
ATOM     24  C   UNL A   1      32.602  32.844  27.261  1.00  0.00     0.118 C 
BRANCH  24  25
ATOM     25  N   UNL A   1      32.411  34.240  27.636  1.00  0.00    -0.352 N 
ATOM     26  C   UNL A   1      33.017  34.995  28.616  1.00  0.00     0.251 C 
ATOM     27  H   UNL A   1      31.740  34.722  27.102  1.00  0.00     0.163 HD
ATOM     28  O   UNL A   1      32.559  36.091  28.912  1.00  0.00    -0.269 OA
BRANCH  26  29
ATOM     29  C   UNL A   1      34.199  34.474  29.346  1.00  0.00     0.039 A 
ATOM     30  C   UNL A   1      35.483  34.582  28.811  1.00  0.00     0.014 A 
ATOM     31  C   UNL A   1      34.021  33.866  30.593  1.00  0.00     0.014 A 
ATOM     32  C   UNL A   1      36.538  33.898  29.402  1.00  0.00     0.010 A 
ATOM     33  C   UNL A   1      35.111  33.283  31.250  1.00  0.00     0.010 A 
ATOM     34  C   UNL A   1      36.370  33.242  30.632  1.00  0.00    -0.014 A 
BRANCH  34  35
ATOM     35  C   UNL A   1      37.522  32.523  31.241  1.00  0.00     0.031 A 
ATOM     36  C   UNL A   1      37.988  32.854  32.635  1.00  0.00     0.074 A 
ATOM     37  C   UNL A   1      38.109  31.519  30.559  1.00  0.00     0.049 A 
ATOM     38  N   UNL A   1      38.988  32.348  33.314  1.00  0.00    -0.248 NA
ATOM     39  C   UNL A   1      37.242  33.893  33.362  1.00  0.00     0.031 C 
ATOM     40  C   UNL A   1      37.735  31.085  29.213  1.00  0.00     0.029 A 
ATOM     41  N   UNL A   1      39.119  30.660  30.914  1.00  0.00    -0.354 N 
ATOM     42  C   UNL A   1      39.007  33.023  34.528  1.00  0.00     0.074 A 
ATOM     43  C   UNL A   1      37.933  33.991  34.488  1.00  0.00     0.031 C 
ATOM     44  C   UNL A   1      38.452  30.001  28.884  1.00  0.00     0.029 A 
ATOM     45  C   UNL A   1      39.395  29.713  29.958  1.00  0.00     0.049 A 
ATOM     46  H   UNL A   1      39.600  30.718  31.772  1.00  0.00     0.167 HD
ATOM     47  C   UNL A   1      39.837  32.841  35.582  1.00  0.00     0.037 A 
ATOM     48  C   UNL A   1      40.318  28.734  29.936  1.00  0.00     0.037 A 
ATOM     49  C   UNL A   1      40.881  31.850  35.634  1.00  0.00     0.049 A 
ATOM     50  C   UNL A   1      41.249  28.581  31.102  1.00  0.00     0.074 A 
ATOM     51  C   UNL A   1      41.770  31.585  36.663  1.00  0.00     0.029 A 
ATOM     52  N   UNL A   1      41.170  30.952  34.617  1.00  0.00    -0.354 N 
ATOM     53  N   UNL A   1      41.278  29.249  32.228  1.00  0.00    -0.248 NA
ATOM     54  C   UNL A   1      42.290  27.551  30.986  1.00  0.00     0.031 C 
ATOM     55  C   UNL A   1      42.619  30.552  36.254  1.00  0.00     0.029 A 
ATOM     56  C   UNL A   1      42.232  30.143  34.988  1.00  0.00     0.049 A 
ATOM     57  H   UNL A   1      40.691  30.898  33.758  1.00  0.00     0.167 HD
ATOM     58  C   UNL A   1      42.333  28.723  32.957  1.00  0.00     0.074 A 
ATOM     59  C   UNL A   1      42.904  27.658  32.157  1.00  0.00     0.031 C 
ATOM     60  C   UNL A   1      42.792  29.093  34.177  1.00  0.00     0.037 A 
BRANCH  47  61
ATOM     61  C   UNL A   1      39.664  33.737  36.775  1.00  0.00     0.064 A 
ATOM     62  C   UNL A   1      40.261  35.004  36.837  1.00  0.00     0.173 A 
ATOM     63  C   UNL A   1      38.835  33.349  37.840  1.00  0.00     0.173 A 
ATOM     64  F   UNL A   1      41.074  35.416  35.852  1.00  0.00    -0.203 F 
ATOM     65  C   UNL A   1      40.045  35.845  37.926  1.00  0.00     0.198 A 
ATOM     66  C   UNL A   1      38.600  34.203  38.915  1.00  0.00     0.198 A 
ATOM     67  F   UNL A   1      38.235  32.150  37.829  1.00  0.00    -0.203 F 
ATOM     68  F   UNL A   1      40.653  37.039  37.980  1.00  0.00    -0.200 F 
ATOM     69  C   UNL A   1      39.208  35.449  38.958  1.00  0.00     0.200 A 
ATOM     70  F   UNL A   1      37.783  33.823  39.906  1.00  0.00    -0.200 F 
ATOM     71  F   UNL A   1      38.992  36.265  39.999  1.00  0.00    -0.200 F 
ENDBRANCH  47  61
BRANCH  48  72
ATOM     72  C   UNL A   1      40.401  27.832  28.758  1.00  0.00     0.064 A 
ATOM     73  C   UNL A   1      39.691  26.626  28.725  1.00  0.00     0.173 A 
ATOM     74  C   UNL A   1      41.162  28.175  27.630  1.00  0.00     0.173 A 
ATOM     75  F   UNL A   1      38.967  26.244  29.787  1.00  0.00    -0.203 F 
ATOM     76  C   UNL A   1      39.737  25.795  27.606  1.00  0.00     0.198 A 
ATOM     77  C   UNL A   1      41.185  27.359  26.502  1.00  0.00     0.198 A 
ATOM     78  F   UNL A   1      41.860  29.320  27.613  1.00  0.00    -0.203 F 
ATOM     79  F   UNL A   1      39.070  24.634  27.609  1.00  0.00    -0.200 F 
ATOM     80  C   UNL A   1      40.476  26.168  26.493  1.00  0.00     0.200 A 
ATOM     81  F   UNL A   1      41.885  27.732  25.423  1.00  0.00    -0.200 F 
ATOM     82  F   UNL A   1      40.505  25.378  25.411  1.00  0.00    -0.200 F 
ENDBRANCH  48  72
BRANCH  60  83
ATOM     83  C   UNL A   1      43.967  28.339  34.724  1.00  0.00     0.064 A 
ATOM     84  C   UNL A   1      43.797  27.164  35.470  1.00  0.00     0.173 A 
ATOM     85  C   UNL A   1      45.275  28.771  34.463  1.00  0.00     0.173 A 
ATOM     86  F   UNL A   1      42.564  26.720  35.758  1.00  0.00    -0.203 F 
ATOM     87  C   UNL A   1      44.896  26.457  35.950  1.00  0.00     0.198 A 
ATOM     88  C   UNL A   1      46.372  28.048  34.923  1.00  0.00     0.198 A 
ATOM     89  F   UNL A   1      45.490  29.887  33.750  1.00  0.00    -0.203 F 
ATOM     90  F   UNL A   1      44.709  25.358  36.692  1.00  0.00    -0.200 F 
ATOM     91  C   UNL A   1      46.181  26.895  35.670  1.00  0.00     0.200 A 
ATOM     92  F   UNL A   1      47.614  28.466  34.642  1.00  0.00    -0.200 F 
ATOM     93  F   UNL A   1      47.238  26.208  36.125  1.00  0.00    -0.200 F 
ENDBRANCH  60  83
ENDBRANCH  34  35
ENDBRANCH  26  29
ENDBRANCH  24  25
ENDBRANCH  23  24
ENDBRANCH   1  23
TORSDOF 14
ENDMDL
MODEL 2
REMARK VINA RESULT:     -11.8      1.017      1.979
REMARK SMILES CC[C@](C)([NH2+]C[C@H]1Cc2ccccc2S1)C(=O)NCCCNC(=O)c1ccc(-c2c3nc(c(-c4c(F)c(F)c(F)c(F)c4F)c4ccc([nH]4)c(-c4c(F)c(F)c(F)c(F)c4F)c4nc(c(-c5c(F)c(F)c(F)c(F)c5F)c5ccc2[nH]5)C=C4)C=C3)cc1
REMARK SMILES IDX 19 1 18 2 16 3 17 4 3 6 4 7 2 8 1 9 5 10 6 13 7 14 8 15
REMARK SMILES IDX 15 16 9 17 14 18 10 19 13 20 11 21 12 22 20 23 21 24 22 25
REMARK SMILES IDX 23 26 24 28 25 29 26 30 87 31 27 32 86 33 28 34 29 35 30 36
REMARK SMILES IDX 80 37 31 38 85 39 79 40 81 41 32 42 84 43 78 44 77 45 33 47
REMARK SMILES IDX 65 48 45 49 64 50 46 51 49 52 63 53 82 54 47 55 48 56 62 58
REMARK SMILES IDX 83 59 50 60 34 61 35 62 43 63 36 64 37 65 41 66 44 67 38 68
REMARK SMILES IDX 39 69 42 70 40 71 66 72 67 73 75 74 68 75 69 76 73 77 76 78
REMARK SMILES IDX 70 79 71 80 74 81 72 82 51 83 52 84 60 85 53 86 54 87 58 88
REMARK SMILES IDX 61 89 55 90 56 91 59 92 57 93
REMARK H PARENT 18 5 5 11 5 12 22 27 81 46 49 57
REMARK Flexibility Score: inf
ROOT
ATOM      1  C   UNL A   1      31.700  30.571  26.148  1.00  0.00     0.118 C 
ENDROOT
BRANCH   1   2
ATOM      2  N   UNL A   1      31.013  30.280  24.905  1.00  0.00    -0.351 N 
ATOM      3  C   UNL A   1      31.086  29.252  24.016  1.00  0.00     0.281 C 
ATOM      4  O   UNL A   1      30.539  29.503  22.932  1.00  0.00    -0.268 OA
ATOM      5  H   UNL A   1      30.355  30.968  24.652  1.00  0.00     0.163 HD
BRANCH   3   6
ATOM      6  C   UNL A   1      31.713  27.837  24.308  1.00  0.00     0.172 C 
ATOM      7  C   UNL A   1      31.052  27.373  25.646  1.00  0.00     0.090 C 
BRANCH   6   8
ATOM      8  C   UNL A   1      33.241  27.876  24.532  1.00  0.00     0.075 C 
ATOM      9  C   UNL A   1      33.739  27.452  25.910  1.00  0.00     0.011 C 
ENDBRANCH   6   8
BRANCH   6  10
ATOM     10  N   UNL A   1      31.275  26.753  23.380  1.00  0.00    -0.333 N 
ATOM     11  H   UNL A   1      32.129  26.269  23.102  1.00  0.00     0.347 HD
ATOM     12  H   UNL A   1      30.726  27.292  22.710  1.00  0.00     0.347 HD
BRANCH  10  13
ATOM     13  C   UNL A   1      30.325  25.704  23.719  1.00  0.00     0.276 C 
BRANCH  13  14
ATOM     14  C   UNL A   1      30.761  24.210  23.639  1.00  0.00     0.111 C 
ATOM     15  C   UNL A   1      32.133  24.061  22.928  1.00  0.00     0.057 C 
ATOM     16  S   UNL A   1      30.999  23.383  25.252  1.00  0.00    -0.116 SA
ATOM     17  C   UNL A   1      33.204  24.025  23.984  1.00  0.00    -0.033 A 
ATOM     18  C   UNL A   1      32.737  23.692  25.255  1.00  0.00     0.011 A 
ATOM     19  C   UNL A   1      34.563  24.237  23.775  1.00  0.00     0.005 A 
ATOM     20  C   UNL A   1      33.591  23.638  26.348  1.00  0.00     0.015 A 
ATOM     21  C   UNL A   1      35.435  24.173  24.866  1.00  0.00     0.000 A 
ATOM     22  C   UNL A   1      34.950  23.892  26.150  1.00  0.00     0.001 A 
ENDBRANCH  13  14
ENDBRANCH  10  13
ENDBRANCH   6  10
ENDBRANCH   3   6
ENDBRANCH   1   2
BRANCH   1  23
ATOM     23  C   UNL A   1      31.483  32.035  26.531  1.00  0.00     0.042 C 
BRANCH  23  24
ATOM     24  C   UNL A   1      32.687  32.656  27.213  1.00  0.00     0.118 C 
BRANCH  24  25
ATOM     25  N   UNL A   1      32.438  34.038  27.604  1.00  0.00    -0.352 N 
ATOM     26  C   UNL A   1      33.007  34.805  28.597  1.00  0.00     0.251 C 
ATOM     27  H   UNL A   1      31.751  34.500  27.070  1.00  0.00     0.163 HD
ATOM     28  O   UNL A   1      32.503  35.878  28.903  1.00  0.00    -0.269 OA
BRANCH  26  29
ATOM     29  C   UNL A   1      34.204  34.323  29.329  1.00  0.00     0.039 A 
ATOM     30  C   UNL A   1      35.490  34.560  28.845  1.00  0.00     0.014 A 
ATOM     31  C   UNL A   1      34.037  33.621  30.527  1.00  0.00     0.014 A 
ATOM     32  C   UNL A   1      36.577  33.916  29.423  1.00  0.00     0.010 A 
ATOM     33  C   UNL A   1      35.149  33.075  31.179  1.00  0.00     0.010 A 
ATOM     34  C   UNL A   1      36.424  33.168  30.601  1.00  0.00    -0.014 A 
BRANCH  34  35
ATOM     35  C   UNL A   1      37.609  32.494  31.198  1.00  0.00     0.031 A 
ATOM     36  C   UNL A   1      38.072  32.839  32.590  1.00  0.00     0.074 A 
ATOM     37  C   UNL A   1      38.232  31.518  30.508  1.00  0.00     0.049 A 
ATOM     38  N   UNL A   1      39.098  32.372  33.259  1.00  0.00    -0.248 NA
ATOM     39  C   UNL A   1      37.289  33.844  33.327  1.00  0.00     0.031 C 
ATOM     40  C   UNL A   1      37.866  31.074  29.163  1.00  0.00     0.029 A 
ATOM     41  N   UNL A   1      39.280  30.700  30.852  1.00  0.00    -0.354 N 
ATOM     42  C   UNL A   1      39.098  33.043  34.476  1.00  0.00     0.074 A 
ATOM     43  C   UNL A   1      37.985  33.966  34.449  1.00  0.00     0.031 C 
ATOM     44  C   UNL A   1      38.624  30.022  28.824  1.00  0.00     0.029 A 
ATOM     45  C   UNL A   1      39.587  29.769  29.890  1.00  0.00     0.049 A 
ATOM     46  H   UNL A   1      39.764  30.774  31.706  1.00  0.00     0.167 HD
ATOM     47  C   UNL A   1      39.942  32.891  35.524  1.00  0.00     0.037 A 
ATOM     48  C   UNL A   1      40.549  28.829  29.857  1.00  0.00     0.037 A 
ATOM     49  C   UNL A   1      41.027  31.944  35.563  1.00  0.00     0.049 A 
ATOM     50  C   UNL A   1      41.495  28.710  31.015  1.00  0.00     0.074 A 
ATOM     51  C   UNL A   1      41.933  31.713  36.584  1.00  0.00     0.029 A 
ATOM     52  N   UNL A   1      41.345  31.063  34.541  1.00  0.00    -0.354 N 
ATOM     53  N   UNL A   1      41.504  29.375  32.144  1.00  0.00    -0.248 NA
ATOM     54  C   UNL A   1      42.576  27.724  30.888  1.00  0.00     0.031 C 
ATOM     55  C   UNL A   1      42.822  30.717  36.165  1.00  0.00     0.029 A 
ATOM     56  C   UNL A   1      42.442  30.296  34.900  1.00  0.00     0.049 A 
ATOM     57  H   UNL A   1      40.862  30.992  33.685  1.00  0.00     0.167 HD
ATOM     58  C   UNL A   1      42.586  28.889  32.863  1.00  0.00     0.074 A 
ATOM     59  C   UNL A   1      43.194  27.852  32.054  1.00  0.00     0.031 C 
ATOM     60  C   UNL A   1      43.039  29.274  34.081  1.00  0.00     0.037 A 
BRANCH  47  61
ATOM     61  C   UNL A   1      39.742  33.775  36.721  1.00  0.00     0.064 A 
ATOM     62  C   UNL A   1      40.320  35.050  36.801  1.00  0.00     0.173 A 
ATOM     63  C   UNL A   1      38.905  33.367  37.772  1.00  0.00     0.173 A 
ATOM     64  F   UNL A   1      41.140  35.481  35.830  1.00  0.00    -0.203 F 
ATOM     65  C   UNL A   1      40.079  35.879  37.894  1.00  0.00     0.198 A 
ATOM     66  C   UNL A   1      38.645  34.209  38.851  1.00  0.00     0.198 A 
ATOM     67  F   UNL A   1      38.323  32.159  37.744  1.00  0.00    -0.203 F 
ATOM     68  F   UNL A   1      40.669  37.080  37.965  1.00  0.00    -0.200 F 
ATOM     69  C   UNL A   1      39.235  35.462  38.912  1.00  0.00     0.200 A 
ATOM     70  F   UNL A   1      37.820  33.809  39.828  1.00  0.00    -0.200 F 
ATOM     71  F   UNL A   1      38.993  36.267  39.956  1.00  0.00    -0.200 F 
ENDBRANCH  47  61
BRANCH  48  72
ATOM     72  C   UNL A   1      40.660  27.936  28.675  1.00  0.00     0.064 A 
ATOM     73  C   UNL A   1      39.944  26.734  28.612  1.00  0.00     0.173 A 
ATOM     74  C   UNL A   1      41.455  28.282  27.572  1.00  0.00     0.173 A 
ATOM     75  F   UNL A   1      39.188  26.348  29.650  1.00  0.00    -0.203 F 
ATOM     76  C   UNL A   1      40.018  25.911  27.488  1.00  0.00     0.198 A 
ATOM     77  C   UNL A   1      41.504  27.475  26.439  1.00  0.00     0.198 A 
ATOM     78  F   UNL A   1      42.159  29.424  27.583  1.00  0.00    -0.203 F 
ATOM     79  F   UNL A   1      39.344  24.754  27.464  1.00  0.00    -0.200 F 
ATOM     80  C   UNL A   1      40.789  26.288  26.400  1.00  0.00     0.200 A 
ATOM     81  F   UNL A   1      42.238  27.853  25.382  1.00  0.00    -0.200 F 
ATOM     82  F   UNL A   1      40.845  25.507  25.313  1.00  0.00    -0.200 F 
ENDBRANCH  48  72
BRANCH  60  83
ATOM     83  C   UNL A   1      44.248  28.567  34.616  1.00  0.00     0.064 A 
ATOM     84  C   UNL A   1      44.133  27.378  35.351  1.00  0.00     0.173 A 
ATOM     85  C   UNL A   1      45.535  29.058  34.354  1.00  0.00     0.173 A 
ATOM     86  F   UNL A   1      42.922  26.878  35.640  1.00  0.00    -0.203 F 
ATOM     87  C   UNL A   1      45.263  26.716  35.820  1.00  0.00     0.198 A 
ATOM     88  C   UNL A   1      46.664  28.380  34.803  1.00  0.00     0.198 A 
ATOM     89  F   UNL A   1      45.697  30.189  33.651  1.00  0.00    -0.203 F 
ATOM     90  F   UNL A   1      45.129  25.603  36.553  1.00  0.00    -0.200 F 
ATOM     91  C   UNL A   1      46.527  27.213  35.539  1.00  0.00     0.200 A 
ATOM     92  F   UNL A   1      47.885  28.854  34.520  1.00  0.00    -0.200 F 
ATOM     93  F   UNL A   1      47.615  26.568  35.984  1.00  0.00    -0.200 F 
ENDBRANCH  60  83
ENDBRANCH  34  35
ENDBRANCH  26  29
ENDBRANCH  24  25
ENDBRANCH  23  24
ENDBRANCH   1  23
TORSDOF 14
ENDMDL
MODEL 3
REMARK VINA RESULT:     -11.8      5.761     10.947
REMARK SMILES CC[C@](C)([NH2+]C[C@H]1Cc2ccccc2S1)C(=O)NCCCNC(=O)c1ccc(-c2c3nc(c(-c4c(F)c(F)c(F)c(F)c4F)c4ccc([nH]4)c(-c4c(F)c(F)c(F)c(F)c4F)c4nc(c(-c5c(F)c(F)c(F)c(F)c5F)c5ccc2[nH]5)C=C4)C=C3)cc1
REMARK SMILES IDX 19 1 18 2 16 3 17 4 3 6 4 7 2 8 1 9 5 10 6 13 7 14 8 15
REMARK SMILES IDX 15 16 9 17 14 18 10 19 13 20 11 21 12 22 20 23 21 24 22 25
REMARK SMILES IDX 23 26 24 28 25 29 26 30 87 31 27 32 86 33 28 34 29 35 30 36
REMARK SMILES IDX 80 37 31 38 85 39 79 40 81 41 32 42 84 43 78 44 77 45 33 47
REMARK SMILES IDX 65 48 45 49 64 50 46 51 49 52 63 53 82 54 47 55 48 56 62 58
REMARK SMILES IDX 83 59 50 60 34 61 35 62 43 63 36 64 37 65 41 66 44 67 38 68
REMARK SMILES IDX 39 69 42 70 40 71 66 72 67 73 75 74 68 75 69 76 73 77 76 78
REMARK SMILES IDX 70 79 71 80 74 81 72 82 51 83 52 84 60 85 53 86 54 87 58 88
REMARK SMILES IDX 61 89 55 90 56 91 59 92 57 93
REMARK H PARENT 18 5 5 11 5 12 22 27 81 46 49 57
REMARK Flexibility Score: inf
ROOT
ATOM      1  C   UNL A   1      36.617  20.705  25.003  1.00  0.00     0.118 C 
ENDROOT
BRANCH   1   2
ATOM      2  N   UNL A   1      35.367  19.975  25.059  1.00  0.00    -0.351 N 
ATOM      3  C   UNL A   1      34.063  20.358  25.138  1.00  0.00     0.281 C 
ATOM      4  O   UNL A   1      33.298  19.433  25.446  1.00  0.00    -0.268 OA
ATOM      5  H   UNL A   1      35.484  18.997  25.033  1.00  0.00     0.163 HD
BRANCH   3   6
ATOM      6  C   UNL A   1      33.514  21.795  24.798  1.00  0.00     0.172 C 
ATOM      7  C   UNL A   1      31.968  21.695  25.010  1.00  0.00     0.090 C 
BRANCH   6   8
ATOM      8  C   UNL A   1      33.756  22.214  23.331  1.00  0.00     0.075 C 
ATOM      9  C   UNL A   1      32.516  22.430  22.469  1.00  0.00     0.011 C 
ENDBRANCH   6   8
BRANCH   6  10
ATOM     10  N   UNL A   1      33.872  22.855  25.787  1.00  0.00    -0.333 N 
ATOM     11  H   UNL A   1      34.490  23.495  25.289  1.00  0.00     0.347 HD
ATOM     12  H   UNL A   1      34.209  22.281  26.560  1.00  0.00     0.347 HD
BRANCH  10  13
ATOM     13  C   UNL A   1      32.912  23.700  26.481  1.00  0.00     0.276 C 
BRANCH  13  14
ATOM     14  C   UNL A   1      32.984  25.247  26.318  1.00  0.00     0.111 C 
ATOM     15  C   UNL A   1      33.998  25.651  25.214  1.00  0.00     0.057 C 
ATOM     16  S   UNL A   1      31.421  26.048  25.808  1.00  0.00    -0.116 SA
ATOM     17  C   UNL A   1      33.238  25.833  23.928  1.00  0.00    -0.033 A 
ATOM     18  C   UNL A   1      31.869  26.038  24.100  1.00  0.00     0.011 A 
ATOM     19  C   UNL A   1      33.790  25.862  22.651  1.00  0.00     0.005 A 
ATOM     20  C   UNL A   1      31.020  26.199  23.015  1.00  0.00     0.015 A 
ATOM     21  C   UNL A   1      32.946  26.036  21.550  1.00  0.00     0.000 A 
ATOM     22  C   UNL A   1      31.565  26.187  21.730  1.00  0.00     0.001 A 
ENDBRANCH  13  14
ENDBRANCH  10  13
ENDBRANCH   6  10
ENDBRANCH   3   6
ENDBRANCH   1   2
BRANCH   1  23
ATOM     23  C   UNL A   1      37.791  19.726  24.980  1.00  0.00     0.042 C 
BRANCH  23  24
ATOM     24  C   UNL A   1      39.012  20.244  25.715  1.00  0.00     0.118 C 
BRANCH  24  25
ATOM     25  N   UNL A   1      40.038  19.217  25.855  1.00  0.00    -0.352 N 
ATOM     26  C   UNL A   1      41.397  19.330  26.053  1.00  0.00     0.251 C 
ATOM     27  H   UNL A   1      39.706  18.292  25.800  1.00  0.00     0.163 HD
ATOM     28  O   UNL A   1      42.115  18.346  25.927  1.00  0.00    -0.269 OA
BRANCH  26  29
ATOM     29  C   UNL A   1      42.004  20.643  26.380  1.00  0.00     0.039 A 
ATOM     30  C   UNL A   1      42.319  20.986  27.695  1.00  0.00     0.014 A 
ATOM     31  C   UNL A   1      42.268  21.551  25.349  1.00  0.00     0.014 A 
ATOM     32  C   UNL A   1      42.679  22.293  28.001  1.00  0.00     0.010 A 
ATOM     33  C   UNL A   1      42.750  22.830  25.649  1.00  0.00     0.010 A 
ATOM     34  C   UNL A   1      42.904  23.233  26.985  1.00  0.00    -0.014 A 
BRANCH  34  35
ATOM     35  C   UNL A   1      43.293  24.623  27.347  1.00  0.00     0.031 A 
ATOM     36  C   UNL A   1      44.681  25.135  27.060  1.00  0.00     0.074 A 
ATOM     37  C   UNL A   1      42.371  25.451  27.876  1.00  0.00     0.049 A 
ATOM     38  N   UNL A   1      45.202  26.307  27.329  1.00  0.00    -0.248 NA
ATOM     39  C   UNL A   1      45.610  24.211  26.390  1.00  0.00     0.031 C 
ATOM     40  C   UNL A   1      40.986  25.084  28.179  1.00  0.00     0.029 A 
ATOM     41  N   UNL A   1      42.444  26.777  28.223  1.00  0.00    -0.354 N 
ATOM     42  C   UNL A   1      46.518  26.251  26.889  1.00  0.00     0.074 A 
ATOM     43  C   UNL A   1      46.728  24.923  26.355  1.00  0.00     0.031 C 
ATOM     44  C   UNL A   1      40.323  26.172  28.597  1.00  0.00     0.029 A 
ATOM     45  C   UNL A   1      41.253  27.293  28.673  1.00  0.00     0.049 A 
ATOM     46  H   UNL A   1      43.271  27.308  28.155  1.00  0.00     0.167 HD
ATOM     47  C   UNL A   1      47.460  27.224  26.918  1.00  0.00     0.037 A 
ATOM     48  C   UNL A   1      40.945  28.525  29.117  1.00  0.00     0.037 A 
ATOM     49  C   UNL A   1      47.237  28.557  27.416  1.00  0.00     0.049 A 
ATOM     50  C   UNL A   1      42.019  29.571  29.175  1.00  0.00     0.074 A 
ATOM     51  C   UNL A   1      48.130  29.614  27.480  1.00  0.00     0.029 A 
ATOM     52  N   UNL A   1      46.033  29.020  27.923  1.00  0.00    -0.354 N 
ATOM     53  N   UNL A   1      43.268  29.493  28.789  1.00  0.00    -0.248 NA
ATOM     54  C   UNL A   1      41.646  30.872  29.748  1.00  0.00     0.031 C 
ATOM     55  C   UNL A   1      47.475  30.706  28.060  1.00  0.00     0.029 A 
ATOM     56  C   UNL A   1      46.163  30.343  28.316  1.00  0.00     0.049 A 
ATOM     57  H   UNL A   1      45.208  28.488  27.994  1.00  0.00     0.167 HD
ATOM     58  C   UNL A   1      43.831  30.729  29.067  1.00  0.00     0.074 A 
ATOM     59  C   UNL A   1      42.778  31.551  29.630  1.00  0.00     0.031 C 
ATOM     60  C   UNL A   1      45.107  31.144  28.881  1.00  0.00     0.037 A 
BRANCH  47  61
ATOM     61  C   UNL A   1      48.832  26.889  26.406  1.00  0.00     0.064 A 
ATOM     62  C   UNL A   1      49.811  26.328  27.237  1.00  0.00     0.173 A 
ATOM     63  C   UNL A   1      49.146  27.068  25.050  1.00  0.00     0.173 A 
ATOM     64  F   UNL A   1      49.566  26.149  28.544  1.00  0.00    -0.203 F 
ATOM     65  C   UNL A   1      51.060  25.971  26.733  1.00  0.00     0.198 A 
ATOM     66  C   UNL A   1      50.387  26.687  24.544  1.00  0.00     0.198 A 
ATOM     67  F   UNL A   1      48.244  27.596  24.210  1.00  0.00    -0.203 F 
ATOM     68  F   UNL A   1      51.994  25.468  27.554  1.00  0.00    -0.200 F 
ATOM     69  C   UNL A   1      51.343  26.142  25.387  1.00  0.00     0.200 A 
ATOM     70  F   UNL A   1      50.654  26.842  23.240  1.00  0.00    -0.200 F 
ATOM     71  F   UNL A   1      52.541  25.786  24.901  1.00  0.00    -0.200 F 
ENDBRANCH  47  61
BRANCH  48  72
ATOM     72  C   UNL A   1      39.555  28.822  29.549  1.00  0.00     0.064 A 
ATOM     73  C   UNL A   1      39.140  28.567  30.862  1.00  0.00     0.173 A 
ATOM     74  C   UNL A   1      38.625  29.398  28.669  1.00  0.00     0.173 A 
ATOM     75  F   UNL A   1      39.985  27.997  31.734  1.00  0.00    -0.203 F 
ATOM     76  C   UNL A   1      37.846  28.878  31.280  1.00  0.00     0.198 A 
ATOM     77  C   UNL A   1      37.344  29.735  29.096  1.00  0.00     0.198 A 
ATOM     78  F   UNL A   1      38.975  29.662  27.401  1.00  0.00    -0.203 F 
ATOM     79  F   UNL A   1      37.466  28.600  32.534  1.00  0.00    -0.200 F 
ATOM     80  C   UNL A   1      36.954  29.471  30.400  1.00  0.00     0.200 A 
ATOM     81  F   UNL A   1      36.491  30.324  28.246  1.00  0.00    -0.200 F 
ATOM     82  F   UNL A   1      35.717  29.787  30.808  1.00  0.00    -0.200 F 
ENDBRANCH  48  72
BRANCH  60  83
ATOM     83  C   UNL A   1      45.437  32.550  29.284  1.00  0.00     0.064 A 
ATOM     84  C   UNL A   1      45.948  32.843  30.557  1.00  0.00     0.173 A 
ATOM     85  C   UNL A   1      45.284  33.607  28.376  1.00  0.00     0.173 A 
ATOM     86  F   UNL A   1      46.098  31.866  31.465  1.00  0.00    -0.203 F 
ATOM     87  C   UNL A   1      46.277  34.147  30.911  1.00  0.00     0.198 A 
ATOM     88  C   UNL A   1      45.638  34.907  28.725  1.00  0.00     0.198 A 
ATOM     89  F   UNL A   1      44.804  33.376  27.144  1.00  0.00    -0.203 F 
ATOM     90  F   UNL A   1      46.728  34.410  32.146  1.00  0.00    -0.200 F 
ATOM     91  C   UNL A   1      46.129  35.176  29.994  1.00  0.00     0.200 A 
ATOM     92  F   UNL A   1      45.506  35.898  27.833  1.00  0.00    -0.200 F 
ATOM     93  F   UNL A   1      46.455  36.431  30.334  1.00  0.00    -0.200 F 
ENDBRANCH  60  83
ENDBRANCH  34  35
ENDBRANCH  26  29
ENDBRANCH  24  25
ENDBRANCH  23  24
ENDBRANCH   1  23
TORSDOF 14
ENDMDL
