MODEL 1
REMARK VINA RESULT:     -13.4      0.000      0.000
REMARK SMILES CCCCn1c(C[N@H+]2C[C@H]3C(=O)NC[C@@]3(C(=O)NCCCNC(=O)c3ccc(-c4c5nc(c(-c6c(F)c(F)c(F)c(F)c6F)c6ccc([nH]6)c(-c6c(F)c(F)c(F)c(F)c6F)c6nc(c(-c7c(F)c(F)c(F)c(F)c7F)c7ccc4[nH]7)C=C6)C=C5)cc3)C2)nc2ccccc21
REMARK SMILES IDX 16 1 17 2 18 3 15 5 8 6 9 7 88 8 10 10 11 11 14 12 12 13
REMARK SMILES IDX 13 14 7 16 6 17 5 18 95 19 89 20 90 21 94 22 91 23 93 24
REMARK SMILES IDX 92 25 4 26 3 27 2 28 1 29 19 30 20 31 21 32 22 33 23 34
REMARK SMILES IDX 24 36 25 37 26 38 87 39 27 40 86 41 28 42 29 43 30 44 80 45
REMARK SMILES IDX 31 46 85 47 79 48 81 49 32 50 84 51 78 52 77 53 33 55 65 56
REMARK SMILES IDX 45 57 64 58 46 59 49 60 63 61 82 62 47 63 48 64 62 66 83 67
REMARK SMILES IDX 50 68 34 69 35 70 43 71 36 72 37 73 41 74 44 75 38 76 39 77
REMARK SMILES IDX 42 78 40 79 66 80 67 81 75 82 68 83 69 84 73 85 76 86 70 87
REMARK SMILES IDX 71 88 74 89 72 90 51 91 52 92 60 93 53 94 54 95 58 96 61 97
REMARK SMILES IDX 55 98 56 99 59 100 57 101
REMARK H PARENT 18 4 8 9 13 15 22 35 81 54 49 65
REMARK Flexibility Score: inf
ROOT
ATOM      1  C   UNL A   1      42.108  23.272  27.981  1.00  0.00     0.234 C 
ATOM      2  O   UNL A   1      42.080  23.346  29.210  1.00  0.00    -0.274 OA
ATOM      3  N   UNL A   1      42.333  24.433  27.255  1.00  0.00    -0.355 N 
ATOM      4  H   UNL A   1      42.773  25.179  27.723  1.00  0.00     0.163 HD
ENDROOT
BRANCH   1   5
ATOM      5  C   UNL A   1      41.894  21.963  27.120  1.00  0.00     0.132 C 
ATOM      6  N   UNL A   1      39.502  21.453  26.605  1.00  0.00    -0.327 N 
ATOM      7  C   UNL A   1      40.308  20.373  26.090  1.00  0.00     0.277 C 
ATOM      8  C   UNL A   1      40.407  22.061  27.540  1.00  0.00     0.282 C 
ATOM      9  H   UNL A   1      38.623  21.057  26.939  1.00  0.00     0.348 HD
ATOM     10  C   UNL A   1      41.645  20.457  26.784  1.00  0.00     0.156 C 
ATOM     11  C   UNL A   1      42.777  20.166  25.815  1.00  0.00     0.230 C 
ATOM     12  C   UNL A   1      43.374  21.632  27.466  1.00  0.00     0.139 C 
ATOM     13  O   UNL A   1      42.771  19.486  24.806  1.00  0.00    -0.275 OA
ATOM     14  N   UNL A   1      43.832  20.867  26.342  1.00  0.00    -0.354 N 
ATOM     15  H   UNL A   1      44.757  20.848  26.004  1.00  0.00     0.163 HD
BRANCH   6  16
ATOM     16  C   UNL A   1      38.490  22.324  25.838  1.00  0.00     0.339 C 
BRANCH  16  17
ATOM     17  C   UNL A   1      36.996  21.956  25.432  1.00  0.00     0.165 A 
ATOM     18  N   UNL A   1      35.900  22.672  24.962  1.00  0.00    -0.323 N 
ATOM     19  C   UNL A   1      34.875  21.768  24.644  1.00  0.00     0.068 A 
ATOM     20  N   UNL A   1      36.582  20.727  25.407  1.00  0.00    -0.227 NA
ATOM     21  C   UNL A   1      35.374  20.540  24.940  1.00  0.00     0.089 A 
ATOM     22  C   UNL A   1      33.563  21.823  24.206  1.00  0.00     0.028 A 
ATOM     23  C   UNL A   1      34.670  19.350  24.835  1.00  0.00     0.030 A 
ATOM     24  C   UNL A   1      32.871  20.594  24.025  1.00  0.00     0.002 A 
ATOM     25  C   UNL A   1      33.421  19.357  24.302  1.00  0.00     0.002 A 
BRANCH  18  26
ATOM     26  C   UNL A   1      35.759  24.106  24.868  1.00  0.00     0.124 C 
BRANCH  26  27
ATOM     27  C   UNL A   1      34.768  24.716  25.851  1.00  0.00     0.022 C 
BRANCH  27  28
ATOM     28  C   UNL A   1      34.015  25.835  25.227  1.00  0.00    -0.002 C 
ATOM     29  C   UNL A   1      33.255  26.827  26.111  1.00  0.00     0.004 C 
ENDBRANCH  27  28
ENDBRANCH  26  27
ENDBRANCH  18  26
ENDBRANCH  16  17
ENDBRANCH   6  16
ENDBRANCH   1   5
BRANCH   3  30
ATOM     30  C   UNL A   1      41.973  24.639  25.867  1.00  0.00     0.117 C 
BRANCH  30  31
ATOM     31  C   UNL A   1      40.828  25.822  25.781  1.00  0.00     0.042 C 
BRANCH  31  32
ATOM     32  C   UNL A   1      41.431  27.109  26.195  1.00  0.00     0.118 C 
BRANCH  32  33
ATOM     33  N   UNL A   1      40.465  28.136  26.540  1.00  0.00    -0.352 N 
ATOM     34  C   UNL A   1      39.952  28.608  27.749  1.00  0.00     0.251 C 
ATOM     35  H   UNL A   1      40.092  28.599  25.755  1.00  0.00     0.163 HD
ATOM     36  O   UNL A   1      39.085  29.485  27.740  1.00  0.00    -0.269 OA
BRANCH  34  37
ATOM     37  C   UNL A   1      40.266  28.052  29.099  1.00  0.00     0.039 A 
ATOM     38  C   UNL A   1      39.396  27.222  29.670  1.00  0.00     0.014 A 
ATOM     39  C   UNL A   1      40.859  28.925  30.074  1.00  0.00     0.014 A 
ATOM     40  C   UNL A   1      38.858  27.834  31.035  1.00  0.00     0.010 A 
ATOM     41  C   UNL A   1      40.706  28.953  31.488  1.00  0.00     0.010 A 
ATOM     42  C   UNL A   1      39.410  29.309  31.735  1.00  0.00    -0.014 A 
BRANCH  42  43
ATOM     43  C   UNL A   1      39.344  30.805  33.012  1.00  0.00     0.031 A 
ATOM     44  C   UNL A   1      37.940  31.109  31.580  1.00  0.00     0.074 A 
ATOM     45  C   UNL A   1      40.146  31.134  34.644  1.00  0.00     0.049 A 
ATOM     46  N   UNL A   1      38.188  31.454  30.272  1.00  0.00    -0.248 NA
ATOM     47  C   UNL A   1      36.348  30.406  30.795  1.00  0.00     0.031 C 
ATOM     48  C   UNL A   1      40.989  31.484  36.364  1.00  0.00     0.029 A 
ATOM     49  N   UNL A   1      40.318  32.732  35.430  1.00  0.00    -0.354 N 
ATOM     50  C   UNL A   1      36.953  32.107  29.820  1.00  0.00     0.074 A 
ATOM     51  C   UNL A   1      35.825  31.306  29.908  1.00  0.00     0.031 C 
ATOM     52  C   UNL A   1      40.992  32.215  37.652  1.00  0.00     0.029 A 
ATOM     53  C   UNL A   1      40.178  33.156  37.050  1.00  0.00     0.049 A 
ATOM     54  H   UNL A   1      40.528  33.476  34.821  1.00  0.00     0.167 HD
ATOM     55  C   UNL A   1      36.757  33.368  30.227  1.00  0.00     0.037 A 
ATOM     56  C   UNL A   1      39.348  34.027  37.739  1.00  0.00     0.037 A 
ATOM     57  C   UNL A   1      38.028  33.834  30.593  1.00  0.00     0.049 A 
ATOM     58  C   UNL A   1      38.856  34.465  36.449  1.00  0.00     0.074 A 
ATOM     59  C   UNL A   1      39.202  33.740  29.884  1.00  0.00     0.029 A 
ATOM     60  N   UNL A   1      38.319  33.774  31.908  1.00  0.00    -0.354 N 
ATOM     61  N   UNL A   1      39.622  35.082  35.561  1.00  0.00    -0.248 NA
ATOM     62  C   UNL A   1      37.767  33.622  35.986  1.00  0.00     0.031 C 
ATOM     63  C   UNL A   1      40.235  33.729  30.819  1.00  0.00     0.029 A 
ATOM     64  C   UNL A   1      39.668  33.813  32.075  1.00  0.00     0.049 A 
ATOM     65  H   UNL A   1      37.658  33.711  32.635  1.00  0.00     0.167 HD
ATOM     66  C   UNL A   1      39.311  34.462  34.346  1.00  0.00     0.074 A 
ATOM     67  C   UNL A   1      38.054  33.669  34.687  1.00  0.00     0.031 C 
ATOM     68  C   UNL A   1      40.228  34.098  33.345  1.00  0.00     0.037 A 
BRANCH  55  69
ATOM     69  C   UNL A   1      35.487  34.055  30.494  1.00  0.00     0.064 A 
ATOM     70  C   UNL A   1      34.962  34.596  29.330  1.00  0.00     0.173 A 
ATOM     71  C   UNL A   1      34.813  34.283  31.716  1.00  0.00     0.173 A 
ATOM     72  F   UNL A   1      35.568  34.357  28.157  1.00  0.00    -0.203 F 
ATOM     73  C   UNL A   1      33.832  35.373  29.358  1.00  0.00     0.198 A 
ATOM     74  C   UNL A   1      33.655  35.053  31.737  1.00  0.00     0.198 A 
ATOM     75  F   UNL A   1      35.256  33.792  32.885  1.00  0.00    -0.203 F 
ATOM     76  F   UNL A   1      33.389  35.904  28.216  1.00  0.00    -0.200 F 
ATOM     77  C   UNL A   1      33.179  35.606  30.557  1.00  0.00     0.200 A 
ATOM     78  F   UNL A   1      33.013  35.281  32.893  1.00  0.00    -0.200 F 
ATOM     79  F   UNL A   1      32.087  36.377  30.567  1.00  0.00    -0.200 F 
ENDBRANCH  55  69
BRANCH  56  80
ATOM     80  C   UNL A   1      38.581  33.620  39.040  1.00  0.00     0.064 A 
ATOM     81  C   UNL A   1      38.592  34.412  40.208  1.00  0.00     0.173 A 
ATOM     82  C   UNL A   1      37.748  32.467  39.134  1.00  0.00     0.173 A 
ATOM     83  F   UNL A   1      39.433  35.449  40.292  1.00  0.00    -0.203 F 
ATOM     84  C   UNL A   1      37.741  34.167  41.310  1.00  0.00     0.198 A 
ATOM     85  C   UNL A   1      36.890  32.220  40.231  1.00  0.00     0.198 A 
ATOM     86  F   UNL A   1      37.734  31.568  38.139  1.00  0.00    -0.203 F 
ATOM     87  F   UNL A   1      37.735  35.011  42.353  1.00  0.00    -0.200 F 
ATOM     88  C   UNL A   1      36.868  33.092  41.304  1.00  0.00     0.200 A 
ATOM     89  F   UNL A   1      36.048  31.174  40.216  1.00  0.00    -0.200 F 
ATOM     90  F   UNL A   1      36.005  32.912  42.317  1.00  0.00    -0.200 F 
ENDBRANCH  56  80
BRANCH  68  91
ATOM     91  C   UNL A   1      41.799  34.183  33.364  1.00  0.00     0.064 A 
ATOM     92  C   UNL A   1      42.768  33.194  32.982  1.00  0.00     0.173 A 
ATOM     93  C   UNL A   1      42.363  35.422  33.648  1.00  0.00     0.173 A 
ATOM     94  F   UNL A   1      42.466  31.996  32.489  1.00  0.00    -0.203 F 
ATOM     95  C   UNL A   1      44.139  33.350  33.107  1.00  0.00     0.198 A 
ATOM     96  C   UNL A   1      43.751  35.619  33.662  1.00  0.00     0.198 A 
ATOM     97  F   UNL A   1      41.564  36.478  33.852  1.00  0.00    -0.203 F 
ATOM     98  F   UNL A   1      44.952  32.303  32.894  1.00  0.00    -0.200 F 
ATOM     99  C   UNL A   1      44.635  34.577  33.430  1.00  0.00     0.200 A 
ATOM    100  F   UNL A   1      44.239  36.838  33.917  1.00  0.00    -0.200 F 
ATOM    101  F   UNL A   1      45.960  34.755  33.480  1.00  0.00    -0.200 F 
ENDBRANCH  68  91
ENDBRANCH  42  43
ENDBRANCH  34  37
ENDBRANCH  32  33
ENDBRANCH  31  32
ENDBRANCH  30  31
ENDBRANCH   3  30
TORSDOF 15
ENDMDL
MODEL 2
REMARK VINA RESULT:     -13.2      1.962      3.483
REMARK SMILES CCCCn1c(C[N@H+]2C[C@H]3C(=O)NC[C@@]3(C(=O)NCCCNC(=O)c3ccc(-c4c5nc(c(-c6c(F)c(F)c(F)c(F)c6F)c6ccc([nH]6)c(-c6c(F)c(F)c(F)c(F)c6F)c6nc(c(-c7c(F)c(F)c(F)c(F)c7F)c7ccc4[nH]7)C=C6)C=C5)cc3)C2)nc2ccccc21
REMARK SMILES IDX 16 1 17 2 18 3 15 5 8 6 9 7 88 8 10 10 11 11 14 12 12 13
REMARK SMILES IDX 13 14 7 16 6 17 5 18 95 19 89 20 90 21 94 22 91 23 93 24
REMARK SMILES IDX 92 25 4 26 3 27 2 28 1 29 19 30 20 31 21 32 22 33 23 34
REMARK SMILES IDX 24 36 25 37 26 38 87 39 27 40 86 41 28 42 29 43 30 44 80 45
REMARK SMILES IDX 31 46 85 47 79 48 81 49 32 50 84 51 78 52 77 53 33 55 65 56
REMARK SMILES IDX 45 57 64 58 46 59 49 60 63 61 82 62 47 63 48 64 62 66 83 67
REMARK SMILES IDX 50 68 34 69 35 70 43 71 36 72 37 73 41 74 44 75 38 76 39 77
REMARK SMILES IDX 42 78 40 79 66 80 67 81 75 82 68 83 69 84 73 85 76 86 70 87
REMARK SMILES IDX 71 88 74 89 72 90 51 91 52 92 60 93 53 94 54 95 58 96 61 97
REMARK SMILES IDX 55 98 56 99 59 100 57 101
REMARK H PARENT 18 4 8 9 13 15 22 35 81 54 49 65
REMARK Flexibility Score: inf
ROOT
ATOM      1  C   UNL A   1      45.328  27.222  26.954  1.00  0.00     0.234 C 
ATOM      2  O   UNL A   1      45.815  28.025  27.749  1.00  0.00    -0.274 OA
ATOM      3  N   UNL A   1      44.472  27.703  25.972  1.00  0.00    -0.355 N 
ATOM      4  H   UNL A   1      44.540  28.658  25.743  1.00  0.00     0.163 HD
ENDROOT
BRANCH   1   5
ATOM      5  C   UNL A   1      45.567  25.659  26.941  1.00  0.00     0.132 C 
ATOM      6  N   UNL A   1      44.426  24.430  28.794  1.00  0.00    -0.327 N 
ATOM      7  C   UNL A   1      45.219  23.481  28.052  1.00  0.00     0.277 C 
ATOM      8  C   UNL A   1      45.022  25.674  28.389  1.00  0.00     0.282 C 
ATOM      9  H   UNL A   1      44.449  24.158  29.777  1.00  0.00     0.348 HD
ATOM     10  C   UNL A   1      46.225  24.277  27.257  1.00  0.00     0.156 C 
ATOM     11  C   UNL A   1      46.400  23.692  25.867  1.00  0.00     0.230 C 
ATOM     12  C   UNL A   1      46.707  25.958  25.925  1.00  0.00     0.139 C 
ATOM     13  O   UNL A   1      46.247  22.547  25.488  1.00  0.00    -0.275 OA
ATOM     14  N   UNL A   1      46.770  24.778  25.113  1.00  0.00    -0.354 N 
ATOM     15  H   UNL A   1      47.037  24.751  24.165  1.00  0.00     0.163 HD
BRANCH   6  16
ATOM     16  C   UNL A   1      42.919  24.365  29.102  1.00  0.00     0.339 C 
BRANCH  16  17
ATOM     17  C   UNL A   1      41.755  23.817  28.166  1.00  0.00     0.165 A 
ATOM     18  N   UNL A   1      41.482  22.601  27.547  1.00  0.00    -0.323 N 
ATOM     19  C   UNL A   1      40.214  22.675  26.952  1.00  0.00     0.068 A 
ATOM     20  N   UNL A   1      40.707  24.531  27.897  1.00  0.00    -0.227 NA
ATOM     21  C   UNL A   1      39.763  23.929  27.219  1.00  0.00     0.089 A 
ATOM     22  C   UNL A   1      39.405  21.873  26.165  1.00  0.00     0.028 A 
ATOM     23  C   UNL A   1      38.564  24.456  26.764  1.00  0.00     0.030 A 
ATOM     24  C   UNL A   1      38.142  22.390  25.767  1.00  0.00     0.002 A 
ATOM     25  C   UNL A   1      37.698  23.659  26.087  1.00  0.00     0.002 A 
BRANCH  18  26
ATOM     26  C   UNL A   1      42.351  21.454  27.436  1.00  0.00     0.124 C 
BRANCH  26  27
ATOM     27  C   UNL A   1      43.016  21.284  26.077  1.00  0.00     0.022 C 
BRANCH  27  28
ATOM     28  C   UNL A   1      43.171  19.847  25.732  1.00  0.00    -0.002 C 
ATOM     29  C   UNL A   1      42.277  18.803  26.405  1.00  0.00     0.004 C 
ENDBRANCH  27  28
ENDBRANCH  26  27
ENDBRANCH  18  26
ENDBRANCH  16  17
ENDBRANCH   6  16
ENDBRANCH   1   5
BRANCH   3  30
ATOM     30  C   UNL A   1      43.488  26.916  25.257  1.00  0.00     0.117 C 
BRANCH  30  31
ATOM     31  C   UNL A   1      42.011  27.146  25.954  1.00  0.00     0.042 C 
BRANCH  31  32
ATOM     32  C   UNL A   1      41.809  28.593  26.193  1.00  0.00     0.118 C 
BRANCH  32  33
ATOM     33  N   UNL A   1      40.439  28.961  26.499  1.00  0.00    -0.352 N 
ATOM     34  C   UNL A   1      39.667  28.919  27.661  1.00  0.00     0.251 C 
ATOM     35  H   UNL A   1      39.949  29.316  25.722  1.00  0.00     0.163 HD
ATOM     36  O   UNL A   1      38.484  29.265  27.617  1.00  0.00    -0.269 OA
BRANCH  34  37
ATOM     37  C   UNL A   1      40.108  28.359  28.973  1.00  0.00     0.039 A 
ATOM     38  C   UNL A   1      39.337  27.461  29.581  1.00  0.00     0.014 A 
ATOM     39  C   UNL A   1      40.706  29.252  29.928  1.00  0.00     0.014 A 
ATOM     40  C   UNL A   1      38.851  28.008  30.992  1.00  0.00     0.010 A 
ATOM     41  C   UNL A   1      40.647  29.242  31.349  1.00  0.00     0.010 A 
ATOM     42  C   UNL A   1      39.350  29.504  31.690  1.00  0.00    -0.014 A 
BRANCH  42  43
ATOM     43  C   UNL A   1      39.270  30.966  33.003  1.00  0.00     0.031 A 
ATOM     44  C   UNL A   1      37.846  31.280  31.593  1.00  0.00     0.074 A 
ATOM     45  C   UNL A   1      40.082  31.270  34.635  1.00  0.00     0.049 A 
ATOM     46  N   UNL A   1      38.074  31.661  30.292  1.00  0.00    -0.248 NA
ATOM     47  C   UNL A   1      36.259  30.567  30.807  1.00  0.00     0.031 C 
ATOM     48  C   UNL A   1      40.936  31.593  36.355  1.00  0.00     0.029 A 
ATOM     49  N   UNL A   1      40.234  32.851  35.459  1.00  0.00    -0.354 N 
ATOM     50  C   UNL A   1      36.823  32.302  29.868  1.00  0.00     0.074 A 
ATOM     51  C   UNL A   1      35.710  31.478  29.947  1.00  0.00     0.031 C 
ATOM     52  C   UNL A   1      40.939  32.292  37.661  1.00  0.00     0.029 A 
ATOM     53  C   UNL A   1      40.102  33.233  37.090  1.00  0.00     0.049 A 
ATOM     54  H   UNL A   1      40.423  33.613  34.866  1.00  0.00     0.167 HD
ATOM     55  C   UNL A   1      36.608  33.549  30.308  1.00  0.00     0.037 A 
ATOM     56  C   UNL A   1      39.264  34.072  37.808  1.00  0.00     0.037 A 
ATOM     57  C   UNL A   1      37.874  34.029  30.673  1.00  0.00     0.049 A 
ATOM     58  C   UNL A   1      38.751  34.531  36.535  1.00  0.00     0.074 A 
ATOM     59  C   UNL A   1      39.043  33.974  29.951  1.00  0.00     0.029 A 
ATOM     60  N   UNL A   1      38.180  33.942  31.983  1.00  0.00    -0.354 N 
ATOM     61  N   UNL A   1      39.496  35.184  35.654  1.00  0.00    -0.248 NA
ATOM     62  C   UNL A   1      37.673  33.680  36.061  1.00  0.00     0.031 C 
ATOM     63  C   UNL A   1      40.085  33.959  30.874  1.00  0.00     0.029 A 
ATOM     64  C   UNL A   1      39.530  34.002  32.138  1.00  0.00     0.049 A 
ATOM     65  H   UNL A   1      37.528  33.849  32.715  1.00  0.00     0.167 HD
ATOM     66  C   UNL A   1      39.184  34.588  34.428  1.00  0.00     0.074 A 
ATOM     67  C   UNL A   1      37.946  33.764  34.762  1.00  0.00     0.031 C 
ATOM     68  C   UNL A   1      40.098  34.266  33.409  1.00  0.00     0.037 A 
BRANCH  55  69
ATOM     69  C   UNL A   1      35.329  34.206  30.604  1.00  0.00     0.064 A 
ATOM     70  C   UNL A   1      34.766  34.736  29.454  1.00  0.00     0.173 A 
ATOM     71  C   UNL A   1      34.677  34.416  31.841  1.00  0.00     0.173 A 
ATOM     72  F   UNL A   1      35.351  34.513  28.267  1.00  0.00    -0.203 F 
ATOM     73  C   UNL A   1      33.619  35.487  29.509  1.00  0.00     0.198 A 
ATOM     74  C   UNL A   1      33.502  35.159  31.890  1.00  0.00     0.198 A 
ATOM     75  F   UNL A   1      35.157  33.934  33.000  1.00  0.00    -0.203 F 
ATOM     76  F   UNL A   1      33.139  36.009  28.377  1.00  0.00    -0.200 F 
ATOM     77  C   UNL A   1      32.988  35.702  30.722  1.00  0.00     0.200 A 
ATOM     78  F   UNL A   1      32.881  35.370  33.061  1.00  0.00    -0.200 F 
ATOM     79  F   UNL A   1      31.879  36.448  30.757  1.00  0.00    -0.200 F 
ENDBRANCH  55  69
BRANCH  56  80
ATOM     80  C   UNL A   1      38.518  33.619  39.107  1.00  0.00     0.064 A 
ATOM     81  C   UNL A   1      38.529  34.379  40.295  1.00  0.00     0.173 A 
ATOM     82  C   UNL A   1      37.704  32.451  39.179  1.00  0.00     0.173 A 
ATOM     83  F   UNL A   1      39.356  35.427  40.397  1.00  0.00    -0.203 F 
ATOM     84  C   UNL A   1      37.695  34.093  41.399  1.00  0.00     0.198 A 
ATOM     85  C   UNL A   1      36.863  32.162  40.278  1.00  0.00     0.198 A 
ATOM     86  F   UNL A   1      37.693  31.577  38.162  1.00  0.00    -0.203 F 
ATOM     87  F   UNL A   1      37.688  34.910  42.464  1.00  0.00    -0.200 F 
ATOM     88  C   UNL A   1      36.839  33.005  41.374  1.00  0.00     0.200 A 
ATOM     89  F   UNL A   1      36.037  31.103  40.246  1.00  0.00    -0.200 F 
ATOM     90  F   UNL A   1      35.990  32.785  42.391  1.00  0.00    -0.200 F 
ENDBRANCH  56  80
BRANCH  68  91
ATOM     91  C   UNL A   1      41.667  34.379  33.415  1.00  0.00     0.064 A 
ATOM     92  C   UNL A   1      42.649  33.426  32.979  1.00  0.00     0.173 A 
ATOM     93  C   UNL A   1      42.211  35.614  33.747  1.00  0.00     0.173 A 
ATOM     94  F   UNL A   1      42.363  32.246  32.435  1.00  0.00    -0.203 F 
ATOM     95  C   UNL A   1      44.018  33.602  33.095  1.00  0.00     0.198 A 
ATOM     96  C   UNL A   1      43.596  35.836  33.755  1.00  0.00     0.198 A 
ATOM     97  F   UNL A   1      41.396  36.645  34.007  1.00  0.00    -0.203 F 
ATOM     98  F   UNL A   1      44.848  32.581  32.827  1.00  0.00    -0.200 F 
ATOM     99  C   UNL A   1      44.496  34.822  33.468  1.00  0.00     0.200 A 
ATOM    100  F   UNL A   1      44.064  37.052  34.059  1.00  0.00    -0.200 F 
ATOM    101  F   UNL A   1      45.817  35.022  33.511  1.00  0.00    -0.200 F 
ENDBRANCH  68  91
ENDBRANCH  42  43
ENDBRANCH  34  37
ENDBRANCH  32  33
ENDBRANCH  31  32
ENDBRANCH  30  31
ENDBRANCH   3  30
TORSDOF 15
ENDMDL
MODEL 3
REMARK VINA RESULT:     -13.2      6.440     13.696
REMARK SMILES CCCCn1c(C[N@H+]2C[C@H]3C(=O)NC[C@@]3(C(=O)NCCCNC(=O)c3ccc(-c4c5nc(c(-c6c(F)c(F)c(F)c(F)c6F)c6ccc([nH]6)c(-c6c(F)c(F)c(F)c(F)c6F)c6nc(c(-c7c(F)c(F)c(F)c(F)c7F)c7ccc4[nH]7)C=C6)C=C5)cc3)C2)nc2ccccc21
REMARK SMILES IDX 16 1 17 2 18 3 15 5 8 6 9 7 88 8 10 10 11 11 14 12 12 13
REMARK SMILES IDX 13 14 7 16 6 17 5 18 95 19 89 20 90 21 94 22 91 23 93 24
REMARK SMILES IDX 92 25 4 26 3 27 2 28 1 29 19 30 20 31 21 32 22 33 23 34
REMARK SMILES IDX 24 36 25 37 26 38 87 39 27 40 86 41 28 42 29 43 30 44 80 45
REMARK SMILES IDX 31 46 85 47 79 48 81 49 32 50 84 51 78 52 77 53 33 55 65 56
REMARK SMILES IDX 45 57 64 58 46 59 49 60 63 61 82 62 47 63 48 64 62 66 83 67
REMARK SMILES IDX 50 68 34 69 35 70 43 71 36 72 37 73 41 74 44 75 38 76 39 77
REMARK SMILES IDX 42 78 40 79 66 80 67 81 75 82 68 83 69 84 73 85 76 86 70 87
REMARK SMILES IDX 71 88 74 89 72 90 51 91 52 92 60 93 53 94 54 95 58 96 61 97
REMARK SMILES IDX 55 98 56 99 59 100 57 101
REMARK H PARENT 18 4 8 9 13 15 22 35 81 54 49 65
REMARK Flexibility Score: inf
ROOT
ATOM      1  C   UNL A   1      37.207  31.854  29.223  1.00  0.00     0.234 C 
ATOM      2  O   UNL A   1      38.118  31.939  28.399  1.00  0.00    -0.274 OA
ATOM      3  N   UNL A   1      37.378  31.008  30.311  1.00  0.00    -0.355 N 
ATOM      4  H   UNL A   1      38.302  30.771  30.556  1.00  0.00     0.163 HD
ENDROOT
BRANCH   1   5
ATOM      5  C   UNL A   1      35.823  32.615  29.166  1.00  0.00     0.132 C 
ATOM      6  N   UNL A   1      34.185  31.647  27.545  1.00  0.00    -0.327 N 
ATOM      7  C   UNL A   1      33.602  32.840  28.108  1.00  0.00     0.277 C 
ATOM      8  C   UNL A   1      35.576  31.841  27.849  1.00  0.00     0.282 C 
ATOM      9  H   UNL A   1      33.887  31.580  26.572  1.00  0.00     0.348 HD
ATOM     10  C   UNL A   1      34.733  33.638  28.708  1.00  0.00     0.156 C 
ATOM     11  C   UNL A   1      34.315  34.257  30.030  1.00  0.00     0.230 C 
ATOM     12  C   UNL A   1      36.544  33.749  29.950  1.00  0.00     0.139 C 
ATOM     13  O   UNL A   1      33.207  34.581  30.413  1.00  0.00    -0.275 OA
ATOM     14  N   UNL A   1      35.499  34.363  30.716  1.00  0.00    -0.354 N 
ATOM     15  H   UNL A   1      35.614  34.793  31.595  1.00  0.00     0.163 HD
BRANCH   6  16
ATOM     16  C   UNL A   1      33.594  30.225  27.529  1.00  0.00     0.339 C 
BRANCH  16  17
ATOM     17  C   UNL A   1      32.688  29.558  26.404  1.00  0.00     0.165 A 
ATOM     18  N   UNL A   1      32.395  28.252  26.023  1.00  0.00    -0.323 N 
ATOM     19  C   UNL A   1      31.403  28.285  25.032  1.00  0.00     0.068 A 
ATOM     20  N   UNL A   1      31.922  30.271  25.637  1.00  0.00    -0.227 NA
ATOM     21  C   UNL A   1      31.134  29.602  24.835  1.00  0.00     0.089 A 
ATOM     22  C   UNL A   1      30.736  27.381  24.222  1.00  0.00     0.028 A 
ATOM     23  C   UNL A   1      30.248  30.100  23.891  1.00  0.00     0.030 A 
ATOM     24  C   UNL A   1      29.772  27.892  23.310  1.00  0.00     0.002 A 
ATOM     25  C   UNL A   1      29.496  29.237  23.160  1.00  0.00     0.002 A 
BRANCH  18  26
ATOM     26  C   UNL A   1      33.027  27.038  26.481  1.00  0.00     0.124 C 
BRANCH  26  27
ATOM     27  C   UNL A   1      34.028  26.431  25.506  1.00  0.00     0.022 C 
BRANCH  27  28
ATOM     28  C   UNL A   1      33.584  25.089  25.050  1.00  0.00    -0.002 C 
ATOM     29  C   UNL A   1      34.361  24.366  23.946  1.00  0.00     0.004 C 
ENDBRANCH  27  28
ENDBRANCH  26  27
ENDBRANCH  18  26
ENDBRANCH  16  17
ENDBRANCH   6  16
ENDBRANCH   1   5
BRANCH   3  30
ATOM     30  C   UNL A   1      36.312  30.446  31.113  1.00  0.00     0.117 C 
BRANCH  30  31
ATOM     31  C   UNL A   1      36.948  29.317  32.134  1.00  0.00     0.042 C 
BRANCH  31  32
ATOM     32  C   UNL A   1      38.361  29.076  31.766  1.00  0.00     0.118 C 
BRANCH  32  33
ATOM     33  N   UNL A   1      38.570  27.901  30.940  1.00  0.00    -0.352 N 
ATOM     34  C   UNL A   1      39.298  27.662  29.773  1.00  0.00     0.251 C 
ATOM     35  H   UNL A   1      38.099  27.104  31.272  1.00  0.00     0.163 HD
ATOM     36  O   UNL A   1      39.258  26.545  29.251  1.00  0.00    -0.269 OA
BRANCH  34  37
ATOM     37  C   UNL A   1      40.047  28.692  28.993  1.00  0.00     0.039 A 
ATOM     38  C   UNL A   1      39.702  28.917  27.727  1.00  0.00     0.014 A 
ATOM     39  C   UNL A   1      41.472  28.767  29.159  1.00  0.00     0.014 A 
ATOM     40  C   UNL A   1      40.916  28.591  26.754  1.00  0.00     0.010 A 
ATOM     41  C   UNL A   1      42.484  29.112  28.219  1.00  0.00     0.010 A 
ATOM     42  C   UNL A   1      42.493  28.126  27.274  1.00  0.00    -0.014 A 
BRANCH  42  43
ATOM     43  C   UNL A   1      44.321  27.445  27.015  1.00  0.00     0.031 A 
ATOM     44  C   UNL A   1      43.021  25.895  26.861  1.00  0.00     0.074 A 
ATOM     45  C   UNL A   1      45.973  28.249  26.816  1.00  0.00     0.049 A 
ATOM     46  N   UNL A   1      42.318  25.331  27.899  1.00  0.00    -0.248 NA
ATOM     47  C   UNL A   1      41.553  25.196  25.861  1.00  0.00     0.031 C 
ATOM     48  C   UNL A   1      47.715  29.094  26.606  1.00  0.00     0.029 A 
ATOM     49  N   UNL A   1      47.563  27.462  27.047  1.00  0.00    -0.354 N 
ATOM     50  C   UNL A   1      42.010  23.970  27.441  1.00  0.00     0.074 A 
ATOM     51  C   UNL A   1      41.272  23.921  26.268  1.00  0.00     0.031 C 
ATOM     52  C   UNL A   1      49.117  29.015  26.133  1.00  0.00     0.029 A 
ATOM     53  C   UNL A   1      48.989  27.639  26.175  1.00  0.00     0.049 A 
ATOM     54  H   UNL A   1      47.610  26.829  27.799  1.00  0.00     0.167 HD
ATOM     55  C   UNL A   1      43.008  23.079  27.492  1.00  0.00     0.037 A 
ATOM     56  C   UNL A   1      49.783  26.758  25.458  1.00  0.00     0.037 A 
ATOM     57  C   UNL A   1      43.929  23.615  28.405  1.00  0.00     0.049 A 
ATOM     58  C   UNL A   1      48.934  25.697  25.958  1.00  0.00     0.074 A 
ATOM     59  C   UNL A   1      43.682  24.125  29.657  1.00  0.00     0.029 A 
ATOM     60  N   UNL A   1      44.963  24.291  27.866  1.00  0.00    -0.354 N 
ATOM     61  N   UNL A   1      48.857  25.386  27.244  1.00  0.00    -0.248 NA
ATOM     62  C   UNL A   1      47.769  25.509  25.110  1.00  0.00     0.031 C 
ATOM     63  C   UNL A   1      44.675  25.068  29.909  1.00  0.00     0.029 A 
ATOM     64  C   UNL A   1      45.503  25.114  28.805  1.00  0.00     0.049 A 
ATOM     65  H   UNL A   1      45.279  24.204  26.938  1.00  0.00     0.167 HD
ATOM     66  C   UNL A   1      47.488  25.228  27.481  1.00  0.00     0.074 A 
ATOM     67  C   UNL A   1      46.907  25.188  26.071  1.00  0.00     0.031 C 
ATOM     68  C   UNL A   1      46.787  25.682  28.612  1.00  0.00     0.037 A 
BRANCH  55  69
ATOM     69  C   UNL A   1      43.249  21.925  26.617  1.00  0.00     0.064 A 
ATOM     70  C   UNL A   1      42.485  20.836  27.009  1.00  0.00     0.173 A 
ATOM     71  C   UNL A   1      44.154  21.770  25.541  1.00  0.00     0.173 A 
ATOM     72  F   UNL A   1      41.594  20.977  28.003  1.00  0.00    -0.203 F 
ATOM     73  C   UNL A   1      42.625  19.617  26.398  1.00  0.00     0.198 A 
ATOM     74  C   UNL A   1      44.278  20.537  24.909  1.00  0.00     0.198 A 
ATOM     75  F   UNL A   1      44.928  22.775  25.099  1.00  0.00    -0.203 F 
ATOM     76  F   UNL A   1      41.895  18.589  26.840  1.00  0.00    -0.200 F 
ATOM     77  C   UNL A   1      43.520  19.462  25.353  1.00  0.00     0.200 A 
ATOM     78  F   UNL A   1      45.139  20.379  23.892  1.00  0.00    -0.200 F 
ATOM     79  F   UNL A   1      43.653  18.262  24.779  1.00  0.00    -0.200 F 
ENDBRANCH  55  69
BRANCH  56  80
ATOM     80  C   UNL A   1      50.294  27.061  24.010  1.00  0.00     0.064 A 
ATOM     81  C   UNL A   1      51.643  26.895  23.630  1.00  0.00     0.173 A 
ATOM     82  C   UNL A   1      49.438  27.450  22.939  1.00  0.00     0.173 A 
ATOM     83  F   UNL A   1      52.567  26.657  24.569  1.00  0.00    -0.203 F 
ATOM     84  C   UNL A   1      52.075  26.960  22.287  1.00  0.00     0.198 A 
ATOM     85  C   UNL A   1      49.864  27.511  21.593  1.00  0.00     0.198 A 
ATOM     86  F   UNL A   1      48.155  27.754  23.184  1.00  0.00    -0.203 F 
ATOM     87  F   UNL A   1      53.357  26.701  21.981  1.00  0.00    -0.200 F 
ATOM     88  C   UNL A   1      51.179  27.233  21.267  1.00  0.00     0.200 A 
ATOM     89  F   UNL A   1      48.987  27.779  20.611  1.00  0.00    -0.200 F 
ATOM     90  F   UNL A   1      51.579  27.213  19.986  1.00  0.00    -0.200 F 
ENDBRANCH  56  80
BRANCH  68  91
ATOM     91  C   UNL A   1      47.307  26.550  29.816  1.00  0.00     0.064 A 
ATOM     92  C   UNL A   1      46.733  27.730  30.401  1.00  0.00     0.173 A 
ATOM     93  C   UNL A   1      48.392  26.056  30.530  1.00  0.00     0.173 A 
ATOM     94  F   UNL A   1      45.585  28.280  30.014  1.00  0.00    -0.203 F 
ATOM     95  C   UNL A   1      47.317  28.462  31.422  1.00  0.00     0.198 A 
ATOM     96  C   UNL A   1      48.920  26.733  31.640  1.00  0.00     0.198 A 
ATOM     97  F   UNL A   1      48.917  24.870  30.195  1.00  0.00    -0.203 F 
ATOM     98  F   UNL A   1      46.795  29.648  31.777  1.00  0.00    -0.200 F 
ATOM     99  C   UNL A   1      48.407  27.950  32.059  1.00  0.00     0.200 A 
ATOM    100  F   UNL A   1      49.949  26.199  32.306  1.00  0.00    -0.200 F 
ATOM    101  F   UNL A   1      48.932  28.614  33.095  1.00  0.00    -0.200 F 
ENDBRANCH  68  91
ENDBRANCH  42  43
ENDBRANCH  34  37
ENDBRANCH  32  33
ENDBRANCH  31  32
ENDBRANCH  30  31
ENDBRANCH   3  30
TORSDOF 15
ENDMDL
