MODEL 1
REMARK VINA RESULT:     -13.0      0.000      0.000
REMARK SMILES C/C(=C\C(=O)c1c(O)n(C)c2ccccc2c1=O)Nc1ccc(C(=O)NCCCNC(=O)c2ccc(-c3c4nc(c(-c5c(F)c(F)c(F)c(F)c5F)c5ccc([nH]5)c(-c5c(F)c(F)c(F)c(F)c5F)c5nc(c(-c6c(F)c(F)c(F)c(F)c6F)c6ccc3[nH]6)C=C5)C=C4)cc2)cc1
REMARK SMILES IDX 24 1 25 2 26 3 23 5 20 6 21 7 97 8 22 9 96 10 19 11 2 13
REMARK SMILES IDX 1 14 3 15 4 16 5 17 6 18 7 19 17 20 9 21 16 22 18 23 10 24
REMARK SMILES IDX 11 25 15 26 12 27 14 28 13 29 8 30 27 32 28 33 29 34 30 35
REMARK SMILES IDX 31 36 32 38 33 39 34 40 95 41 35 42 94 43 36 44 37 45 38 46
REMARK SMILES IDX 88 47 39 48 93 49 87 50 89 51 40 52 92 53 86 54 85 55 41 57
REMARK SMILES IDX 73 58 53 59 72 60 54 61 57 62 71 63 90 64 55 65 56 66 70 68
REMARK SMILES IDX 91 69 58 70 42 71 43 72 51 73 44 74 45 75 49 76 52 77 46 78
REMARK SMILES IDX 47 79 50 80 48 81 74 82 75 83 83 84 76 85 77 86 81 87 84 88
REMARK SMILES IDX 78 89 79 90 82 91 80 92 59 93 60 94 68 95 61 96 62 97 66 98
REMARK SMILES IDX 69 99 63 100 64 101 67 102 65 103
REMARK H PARENT 26 4 19 12 8 31 30 37 89 56 57 67
REMARK Flexibility Score: inf
ROOT
ATOM      1  C   UNL A   1      35.895  33.961  28.620  1.00  0.00     0.251 C 
ATOM      2  O   UNL A   1      37.004  33.827  29.147  1.00  0.00    -0.269 OA
ATOM      3  N   UNL A   1      35.465  35.251  28.527  1.00  0.00    -0.352 N 
ATOM      4  H   UNL A   1      36.122  35.879  28.906  1.00  0.00     0.163 HD
ENDROOT
BRANCH   1   5
ATOM      5  C   UNL A   1      35.163  32.737  28.178  1.00  0.00     0.039 A 
ATOM      6  C   UNL A   1      34.018  30.187  27.585  1.00  0.00     0.038 A 
ATOM      7  C   UNL A   1      35.395  30.349  27.705  1.00  0.00     0.027 A 
ATOM      8  C   UNL A   1      33.233  31.342  27.655  1.00  0.00     0.027 A 
ATOM      9  C   UNL A   1      35.956  31.590  28.018  1.00  0.00     0.016 A 
ATOM     10  C   UNL A   1      33.797  32.598  27.941  1.00  0.00     0.016 A 
BRANCH   6  11
ATOM     11  N   UNL A   1      33.378  28.931  27.537  1.00  0.00    -0.359 N 
ATOM     12  H   UNL A   1      33.134  28.537  28.406  1.00  0.00     0.166 HD
BRANCH  11  13
ATOM     13  C   UNL A   1      33.050  28.175  26.399  1.00  0.00     0.016 C 
ATOM     14  C   UNL A   1      33.568  28.659  25.065  1.00  0.00     0.064 C 
ATOM     15  C   UNL A   1      32.329  27.038  26.550  1.00  0.00     0.074 C 
BRANCH  15  16
ATOM     16  C   UNL A   1      31.945  25.925  25.617  1.00  0.00     0.196 C 
ATOM     17  O   UNL A   1      30.860  25.979  25.039  1.00  0.00    -0.289 OA
BRANCH  16  18
ATOM     18  C   UNL A   1      32.776  24.713  25.534  1.00  0.00     0.130 A 
ATOM     19  C   UNL A   1      32.605  23.708  26.418  1.00  0.00     0.206 A 
ATOM     20  C   UNL A   1      33.920  24.660  24.598  1.00  0.00     0.204 A 
ATOM     21  N   UNL A   1      33.522  22.674  26.581  1.00  0.00    -0.315 N 
ATOM     22  C   UNL A   1      34.797  23.470  24.655  1.00  0.00     0.047 A 
ATOM     23  O   UNL A   1      34.166  25.586  23.832  1.00  0.00    -0.288 OA
ATOM     24  C   UNL A   1      33.541  21.839  27.787  1.00  0.00     0.153 C 
ATOM     25  C   UNL A   1      34.592  22.513  25.667  1.00  0.00     0.055 A 
ATOM     26  C   UNL A   1      35.847  23.356  23.731  1.00  0.00     0.014 A 
ATOM     27  C   UNL A   1      35.485  21.427  25.705  1.00  0.00     0.027 A 
ATOM     28  C   UNL A   1      36.714  22.270  23.797  1.00  0.00     0.001 A 
ATOM     29  C   UNL A   1      36.533  21.308  24.785  1.00  0.00     0.002 A 
BRANCH  19  30
ATOM     30  O   UNL A   1      31.530  23.683  27.291  1.00  0.00    -0.494 OA
ATOM     31  H   UNL A   1      30.881  24.359  27.254  1.00  0.00     0.295 HD
ENDBRANCH  19  30
ENDBRANCH  16  18
ENDBRANCH  15  16
ENDBRANCH  11  13
ENDBRANCH   6  11
ENDBRANCH   1   5
BRANCH   3  32
ATOM     32  C   UNL A   1      34.300  35.947  28.017  1.00  0.00     0.118 C 
BRANCH  32  33
ATOM     33  C   UNL A   1      33.137  35.876  28.998  1.00  0.00     0.042 C 
BRANCH  33  34
ATOM     34  C   UNL A   1      33.279  36.862  30.152  1.00  0.00     0.118 C 
BRANCH  34  35
ATOM     35  N   UNL A   1      32.382  36.555  31.264  1.00  0.00    -0.352 N 
ATOM     36  C   UNL A   1      32.449  35.589  32.242  1.00  0.00     0.251 C 
ATOM     37  H   UNL A   1      31.593  37.140  31.323  1.00  0.00     0.163 HD
ATOM     38  O   UNL A   1      31.464  35.344  32.924  1.00  0.00    -0.269 OA
BRANCH  36  39
ATOM     39  C   UNL A   1      33.698  34.826  32.450  1.00  0.00     0.039 A 
ATOM     40  C   UNL A   1      33.654  33.496  32.856  1.00  0.00     0.014 A 
ATOM     41  C   UNL A   1      34.932  35.446  32.229  1.00  0.00     0.014 A 
ATOM     42  C   UNL A   1      34.818  32.862  33.264  1.00  0.00     0.010 A 
ATOM     43  C   UNL A   1      36.116  34.757  32.515  1.00  0.00     0.010 A 
ATOM     44  C   UNL A   1      36.066  33.480  33.093  1.00  0.00    -0.014 A 
BRANCH  44  45
ATOM     45  C   UNL A   1      37.291  32.762  33.532  1.00  0.00     0.031 A 
ATOM     46  C   UNL A   1      37.967  31.767  32.628  1.00  0.00     0.074 A 
ATOM     47  C   UNL A   1      37.842  33.074  34.722  1.00  0.00     0.049 A 
ATOM     48  N   UNL A   1      39.056  31.067  32.838  1.00  0.00    -0.248 NA
ATOM     49  C   UNL A   1      37.342  31.516  31.320  1.00  0.00     0.031 C 
ATOM     50  C   UNL A   1      37.289  34.039  35.675  1.00  0.00     0.029 A 
ATOM     51  N   UNL A   1      39.004  32.652  35.315  1.00  0.00    -0.354 N 
ATOM     52  C   UNL A   1      39.230  30.285  31.705  1.00  0.00     0.074 A 
ATOM     53  C   UNL A   1      38.120  30.565  30.821  1.00  0.00     0.031 C 
ATOM     54  C   UNL A   1      38.149  34.196  36.692  1.00  0.00     0.029 A 
ATOM     55  C   UNL A   1      39.270  33.281  36.508  1.00  0.00     0.049 A 
ATOM     56  H   UNL A   1      39.591  31.964  34.926  1.00  0.00     0.167 HD
ATOM     57  C   UNL A   1      40.234  29.420  31.422  1.00  0.00     0.037 A 
ATOM     58  C   UNL A   1      40.293  33.131  37.368  1.00  0.00     0.037 A 
ATOM     59  C   UNL A   1      41.352  29.164  32.294  1.00  0.00     0.049 A 
ATOM     60  C   UNL A   1      41.363  32.126  37.055  1.00  0.00     0.074 A 
ATOM     61  C   UNL A   1      42.425  28.314  32.093  1.00  0.00     0.029 A 
ATOM     62  N   UNL A   1      41.542  29.762  33.531  1.00  0.00    -0.354 N 
ATOM     63  N   UNL A   1      41.508  31.380  35.988  1.00  0.00    -0.248 NA
ATOM     64  C   UNL A   1      42.401  31.928  38.075  1.00  0.00     0.031 C 
ATOM     65  C   UNL A   1      43.241  28.365  33.228  1.00  0.00     0.029 A 
ATOM     66  C   UNL A   1      42.704  29.283  34.115  1.00  0.00     0.049 A 
ATOM     67  H   UNL A   1      40.940  30.429  33.936  1.00  0.00     0.167 HD
ATOM     68  C   UNL A   1      42.653  30.628  36.201  1.00  0.00     0.074 A 
ATOM     69  C   UNL A   1      43.179  31.027  37.491  1.00  0.00     0.031 C 
ATOM     70  C   UNL A   1      43.212  29.687  35.403  1.00  0.00     0.037 A 
BRANCH  57  71
ATOM     71  C   UNL A   1      40.172  28.675  30.120  1.00  0.00     0.064 A 
ATOM     72  C   UNL A   1      40.793  29.162  28.960  1.00  0.00     0.173 A 
ATOM     73  C   UNL A   1      39.524  27.431  30.042  1.00  0.00     0.173 A 
ATOM     74  F   UNL A   1      41.413  30.351  28.976  1.00  0.00    -0.203 F 
ATOM     75  C   UNL A   1      40.751  28.443  27.767  1.00  0.00     0.198 A 
ATOM     76  C   UNL A   1      39.510  26.702  28.856  1.00  0.00     0.198 A 
ATOM     77  F   UNL A   1      38.918  26.916  31.122  1.00  0.00    -0.203 F 
ATOM     78  F   UNL A   1      41.316  28.949  26.663  1.00  0.00    -0.200 F 
ATOM     79  C   UNL A   1      40.117  27.211  27.718  1.00  0.00     0.200 A 
ATOM     80  F   UNL A   1      38.907  25.506  28.814  1.00  0.00    -0.200 F 
ATOM     81  F   UNL A   1      40.088  26.516  26.573  1.00  0.00    -0.200 F 
ENDBRANCH  57  71
BRANCH  58  82
ATOM     82  C   UNL A   1      40.340  33.959  38.599  1.00  0.00     0.064 A 
ATOM     83  C   UNL A   1      40.957  35.217  38.596  1.00  0.00     0.173 A 
ATOM     84  C   UNL A   1      39.724  33.536  39.787  1.00  0.00     0.173 A 
ATOM     85  F   UNL A   1      41.574  35.657  37.490  1.00  0.00    -0.203 F 
ATOM     86  C   UNL A   1      40.952  36.022  39.734  1.00  0.00     0.198 A 
ATOM     87  C   UNL A   1      39.695  34.353  40.914  1.00  0.00     0.198 A 
ATOM     88  F   UNL A   1      39.117  32.341  39.841  1.00  0.00    -0.203 F 
ATOM     89  F   UNL A   1      41.566  37.212  39.711  1.00  0.00    -0.200 F 
ATOM     90  C   UNL A   1      40.311  35.595  40.887  1.00  0.00     0.200 A 
ATOM     91  F   UNL A   1      39.057  33.945  42.020  1.00  0.00    -0.200 F 
ATOM     92  F   UNL A   1      40.287  36.381  41.973  1.00  0.00    -0.200 F 
ENDBRANCH  58  82
BRANCH  70  93
ATOM     93  C   UNL A   1      44.464  29.023  35.893  1.00  0.00     0.064 A 
ATOM     94  C   UNL A   1      45.728  29.578  35.648  1.00  0.00     0.173 A 
ATOM     95  C   UNL A   1      44.395  27.858  36.670  1.00  0.00     0.173 A 
ATOM     96  F   UNL A   1      45.846  30.683  34.897  1.00  0.00    -0.203 F 
ATOM     97  C   UNL A   1      46.880  28.982  36.153  1.00  0.00     0.198 A 
ATOM     98  C   UNL A   1      45.545  27.280  37.197  1.00  0.00     0.198 A 
ATOM     99  F   UNL A   1      43.207  27.292  36.937  1.00  0.00    -0.203 F 
ATOM    100  F   UNL A   1      48.081  29.509  35.878  1.00  0.00    -0.200 F 
ATOM    101  C   UNL A   1      46.787  27.839  36.935  1.00  0.00     0.200 A 
ATOM    102  F   UNL A   1      45.453  26.185  37.965  1.00  0.00    -0.200 F 
ATOM    103  F   UNL A   1      47.896  27.275  37.433  1.00  0.00    -0.200 F 
ENDBRANCH  70  93
ENDBRANCH  44  45
ENDBRANCH  36  39
ENDBRANCH  34  35
ENDBRANCH  33  34
ENDBRANCH  32  33
ENDBRANCH   3  32
TORSDOF 15
ENDMDL
MODEL 2
REMARK VINA RESULT:     -12.7      2.246      7.885
REMARK SMILES C/C(=C\C(=O)c1c(O)n(C)c2ccccc2c1=O)Nc1ccc(C(=O)NCCCNC(=O)c2ccc(-c3c4nc(c(-c5c(F)c(F)c(F)c(F)c5F)c5ccc([nH]5)c(-c5c(F)c(F)c(F)c(F)c5F)c5nc(c(-c6c(F)c(F)c(F)c(F)c6F)c6ccc3[nH]6)C=C5)C=C4)cc2)cc1
REMARK SMILES IDX 24 1 25 2 26 3 23 5 20 6 21 7 97 8 22 9 96 10 19 11 2 13
REMARK SMILES IDX 1 14 3 15 4 16 5 17 6 18 7 19 17 20 9 21 16 22 18 23 10 24
REMARK SMILES IDX 11 25 15 26 12 27 14 28 13 29 8 30 27 32 28 33 29 34 30 35
REMARK SMILES IDX 31 36 32 38 33 39 34 40 95 41 35 42 94 43 36 44 37 45 38 46
REMARK SMILES IDX 88 47 39 48 93 49 87 50 89 51 40 52 92 53 86 54 85 55 41 57
REMARK SMILES IDX 73 58 53 59 72 60 54 61 57 62 71 63 90 64 55 65 56 66 70 68
REMARK SMILES IDX 91 69 58 70 42 71 43 72 51 73 44 74 45 75 49 76 52 77 46 78
REMARK SMILES IDX 47 79 50 80 48 81 74 82 75 83 83 84 76 85 77 86 81 87 84 88
REMARK SMILES IDX 78 89 79 90 82 91 80 92 59 93 60 94 68 95 61 96 62 97 66 98
REMARK SMILES IDX 69 99 63 100 64 101 67 102 65 103
REMARK H PARENT 26 4 19 12 8 31 30 37 89 56 57 67
REMARK Flexibility Score: inf
ROOT
ATOM      1  C   UNL A   1      29.866  30.457  23.869  1.00  0.00     0.251 C 
ATOM      2  O   UNL A   1      28.964  31.048  23.265  1.00  0.00    -0.269 OA
ATOM      3  N   UNL A   1      30.452  31.184  24.862  1.00  0.00    -0.352 N 
ATOM      4  H   UNL A   1      30.054  32.082  24.936  1.00  0.00     0.163 HD
ENDROOT
BRANCH   1   5
ATOM      5  C   UNL A   1      30.217  29.069  23.445  1.00  0.00     0.039 A 
ATOM      6  C   UNL A   1      31.279  26.519  22.717  1.00  0.00     0.038 A 
ATOM      7  C   UNL A   1      31.926  27.698  22.361  1.00  0.00     0.027 A 
ATOM      8  C   UNL A   1      30.036  26.640  23.344  1.00  0.00     0.027 A 
ATOM      9  C   UNL A   1      31.422  28.946  22.736  1.00  0.00     0.016 A 
ATOM     10  C   UNL A   1      29.509  27.895  23.698  1.00  0.00     0.016 A 
BRANCH   6  11
ATOM     11  N   UNL A   1      31.864  25.240  22.606  1.00  0.00    -0.359 N 
ATOM     12  H   UNL A   1      31.630  24.726  21.800  1.00  0.00     0.166 HD
BRANCH  11  13
ATOM     13  C   UNL A   1      32.738  24.612  23.509  1.00  0.00     0.016 C 
ATOM     14  C   UNL A   1      34.214  24.904  23.370  1.00  0.00     0.064 C 
ATOM     15  C   UNL A   1      32.225  23.815  24.477  1.00  0.00     0.074 C 
BRANCH  15  16
ATOM     16  C   UNL A   1      32.817  23.133  25.678  1.00  0.00     0.196 C 
ATOM     17  O   UNL A   1      32.884  23.750  26.740  1.00  0.00    -0.289 OA
BRANCH  16  18
ATOM     18  C   UNL A   1      33.460  21.816  25.535  1.00  0.00     0.130 A 
ATOM     19  C   UNL A   1      34.805  21.710  25.548  1.00  0.00     0.206 A 
ATOM     20  C   UNL A   1      32.648  20.627  25.200  1.00  0.00     0.204 A 
ATOM     21  N   UNL A   1      35.481  20.564  25.142  1.00  0.00    -0.315 N 
ATOM     22  C   UNL A   1      33.364  19.360  24.938  1.00  0.00     0.047 A 
ATOM     23  O   UNL A   1      31.427  20.692  25.095  1.00  0.00    -0.288 OA
ATOM     24  C   UNL A   1      36.900  20.592  24.773  1.00  0.00     0.153 C 
ATOM     25  C   UNL A   1      34.771  19.363  24.889  1.00  0.00     0.055 A 
ATOM     26  C   UNL A   1      32.619  18.196  24.690  1.00  0.00     0.014 A 
ATOM     27  C   UNL A   1      35.400  18.143  24.588  1.00  0.00     0.027 A 
ATOM     28  C   UNL A   1      33.272  17.005  24.393  1.00  0.00     0.001 A 
ATOM     29  C   UNL A   1      34.662  16.980  24.341  1.00  0.00     0.002 A 
BRANCH  19  30
ATOM     30  O   UNL A   1      35.615  22.779  25.894  1.00  0.00    -0.494 OA
ATOM     31  H   UNL A   1      35.645  23.540  25.347  1.00  0.00     0.295 HD
ENDBRANCH  19  30
ENDBRANCH  16  18
ENDBRANCH  15  16
ENDBRANCH  11  13
ENDBRANCH   6  11
ENDBRANCH   1   5
BRANCH   3  32
ATOM     32  C   UNL A   1      31.504  30.988  25.840  1.00  0.00     0.118 C 
BRANCH  32  33
ATOM     33  C   UNL A   1      31.399  31.993  26.979  1.00  0.00     0.042 C 
BRANCH  33  34
ATOM     34  C   UNL A   1      32.703  32.745  27.224  1.00  0.00     0.118 C 
BRANCH  34  35
ATOM     35  N   UNL A   1      32.483  34.139  27.599  1.00  0.00    -0.352 N 
ATOM     36  C   UNL A   1      33.029  34.905  28.603  1.00  0.00     0.251 C 
ATOM     37  H   UNL A   1      31.829  34.613  27.036  1.00  0.00     0.163 HD
ATOM     38  O   UNL A   1      32.518  35.975  28.900  1.00  0.00    -0.269 OA
BRANCH  36  39
ATOM     39  C   UNL A   1      34.214  34.425  29.344  1.00  0.00     0.039 A 
ATOM     40  C   UNL A   1      35.494  34.622  28.834  1.00  0.00     0.014 A 
ATOM     41  C   UNL A   1      34.047  33.774  30.570  1.00  0.00     0.014 A 
ATOM     42  C   UNL A   1      36.574  33.976  29.417  1.00  0.00     0.010 A 
ATOM     43  C   UNL A   1      35.158  33.237  31.229  1.00  0.00     0.010 A 
ATOM     44  C   UNL A   1      36.423  33.280  30.626  1.00  0.00    -0.014 A 
BRANCH  44  45
ATOM     45  C   UNL A   1      37.609  32.612  31.224  1.00  0.00     0.031 A 
ATOM     46  C   UNL A   1      38.061  32.948  32.619  1.00  0.00     0.074 A 
ATOM     47  C   UNL A   1      38.228  31.635  30.532  1.00  0.00     0.049 A 
ATOM     48  N   UNL A   1      39.058  32.447  33.308  1.00  0.00    -0.248 NA
ATOM     49  C   UNL A   1      37.304  33.985  33.338  1.00  0.00     0.031 C 
ATOM     50  C   UNL A   1      37.867  31.206  29.180  1.00  0.00     0.029 A 
ATOM     51  N   UNL A   1      39.258  30.798  30.880  1.00  0.00    -0.354 N 
ATOM     52  C   UNL A   1      39.058  33.119  34.522  1.00  0.00     0.074 A 
ATOM     53  C   UNL A   1      37.987  34.089  34.470  1.00  0.00     0.031 C 
ATOM     54  C   UNL A   1      38.603  30.137  28.845  1.00  0.00     0.029 A 
ATOM     55  C   UNL A   1      39.548  29.859  29.920  1.00  0.00     0.049 A 
ATOM     56  H   UNL A   1      39.743  30.865  31.734  1.00  0.00     0.167 HD
ATOM     57  C   UNL A   1      39.872  32.934  35.590  1.00  0.00     0.037 A 
ATOM     58  C   UNL A   1      40.480  28.889  29.898  1.00  0.00     0.037 A 
ATOM     59  C   UNL A   1      40.920  31.948  35.647  1.00  0.00     0.049 A 
ATOM     60  C   UNL A   1      41.403  28.742  31.072  1.00  0.00     0.074 A 
ATOM     61  C   UNL A   1      41.791  31.675  36.687  1.00  0.00     0.029 A 
ATOM     62  N   UNL A   1      41.235  31.069  34.621  1.00  0.00    -0.354 N 
ATOM     63  N   UNL A   1      41.403  29.395  32.208  1.00  0.00    -0.248 NA
ATOM     64  C   UNL A   1      42.467  27.736  30.954  1.00  0.00     0.031 C 
ATOM     65  C   UNL A   1      42.662  30.661  36.273  1.00  0.00     0.029 A 
ATOM     66  C   UNL A   1      42.303  30.268  34.995  1.00  0.00     0.049 A 
ATOM     67  H   UNL A   1      40.770  31.021  33.754  1.00  0.00     0.167 HD
ATOM     68  C   UNL A   1      42.460  28.879  32.943  1.00  0.00     0.074 A 
ATOM     69  C   UNL A   1      43.064  27.840  32.133  1.00  0.00     0.031 C 
ATOM     70  C   UNL A   1      42.894  29.241  34.174  1.00  0.00     0.037 A 
BRANCH  57  71
ATOM     71  C   UNL A   1      39.671  33.820  36.786  1.00  0.00     0.064 A 
ATOM     72  C   UNL A   1      40.252  35.094  36.866  1.00  0.00     0.173 A 
ATOM     73  C   UNL A   1      38.846  33.409  37.846  1.00  0.00     0.173 A 
ATOM     74  F   UNL A   1      41.061  35.529  35.888  1.00  0.00    -0.203 F 
ATOM     75  C   UNL A   1      40.031  35.916  37.969  1.00  0.00     0.198 A 
ATOM     76  C   UNL A   1      38.604  34.245  38.933  1.00  0.00     0.198 A 
ATOM     77  F   UNL A   1      38.261  32.202  37.818  1.00  0.00    -0.203 F 
ATOM     78  F   UNL A   1      40.631  37.112  38.041  1.00  0.00    -0.200 F 
ATOM     79  C   UNL A   1      39.201  35.495  38.997  1.00  0.00     0.200 A 
ATOM     80  F   UNL A   1      37.791  33.841  39.918  1.00  0.00    -0.200 F 
ATOM     81  F   UNL A   1      38.981  36.291  40.051  1.00  0.00    -0.200 F 
ENDBRANCH  57  71
BRANCH  58  82
ATOM     82  C   UNL A   1      40.572  27.991  28.719  1.00  0.00     0.064 A 
ATOM     83  C   UNL A   1      39.865  26.783  28.680  1.00  0.00     0.173 A 
ATOM     84  C   UNL A   1      41.322  28.347  27.588  1.00  0.00     0.173 A 
ATOM     85  F   UNL A   1      39.148  26.391  29.744  1.00  0.00    -0.203 F 
ATOM     86  C   UNL A   1      39.902  25.965  27.551  1.00  0.00     0.198 A 
ATOM     87  C   UNL A   1      41.336  27.544  26.450  1.00  0.00     0.198 A 
ATOM     88  F   UNL A   1      42.014  29.496  27.574  1.00  0.00    -0.203 F 
ATOM     89  F   UNL A   1      39.234  24.804  27.547  1.00  0.00    -0.200 F 
ATOM     90  C   UNL A   1      40.627  26.352  26.434  1.00  0.00     0.200 A 
ATOM     91  F   UNL A   1      42.021  27.932  25.366  1.00  0.00    -0.200 F 
ATOM     92  F   UNL A   1      40.643  25.576  25.341  1.00  0.00    -0.200 F 
ENDBRANCH  58  82
BRANCH  70  93
ATOM     93  C   UNL A   1      44.077  28.505  34.731  1.00  0.00     0.064 A 
ATOM     94  C   UNL A   1      45.379  29.004  34.589  1.00  0.00     0.173 A 
ATOM     95  C   UNL A   1      43.900  27.325  35.467  1.00  0.00     0.173 A 
ATOM     96  F   UNL A   1      45.601  30.121  33.880  1.00  0.00    -0.203 F 
ATOM     97  C   UNL A   1      46.464  28.340  35.155  1.00  0.00     0.198 A 
ATOM     98  C   UNL A   1      44.982  26.678  36.055  1.00  0.00     0.198 A 
ATOM     99  F   UNL A   1      42.672  26.811  35.636  1.00  0.00    -0.203 F 
ATOM    100  F   UNL A   1      47.704  28.815  34.978  1.00  0.00    -0.200 F 
ATOM    101  C   UNL A   1      46.264  27.184  35.895  1.00  0.00     0.200 A 
ATOM    102  F   UNL A   1      44.786  25.570  36.783  1.00  0.00    -0.200 F 
ATOM    103  F   UNL A   1      47.308  26.555  36.452  1.00  0.00    -0.200 F 
ENDBRANCH  70  93
ENDBRANCH  44  45
ENDBRANCH  36  39
ENDBRANCH  34  35
ENDBRANCH  33  34
ENDBRANCH  32  33
ENDBRANCH   3  32
TORSDOF 15
ENDMDL
MODEL 3
REMARK VINA RESULT:     -12.6      7.025     12.643
REMARK SMILES C/C(=C\C(=O)c1c(O)n(C)c2ccccc2c1=O)Nc1ccc(C(=O)NCCCNC(=O)c2ccc(-c3c4nc(c(-c5c(F)c(F)c(F)c(F)c5F)c5ccc([nH]5)c(-c5c(F)c(F)c(F)c(F)c5F)c5nc(c(-c6c(F)c(F)c(F)c(F)c6F)c6ccc3[nH]6)C=C5)C=C4)cc2)cc1
REMARK SMILES IDX 24 1 25 2 26 3 23 5 20 6 21 7 97 8 22 9 96 10 19 11 2 13
REMARK SMILES IDX 1 14 3 15 4 16 5 17 6 18 7 19 17 20 9 21 16 22 18 23 10 24
REMARK SMILES IDX 11 25 15 26 12 27 14 28 13 29 8 30 27 32 28 33 29 34 30 35
REMARK SMILES IDX 31 36 32 38 33 39 34 40 95 41 35 42 94 43 36 44 37 45 38 46
REMARK SMILES IDX 88 47 39 48 93 49 87 50 89 51 40 52 92 53 86 54 85 55 41 57
REMARK SMILES IDX 73 58 53 59 72 60 54 61 57 62 71 63 90 64 55 65 56 66 70 68
REMARK SMILES IDX 91 69 58 70 42 71 43 72 51 73 44 74 45 75 49 76 52 77 46 78
REMARK SMILES IDX 47 79 50 80 48 81 74 82 75 83 83 84 76 85 77 86 81 87 84 88
REMARK SMILES IDX 78 89 79 90 82 91 80 92 59 93 60 94 68 95 61 96 62 97 66 98
REMARK SMILES IDX 69 99 63 100 64 101 67 102 65 103
REMARK H PARENT 26 4 19 12 8 31 30 37 89 56 57 67
REMARK Flexibility Score: inf
ROOT
ATOM      1  C   UNL A   1      42.013  21.475  27.847  1.00  0.00     0.251 C 
ATOM      2  O   UNL A   1      42.742  22.367  28.294  1.00  0.00    -0.269 OA
ATOM      3  N   UNL A   1      42.498  20.212  28.010  1.00  0.00    -0.352 N 
ATOM      4  H   UNL A   1      43.372  20.217  28.464  1.00  0.00     0.163 HD
ENDROOT
BRANCH   1   5
ATOM      5  C   UNL A   1      40.734  21.868  27.183  1.00  0.00     0.039 A 
ATOM      6  C   UNL A   1      38.466  22.988  25.856  1.00  0.00     0.038 A 
ATOM      7  C   UNL A   1      39.187  23.720  26.793  1.00  0.00     0.027 A 
ATOM      8  C   UNL A   1      38.829  21.650  25.677  1.00  0.00     0.027 A 
ATOM      9  C   UNL A   1      40.312  23.183  27.426  1.00  0.00     0.016 A 
ATOM     10  C   UNL A   1      39.942  21.096  26.334  1.00  0.00     0.016 A 
BRANCH   6  11
ATOM     11  N   UNL A   1      37.500  23.551  24.996  1.00  0.00    -0.359 N 
ATOM     12  H   UNL A   1      37.842  24.151  24.294  1.00  0.00     0.166 HD
BRANCH  11  13
ATOM     13  C   UNL A   1      36.107  23.361  25.023  1.00  0.00     0.016 C 
ATOM     14  C   UNL A   1      35.464  23.104  26.365  1.00  0.00     0.064 C 
ATOM     15  C   UNL A   1      35.407  23.457  23.867  1.00  0.00     0.074 C 
BRANCH  15  16
ATOM     16  C   UNL A   1      33.940  23.478  23.545  1.00  0.00     0.196 C 
ATOM     17  O   UNL A   1      33.457  22.545  22.906  1.00  0.00    -0.289 OA
BRANCH  16  18
ATOM     18  C   UNL A   1      33.138  24.678  23.840  1.00  0.00     0.130 A 
ATOM     19  C   UNL A   1      32.234  24.664  24.840  1.00  0.00     0.206 A 
ATOM     20  C   UNL A   1      33.191  25.845  22.934  1.00  0.00     0.204 A 
ATOM     21  N   UNL A   1      31.256  25.642  24.996  1.00  0.00    -0.315 N 
ATOM     22  C   UNL A   1      32.265  26.966  23.207  1.00  0.00     0.047 A 
ATOM     23  O   UNL A   1      33.938  25.870  21.961  1.00  0.00    -0.288 OA
ATOM     24  C   UNL A   1      30.055  25.415  25.807  1.00  0.00     0.153 C 
ATOM     25  C   UNL A   1      31.298  26.827  24.220  1.00  0.00     0.055 A 
ATOM     26  C   UNL A   1      32.341  28.119  22.410  1.00  0.00     0.014 A 
ATOM     27  C   UNL A   1      30.412  27.903  24.406  1.00  0.00     0.027 A 
ATOM     28  C   UNL A   1      31.448  29.166  22.618  1.00  0.00     0.001 A 
ATOM     29  C   UNL A   1      30.484  29.056  23.615  1.00  0.00     0.002 A 
BRANCH  19  30
ATOM     30  O   UNL A   1      32.166  23.616  25.744  1.00  0.00    -0.494 OA
ATOM     31  H   UNL A   1      32.335  23.770  26.653  1.00  0.00     0.295 HD
ENDBRANCH  19  30
ENDBRANCH  16  18
ENDBRANCH  15  16
ENDBRANCH  11  13
ENDBRANCH   6  11
ENDBRANCH   1   5
BRANCH   3  32
ATOM     32  C   UNL A   1      42.071  18.863  27.695  1.00  0.00     0.118 C 
BRANCH  32  33
ATOM     33  C   UNL A   1      42.978  18.222  26.653  1.00  0.00     0.042 C 
BRANCH  33  34
ATOM     34  C   UNL A   1      43.029  19.012  25.350  1.00  0.00     0.118 C 
BRANCH  34  35
ATOM     35  N   UNL A   1      44.276  18.805  24.619  1.00  0.00    -0.352 N 
ATOM     36  C   UNL A   1      45.232  19.696  24.187  1.00  0.00     0.251 C 
ATOM     37  H   UNL A   1      44.466  17.865  24.398  1.00  0.00     0.163 HD
ATOM     38  O   UNL A   1      46.072  19.340  23.372  1.00  0.00    -0.269 OA
BRANCH  36  39
ATOM     39  C   UNL A   1      45.229  21.089  24.681  1.00  0.00     0.039 A 
ATOM     40  C   UNL A   1      44.894  22.139  23.830  1.00  0.00     0.014 A 
ATOM     41  C   UNL A   1      45.556  21.351  26.014  1.00  0.00     0.014 A 
ATOM     42  C   UNL A   1      45.111  23.448  24.235  1.00  0.00     0.010 A 
ATOM     43  C   UNL A   1      45.645  22.674  26.461  1.00  0.00     0.010 A 
ATOM     44  C   UNL A   1      45.482  23.734  25.558  1.00  0.00    -0.014 A 
BRANCH  44  45
ATOM     45  C   UNL A   1      45.693  25.152  25.955  1.00  0.00     0.031 A 
ATOM     46  C   UNL A   1      44.584  25.947  26.590  1.00  0.00     0.074 A 
ATOM     47  C   UNL A   1      46.918  25.695  25.817  1.00  0.00     0.049 A 
ATOM     48  N   UNL A   1      44.599  27.185  27.021  1.00  0.00    -0.248 NA
ATOM     49  C   UNL A   1      43.288  25.273  26.762  1.00  0.00     0.031 C 
ATOM     50  C   UNL A   1      48.077  25.015  25.234  1.00  0.00     0.029 A 
ATOM     51  N   UNL A   1      47.408  26.920  26.192  1.00  0.00    -0.354 N 
ATOM     52  C   UNL A   1      43.317  27.440  27.490  1.00  0.00     0.074 A 
ATOM     53  C   UNL A   1      42.537  26.243  27.263  1.00  0.00     0.031 C 
ATOM     54  C   UNL A   1      49.158  25.796  25.364  1.00  0.00     0.029 A 
ATOM     55  C   UNL A   1      48.754  27.066  25.958  1.00  0.00     0.049 A 
ATOM     56  H   UNL A   1      46.850  27.627  26.588  1.00  0.00     0.167 HD
ATOM     57  C   UNL A   1      42.839  28.567  28.071  1.00  0.00     0.037 A 
ATOM     58  C   UNL A   1      49.574  28.108  26.182  1.00  0.00     0.037 A 
ATOM     59  C   UNL A   1      43.628  29.746  28.319  1.00  0.00     0.049 A 
ATOM     60  C   UNL A   1      49.005  29.364  26.777  1.00  0.00     0.074 A 
ATOM     61  C   UNL A   1      43.239  30.935  28.911  1.00  0.00     0.029 A 
ATOM     62  N   UNL A   1      44.970  29.883  27.993  1.00  0.00    -0.354 N 
ATOM     63  N   UNL A   1      47.789  29.598  27.201  1.00  0.00    -0.248 NA
ATOM     64  C   UNL A   1      49.919  30.507  26.905  1.00  0.00     0.031 C 
ATOM     65  C   UNL A   1      44.333  31.807  28.903  1.00  0.00     0.029 A 
ATOM     66  C   UNL A   1      45.418  31.145  28.352  1.00  0.00     0.049 A 
ATOM     67  H   UNL A   1      45.522  29.187  27.570  1.00  0.00     0.167 HD
ATOM     68  C   UNL A   1      47.788  30.909  27.652  1.00  0.00     0.074 A 
ATOM     69  C   UNL A   1      49.135  31.412  27.472  1.00  0.00     0.031 C 
ATOM     70  C   UNL A   1      46.761  31.632  28.162  1.00  0.00     0.037 A 
BRANCH  57  71
ATOM     71  C   UNL A   1      41.393  28.589  28.473  1.00  0.00     0.064 A 
ATOM     72  C   UNL A   1      40.386  28.992  27.583  1.00  0.00     0.173 A 
ATOM     73  C   UNL A   1      41.002  28.153  29.750  1.00  0.00     0.173 A 
ATOM     74  F   UNL A   1      40.706  29.431  26.356  1.00  0.00    -0.203 F 
ATOM     75  C   UNL A   1      39.045  28.977  27.961  1.00  0.00     0.198 A 
ATOM     76  C   UNL A   1      39.658  28.112  30.114  1.00  0.00     0.198 A 
ATOM     77  F   UNL A   1      41.923  27.752  30.638  1.00  0.00    -0.203 F 
ATOM     78  F   UNL A   1      38.106  29.406  27.108  1.00  0.00    -0.200 F 
ATOM     79  C   UNL A   1      38.682  28.530  29.223  1.00  0.00     0.200 A 
ATOM     80  F   UNL A   1      39.309  27.667  31.329  1.00  0.00    -0.200 F 
ATOM     81  F   UNL A   1      37.391  28.505  29.581  1.00  0.00    -0.200 F 
ENDBRANCH  57  71
BRANCH  58  82
ATOM     82  C   UNL A   1      51.014  27.994  25.839  1.00  0.00     0.064 A 
ATOM     83  C   UNL A   1      51.961  27.668  26.818  1.00  0.00     0.173 A 
ATOM     84  C   UNL A   1      51.465  28.151  24.520  1.00  0.00     0.173 A 
ATOM     85  F   UNL A   1      51.582  27.526  28.096  1.00  0.00    -0.203 F 
ATOM     86  C   UNL A   1      53.306  27.502  26.489  1.00  0.00     0.198 A 
ATOM     87  C   UNL A   1      52.802  27.956  24.187  1.00  0.00     0.198 A 
ATOM     88  F   UNL A   1      50.595  28.459  23.545  1.00  0.00    -0.203 F 
ATOM     89  F   UNL A   1      54.196  27.212  27.447  1.00  0.00    -0.200 F 
ATOM     90  C   UNL A   1      53.723  27.634  25.173  1.00  0.00     0.200 A 
ATOM     91  F   UNL A   1      53.197  28.064  22.911  1.00  0.00    -0.200 F 
ATOM     92  F   UNL A   1      55.012  27.451  24.854  1.00  0.00    -0.200 F 
ENDBRANCH  58  82
BRANCH  70  93
ATOM     93  C   UNL A   1      47.050  33.046  28.570  1.00  0.00     0.064 A 
ATOM     94  C   UNL A   1      47.513  33.352  29.858  1.00  0.00     0.173 A 
ATOM     95  C   UNL A   1      46.926  34.094  27.647  1.00  0.00     0.173 A 
ATOM     96  F   UNL A   1      47.633  32.386  30.780  1.00  0.00    -0.203 F 
ATOM     97  C   UNL A   1      47.829  34.661  30.210  1.00  0.00     0.198 A 
ATOM     98  C   UNL A   1      47.269  35.397  27.993  1.00  0.00     0.198 A 
ATOM     99  F   UNL A   1      46.493  33.849  26.401  1.00  0.00    -0.203 F 
ATOM    100  F   UNL A   1      48.235  34.939  31.456  1.00  0.00    -0.200 F 
ATOM    101  C   UNL A   1      47.716  35.681  29.275  1.00  0.00     0.200 A 
ATOM    102  F   UNL A   1      47.174  36.378  27.085  1.00  0.00    -0.200 F 
ATOM    103  F   UNL A   1      48.035  36.938  29.612  1.00  0.00    -0.200 F 
ENDBRANCH  70  93
ENDBRANCH  44  45
ENDBRANCH  36  39
ENDBRANCH  34  35
ENDBRANCH  33  34
ENDBRANCH  32  33
ENDBRANCH   3  32
TORSDOF 15
ENDMDL
