MODEL 1
REMARK VINA RESULT:     -11.7      0.000      0.000
REMARK SMILES O=C(NCCCNC(=O)[C@@H]1C[C@@H]1C(=O)Nc1cc(F)ccc1F)c1ccc(-c2c3nc(c(-c4c(F)c(F)c(F)c(F)c4F)c4ccc([nH]4)c(-c4c(F)c(F)c(F)c(F)c4F)c4nc(c(-c5c(F)c(F)c(F)c(F)c5F)c5ccc2[nH]5)C=C4)C=C3)cc1
REMARK SMILES IDX 5 1 4 2 3 3 1 4 2 5 24 7 25 8 86 9 26 10 85 11 27 12 28 13
REMARK SMILES IDX 29 14 79 15 30 16 84 17 78 18 80 19 31 20 83 21 77 22 76 23
REMARK SMILES IDX 32 25 64 26 44 27 63 28 45 29 48 30 62 31 81 32 46 33 47 34
REMARK SMILES IDX 61 36 82 37 49 38 33 39 34 40 42 41 35 42 36 43 40 44 43 45
REMARK SMILES IDX 37 46 38 47 41 48 39 49 65 50 66 51 74 52 67 53 68 54 72 55
REMARK SMILES IDX 75 56 69 57 70 58 73 59 71 60 50 61 51 62 59 63 52 64 53 65
REMARK SMILES IDX 57 66 60 67 54 68 55 69 58 70 56 71 6 72 7 73 8 74 9 76
REMARK SMILES IDX 10 77 11 78 12 79 13 80 14 81 15 82 16 84 17 85 22 86 18 87
REMARK SMILES IDX 21 88 23 89 19 90 20 91
REMARK H PARENT 3 6 80 24 48 35 7 75 15 83
REMARK Flexibility Score: inf
ROOT
ATOM      1  C   UNL A   1      38.120  19.572  24.997  1.00  0.00     0.042 C 
ENDROOT
BRANCH   1   2
ATOM      2  C   UNL A   1      39.234  19.850  26.012  1.00  0.00     0.118 C 
BRANCH   2   3
ATOM      3  N   UNL A   1      40.350  18.935  25.900  1.00  0.00    -0.352 N 
ATOM      4  O   UNL A   1      42.516  18.304  25.862  1.00  0.00    -0.269 OA
ATOM      5  C   UNL A   1      41.690  19.193  26.041  1.00  0.00     0.251 C 
ATOM      6  H   UNL A   1      40.117  18.001  25.695  1.00  0.00     0.163 HD
BRANCH   5   7
ATOM      7  C   UNL A   1      42.153  20.558  26.371  1.00  0.00     0.039 A 
ATOM      8  C   UNL A   1      42.451  21.491  25.374  1.00  0.00     0.014 A 
ATOM      9  C   UNL A   1      42.240  20.915  27.717  1.00  0.00     0.014 A 
ATOM     10  C   UNL A   1      42.895  22.770  25.731  1.00  0.00     0.010 A 
ATOM     11  C   UNL A   1      42.651  22.203  28.072  1.00  0.00     0.010 A 
ATOM     12  C   UNL A   1      42.997  23.140  27.083  1.00  0.00    -0.014 A 
BRANCH  12  13
ATOM     13  C   UNL A   1      43.428  24.510  27.479  1.00  0.00     0.031 A 
ATOM     14  C   UNL A   1      42.415  25.554  27.866  1.00  0.00     0.074 A 
ATOM     15  C   UNL A   1      44.734  24.834  27.457  1.00  0.00     0.049 A 
ATOM     16  N   UNL A   1      42.602  26.815  28.178  1.00  0.00    -0.248 NA
ATOM     17  C   UNL A   1      41.008  25.131  27.904  1.00  0.00     0.031 C 
ATOM     18  C   UNL A   1      45.820  23.925  27.095  1.00  0.00     0.029 A 
ATOM     19  N   UNL A   1      45.370  26.020  27.739  1.00  0.00    -0.354 N 
ATOM     20  C   UNL A   1      41.342  27.333  28.443  1.00  0.00     0.074 A 
ATOM     21  C   UNL A   1      40.393  26.261  28.224  1.00  0.00     0.031 C 
ATOM     22  C   UNL A   1      46.989  24.578  27.196  1.00  0.00     0.029 A 
ATOM     23  C   UNL A   1      46.734  25.963  27.584  1.00  0.00     0.049 A 
ATOM     24  H   UNL A   1      44.893  26.833  28.025  1.00  0.00     0.167 HD
ATOM     25  C   UNL A   1      41.008  28.584  28.845  1.00  0.00     0.037 A 
ATOM     26  C   UNL A   1      47.674  26.918  27.724  1.00  0.00     0.037 A 
ATOM     27  C   UNL A   1      41.947  29.655  29.067  1.00  0.00     0.049 A 
ATOM     28  C   UNL A   1      47.271  28.312  28.120  1.00  0.00     0.074 A 
ATOM     29  C   UNL A   1      41.693  30.947  29.498  1.00  0.00     0.029 A 
ATOM     30  N   UNL A   1      43.317  29.563  28.875  1.00  0.00    -0.354 N 
ATOM     31  N   UNL A   1      46.079  28.784  28.392  1.00  0.00    -0.248 NA
ATOM     32  C   UNL A   1      48.347  29.309  28.228  1.00  0.00     0.031 C 
ATOM     33  C   UNL A   1      42.901  31.650  29.522  1.00  0.00     0.029 A 
ATOM     34  C   UNL A   1      43.918  30.781  29.159  1.00  0.00     0.049 A 
ATOM     35  H   UNL A   1      43.794  28.753  28.582  1.00  0.00     0.167 HD
ATOM     36  C   UNL A   1      46.262  30.120  28.724  1.00  0.00     0.074 A 
ATOM     37  C   UNL A   1      47.683  30.383  28.634  1.00  0.00     0.031 C 
ATOM     38  C   UNL A   1      45.332  31.042  29.073  1.00  0.00     0.037 A 
BRANCH  25  39
ATOM     39  C   UNL A   1      39.554  28.880  29.075  1.00  0.00     0.064 A 
ATOM     40  C   UNL A   1      38.748  29.358  28.031  1.00  0.00     0.173 A 
ATOM     41  C   UNL A   1      38.978  28.772  30.351  1.00  0.00     0.173 A 
ATOM     42  F   UNL A   1      39.251  29.491  26.794  1.00  0.00    -0.203 F 
ATOM     43  C   UNL A   1      37.424  29.729  28.257  1.00  0.00     0.198 A 
ATOM     44  C   UNL A   1      37.647  29.118  30.568  1.00  0.00     0.198 A 
ATOM     45  F   UNL A   1      39.705  28.314  31.382  1.00  0.00    -0.203 F 
ATOM     46  F   UNL A   1      36.685  30.216  27.251  1.00  0.00    -0.200 F 
ATOM     47  C   UNL A   1      36.875  29.605  29.523  1.00  0.00     0.200 A 
ATOM     48  F   UNL A   1      37.111  28.978  31.788  1.00  0.00    -0.200 F 
ATOM     49  F   UNL A   1      35.599  29.955  29.739  1.00  0.00    -0.200 F 
ENDBRANCH  25  39
BRANCH  26  50
ATOM     50  C   UNL A   1      49.102  26.575  27.504  1.00  0.00     0.064 A 
ATOM     51  C   UNL A   1      49.641  26.481  26.213  1.00  0.00     0.173 A 
ATOM     52  C   UNL A   1      49.949  26.306  28.588  1.00  0.00     0.173 A 
ATOM     53  F   UNL A   1      48.870  26.730  25.144  1.00  0.00    -0.203 F 
ATOM     54  C   UNL A   1      50.967  26.105  26.014  1.00  0.00     0.198 A 
ATOM     55  C   UNL A   1      51.282  25.957  28.389  1.00  0.00     0.198 A 
ATOM     56  F   UNL A   1      49.484  26.409  29.842  1.00  0.00    -0.203 F 
ATOM     57  F   UNL A   1      51.448  25.986  24.769  1.00  0.00    -0.200 F 
ATOM     58  C   UNL A   1      51.787  25.847  27.102  1.00  0.00     0.200 A 
ATOM     59  F   UNL A   1      52.078  25.735  29.443  1.00  0.00    -0.200 F 
ATOM     60  F   UNL A   1      53.066  25.495  26.910  1.00  0.00    -0.200 F 
ENDBRANCH  26  50
BRANCH  38  61
ATOM     61  C   UNL A   1      45.812  32.423  29.414  1.00  0.00     0.064 A 
ATOM     62  C   UNL A   1      46.155  32.750  30.735  1.00  0.00     0.173 A 
ATOM     63  C   UNL A   1      45.878  33.440  28.450  1.00  0.00     0.173 A 
ATOM     64  F   UNL A   1      46.103  31.817  31.699  1.00  0.00    -0.203 F 
ATOM     65  C   UNL A   1      46.536  34.045  31.080  1.00  0.00     0.198 A 
ATOM     66  C   UNL A   1      46.286  34.726  28.793  1.00  0.00     0.198 A 
ATOM     67  F   UNL A   1      45.573  33.176  27.171  1.00  0.00    -0.203 F 
ATOM     68  F   UNL A   1      46.832  34.338  32.353  1.00  0.00    -0.200 F 
ATOM     69  C   UNL A   1      46.607  35.030  30.108  1.00  0.00     0.200 A 
ATOM     70  F   UNL A   1      46.378  35.673  27.847  1.00  0.00    -0.200 F 
ATOM     71  F   UNL A   1      46.989  36.271  30.437  1.00  0.00    -0.200 F 
ENDBRANCH  38  61
ENDBRANCH  12  13
ENDBRANCH   5   7
ENDBRANCH   2   3
ENDBRANCH   1   2
BRANCH   1  72
ATOM     72  C   UNL A   1      37.403  20.822  24.481  1.00  0.00     0.117 C 
BRANCH  72  73
ATOM     73  N   UNL A   1      36.578  21.331  25.543  1.00  0.00    -0.356 N 
ATOM     74  C   UNL A   1      35.223  21.206  25.650  1.00  0.00     0.223 C 
ATOM     75  H   UNL A   1      37.036  21.820  26.264  1.00  0.00     0.163 HD
ATOM     76  O   UNL A   1      34.530  20.452  25.001  1.00  0.00    -0.275 OA
BRANCH  74  77
ATOM     77  C   UNL A   1      34.611  22.138  26.640  1.00  0.00     0.091 C 
ATOM     78  C   UNL A   1      33.232  22.649  26.305  1.00  0.00     0.028 C 
ATOM     79  C   UNL A   1      34.384  23.630  26.501  1.00  0.00     0.092 C 
BRANCH  79  80
ATOM     80  C   UNL A   1      34.727  24.513  25.358  1.00  0.00     0.228 C 
ATOM     81  O   UNL A   1      35.541  24.128  24.523  1.00  0.00    -0.274 OA
ATOM     82  N   UNL A   1      34.086  25.698  25.143  1.00  0.00    -0.323 N 
ATOM     83  H   UNL A   1      34.064  25.944  24.190  1.00  0.00     0.170 HD
BRANCH  82  84
ATOM     84  C   UNL A   1      33.448  26.654  25.955  1.00  0.00     0.080 A 
ATOM     85  C   UNL A   1      34.028  27.818  26.448  1.00  0.00     0.068 A 
ATOM     86  C   UNL A   1      32.067  26.483  26.130  1.00  0.00     0.146 A 
ATOM     87  C   UNL A   1      33.231  28.776  27.086  1.00  0.00     0.125 A 
ATOM     88  C   UNL A   1      31.283  27.410  26.814  1.00  0.00     0.044 A 
ATOM     89  F   UNL A   1      31.476  25.390  25.621  1.00  0.00    -0.205 F 
ATOM     90  F   UNL A   1      33.781  29.935  27.474  1.00  0.00    -0.207 F 
ATOM     91  C   UNL A   1      31.871  28.576  27.289  1.00  0.00     0.042 A 
ENDBRANCH  82  84
ENDBRANCH  79  80
ENDBRANCH  74  77
ENDBRANCH  72  73
ENDBRANCH   1  72
TORSDOF 12
ENDMDL
MODEL 2
REMARK VINA RESULT:     -11.7      3.380      9.915
REMARK SMILES O=C(NCCCNC(=O)[C@@H]1C[C@@H]1C(=O)Nc1cc(F)ccc1F)c1ccc(-c2c3nc(c(-c4c(F)c(F)c(F)c(F)c4F)c4ccc([nH]4)c(-c4c(F)c(F)c(F)c(F)c4F)c4nc(c(-c5c(F)c(F)c(F)c(F)c5F)c5ccc2[nH]5)C=C4)C=C3)cc1
REMARK SMILES IDX 5 1 4 2 3 3 1 4 2 5 24 7 25 8 86 9 26 10 85 11 27 12 28 13
REMARK SMILES IDX 29 14 79 15 30 16 84 17 78 18 80 19 31 20 83 21 77 22 76 23
REMARK SMILES IDX 32 25 64 26 44 27 63 28 45 29 48 30 62 31 81 32 46 33 47 34
REMARK SMILES IDX 61 36 82 37 49 38 33 39 34 40 42 41 35 42 36 43 40 44 43 45
REMARK SMILES IDX 37 46 38 47 41 48 39 49 65 50 66 51 74 52 67 53 68 54 72 55
REMARK SMILES IDX 75 56 69 57 70 58 73 59 71 60 50 61 51 62 59 63 52 64 53 65
REMARK SMILES IDX 57 66 60 67 54 68 55 69 58 70 56 71 6 72 7 73 8 74 9 76
REMARK SMILES IDX 10 77 11 78 12 79 13 80 14 81 15 82 16 84 17 85 22 86 18 87
REMARK SMILES IDX 21 88 23 89 19 90 20 91
REMARK H PARENT 3 6 80 24 48 35 7 75 15 83
REMARK Flexibility Score: inf
ROOT
ATOM      1  C   UNL A   1      41.749  20.110  27.522  1.00  0.00     0.042 C 
ENDROOT
BRANCH   1   2
ATOM      2  C   UNL A   1      41.144  21.518  27.515  1.00  0.00     0.118 C 
BRANCH   2   3
ATOM      3  N   UNL A   1      39.964  21.628  26.683  1.00  0.00    -0.352 N 
ATOM      4  O   UNL A   1      38.203  22.650  25.711  1.00  0.00    -0.269 OA
ATOM      5  C   UNL A   1      39.213  22.741  26.401  1.00  0.00     0.251 C 
ATOM      6  H   UNL A   1      39.658  20.792  26.264  1.00  0.00     0.163 HD
BRANCH   5   7
ATOM      7  C   UNL A   1      39.593  24.055  26.961  1.00  0.00     0.039 A 
ATOM      8  C   UNL A   1      39.219  24.436  28.254  1.00  0.00     0.014 A 
ATOM      9  C   UNL A   1      40.385  24.899  26.181  1.00  0.00     0.014 A 
ATOM     10  C   UNL A   1      39.594  25.694  28.741  1.00  0.00     0.010 A 
ATOM     11  C   UNL A   1      40.787  26.140  26.682  1.00  0.00     0.010 A 
ATOM     12  C   UNL A   1      40.383  26.557  27.961  1.00  0.00    -0.014 A 
BRANCH  12  13
ATOM     13  C   UNL A   1      40.824  27.882  28.482  1.00  0.00     0.031 A 
ATOM     14  C   UNL A   1      42.276  28.151  28.770  1.00  0.00     0.074 A 
ATOM     15  C   UNL A   1      39.913  28.841  28.733  1.00  0.00     0.049 A 
ATOM     16  N   UNL A   1      42.834  29.221  29.285  1.00  0.00    -0.248 NA
ATOM     17  C   UNL A   1      43.226  27.079  28.444  1.00  0.00     0.031 C 
ATOM     18  C   UNL A   1      38.474  28.713  28.508  1.00  0.00     0.029 A 
ATOM     19  N   UNL A   1      40.060  30.110  29.240  1.00  0.00    -0.354 N 
ATOM     20  C   UNL A   1      44.194  28.949  29.348  1.00  0.00     0.074 A 
ATOM     21  C   UNL A   1      44.376  27.601  28.850  1.00  0.00     0.031 C 
ATOM     22  C   UNL A   1      37.873  29.863  28.854  1.00  0.00     0.029 A 
ATOM     23  C   UNL A   1      38.876  30.792  29.369  1.00  0.00     0.049 A 
ATOM     24  H   UNL A   1      40.934  30.493  29.486  1.00  0.00     0.167 HD
ATOM     25  C   UNL A   1      45.201  29.754  29.769  1.00  0.00     0.037 A 
ATOM     26  C   UNL A   1      38.619  32.021  29.860  1.00  0.00     0.037 A 
ATOM     27  C   UNL A   1      45.028  31.097  30.263  1.00  0.00     0.049 A 
ATOM     28  C   UNL A   1      39.748  32.874  30.369  1.00  0.00     0.074 A 
ATOM     29  C   UNL A   1      45.999  31.990  30.689  1.00  0.00     0.029 A 
ATOM     30  N   UNL A   1      43.808  31.742  30.402  1.00  0.00    -0.354 N 
ATOM     31  N   UNL A   1      41.032  32.615  30.401  1.00  0.00    -0.248 NA
ATOM     32  C   UNL A   1      39.390  34.193  30.914  1.00  0.00     0.031 C 
ATOM     33  C   UNL A   1      45.364  33.156  31.128  1.00  0.00     0.029 A 
ATOM     34  C   UNL A   1      44.001  33.012  30.925  1.00  0.00     0.049 A 
ATOM     35  H   UNL A   1      42.934  31.356  30.163  1.00  0.00     0.167 HD
ATOM     36  C   UNL A   1      41.637  33.741  30.944  1.00  0.00     0.074 A 
ATOM     37  C   UNL A   1      40.581  34.693  31.217  1.00  0.00     0.031 C 
ATOM     38  C   UNL A   1      42.950  33.961  31.193  1.00  0.00     0.037 A 
BRANCH  25  39
ATOM     39  C   UNL A   1      46.599  29.210  29.721  1.00  0.00     0.064 A 
ATOM     40  C   UNL A   1      47.129  28.501  30.810  1.00  0.00     0.173 A 
ATOM     41  C   UNL A   1      47.445  29.463  28.630  1.00  0.00     0.173 A 
ATOM     42  F   UNL A   1      46.366  28.242  31.883  1.00  0.00    -0.203 F 
ATOM     43  C   UNL A   1      48.456  28.078  30.815  1.00  0.00     0.198 A 
ATOM     44  C   UNL A   1      48.764  29.014  28.626  1.00  0.00     0.198 A 
ATOM     45  F   UNL A   1      46.985  30.130  27.560  1.00  0.00    -0.203 F 
ATOM     46  F   UNL A   1      48.949  27.434  31.882  1.00  0.00    -0.200 F 
ATOM     47  C   UNL A   1      49.270  28.331  29.722  1.00  0.00     0.200 A 
ATOM     48  F   UNL A   1      49.544  29.242  27.560  1.00  0.00    -0.200 F 
ATOM     49  F   UNL A   1      50.545  27.918  29.724  1.00  0.00    -0.200 F 
ENDBRANCH  25  39
BRANCH  26  50
ATOM     50  C   UNL A   1      37.222  32.525  29.871  1.00  0.00     0.064 A 
ATOM     51  C   UNL A   1      36.721  33.313  28.825  1.00  0.00     0.173 A 
ATOM     52  C   UNL A   1      36.369  32.247  30.948  1.00  0.00     0.173 A 
ATOM     53  F   UNL A   1      37.498  33.605  27.773  1.00  0.00    -0.203 F 
ATOM     54  C   UNL A   1      35.427  33.826  28.870  1.00  0.00     0.198 A 
ATOM     55  C   UNL A   1      35.066  32.737  30.978  1.00  0.00     0.198 A 
ATOM     56  F   UNL A   1      36.796  31.474  31.958  1.00  0.00    -0.203 F 
ATOM     57  F   UNL A   1      34.984  34.608  27.876  1.00  0.00    -0.200 F 
ATOM     58  C   UNL A   1      34.600  33.536  29.944  1.00  0.00     0.200 A 
ATOM     59  F   UNL A   1      34.262  32.432  32.005  1.00  0.00    -0.200 F 
ATOM     60  F   UNL A   1      33.352  34.021  29.982  1.00  0.00    -0.200 F 
ENDBRANCH  26  50
BRANCH  38  61
ATOM     61  C   UNL A   1      43.339  35.294  31.765  1.00  0.00     0.064 A 
ATOM     62  C   UNL A   1      43.274  35.520  33.149  1.00  0.00     0.173 A 
ATOM     63  C   UNL A   1      43.722  36.365  30.944  1.00  0.00     0.173 A 
ATOM     64  F   UNL A   1      42.907  34.531  33.979  1.00  0.00    -0.203 F 
ATOM     65  C   UNL A   1      43.567  36.770  33.687  1.00  0.00     0.198 A 
ATOM     66  C   UNL A   1      44.041  37.607  31.489  1.00  0.00     0.198 A 
ATOM     67  F   UNL A   1      43.813  36.198  29.616  1.00  0.00    -0.203 F 
ATOM     68  F   UNL A   1      43.470  36.968  35.009  1.00  0.00    -0.200 F 
ATOM     69  C   UNL A   1      43.955  37.811  32.858  1.00  0.00     0.200 A 
ATOM     70  F   UNL A   1      44.440  38.605  30.688  1.00  0.00    -0.200 F 
ATOM     71  F   UNL A   1      44.252  39.009  33.379  1.00  0.00    -0.200 F 
ENDBRANCH  38  61
ENDBRANCH  12  13
ENDBRANCH   5   7
ENDBRANCH   2   3
ENDBRANCH   1   2
BRANCH   1  72
ATOM     72  C   UNL A   1      41.698  19.388  26.173  1.00  0.00     0.117 C 
BRANCH  72  73
ATOM     73  N   UNL A   1      42.723  19.943  25.332  1.00  0.00    -0.356 N 
ATOM     74  C   UNL A   1      43.938  19.386  25.057  1.00  0.00     0.223 C 
ATOM     75  H   UNL A   1      42.529  20.813  24.913  1.00  0.00     0.163 HD
ATOM     76  O   UNL A   1      44.256  18.238  25.283  1.00  0.00    -0.275 OA
BRANCH  74  77
ATOM     77  C   UNL A   1      44.919  20.346  24.472  1.00  0.00     0.091 C 
ATOM     78  C   UNL A   1      45.777  21.100  25.458  1.00  0.00     0.028 C 
ATOM     79  C   UNL A   1      44.871  21.860  24.494  1.00  0.00     0.092 C 
BRANCH  79  80
ATOM     80  C   UNL A   1      43.835  22.741  25.088  1.00  0.00     0.228 C 
ATOM     81  O   UNL A   1      42.662  22.605  24.751  1.00  0.00    -0.274 OA
ATOM     82  N   UNL A   1      44.127  23.631  26.081  1.00  0.00    -0.323 N 
ATOM     83  H   UNL A   1      43.355  23.802  26.669  1.00  0.00     0.170 HD
BRANCH  82  84
ATOM     84  C   UNL A   1      45.264  24.363  26.469  1.00  0.00     0.080 A 
ATOM     85  C   UNL A   1      45.795  25.458  25.794  1.00  0.00     0.068 A 
ATOM     86  C   UNL A   1      45.791  24.051  27.731  1.00  0.00     0.146 A 
ATOM     87  C   UNL A   1      46.816  26.211  26.386  1.00  0.00     0.125 A 
ATOM     88  C   UNL A   1      46.844  24.767  28.296  1.00  0.00     0.044 A 
ATOM     89  F   UNL A   1      45.263  23.028  28.422  1.00  0.00    -0.205 F 
ATOM     90  F   UNL A   1      47.255  27.317  25.771  1.00  0.00    -0.207 F 
ATOM     91  C   UNL A   1      47.356  25.866  27.619  1.00  0.00     0.042 A 
ENDBRANCH  82  84
ENDBRANCH  79  80
ENDBRANCH  74  77
ENDBRANCH  72  73
ENDBRANCH   1  72
TORSDOF 12
ENDMDL
MODEL 3
REMARK VINA RESULT:     -11.7      3.747      9.825
REMARK SMILES O=C(NCCCNC(=O)[C@@H]1C[C@@H]1C(=O)Nc1cc(F)ccc1F)c1ccc(-c2c3nc(c(-c4c(F)c(F)c(F)c(F)c4F)c4ccc([nH]4)c(-c4c(F)c(F)c(F)c(F)c4F)c4nc(c(-c5c(F)c(F)c(F)c(F)c5F)c5ccc2[nH]5)C=C4)C=C3)cc1
REMARK SMILES IDX 5 1 4 2 3 3 1 4 2 5 24 7 25 8 86 9 26 10 85 11 27 12 28 13
REMARK SMILES IDX 29 14 79 15 30 16 84 17 78 18 80 19 31 20 83 21 77 22 76 23
REMARK SMILES IDX 32 25 64 26 44 27 63 28 45 29 48 30 62 31 81 32 46 33 47 34
REMARK SMILES IDX 61 36 82 37 49 38 33 39 34 40 42 41 35 42 36 43 40 44 43 45
REMARK SMILES IDX 37 46 38 47 41 48 39 49 65 50 66 51 74 52 67 53 68 54 72 55
REMARK SMILES IDX 75 56 69 57 70 58 73 59 71 60 50 61 51 62 59 63 52 64 53 65
REMARK SMILES IDX 57 66 60 67 54 68 55 69 58 70 56 71 6 72 7 73 8 74 9 76
REMARK SMILES IDX 10 77 11 78 12 79 13 80 14 81 15 82 16 84 17 85 22 86 18 87
REMARK SMILES IDX 21 88 23 89 19 90 20 91
REMARK H PARENT 3 6 80 24 48 35 7 75 15 83
REMARK Flexibility Score: inf
ROOT
ATOM      1  C   UNL A   1      41.910  20.679  26.248  1.00  0.00     0.042 C 
ENDROOT
BRANCH   1   2
ATOM      2  C   UNL A   1      41.248  22.028  26.548  1.00  0.00     0.118 C 
BRANCH   2   3
ATOM      3  N   UNL A   1      39.898  22.129  26.035  1.00  0.00    -0.352 N 
ATOM      4  O   UNL A   1      37.862  23.051  25.726  1.00  0.00    -0.269 OA
ATOM      5  C   UNL A   1      38.994  23.149  26.189  1.00  0.00     0.251 C 
ATOM      6  H   UNL A   1      39.586  21.361  25.503  1.00  0.00     0.163 HD
BRANCH   5   7
ATOM      7  C   UNL A   1      39.364  24.360  26.951  1.00  0.00     0.039 A 
ATOM      8  C   UNL A   1      39.078  24.483  28.314  1.00  0.00     0.014 A 
ATOM      9  C   UNL A   1      40.059  25.370  26.284  1.00  0.00     0.014 A 
ATOM     10  C   UNL A   1      39.438  25.652  28.996  1.00  0.00     0.010 A 
ATOM     11  C   UNL A   1      40.448  26.521  26.975  1.00  0.00     0.010 A 
ATOM     12  C   UNL A   1      40.129  26.682  28.333  1.00  0.00    -0.014 A 
BRANCH  12  13
ATOM     13  C   UNL A   1      40.557  27.913  29.055  1.00  0.00     0.031 A 
ATOM     14  C   UNL A   1      41.960  28.049  29.582  1.00  0.00     0.074 A 
ATOM     15  C   UNL A   1      39.672  28.904  29.271  1.00  0.00     0.049 A 
ATOM     16  N   UNL A   1      42.490  29.020  30.287  1.00  0.00    -0.248 NA
ATOM     17  C   UNL A   1      42.888  26.949  29.286  1.00  0.00     0.031 C 
ATOM     18  C   UNL A   1      38.280  28.902  28.823  1.00  0.00     0.029 A 
ATOM     19  N   UNL A   1      39.809  30.103  29.930  1.00  0.00    -0.354 N 
ATOM     20  C   UNL A   1      43.806  28.647  30.521  1.00  0.00     0.074 A 
ATOM     21  C   UNL A   1      43.988  27.347  29.911  1.00  0.00     0.031 C 
ATOM     22  C   UNL A   1      37.697  30.051  29.200  1.00  0.00     0.029 A 
ATOM     23  C   UNL A   1      38.658  30.852  29.956  1.00  0.00     0.049 A 
ATOM     24  H   UNL A   1      40.654  30.397  30.342  1.00  0.00     0.167 HD
ATOM     25  C   UNL A   1      44.778  29.333  31.171  1.00  0.00     0.037 A 
ATOM     26  C   UNL A   1      38.396  32.040  30.534  1.00  0.00     0.037 A 
ATOM     27  C   UNL A   1      44.605  30.630  31.777  1.00  0.00     0.049 A 
ATOM     28  C   UNL A   1      39.478  32.756  31.295  1.00  0.00     0.074 A 
ATOM     29  C   UNL A   1      45.547  31.404  32.437  1.00  0.00     0.029 A 
ATOM     30  N   UNL A   1      43.416  31.343  31.804  1.00  0.00    -0.354 N 
ATOM     31  N   UNL A   1      40.726  32.406  31.487  1.00  0.00    -0.248 NA
ATOM     32  C   UNL A   1      39.114  34.037  31.922  1.00  0.00     0.031 C 
ATOM     33  C   UNL A   1      44.917  32.563  32.902  1.00  0.00     0.029 A 
ATOM     34  C   UNL A   1      43.595  32.537  32.485  1.00  0.00     0.049 A 
ATOM     35  H   UNL A   1      42.570  31.045  31.397  1.00  0.00     0.167 HD
ATOM     36  C   UNL A   1      41.300  33.426  32.234  1.00  0.00     0.074 A 
ATOM     37  C   UNL A   1      40.269  34.419  32.449  1.00  0.00     0.031 C 
ATOM     38  C   UNL A   1      42.570  33.527  32.696  1.00  0.00     0.037 A 
BRANCH  25  39
ATOM     39  C   UNL A   1      46.136  28.699  31.271  1.00  0.00     0.064 A 
ATOM     40  C   UNL A   1      47.133  28.994  30.329  1.00  0.00     0.173 A 
ATOM     41  C   UNL A   1      46.422  27.734  32.249  1.00  0.00     0.173 A 
ATOM     42  F   UNL A   1      46.907  29.900  29.366  1.00  0.00    -0.203 F 
ATOM     43  C   UNL A   1      48.361  28.337  30.355  1.00  0.00     0.198 A 
ATOM     44  C   UNL A   1      47.662  27.100  32.289  1.00  0.00     0.198 A 
ATOM     45  F   UNL A   1      45.505  27.421  33.177  1.00  0.00    -0.203 F 
ATOM     46  F   UNL A   1      49.285  28.611  29.423  1.00  0.00    -0.200 F 
ATOM     47  C   UNL A   1      48.626  27.395  31.336  1.00  0.00     0.200 A 
ATOM     48  F   UNL A   1      47.923  26.204  33.250  1.00  0.00    -0.200 F 
ATOM     49  F   UNL A   1      49.810  26.769  31.364  1.00  0.00    -0.200 F 
ENDBRANCH  25  39
BRANCH  26  50
ATOM     50  C   UNL A   1      37.044  32.638  30.393  1.00  0.00     0.064 A 
ATOM     51  C   UNL A   1      36.722  33.472  29.313  1.00  0.00     0.173 A 
ATOM     52  C   UNL A   1      36.054  32.406  31.358  1.00  0.00     0.173 A 
ATOM     53  F   UNL A   1      37.635  33.723  28.364  1.00  0.00    -0.203 F 
ATOM     54  C   UNL A   1      35.469  34.072  29.218  1.00  0.00     0.198 A 
ATOM     55  C   UNL A   1      34.792  32.984  31.248  1.00  0.00     0.198 A 
ATOM     56  F   UNL A   1      36.308  31.593  32.395  1.00  0.00    -0.203 F 
ATOM     57  F   UNL A   1      35.198  34.895  28.195  1.00  0.00    -0.200 F 
ATOM     58  C   UNL A   1      34.504  33.825  30.183  1.00  0.00     0.200 A 
ATOM     59  F   UNL A   1      33.855  32.721  32.167  1.00  0.00    -0.200 F 
ATOM     60  F   UNL A   1      33.295  34.395  30.085  1.00  0.00    -0.200 F 
ENDBRANCH  26  50
BRANCH  38  61
ATOM     61  C   UNL A   1      42.938  34.766  33.461  1.00  0.00     0.064 A 
ATOM     62  C   UNL A   1      42.867  34.783  34.863  1.00  0.00     0.173 A 
ATOM     63  C   UNL A   1      43.308  35.952  32.810  1.00  0.00     0.173 A 
ATOM     64  F   UNL A   1      42.512  33.677  35.536  1.00  0.00    -0.203 F 
ATOM     65  C   UNL A   1      43.140  35.943  35.583  1.00  0.00     0.198 A 
ATOM     66  C   UNL A   1      43.607  37.103  33.535  1.00  0.00     0.198 A 
ATOM     67  F   UNL A   1      43.404  35.985  31.473  1.00  0.00    -0.203 F 
ATOM     68  F   UNL A   1      43.038  35.941  36.919  1.00  0.00    -0.200 F 
ATOM     69  C   UNL A   1      43.516  37.100  34.919  1.00  0.00     0.200 A 
ATOM     70  F   UNL A   1      43.994  38.215  32.893  1.00  0.00    -0.200 F 
ATOM     71  F   UNL A   1      43.794  38.212  35.613  1.00  0.00    -0.200 F 
ENDBRANCH  38  61
ENDBRANCH  12  13
ENDBRANCH   5   7
ENDBRANCH   2   3
ENDBRANCH   1   2
BRANCH   1  72
ATOM     72  C   UNL A   1      43.352  20.776  25.742  1.00  0.00     0.117 C 
BRANCH  72  73
ATOM     73  N   UNL A   1      43.913  22.005  26.235  1.00  0.00    -0.356 N 
ATOM     74  C   UNL A   1      45.235  22.343  26.257  1.00  0.00     0.223 C 
ATOM     75  H   UNL A   1      43.280  22.668  26.593  1.00  0.00     0.163 HD
ATOM     76  O   UNL A   1      46.120  21.770  25.657  1.00  0.00    -0.275 OA
BRANCH  74  77
ATOM     77  C   UNL A   1      45.545  23.495  27.151  1.00  0.00     0.091 C 
ATOM     78  C   UNL A   1      44.450  24.520  27.315  1.00  0.00     0.028 C 
ATOM     79  C   UNL A   1      45.809  24.935  26.761  1.00  0.00     0.092 C 
BRANCH  79  80
ATOM     80  C   UNL A   1      45.836  25.533  25.403  1.00  0.00     0.228 C 
ATOM     81  O   UNL A   1      46.534  25.019  24.532  1.00  0.00    -0.274 OA
ATOM     82  N   UNL A   1      45.025  26.574  25.056  1.00  0.00    -0.323 N 
ATOM     83  H   UNL A   1      44.807  26.575  24.095  1.00  0.00     0.170 HD
BRANCH  82  84
ATOM     84  C   UNL A   1      44.425  27.647  25.739  1.00  0.00     0.080 A 
ATOM     85  C   UNL A   1      45.084  28.563  26.554  1.00  0.00     0.068 A 
ATOM     86  C   UNL A   1      43.081  27.897  25.425  1.00  0.00     0.146 A 
ATOM     87  C   UNL A   1      44.404  29.693  27.023  1.00  0.00     0.125 A 
ATOM     88  C   UNL A   1      42.388  28.992  25.936  1.00  0.00     0.044 A 
ATOM     89  F   UNL A   1      42.437  27.054  24.602  1.00  0.00    -0.205 F 
ATOM     90  F   UNL A   1      45.072  30.615  27.728  1.00  0.00    -0.207 F 
ATOM     91  C   UNL A   1      43.060  29.906  26.737  1.00  0.00     0.042 A 
ENDBRANCH  82  84
ENDBRANCH  79  80
ENDBRANCH  74  77
ENDBRANCH  72  73
ENDBRANCH   1  72
TORSDOF 12
ENDMDL
