MODEL 1
REMARK VINA RESULT:     -13.6      0.000      0.000
REMARK SMILES C[C@@H](C(=O)NCCCNC(=O)c1ccc(-c2c3nc(c(-c4c(F)c(F)c(F)c(F)c4F)c4ccc([nH]4)c(-c4c(F)c(F)c(F)c(F)c4F)c4nc(c(-c5c(F)c(F)c(F)c(F)c5F)c5ccc2[nH]5)C=C4)C=C3)cc1)c1ccc(-c2ccc3[nH]ccc3c2)cc1
REMARK SMILES IDX 7 1 6 2 5 3 3 4 4 5 2 7 1 8 75 9 76 10 89 11 77 12 88 13
REMARK SMILES IDX 78 14 79 15 80 16 87 17 81 18 86 19 82 20 85 21 83 22 84 23
REMARK SMILES IDX 8 25 9 26 10 27 11 29 12 30 13 31 74 32 14 33 73 34 15 35
REMARK SMILES IDX 16 36 17 37 67 38 18 39 72 40 66 41 68 42 19 43 71 44 65 45
REMARK SMILES IDX 64 46 20 48 52 49 32 50 51 51 33 52 36 53 50 54 69 55 34 56
REMARK SMILES IDX 35 57 49 59 70 60 37 61 21 62 22 63 30 64 23 65 24 66 28 67
REMARK SMILES IDX 31 68 25 69 26 70 29 71 27 72 53 73 54 74 62 75 55 76 56 77
REMARK SMILES IDX 60 78 63 79 57 80 58 81 61 82 59 83 38 84 39 85 47 86 40 87
REMARK SMILES IDX 41 88 45 89 48 90 42 91 43 92 46 93 44 94
REMARK H PARENT 5 6 83 24 9 28 68 47 36 58
REMARK Flexibility Score: inf
ROOT
ATOM      1  C   UNL A   1      31.663  31.729  26.639  1.00  0.00     0.042 C 
ENDROOT
BRANCH   1   2
ATOM      2  C   UNL A   1      31.947  30.257  26.361  1.00  0.00     0.117 C 
BRANCH   2   3
ATOM      3  N   UNL A   1      31.318  29.833  25.129  1.00  0.00    -0.356 N 
ATOM      4  C   UNL A   1      31.858  29.247  24.024  1.00  0.00     0.227 C 
ATOM      5  O   UNL A   1      31.119  29.157  23.041  1.00  0.00    -0.274 OA
ATOM      6  H   UNL A   1      30.347  29.993  25.082  1.00  0.00     0.163 HD
BRANCH   4   7
ATOM      7  C   UNL A   1      33.302  28.723  24.066  1.00  0.00     0.105 C 
ATOM      8  C   UNL A   1      34.053  28.954  22.751  1.00  0.00     0.023 C 
BRANCH   7   9
ATOM      9  C   UNL A   1      33.373  27.246  24.425  1.00  0.00    -0.036 A 
ATOM     10  C   UNL A   1      33.227  26.829  25.756  1.00  0.00     0.005 A 
ATOM     11  C   UNL A   1      33.546  26.277  23.428  1.00  0.00     0.005 A 
ATOM     12  C   UNL A   1      33.227  25.478  26.080  1.00  0.00     0.009 A 
ATOM     13  C   UNL A   1      33.542  24.918  23.755  1.00  0.00     0.009 A 
ATOM     14  C   UNL A   1      33.363  24.507  25.082  1.00  0.00    -0.018 A 
BRANCH  14  15
ATOM     15  C   UNL A   1      33.268  23.093  25.439  1.00  0.00    -0.018 A 
ATOM     16  C   UNL A   1      33.708  22.670  26.702  1.00  0.00     0.011 A 
ATOM     17  C   UNL A   1      32.808  22.145  24.511  1.00  0.00     0.019 A 
ATOM     18  C   UNL A   1      33.687  21.326  27.078  1.00  0.00     0.027 A 
ATOM     19  C   UNL A   1      32.825  20.777  24.849  1.00  0.00    -0.000 A 
ATOM     20  C   UNL A   1      33.244  20.404  26.126  1.00  0.00     0.045 A 
ATOM     21  C   UNL A   1      32.528  19.580  24.141  1.00  0.00     0.028 A 
ATOM     22  N   UNL A   1      33.134  19.035  26.205  1.00  0.00    -0.361 N 
ATOM     23  C   UNL A   1      32.752  18.524  24.993  1.00  0.00     0.083 A 
ATOM     24  H   UNL A   1      33.304  18.501  27.013  1.00  0.00     0.166 HD
ENDBRANCH  14  15
ENDBRANCH   7   9
ENDBRANCH   4   7
ENDBRANCH   2   3
ENDBRANCH   1   2
BRANCH   1  25
ATOM     25  C   UNL A   1      32.847  32.474  27.242  1.00  0.00     0.118 C 
BRANCH  25  26
ATOM     26  N   UNL A   1      32.531  33.860  27.558  1.00  0.00    -0.352 N 
ATOM     27  C   UNL A   1      33.046  34.667  28.543  1.00  0.00     0.251 C 
ATOM     28  H   UNL A   1      31.849  34.278  26.984  1.00  0.00     0.163 HD
ATOM     29  O   UNL A   1      32.528  35.746  28.796  1.00  0.00    -0.269 OA
BRANCH  27  30
ATOM     30  C   UNL A   1      34.223  34.210  29.310  1.00  0.00     0.039 A 
ATOM     31  C   UNL A   1      34.031  33.528  30.513  1.00  0.00     0.014 A 
ATOM     32  C   UNL A   1      35.512  34.448  28.830  1.00  0.00     0.014 A 
ATOM     33  C   UNL A   1      35.134  33.021  31.205  1.00  0.00     0.010 A 
ATOM     34  C   UNL A   1      36.601  33.872  29.471  1.00  0.00     0.010 A 
ATOM     35  C   UNL A   1      36.423  33.159  30.668  1.00  0.00    -0.014 A 
BRANCH  35  36
ATOM     36  C   UNL A   1      37.622  32.599  31.340  1.00  0.00     0.031 A 
ATOM     37  C   UNL A   1      38.341  31.438  30.714  1.00  0.00     0.074 A 
ATOM     38  C   UNL A   1      37.992  33.052  32.551  1.00  0.00     0.049 A 
ATOM     39  N   UNL A   1      39.283  30.678  31.209  1.00  0.00    -0.248 NA
ATOM     40  C   UNL A   1      37.909  31.058  29.360  1.00  0.00     0.031 C 
ATOM     41  C   UNL A   1      37.357  34.153  33.273  1.00  0.00     0.029 A 
ATOM     42  N   UNL A   1      38.975  32.616  33.404  1.00  0.00    -0.354 N 
ATOM     43  C   UNL A   1      39.534  29.714  30.241  1.00  0.00     0.074 A 
ATOM     44  C   UNL A   1      38.606  29.951  29.157  1.00  0.00     0.031 C 
ATOM     45  C   UNL A   1      37.966  34.308  34.460  1.00  0.00     0.029 A 
ATOM     46  C   UNL A   1      38.997  33.285  34.604  1.00  0.00     0.049 A 
ATOM     47  H   UNL A   1      39.605  31.893  33.178  1.00  0.00     0.167 HD
ATOM     48  C   UNL A   1      40.465  28.731  30.250  1.00  0.00     0.037 A 
ATOM     49  C   UNL A   1      39.745  33.078  35.705  1.00  0.00     0.037 A 
ATOM     50  C   UNL A   1      41.393  28.514  31.330  1.00  0.00     0.049 A 
ATOM     51  C   UNL A   1      40.760  31.968  35.706  1.00  0.00     0.074 A 
ATOM     52  C   UNL A   1      42.411  27.582  31.417  1.00  0.00     0.029 A 
ATOM     53  N   UNL A   1      41.406  29.237  32.515  1.00  0.00    -0.354 N 
ATOM     54  N   UNL A   1      41.029  31.091  34.768  1.00  0.00    -0.248 NA
ATOM     55  C   UNL A   1      41.581  31.817  36.916  1.00  0.00     0.031 C 
ATOM     56  C   UNL A   1      43.001  27.700  32.680  1.00  0.00     0.029 A 
ATOM     57  C   UNL A   1      42.400  28.755  33.350  1.00  0.00     0.049 A 
ATOM     58  H   UNL A   1      40.800  29.983  32.729  1.00  0.00     0.167 HD
ATOM     59  C   UNL A   1      42.071  30.313  35.255  1.00  0.00     0.074 A 
ATOM     60  C   UNL A   1      42.385  30.819  36.575  1.00  0.00     0.031 C 
ATOM     61  C   UNL A   1      42.713  29.281  34.657  1.00  0.00     0.037 A 
BRANCH  48  62
ATOM     62  C   UNL A   1      40.505  27.808  29.064  1.00  0.00     0.064 A 
ATOM     63  C   UNL A   1      41.329  28.061  27.955  1.00  0.00     0.173 A 
ATOM     64  C   UNL A   1      39.703  26.657  29.032  1.00  0.00     0.173 A 
ATOM     65  F   UNL A   1      42.111  29.151  27.928  1.00  0.00    -0.203 F 
ATOM     66  C   UNL A   1      41.308  27.227  26.841  1.00  0.00     0.198 A 
ATOM     67  C   UNL A   1      39.715  25.803  27.932  1.00  0.00     0.198 A 
ATOM     68  F   UNL A   1      38.903  26.360  30.067  1.00  0.00    -0.203 F 
ATOM     69  F   UNL A   1      42.045  27.533  25.763  1.00  0.00    -0.200 F 
ATOM     70  C   UNL A   1      40.505  26.097  26.831  1.00  0.00     0.200 A 
ATOM     71  F   UNL A   1      38.951  24.702  27.933  1.00  0.00    -0.200 F 
ATOM     72  F   UNL A   1      40.483  25.297  25.757  1.00  0.00    -0.200 F 
ENDBRANCH  48  62
BRANCH  49  73
ATOM     73  C   UNL A   1      39.561  33.956  36.889  1.00  0.00     0.064 A 
ATOM     74  C   UNL A   1      38.769  33.549  37.971  1.00  0.00     0.173 A 
ATOM     75  C   UNL A   1      40.199  35.203  36.979  1.00  0.00     0.173 A 
ATOM     76  F   UNL A   1      38.125  32.374  37.924  1.00  0.00    -0.203 F 
ATOM     77  C   UNL A   1      38.613  34.359  39.095  1.00  0.00     0.198 A 
ATOM     78  C   UNL A   1      40.065  35.999  38.115  1.00  0.00     0.198 A 
ATOM     79  F   UNL A   1      40.975  35.635  35.975  1.00  0.00    -0.203 F 
ATOM     80  F   UNL A   1      37.824  33.960  40.101  1.00  0.00    -0.200 F 
ATOM     81  C   UNL A   1      39.268  35.579  39.170  1.00  0.00     0.200 A 
ATOM     82  F   UNL A   1      40.715  37.168  38.192  1.00  0.00    -0.200 F 
ATOM     83  F   UNL A   1      39.131  36.350  40.257  1.00  0.00    -0.200 F 
ENDBRANCH  49  73
BRANCH  61  84
ATOM     84  C   UNL A   1      43.869  28.657  35.387  1.00  0.00     0.064 A 
ATOM     85  C   UNL A   1      43.705  27.546  36.226  1.00  0.00     0.173 A 
ATOM     86  C   UNL A   1      45.172  29.134  35.173  1.00  0.00     0.173 A 
ATOM     87  F   UNL A   1      42.480  27.061  36.474  1.00  0.00    -0.203 F 
ATOM     88  C   UNL A   1      44.805  26.941  36.832  1.00  0.00     0.198 A 
ATOM     89  C   UNL A   1      46.270  28.509  35.755  1.00  0.00     0.198 A 
ATOM     90  F   UNL A   1      45.381  30.192  34.375  1.00  0.00    -0.203 F 
ATOM     91  F   UNL A   1      44.624  25.900  37.657  1.00  0.00    -0.200 F 
ATOM     92  C   UNL A   1      46.086  27.414  36.587  1.00  0.00     0.200 A 
ATOM     93  F   UNL A   1      47.507  28.957  35.502  1.00  0.00    -0.200 F 
ATOM     94  F   UNL A   1      47.143  26.817  37.152  1.00  0.00    -0.200 F 
ENDBRANCH  61  84
ENDBRANCH  35  36
ENDBRANCH  27  30
ENDBRANCH  25  26
ENDBRANCH   1  25
TORSDOF 12
ENDMDL
MODEL 2
REMARK VINA RESULT:     -13.5      0.706      2.134
REMARK SMILES C[C@@H](C(=O)NCCCNC(=O)c1ccc(-c2c3nc(c(-c4c(F)c(F)c(F)c(F)c4F)c4ccc([nH]4)c(-c4c(F)c(F)c(F)c(F)c4F)c4nc(c(-c5c(F)c(F)c(F)c(F)c5F)c5ccc2[nH]5)C=C4)C=C3)cc1)c1ccc(-c2ccc3[nH]ccc3c2)cc1
REMARK SMILES IDX 7 1 6 2 5 3 3 4 4 5 2 7 1 8 75 9 76 10 89 11 77 12 88 13
REMARK SMILES IDX 78 14 79 15 80 16 87 17 81 18 86 19 82 20 85 21 83 22 84 23
REMARK SMILES IDX 8 25 9 26 10 27 11 29 12 30 13 31 74 32 14 33 73 34 15 35
REMARK SMILES IDX 16 36 17 37 67 38 18 39 72 40 66 41 68 42 19 43 71 44 65 45
REMARK SMILES IDX 64 46 20 48 52 49 32 50 51 51 33 52 36 53 50 54 69 55 34 56
REMARK SMILES IDX 35 57 49 59 70 60 37 61 21 62 22 63 30 64 23 65 24 66 28 67
REMARK SMILES IDX 31 68 25 69 26 70 29 71 27 72 53 73 54 74 62 75 55 76 56 77
REMARK SMILES IDX 60 78 63 79 57 80 58 81 61 82 59 83 38 84 39 85 47 86 40 87
REMARK SMILES IDX 41 88 45 89 48 90 42 91 43 92 46 93 44 94
REMARK H PARENT 5 6 83 24 9 28 68 47 36 58
REMARK Flexibility Score: inf
ROOT
ATOM      1  C   UNL A   1      31.653  31.564  26.531  1.00  0.00     0.042 C 
ENDROOT
BRANCH   1   2
ATOM      2  C   UNL A   1      31.923  30.079  26.322  1.00  0.00     0.117 C 
BRANCH   2   3
ATOM      3  N   UNL A   1      31.301  29.607  25.103  1.00  0.00    -0.356 N 
ATOM      4  C   UNL A   1      31.857  29.045  23.994  1.00  0.00     0.227 C 
ATOM      5  O   UNL A   1      31.110  28.902  23.024  1.00  0.00    -0.274 OA
ATOM      6  H   UNL A   1      30.322  29.708  25.071  1.00  0.00     0.163 HD
BRANCH   4   7
ATOM      7  C   UNL A   1      33.331  28.610  24.016  1.00  0.00     0.105 C 
ATOM      8  C   UNL A   1      34.086  29.014  22.747  1.00  0.00     0.023 C 
BRANCH   7   9
ATOM      9  C   UNL A   1      33.490  27.111  24.231  1.00  0.00    -0.036 A 
ATOM     10  C   UNL A   1      33.460  26.229  23.141  1.00  0.00     0.005 A 
ATOM     11  C   UNL A   1      33.706  26.594  25.515  1.00  0.00     0.005 A 
ATOM     12  C   UNL A   1      33.669  24.867  23.325  1.00  0.00     0.009 A 
ATOM     13  C   UNL A   1      33.919  25.224  25.697  1.00  0.00     0.009 A 
ATOM     14  C   UNL A   1      33.921  24.352  24.601  1.00  0.00    -0.018 A 
BRANCH  14  15
ATOM     15  C   UNL A   1      34.226  22.931  24.753  1.00  0.00    -0.018 A 
ATOM     16  C   UNL A   1      35.512  22.542  25.156  1.00  0.00     0.011 A 
ATOM     17  C   UNL A   1      33.272  21.951  24.435  1.00  0.00     0.019 A 
ATOM     18  C   UNL A   1      35.874  21.198  25.269  1.00  0.00     0.027 A 
ATOM     19  C   UNL A   1      33.629  20.589  24.493  1.00  0.00    -0.000 A 
ATOM     20  C   UNL A   1      34.910  20.247  24.925  1.00  0.00     0.045 A 
ATOM     21  C   UNL A   1      32.963  19.378  24.160  1.00  0.00     0.028 A 
ATOM     22  N   UNL A   1      34.986  18.874  24.920  1.00  0.00    -0.361 N 
ATOM     23  C   UNL A   1      33.832  18.341  24.409  1.00  0.00     0.083 A 
ATOM     24  H   UNL A   1      35.756  18.349  25.238  1.00  0.00     0.166 HD
ENDBRANCH  14  15
ENDBRANCH   7   9
ENDBRANCH   4   7
ENDBRANCH   2   3
ENDBRANCH   1   2
BRANCH   1  25
ATOM     25  C   UNL A   1      32.830  32.318  27.136  1.00  0.00     0.118 C 
BRANCH  25  26
ATOM     26  N   UNL A   1      32.497  33.695  27.474  1.00  0.00    -0.352 N 
ATOM     27  C   UNL A   1      33.023  34.502  28.453  1.00  0.00     0.251 C 
ATOM     28  H   UNL A   1      31.792  34.105  26.923  1.00  0.00     0.163 HD
ATOM     29  O   UNL A   1      32.492  35.568  28.731  1.00  0.00    -0.269 OA
BRANCH  27  30
ATOM     30  C   UNL A   1      34.229  34.061  29.183  1.00  0.00     0.039 A 
ATOM     31  C   UNL A   1      34.086  33.238  30.303  1.00  0.00     0.014 A 
ATOM     32  C   UNL A   1      35.498  34.452  28.751  1.00  0.00     0.014 A 
ATOM     33  C   UNL A   1      35.223  32.750  30.952  1.00  0.00     0.010 A 
ATOM     34  C   UNL A   1      36.625  33.899  29.343  1.00  0.00     0.010 A 
ATOM     35  C   UNL A   1      36.500  33.048  30.453  1.00  0.00    -0.014 A 
BRANCH  35  36
ATOM     36  C   UNL A   1      37.736  32.517  31.077  1.00  0.00     0.031 A 
ATOM     37  C   UNL A   1      38.483  31.404  30.399  1.00  0.00     0.074 A 
ATOM     38  C   UNL A   1      38.119  32.948  32.293  1.00  0.00     0.049 A 
ATOM     39  N   UNL A   1      39.467  30.668  30.848  1.00  0.00    -0.248 NA
ATOM     40  C   UNL A   1      38.032  31.047  29.045  1.00  0.00     0.031 C 
ATOM     41  C   UNL A   1      37.460  34.001  33.064  1.00  0.00     0.029 A 
ATOM     42  N   UNL A   1      39.140  32.526  33.108  1.00  0.00    -0.354 N 
ATOM     43  C   UNL A   1      39.730  29.743  29.846  1.00  0.00     0.074 A 
ATOM     44  C   UNL A   1      38.767  29.975  28.792  1.00  0.00     0.031 C 
ATOM     45  C   UNL A   1      38.092  34.145  34.239  1.00  0.00     0.029 A 
ATOM     46  C   UNL A   1      39.166  33.160  34.327  1.00  0.00     0.049 A 
ATOM     47  H   UNL A   1      39.791  31.836  32.845  1.00  0.00     0.167 HD
ATOM     48  C   UNL A   1      40.699  28.798  29.802  1.00  0.00     0.037 A 
ATOM     49  C   UNL A   1      39.949  32.950  35.403  1.00  0.00     0.037 A 
ATOM     50  C   UNL A   1      41.661  28.587  30.851  1.00  0.00     0.049 A 
ATOM     51  C   UNL A   1      41.007  31.882  35.345  1.00  0.00     0.074 A 
ATOM     52  C   UNL A   1      42.717  27.694  30.886  1.00  0.00     0.029 A 
ATOM     53  N   UNL A   1      41.677  29.274  32.057  1.00  0.00    -0.354 N 
ATOM     54  N   UNL A   1      41.285  31.045  34.375  1.00  0.00    -0.248 NA
ATOM     55  C   UNL A   1      41.863  31.728  36.529  1.00  0.00     0.031 C 
ATOM     56  C   UNL A   1      43.334  27.798  32.136  1.00  0.00     0.029 A 
ATOM     57  C   UNL A   1      42.710  28.807  32.853  1.00  0.00     0.049 A 
ATOM     58  H   UNL A   1      41.048  29.989  32.309  1.00  0.00     0.167 HD
ATOM     59  C   UNL A   1      42.369  30.294  34.812  1.00  0.00     0.074 A 
ATOM     60  C   UNL A   1      42.696  30.773  36.139  1.00  0.00     0.031 C 
ATOM     61  C   UNL A   1      43.036  29.306  34.167  1.00  0.00     0.037 A 
BRANCH  48  62
ATOM     62  C   UNL A   1      40.744  27.913  28.588  1.00  0.00     0.064 A 
ATOM     63  C   UNL A   1      40.019  26.712  28.518  1.00  0.00     0.173 A 
ATOM     64  C   UNL A   1      41.529  28.265  27.479  1.00  0.00     0.173 A 
ATOM     65  F   UNL A   1      39.258  26.321  29.552  1.00  0.00    -0.203 F 
ATOM     66  C   UNL A   1      40.120  25.875  27.411  1.00  0.00     0.198 A 
ATOM     67  C   UNL A   1      41.596  27.446  26.356  1.00  0.00     0.198 A 
ATOM     68  F   UNL A   1      42.236  29.406  27.485  1.00  0.00    -0.203 F 
ATOM     69  F   UNL A   1      39.480  24.697  27.403  1.00  0.00    -0.200 F 
ATOM     70  C   UNL A   1      40.905  26.244  26.329  1.00  0.00     0.200 A 
ATOM     71  F   UNL A   1      42.341  27.813  25.305  1.00  0.00    -0.200 F 
ATOM     72  F   UNL A   1      41.005  25.436  25.265  1.00  0.00    -0.200 F 
ENDBRANCH  48  62
BRANCH  49  73
ATOM     73  C   UNL A   1      39.762  33.785  36.617  1.00  0.00     0.064 A 
ATOM     74  C   UNL A   1      40.385  35.036  36.733  1.00  0.00     0.173 A 
ATOM     75  C   UNL A   1      38.932  33.370  37.668  1.00  0.00     0.173 A 
ATOM     76  F   UNL A   1      41.202  35.468  35.761  1.00  0.00    -0.203 F 
ATOM     77  C   UNL A   1      40.193  35.835  37.858  1.00  0.00     0.198 A 
ATOM     78  C   UNL A   1      38.717  34.182  38.781  1.00  0.00     0.198 A 
ATOM     79  F   UNL A   1      38.305  32.186  37.603  1.00  0.00    -0.203 F 
ATOM     80  F   UNL A   1      40.826  37.011  37.958  1.00  0.00    -0.200 F 
ATOM     81  C   UNL A   1      39.352  35.411  38.877  1.00  0.00     0.200 A 
ATOM     82  F   UNL A   1      37.890  33.778  39.754  1.00  0.00    -0.200 F 
ATOM     83  F   UNL A   1      39.155  36.187  39.952  1.00  0.00    -0.200 F 
ENDBRANCH  49  73
BRANCH  61  84
ATOM     84  C   UNL A   1      44.232  28.708  34.850  1.00  0.00     0.064 A 
ATOM     85  C   UNL A   1      45.518  29.244  34.700  1.00  0.00     0.173 A 
ATOM     86  C   UNL A   1      44.067  27.630  35.734  1.00  0.00     0.173 A 
ATOM     87  F   UNL A   1      45.732  30.264  33.857  1.00  0.00    -0.203 F 
ATOM     88  C   UNL A   1      46.599  28.715  35.404  1.00  0.00     0.198 A 
ATOM     89  C   UNL A   1      45.143  27.125  36.459  1.00  0.00     0.198 A 
ATOM     90  F   UNL A   1      42.856  27.085  35.917  1.00  0.00    -0.203 F 
ATOM     91  F   UNL A   1      47.827  29.221  35.222  1.00  0.00    -0.200 F 
ATOM     92  C   UNL A   1      46.409  27.665  36.291  1.00  0.00     0.200 A 
ATOM     93  F   UNL A   1      44.952  26.123  37.328  1.00  0.00    -0.200 F 
ATOM     94  F   UNL A   1      47.444  27.173  36.983  1.00  0.00    -0.200 F 
ENDBRANCH  61  84
ENDBRANCH  35  36
ENDBRANCH  27  30
ENDBRANCH  25  26
ENDBRANCH   1  25
TORSDOF 12
ENDMDL
MODEL 3
REMARK VINA RESULT:     -13.4      5.707     11.371
REMARK SMILES C[C@@H](C(=O)NCCCNC(=O)c1ccc(-c2c3nc(c(-c4c(F)c(F)c(F)c(F)c4F)c4ccc([nH]4)c(-c4c(F)c(F)c(F)c(F)c4F)c4nc(c(-c5c(F)c(F)c(F)c(F)c5F)c5ccc2[nH]5)C=C4)C=C3)cc1)c1ccc(-c2ccc3[nH]ccc3c2)cc1
REMARK SMILES IDX 7 1 6 2 5 3 3 4 4 5 2 7 1 8 75 9 76 10 89 11 77 12 88 13
REMARK SMILES IDX 78 14 79 15 80 16 87 17 81 18 86 19 82 20 85 21 83 22 84 23
REMARK SMILES IDX 8 25 9 26 10 27 11 29 12 30 13 31 74 32 14 33 73 34 15 35
REMARK SMILES IDX 16 36 17 37 67 38 18 39 72 40 66 41 68 42 19 43 71 44 65 45
REMARK SMILES IDX 64 46 20 48 52 49 32 50 51 51 33 52 36 53 50 54 69 55 34 56
REMARK SMILES IDX 35 57 49 59 70 60 37 61 21 62 22 63 30 64 23 65 24 66 28 67
REMARK SMILES IDX 31 68 25 69 26 70 29 71 27 72 53 73 54 74 62 75 55 76 56 77
REMARK SMILES IDX 60 78 63 79 57 80 58 81 61 82 59 83 38 84 39 85 47 86 40 87
REMARK SMILES IDX 41 88 45 89 48 90 42 91 43 92 46 93 44 94
REMARK H PARENT 5 6 83 24 9 28 68 47 36 58
REMARK Flexibility Score: inf
ROOT
ATOM      1  C   UNL A   1      38.054  20.149  25.097  1.00  0.00     0.042 C 
ENDROOT
BRANCH   1   2
ATOM      2  C   UNL A   1      37.226  21.411  24.884  1.00  0.00     0.117 C 
BRANCH   2   3
ATOM      3  N   UNL A   1      35.863  21.080  24.523  1.00  0.00    -0.356 N 
ATOM      4  C   UNL A   1      34.696  21.327  25.181  1.00  0.00     0.227 C 
ATOM      5  O   UNL A   1      33.692  20.773  24.732  1.00  0.00    -0.274 OA
ATOM      6  H   UNL A   1      35.765  20.603  23.668  1.00  0.00     0.163 HD
BRANCH   4   7
ATOM      7  C   UNL A   1      34.688  22.273  26.394  1.00  0.00     0.105 C 
ATOM      8  C   UNL A   1      34.028  21.648  27.626  1.00  0.00     0.023 C 
BRANCH   7   9
ATOM      9  C   UNL A   1      34.012  23.601  26.088  1.00  0.00    -0.036 A 
ATOM     10  C   UNL A   1      34.689  24.596  25.368  1.00  0.00     0.005 A 
ATOM     11  C   UNL A   1      32.690  23.837  26.488  1.00  0.00     0.005 A 
ATOM     12  C   UNL A   1      34.053  25.785  25.031  1.00  0.00     0.009 A 
ATOM     13  C   UNL A   1      32.051  25.032  26.145  1.00  0.00     0.009 A 
ATOM     14  C   UNL A   1      32.721  26.008  25.397  1.00  0.00    -0.018 A 
BRANCH  14  15
ATOM     15  C   UNL A   1      32.050  27.227  24.952  1.00  0.00    -0.018 A 
ATOM     16  C   UNL A   1      32.389  28.455  25.540  1.00  0.00     0.011 A 
ATOM     17  C   UNL A   1      31.023  27.176  23.996  1.00  0.00     0.019 A 
ATOM     18  C   UNL A   1      31.746  29.643  25.190  1.00  0.00     0.027 A 
ATOM     19  C   UNL A   1      30.325  28.354  23.662  1.00  0.00    -0.000 A 
ATOM     20  C   UNL A   1      30.715  29.557  24.251  1.00  0.00     0.045 A 
ATOM     21  C   UNL A   1      29.206  28.638  22.832  1.00  0.00     0.028 A 
ATOM     22  N   UNL A   1      29.903  30.541  23.736  1.00  0.00    -0.361 N 
ATOM     23  C   UNL A   1      28.955  29.988  22.917  1.00  0.00     0.083 A 
ATOM     24  H   UNL A   1      29.991  31.502  23.926  1.00  0.00     0.166 HD
ENDBRANCH  14  15
ENDBRANCH   7   9
ENDBRANCH   4   7
ENDBRANCH   2   3
ENDBRANCH   1   2
BRANCH   1  25
ATOM     25  C   UNL A   1      39.165  20.315  26.126  1.00  0.00     0.118 C 
BRANCH  25  26
ATOM     26  N   UNL A   1      40.167  19.262  26.039  1.00  0.00    -0.352 N 
ATOM     27  C   UNL A   1      41.537  19.363  26.036  1.00  0.00     0.251 C 
ATOM     28  H   UNL A   1      39.812  18.346  25.972  1.00  0.00     0.163 HD
ATOM     29  O   UNL A   1      42.230  18.395  25.759  1.00  0.00    -0.269 OA
BRANCH  27  30
ATOM     30  C   UNL A   1      42.166  20.661  26.353  1.00  0.00     0.039 A 
ATOM     31  C   UNL A   1      42.531  21.516  25.309  1.00  0.00     0.014 A 
ATOM     32  C   UNL A   1      42.383  21.035  27.680  1.00  0.00     0.014 A 
ATOM     33  C   UNL A   1      43.053  22.778  25.600  1.00  0.00     0.010 A 
ATOM     34  C   UNL A   1      42.821  22.320  27.970  1.00  0.00     0.010 A 
ATOM     35  C   UNL A   1      43.167  23.202  26.933  1.00  0.00    -0.014 A 
BRANCH  35  36
ATOM     36  C   UNL A   1      43.671  24.550  27.293  1.00  0.00     0.031 A 
ATOM     37  C   UNL A   1      42.707  25.586  27.795  1.00  0.00     0.074 A 
ATOM     38  C   UNL A   1      44.956  24.875  27.064  1.00  0.00     0.049 A 
ATOM     39  N   UNL A   1      42.887  26.867  27.988  1.00  0.00    -0.248 NA
ATOM     40  C   UNL A   1      41.340  25.121  28.079  1.00  0.00     0.031 C 
ATOM     41  C   UNL A   1      45.981  23.966  26.553  1.00  0.00     0.029 A 
ATOM     42  N   UNL A   1      45.611  26.073  27.202  1.00  0.00    -0.354 N 
ATOM     43  C   UNL A   1      41.653  27.364  28.386  1.00  0.00     0.074 A 
ATOM     44  C   UNL A   1      40.720  26.259  28.351  1.00  0.00     0.031 C 
ATOM     45  C   UNL A   1      47.136  24.637  26.420  1.00  0.00     0.029 A 
ATOM     46  C   UNL A   1      46.920  26.034  26.786  1.00  0.00     0.049 A 
ATOM     47  H   UNL A   1      45.185  26.884  27.564  1.00  0.00     0.167 HD
ATOM     48  C   UNL A   1      41.331  28.624  28.762  1.00  0.00     0.037 A 
ATOM     49  C   UNL A   1      47.833  27.020  26.684  1.00  0.00     0.037 A 
ATOM     50  C   UNL A   1      42.272  29.713  28.807  1.00  0.00     0.049 A 
ATOM     51  C   UNL A   1      47.453  28.419  27.086  1.00  0.00     0.074 A 
ATOM     52  C   UNL A   1      42.065  31.016  29.224  1.00  0.00     0.029 A 
ATOM     53  N   UNL A   1      43.600  29.625  28.411  1.00  0.00    -0.354 N 
ATOM     54  N   UNL A   1      46.299  28.872  27.510  1.00  0.00    -0.248 NA
ATOM     55  C   UNL A   1      48.502  29.444  27.000  1.00  0.00     0.031 C 
ATOM     56  C   UNL A   1      43.250  31.730  29.022  1.00  0.00     0.029 A 
ATOM     57  C   UNL A   1      44.217  30.856  28.550  1.00  0.00     0.049 A 
ATOM     58  H   UNL A   1      44.038  28.807  28.080  1.00  0.00     0.167 HD
ATOM     59  C   UNL A   1      46.490  30.222  27.778  1.00  0.00     0.074 A 
ATOM     60  C   UNL A   1      47.873  30.515  27.465  1.00  0.00     0.031 C 
ATOM     61  C   UNL A   1      45.602  31.130  28.250  1.00  0.00     0.037 A 
BRANCH  48  62
ATOM     62  C   UNL A   1      39.898  28.890  29.132  1.00  0.00     0.064 A 
ATOM     63  C   UNL A   1      39.436  28.755  30.452  1.00  0.00     0.173 A 
ATOM     64  C   UNL A   1      38.972  29.278  28.153  1.00  0.00     0.173 A 
ATOM     65  F   UNL A   1      40.277  28.378  31.427  1.00  0.00    -0.203 F 
ATOM     66  C   UNL A   1      38.094  28.946  30.765  1.00  0.00     0.198 A 
ATOM     67  C   UNL A   1      37.637  29.508  28.477  1.00  0.00     0.198 A 
ATOM     68  F   UNL A   1      39.359  29.431  26.878  1.00  0.00    -0.203 F 
ATOM     69  F   UNL A   1      37.663  28.735  32.017  1.00  0.00    -0.200 F 
ATOM     70  C   UNL A   1      37.196  29.327  29.779  1.00  0.00     0.200 A 
ATOM     71  F   UNL A   1      36.776  29.893  27.526  1.00  0.00    -0.200 F 
ATOM     72  F   UNL A   1      35.903  29.507  30.081  1.00  0.00    -0.200 F 
ENDBRANCH  48  62
BRANCH  49  73
ATOM     73  C   UNL A   1      49.198  26.702  26.190  1.00  0.00     0.064 A 
ATOM     74  C   UNL A   1      49.539  26.895  24.844  1.00  0.00     0.173 A 
ATOM     75  C   UNL A   1      50.197  26.234  27.056  1.00  0.00     0.173 A 
ATOM     76  F   UNL A   1      48.613  27.324  23.975  1.00  0.00    -0.203 F 
ATOM     77  C   UNL A   1      50.825  26.622  24.380  1.00  0.00     0.198 A 
ATOM     78  C   UNL A   1      51.491  25.988  26.598  1.00  0.00     0.198 A 
ATOM     79  F   UNL A   1      49.925  26.041  28.355  1.00  0.00    -0.203 F 
ATOM     80  F   UNL A   1      51.115  26.785  23.083  1.00  0.00    -0.200 F 
ATOM     81  C   UNL A   1      51.801  26.178  25.259  1.00  0.00     0.200 A 
ATOM     82  F   UNL A   1      52.436  25.578  27.453  1.00  0.00    -0.200 F 
ATOM     83  F   UNL A   1      53.042  25.931  24.816  1.00  0.00    -0.200 F 
ENDBRANCH  49  73
BRANCH  61  84
ATOM     84  C   UNL A   1      46.100  32.520  28.523  1.00  0.00     0.064 A 
ATOM     85  C   UNL A   1      46.048  33.532  27.555  1.00  0.00     0.173 A 
ATOM     86  C   UNL A   1      46.559  32.860  29.806  1.00  0.00     0.173 A 
ATOM     87  F   UNL A   1      45.632  33.256  26.310  1.00  0.00    -0.203 F 
ATOM     88  C   UNL A   1      46.448  34.832  27.858  1.00  0.00     0.198 A 
ATOM     89  C   UNL A   1      46.928  34.166  30.114  1.00  0.00     0.198 A 
ATOM     90  F   UNL A   1      46.623  31.929  30.770  1.00  0.00    -0.203 F 
ATOM     91  F   UNL A   1      46.422  35.778  26.908  1.00  0.00    -0.200 F 
ATOM     92  C   UNL A   1      46.875  35.151  29.139  1.00  0.00     0.200 A 
ATOM     93  F   UNL A   1      47.322  34.474  31.357  1.00  0.00    -0.200 F 
ATOM     94  F   UNL A   1      47.237  36.406  29.434  1.00  0.00    -0.200 F 
ENDBRANCH  61  84
ENDBRANCH  35  36
ENDBRANCH  27  30
ENDBRANCH  25  26
ENDBRANCH   1  25
TORSDOF 12
ENDMDL
