MODEL 1
REMARK VINA RESULT:     -11.8      0.000      0.000
REMARK SMILES O=C(CCc1ccc(S(=O)(=O)Nc2cccc(I)c2)cc1)NCCCNC(=O)c1ccc(-c2c3nc(c(-c4c(F)c(F)c(F)c(F)c4F)c4ccc([nH]4)c(-c4c(F)c(F)c(F)c(F)c4F)c4nc(c(-c5c(F)c(F)c(F)c(F)c5F)c5ccc2[nH]5)C=C4)C=C3)cc1
REMARK SMILES IDX 1 1 2 2 22 3 3 5 4 6 5 7 6 8 21 9 7 10 20 11 8 12 9 13 10 14
REMARK SMILES IDX 11 15 12 16 13 18 14 19 19 20 15 21 17 22 16 23 18 24 23 25
REMARK SMILES IDX 24 26 25 27 26 28 27 29 28 31 29 32 30 33 91 34 31 35 90 36
REMARK SMILES IDX 32 37 33 38 34 39 84 40 35 41 89 42 83 43 85 44 36 45 88 46
REMARK SMILES IDX 82 47 81 48 37 50 69 51 49 52 68 53 50 54 53 55 67 56 86 57
REMARK SMILES IDX 51 58 52 59 66 61 87 62 54 63 38 64 39 65 47 66 40 67 41 68
REMARK SMILES IDX 45 69 48 70 42 71 43 72 46 73 44 74 70 75 71 76 79 77 72 78
REMARK SMILES IDX 73 79 77 80 80 81 74 82 75 83 78 84 76 85 55 86 56 87 64 88
REMARK SMILES IDX 57 89 58 90 62 91 65 92 59 93 60 94 63 95 61 96
REMARK H PARENT 22 4 12 17 26 30 85 49 53 60
REMARK Flexibility Score: inf
ROOT
ATOM      1  O   UNL A   1      41.012  22.706  27.825  1.00  0.00    -0.275 OA
ATOM      2  C   UNL A   1      40.288  22.209  26.967  1.00  0.00     0.220 C 
ATOM      3  N   UNL A   1      40.442  20.921  26.510  1.00  0.00    -0.356 N 
ATOM      4  H   UNL A   1      39.794  20.587  25.850  1.00  0.00     0.163 HD
ENDROOT
BRANCH   2   5
ATOM      5  C   UNL A   1      39.093  22.964  26.404  1.00  0.00     0.105 C 
BRANCH   5   6
ATOM      6  C   UNL A   1      38.039  22.093  25.704  1.00  0.00     0.045 C 
BRANCH   6   7
ATOM      7  C   UNL A   1      36.882  22.824  25.060  1.00  0.00    -0.047 A 
ATOM      8  C   UNL A   1      36.403  22.421  23.804  1.00  0.00     0.005 A 
ATOM      9  C   UNL A   1      36.257  23.902  25.696  1.00  0.00     0.005 A 
ATOM     10  C   UNL A   1      35.320  23.075  23.207  1.00  0.00     0.022 A 
ATOM     11  C   UNL A   1      35.124  24.496  25.143  1.00  0.00     0.022 A 
ATOM     12  C   UNL A   1      34.684  24.127  23.874  1.00  0.00     0.087 A 
BRANCH  12  13
ATOM     13  S   UNL A   1      33.396  25.001  22.998  1.00  0.00     0.261 S 
ATOM     14  O   UNL A   1      34.048  25.995  22.175  1.00  0.00    -0.201 OA
ATOM     15  O   UNL A   1      32.543  23.990  22.420  1.00  0.00    -0.201 OA
BRANCH  13  16
ATOM     16  N   UNL A   1      32.438  25.778  24.133  1.00  0.00    -0.280 N 
ATOM     17  H   UNL A   1      31.805  25.218  24.638  1.00  0.00     0.180 HD
BRANCH  16  18
ATOM     18  C   UNL A   1      32.449  27.169  24.437  1.00  0.00     0.050 A 
ATOM     19  C   UNL A   1      31.396  27.931  23.920  1.00  0.00     0.027 A 
ATOM     20  C   UNL A   1      33.345  27.761  25.329  1.00  0.00     0.041 A 
ATOM     21  C   UNL A   1      31.162  29.226  24.386  1.00  0.00     0.003 A 
ATOM     22  C   UNL A   1      33.091  29.046  25.815  1.00  0.00     0.015 A 
ATOM     23  C   UNL A   1      31.993  29.774  25.360  1.00  0.00     0.015 A 
ATOM     24  I   UNL A   1      34.295  29.829  27.320  1.00  0.00    -0.044 I 
ENDBRANCH  16  18
ENDBRANCH  13  16
ENDBRANCH  12  13
ENDBRANCH   6   7
ENDBRANCH   5   6
ENDBRANCH   2   5
BRANCH   3  25
ATOM     25  C   UNL A   1      41.496  20.026  26.937  1.00  0.00     0.117 C 
BRANCH  25  26
ATOM     26  C   UNL A   1      42.212  19.373  25.757  1.00  0.00     0.042 C 
BRANCH  26  27
ATOM     27  C   UNL A   1      43.488  18.603  26.101  1.00  0.00     0.118 C 
BRANCH  27  28
ATOM     28  N   UNL A   1      44.419  18.475  24.990  1.00  0.00    -0.352 N 
ATOM     29  C   UNL A   1      45.089  19.446  24.282  1.00  0.00     0.251 C 
ATOM     30  H   UNL A   1      44.598  17.552  24.700  1.00  0.00     0.163 HD
ATOM     31  O   UNL A   1      45.718  19.142  23.273  1.00  0.00    -0.269 OA
BRANCH  29  32
ATOM     32  C   UNL A   1      45.048  20.865  24.707  1.00  0.00     0.039 A 
ATOM     33  C   UNL A   1      45.473  21.192  26.000  1.00  0.00     0.014 A 
ATOM     34  C   UNL A   1      44.577  21.868  23.858  1.00  0.00     0.014 A 
ATOM     35  C   UNL A   1      45.512  22.530  26.408  1.00  0.00     0.010 A 
ATOM     36  C   UNL A   1      44.657  23.205  24.246  1.00  0.00     0.010 A 
ATOM     37  C   UNL A   1      45.145  23.549  25.516  1.00  0.00    -0.014 A 
BRANCH  37  38
ATOM     38  C   UNL A   1      45.320  24.984  25.853  1.00  0.00     0.031 A 
ATOM     39  C   UNL A   1      46.674  25.625  25.773  1.00  0.00     0.074 A 
ATOM     40  C   UNL A   1      44.275  25.674  26.346  1.00  0.00     0.049 A 
ATOM     41  N   UNL A   1      47.057  26.805  26.191  1.00  0.00    -0.248 NA
ATOM     42  C   UNL A   1      47.746  24.822  25.166  1.00  0.00     0.031 C 
ATOM     43  C   UNL A   1      42.917  25.152  26.504  1.00  0.00     0.029 A 
ATOM     44  N   UNL A   1      44.199  26.954  26.838  1.00  0.00    -0.354 N 
ATOM     45  C   UNL A   1      48.415  26.882  25.916  1.00  0.00     0.074 A 
ATOM     46  C   UNL A   1      48.797  25.617  25.321  1.00  0.00     0.031 C 
ATOM     47  C   UNL A   1      42.143  26.099  27.058  1.00  0.00     0.029 A 
ATOM     48  C   UNL A   1      42.959  27.279  27.331  1.00  0.00     0.049 A 
ATOM     49  H   UNL A   1      44.959  27.578  26.837  1.00  0.00     0.167 HD
ATOM     50  C   UNL A   1      49.260  27.918  26.130  1.00  0.00     0.037 A 
ATOM     51  C   UNL A   1      42.530  28.395  27.952  1.00  0.00     0.037 A 
ATOM     52  C   UNL A   1      48.871  29.186  26.694  1.00  0.00     0.049 A 
ATOM     53  C   UNL A   1      43.490  29.529  28.178  1.00  0.00     0.074 A 
ATOM     54  C   UNL A   1      49.647  30.313  26.901  1.00  0.00     0.029 A 
ATOM     55  N   UNL A   1      47.594  29.494  27.137  1.00  0.00    -0.354 N 
ATOM     56  N   UNL A   1      44.763  29.606  27.878  1.00  0.00    -0.248 NA
ATOM     57  C   UNL A   1      42.953  30.733  28.829  1.00  0.00     0.031 C 
ATOM     58  C   UNL A   1      48.848  31.292  27.500  1.00  0.00     0.029 A 
ATOM     59  C   UNL A   1      47.564  30.789  27.630  1.00  0.00     0.049 A 
ATOM     60  H   UNL A   1      46.823  28.882  27.108  1.00  0.00     0.167 HD
ATOM     61  C   UNL A   1      45.171  30.873  28.268  1.00  0.00     0.074 A 
ATOM     62  C   UNL A   1      44.011  31.533  28.829  1.00  0.00     0.031 C 
ATOM     63  C   UNL A   1      46.397  31.439  28.165  1.00  0.00     0.037 A 
BRANCH  50  64
ATOM     64  C   UNL A   1      50.700  27.730  25.753  1.00  0.00     0.064 A 
ATOM     65  C   UNL A   1      51.145  27.924  24.437  1.00  0.00     0.173 A 
ATOM     66  C   UNL A   1      51.654  27.402  26.728  1.00  0.00     0.173 A 
ATOM     67  F   UNL A   1      50.269  28.227  23.467  1.00  0.00    -0.203 F 
ATOM     68  C   UNL A   1      52.489  27.775  24.107  1.00  0.00     0.198 A 
ATOM     69  C   UNL A   1      53.000  27.280  26.400  1.00  0.00     0.198 A 
ATOM     70  F   UNL A   1      51.279  27.211  28.002  1.00  0.00    -0.203 F 
ATOM     71  F   UNL A   1      52.886  27.927  22.836  1.00  0.00    -0.200 F 
ATOM     72  C   UNL A   1      53.417  27.460  25.089  1.00  0.00     0.200 A 
ATOM     73  F   UNL A   1      53.897  26.986  27.352  1.00  0.00    -0.200 F 
ATOM     74  F   UNL A   1      54.711  27.325  24.771  1.00  0.00    -0.200 F 
ENDBRANCH  50  64
BRANCH  51  75
ATOM     75  C   UNL A   1      41.116  28.495  28.391  1.00  0.00     0.064 A 
ATOM     76  C   UNL A   1      40.735  28.084  29.675  1.00  0.00     0.173 A 
ATOM     77  C   UNL A   1      40.123  29.009  27.545  1.00  0.00     0.173 A 
ATOM     78  F   UNL A   1      41.648  27.566  30.510  1.00  0.00    -0.203 F 
ATOM     79  C   UNL A   1      39.409  28.170  30.093  1.00  0.00     0.198 A 
ATOM     80  C   UNL A   1      38.802  29.117  27.973  1.00  0.00     0.198 A 
ATOM     81  F   UNL A   1      40.441  29.420  26.309  1.00  0.00    -0.203 F 
ATOM     82  F   UNL A   1      39.064  27.737  31.313  1.00  0.00    -0.200 F 
ATOM     83  C   UNL A   1      38.445  28.692  29.244  1.00  0.00     0.200 A 
ATOM     84  F   UNL A   1      37.875  29.632  27.154  1.00  0.00    -0.200 F 
ATOM     85  F   UNL A   1      37.171  28.779  29.648  1.00  0.00    -0.200 F 
ENDBRANCH  51  75
BRANCH  63  86
ATOM     86  C   UNL A   1      46.541  32.861  28.621  1.00  0.00     0.064 A 
ATOM     87  C   UNL A   1      46.308  33.938  27.755  1.00  0.00     0.173 A 
ATOM     88  C   UNL A   1      46.866  33.143  29.956  1.00  0.00     0.173 A 
ATOM     89  F   UNL A   1      46.011  33.716  26.466  1.00  0.00    -0.203 F 
ATOM     90  C   UNL A   1      46.408  35.251  28.208  1.00  0.00     0.198 A 
ATOM     91  C   UNL A   1      46.943  34.457  30.410  1.00  0.00     0.198 A 
ATOM     92  F   UNL A   1      47.094  32.145  30.823  1.00  0.00    -0.203 F 
ATOM     93  F   UNL A   1      46.213  36.268  27.357  1.00  0.00    -0.200 F 
ATOM     94  C   UNL A   1      46.718  35.510  29.536  1.00  0.00     0.200 A 
ATOM     95  F   UNL A   1      47.233  34.705  31.695  1.00  0.00    -0.200 F 
ATOM     96  F   UNL A   1      46.804  36.773  29.971  1.00  0.00    -0.200 F 
ENDBRANCH  63  86
ENDBRANCH  37  38
ENDBRANCH  29  32
ENDBRANCH  27  28
ENDBRANCH  26  27
ENDBRANCH  25  26
ENDBRANCH   3  25
TORSDOF 15
ENDMDL
MODEL 2
REMARK VINA RESULT:     -11.8      7.075     12.681
REMARK SMILES O=C(CCc1ccc(S(=O)(=O)Nc2cccc(I)c2)cc1)NCCCNC(=O)c1ccc(-c2c3nc(c(-c4c(F)c(F)c(F)c(F)c4F)c4ccc([nH]4)c(-c4c(F)c(F)c(F)c(F)c4F)c4nc(c(-c5c(F)c(F)c(F)c(F)c5F)c5ccc2[nH]5)C=C4)C=C3)cc1
REMARK SMILES IDX 1 1 2 2 22 3 3 5 4 6 5 7 6 8 21 9 7 10 20 11 8 12 9 13 10 14
REMARK SMILES IDX 11 15 12 16 13 18 14 19 19 20 15 21 17 22 16 23 18 24 23 25
REMARK SMILES IDX 24 26 25 27 26 28 27 29 28 31 29 32 30 33 91 34 31 35 90 36
REMARK SMILES IDX 32 37 33 38 34 39 84 40 35 41 89 42 83 43 85 44 36 45 88 46
REMARK SMILES IDX 82 47 81 48 37 50 69 51 49 52 68 53 50 54 53 55 67 56 86 57
REMARK SMILES IDX 51 58 52 59 66 61 87 62 54 63 38 64 39 65 47 66 40 67 41 68
REMARK SMILES IDX 45 69 48 70 42 71 43 72 46 73 44 74 70 75 71 76 79 77 72 78
REMARK SMILES IDX 73 79 77 80 80 81 74 82 75 83 78 84 76 85 55 86 56 87 64 88
REMARK SMILES IDX 57 89 58 90 62 91 65 92 59 93 60 94 63 95 61 96
REMARK H PARENT 22 4 12 17 26 30 85 49 53 60
REMARK Flexibility Score: inf
ROOT
ATOM      1  O   UNL A   1      36.395  31.812  28.264  1.00  0.00    -0.275 OA
ATOM      2  C   UNL A   1      35.257  31.516  27.911  1.00  0.00     0.220 C 
ATOM      3  N   UNL A   1      34.257  32.444  27.746  1.00  0.00    -0.356 N 
ATOM      4  H   UNL A   1      33.385  32.127  27.421  1.00  0.00     0.163 HD
ENDROOT
BRANCH   2   5
ATOM      5  C   UNL A   1      34.892  30.087  27.536  1.00  0.00     0.105 C 
BRANCH   5   6
ATOM      6  C   UNL A   1      33.645  29.941  26.651  1.00  0.00     0.045 C 
BRANCH   6   7
ATOM      7  C   UNL A   1      33.599  28.727  25.749  1.00  0.00    -0.047 A 
ATOM      8  C   UNL A   1      33.623  27.437  26.300  1.00  0.00     0.005 A 
ATOM      9  C   UNL A   1      33.520  28.856  24.359  1.00  0.00     0.005 A 
ATOM     10  C   UNL A   1      33.559  26.306  25.478  1.00  0.00     0.022 A 
ATOM     11  C   UNL A   1      33.367  27.734  23.546  1.00  0.00     0.022 A 
ATOM     12  C   UNL A   1      33.443  26.455  24.093  1.00  0.00     0.087 A 
BRANCH  12  13
ATOM     13  S   UNL A   1      33.500  24.973  23.096  1.00  0.00     0.261 S 
ATOM     14  O   UNL A   1      32.246  24.282  23.300  1.00  0.00    -0.201 OA
ATOM     15  O   UNL A   1      33.923  25.387  21.780  1.00  0.00    -0.201 OA
BRANCH  13  16
ATOM     16  N   UNL A   1      34.749  24.014  23.672  1.00  0.00    -0.280 N 
ATOM     17  H   UNL A   1      35.650  24.200  23.322  1.00  0.00     0.180 HD
BRANCH  16  18
ATOM     18  C   UNL A   1      34.634  22.954  24.616  1.00  0.00     0.050 A 
ATOM     19  C   UNL A   1      34.822  23.291  25.961  1.00  0.00     0.027 A 
ATOM     20  C   UNL A   1      34.202  21.667  24.289  1.00  0.00     0.041 A 
ATOM     21  C   UNL A   1      34.457  22.401  26.972  1.00  0.00     0.003 A 
ATOM     22  C   UNL A   1      33.811  20.790  25.304  1.00  0.00     0.015 A 
ATOM     23  C   UNL A   1      33.921  21.158  26.643  1.00  0.00     0.015 A 
ATOM     24  I   UNL A   1      32.945  18.966  24.803  1.00  0.00    -0.044 I 
ENDBRANCH  16  18
ENDBRANCH  13  16
ENDBRANCH  12  13
ENDBRANCH   6   7
ENDBRANCH   5   6
ENDBRANCH   2   5
BRANCH   3  25
ATOM     25  C   UNL A   1      34.405  33.858  28.020  1.00  0.00     0.117 C 
BRANCH  25  26
ATOM     26  C   UNL A   1      33.600  34.297  29.241  1.00  0.00     0.042 C 
BRANCH  26  27
ATOM     27  C   UNL A   1      33.541  35.805  29.487  1.00  0.00     0.118 C 
BRANCH  27  28
ATOM     28  N   UNL A   1      32.621  36.195  30.545  1.00  0.00    -0.352 N 
ATOM     29  C   UNL A   1      32.629  35.882  31.884  1.00  0.00     0.251 C 
ATOM     30  H   UNL A   1      31.878  36.773  30.258  1.00  0.00     0.163 HD
ATOM     31  O   UNL A   1      31.673  36.187  32.590  1.00  0.00    -0.269 OA
BRANCH  29  32
ATOM     32  C   UNL A   1      33.771  35.159  32.492  1.00  0.00     0.039 A 
ATOM     33  C   UNL A   1      33.556  33.879  33.016  1.00  0.00     0.014 A 
ATOM     34  C   UNL A   1      35.040  35.737  32.573  1.00  0.00     0.014 A 
ATOM     35  C   UNL A   1      34.628  33.144  33.534  1.00  0.00     0.010 A 
ATOM     36  C   UNL A   1      36.117  34.989  33.047  1.00  0.00     0.010 A 
ATOM     37  C   UNL A   1      35.925  33.679  33.512  1.00  0.00    -0.014 A 
BRANCH  37  38
ATOM     38  C   UNL A   1      37.109  32.875  33.905  1.00  0.00     0.031 A 
ATOM     39  C   UNL A   1      37.851  33.181  35.173  1.00  0.00     0.074 A 
ATOM     40  C   UNL A   1      37.584  31.948  33.053  1.00  0.00     0.049 A 
ATOM     41  N   UNL A   1      38.999  32.714  35.593  1.00  0.00    -0.248 NA
ATOM     42  C   UNL A   1      37.232  34.164  36.075  1.00  0.00     0.031 C 
ATOM     43  C   UNL A   1      36.971  31.582  31.774  1.00  0.00     0.029 A 
ATOM     44  N   UNL A   1      38.711  31.165  33.117  1.00  0.00    -0.354 N 
ATOM     45  C   UNL A   1      39.251  33.355  36.797  1.00  0.00     0.074 A 
ATOM     46  C   UNL A   1      38.149  34.269  37.027  1.00  0.00     0.031 C 
ATOM     47  C   UNL A   1      37.731  30.652  31.173  1.00  0.00     0.029 A 
ATOM     48  C   UNL A   1      38.902  30.385  32.003  1.00  0.00     0.049 A 
ATOM     49  H   UNL A   1      39.323  31.164  33.888  1.00  0.00     0.167 HD
ATOM     50  C   UNL A   1      40.299  33.187  37.638  1.00  0.00     0.037 A 
ATOM     51  C   UNL A   1      39.916  29.562  31.676  1.00  0.00     0.037 A 
ATOM     52  C   UNL A   1      41.377  32.256  37.422  1.00  0.00     0.049 A 
ATOM     53  C   UNL A   1      41.068  29.395  32.627  1.00  0.00     0.074 A 
ATOM     54  C   UNL A   1      42.456  31.980  38.244  1.00  0.00     0.029 A 
ATOM     55  N   UNL A   1      41.510  31.449  36.303  1.00  0.00    -0.354 N 
ATOM     56  N   UNL A   1      41.276  29.977  33.783  1.00  0.00    -0.248 NA
ATOM     57  C   UNL A   1      42.127  28.456  32.229  1.00  0.00     0.031 C 
ATOM     58  C   UNL A   1      43.260  31.028  37.608  1.00  0.00     0.029 A 
ATOM     59  C   UNL A   1      42.661  30.683  36.407  1.00  0.00     0.049 A 
ATOM     60  H   UNL A   1      40.881  31.423  35.547  1.00  0.00     0.167 HD
ATOM     61  C   UNL A   1      42.465  29.451  34.266  1.00  0.00     0.074 A 
ATOM     62  C   UNL A   1      42.936  28.503  33.279  1.00  0.00     0.031 C 
ATOM     63  C   UNL A   1      43.105  29.727  35.427  1.00  0.00     0.037 A 
BRANCH  50  64
ATOM     64  C   UNL A   1      40.336  34.029  38.879  1.00  0.00     0.064 A 
ATOM     65  C   UNL A   1      40.967  35.282  38.897  1.00  0.00     0.173 A 
ATOM     66  C   UNL A   1      39.689  33.601  40.049  1.00  0.00     0.173 A 
ATOM     67  F   UNL A   1      41.609  35.729  37.808  1.00  0.00    -0.203 F 
ATOM     68  C   UNL A   1      40.968  36.065  40.048  1.00  0.00     0.198 A 
ATOM     69  C   UNL A   1      39.670  34.399  41.189  1.00  0.00     0.198 A 
ATOM     70  F   UNL A   1      39.067  32.414  40.081  1.00  0.00    -0.203 F 
ATOM     71  F   UNL A   1      41.611  37.241  40.055  1.00  0.00    -0.200 F 
ATOM     72  C   UNL A   1      40.314  35.628  41.190  1.00  0.00     0.200 A 
ATOM     73  F   UNL A   1      39.029  33.979  42.289  1.00  0.00    -0.200 F 
ATOM     74  F   UNL A   1      40.310  36.387  42.294  1.00  0.00    -0.200 F 
ENDBRANCH  50  64
BRANCH  51  75
ATOM     75  C   UNL A   1      39.877  28.821  30.392  1.00  0.00     0.064 A 
ATOM     76  C   UNL A   1      40.395  29.390  29.221  1.00  0.00     0.173 A 
ATOM     77  C   UNL A   1      39.332  27.531  30.307  1.00  0.00     0.173 A 
ATOM     78  F   UNL A   1      40.908  30.629  29.250  1.00  0.00    -0.203 F 
ATOM     79  C   UNL A   1      40.358  28.703  28.010  1.00  0.00     0.198 A 
ATOM     80  C   UNL A   1      39.316  26.836  29.101  1.00  0.00     0.198 A 
ATOM     81  F   UNL A   1      38.827  26.943  31.401  1.00  0.00    -0.203 F 
ATOM     82  F   UNL A   1      40.828  29.285  26.898  1.00  0.00    -0.200 F 
ATOM     83  C   UNL A   1      39.824  27.425  27.951  1.00  0.00     0.200 A 
ATOM     84  F   UNL A   1      38.810  25.597  29.050  1.00  0.00    -0.200 F 
ATOM     85  F   UNL A   1      39.792  26.762  26.788  1.00  0.00    -0.200 F 
ENDBRANCH  51  75
BRANCH  63  86
ATOM     86  C   UNL A   1      44.359  28.960  35.723  1.00  0.00     0.064 A 
ATOM     87  C   UNL A   1      45.619  29.430  35.330  1.00  0.00     0.173 A 
ATOM     88  C   UNL A   1      44.298  27.764  36.454  1.00  0.00     0.173 A 
ATOM     89  F   UNL A   1      45.726  30.559  34.614  1.00  0.00    -0.203 F 
ATOM     90  C   UNL A   1      46.775  28.721  35.648  1.00  0.00     0.198 A 
ATOM     91  C   UNL A   1      45.457  27.071  36.790  1.00  0.00     0.198 A 
ATOM     92  F   UNL A   1      43.114  27.277  36.856  1.00  0.00    -0.203 F 
ATOM     93  F   UNL A   1      47.969  29.171  35.235  1.00  0.00    -0.200 F 
ATOM     94  C   UNL A   1      46.695  27.548  36.384  1.00  0.00     0.200 A 
ATOM     95  F   UNL A   1      45.378  25.943  37.509  1.00  0.00    -0.200 F 
ATOM     96  F   UNL A   1      47.809  26.874  36.697  1.00  0.00    -0.200 F 
ENDBRANCH  63  86
ENDBRANCH  37  38
ENDBRANCH  29  32
ENDBRANCH  27  28
ENDBRANCH  26  27
ENDBRANCH  25  26
ENDBRANCH   3  25
TORSDOF 15
ENDMDL
MODEL 3
REMARK VINA RESULT:     -11.8      7.092     12.642
REMARK SMILES O=C(CCc1ccc(S(=O)(=O)Nc2cccc(I)c2)cc1)NCCCNC(=O)c1ccc(-c2c3nc(c(-c4c(F)c(F)c(F)c(F)c4F)c4ccc([nH]4)c(-c4c(F)c(F)c(F)c(F)c4F)c4nc(c(-c5c(F)c(F)c(F)c(F)c5F)c5ccc2[nH]5)C=C4)C=C3)cc1
REMARK SMILES IDX 1 1 2 2 22 3 3 5 4 6 5 7 6 8 21 9 7 10 20 11 8 12 9 13 10 14
REMARK SMILES IDX 11 15 12 16 13 18 14 19 19 20 15 21 17 22 16 23 18 24 23 25
REMARK SMILES IDX 24 26 25 27 26 28 27 29 28 31 29 32 30 33 91 34 31 35 90 36
REMARK SMILES IDX 32 37 33 38 34 39 84 40 35 41 89 42 83 43 85 44 36 45 88 46
REMARK SMILES IDX 82 47 81 48 37 50 69 51 49 52 68 53 50 54 53 55 67 56 86 57
REMARK SMILES IDX 51 58 52 59 66 61 87 62 54 63 38 64 39 65 47 66 40 67 41 68
REMARK SMILES IDX 45 69 48 70 42 71 43 72 46 73 44 74 70 75 71 76 79 77 72 78
REMARK SMILES IDX 73 79 77 80 80 81 74 82 75 83 78 84 76 85 55 86 56 87 64 88
REMARK SMILES IDX 57 89 58 90 62 91 65 92 59 93 60 94 63 95 61 96
REMARK H PARENT 22 4 12 17 26 30 85 49 53 60
REMARK Flexibility Score: inf
ROOT
ATOM      1  O   UNL A   1      32.301  31.374  26.836  1.00  0.00    -0.275 OA
ATOM      2  C   UNL A   1      33.362  31.109  27.394  1.00  0.00     0.220 C 
ATOM      3  N   UNL A   1      34.173  32.066  27.957  1.00  0.00    -0.356 N 
ATOM      4  H   UNL A   1      34.986  31.764  28.421  1.00  0.00     0.163 HD
ENDROOT
BRANCH   2   5
ATOM      5  C   UNL A   1      33.819  29.670  27.585  1.00  0.00     0.105 C 
BRANCH   5   6
ATOM      6  C   UNL A   1      32.723  28.607  27.414  1.00  0.00     0.045 C 
BRANCH   6   7
ATOM      7  C   UNL A   1      32.652  27.925  26.065  1.00  0.00    -0.047 A 
ATOM      8  C   UNL A   1      31.455  27.930  25.334  1.00  0.00     0.005 A 
ATOM      9  C   UNL A   1      33.768  27.289  25.512  1.00  0.00     0.005 A 
ATOM     10  C   UNL A   1      31.382  27.321  24.076  1.00  0.00     0.022 A 
ATOM     11  C   UNL A   1      33.721  26.761  24.223  1.00  0.00     0.022 A 
ATOM     12  C   UNL A   1      32.518  26.722  23.522  1.00  0.00     0.087 A 
BRANCH  12  13
ATOM     13  S   UNL A   1      32.320  25.851  21.975  1.00  0.00     0.261 S 
ATOM     14  O   UNL A   1      31.213  26.472  21.282  1.00  0.00    -0.201 OA
ATOM     15  O   UNL A   1      33.633  25.781  21.380  1.00  0.00    -0.201 OA
BRANCH  13  16
ATOM     16  N   UNL A   1      31.918  24.262  22.327  1.00  0.00    -0.280 N 
ATOM     17  H   UNL A   1      31.416  23.768  21.640  1.00  0.00     0.180 HD
BRANCH  16  18
ATOM     18  C   UNL A   1      32.232  23.557  23.524  1.00  0.00     0.050 A 
ATOM     19  C   UNL A   1      31.158  23.237  24.362  1.00  0.00     0.027 A 
ATOM     20  C   UNL A   1      33.499  23.049  23.816  1.00  0.00     0.041 A 
ATOM     21  C   UNL A   1      31.318  22.316  25.399  1.00  0.00     0.003 A 
ATOM     22  C   UNL A   1      33.649  22.106  24.836  1.00  0.00     0.015 A 
ATOM     23  C   UNL A   1      32.560  21.725  25.617  1.00  0.00     0.015 A 
ATOM     24  I   UNL A   1      35.490  21.176  25.108  1.00  0.00    -0.044 I 
ENDBRANCH  16  18
ENDBRANCH  13  16
ENDBRANCH  12  13
ENDBRANCH   6   7
ENDBRANCH   5   6
ENDBRANCH   2   5
BRANCH   3  25
ATOM     25  C   UNL A   1      33.907  33.488  27.913  1.00  0.00     0.117 C 
BRANCH  25  26
ATOM     26  C   UNL A   1      33.675  34.075  29.303  1.00  0.00     0.042 C 
BRANCH  26  27
ATOM     27  C   UNL A   1      33.551  35.598  29.365  1.00  0.00     0.118 C 
BRANCH  27  28
ATOM     28  N   UNL A   1      32.675  36.077  30.424  1.00  0.00    -0.352 N 
ATOM     29  C   UNL A   1      32.718  35.846  31.779  1.00  0.00     0.251 C 
ATOM     30  H   UNL A   1      31.938  36.656  30.124  1.00  0.00     0.163 HD
ATOM     31  O   UNL A   1      31.792  36.219  32.493  1.00  0.00    -0.269 OA
BRANCH  29  32
ATOM     32  C   UNL A   1      33.860  35.132  32.396  1.00  0.00     0.039 A 
ATOM     33  C   UNL A   1      33.638  33.873  32.966  1.00  0.00     0.014 A 
ATOM     34  C   UNL A   1      35.136  35.697  32.440  1.00  0.00     0.014 A 
ATOM     35  C   UNL A   1      34.709  33.144  33.495  1.00  0.00     0.010 A 
ATOM     36  C   UNL A   1      36.212  34.954  32.924  1.00  0.00     0.010 A 
ATOM     37  C   UNL A   1      36.011  33.663  33.437  1.00  0.00    -0.014 A 
BRANCH  37  38
ATOM     38  C   UNL A   1      37.193  32.860  33.841  1.00  0.00     0.031 A 
ATOM     39  C   UNL A   1      37.918  33.162  35.119  1.00  0.00     0.074 A 
ATOM     40  C   UNL A   1      37.680  31.937  32.991  1.00  0.00     0.049 A 
ATOM     41  N   UNL A   1      39.062  32.695  35.552  1.00  0.00    -0.248 NA
ATOM     42  C   UNL A   1      37.286  34.140  36.018  1.00  0.00     0.031 C 
ATOM     43  C   UNL A   1      37.084  31.576  31.704  1.00  0.00     0.029 A 
ATOM     44  N   UNL A   1      38.807  31.157  33.066  1.00  0.00    -0.354 N 
ATOM     45  C   UNL A   1      39.297  33.332  36.762  1.00  0.00     0.074 A 
ATOM     46  C   UNL A   1      38.191  34.243  36.982  1.00  0.00     0.031 C 
ATOM     47  C   UNL A   1      37.852  30.650  31.108  1.00  0.00     0.029 A 
ATOM     48  C   UNL A   1      39.013  30.381  31.952  1.00  0.00     0.049 A 
ATOM     49  H   UNL A   1      39.410  31.153  33.844  1.00  0.00     0.167 HD
ATOM     50  C   UNL A   1      40.335  33.163  37.615  1.00  0.00     0.037 A 
ATOM     51  C   UNL A   1      40.033  29.561  31.633  1.00  0.00     0.037 A 
ATOM     52  C   UNL A   1      41.418  32.235  37.408  1.00  0.00     0.049 A 
ATOM     53  C   UNL A   1      41.174  29.393  32.598  1.00  0.00     0.074 A 
ATOM     54  C   UNL A   1      42.487  31.957  38.242  1.00  0.00     0.029 A 
ATOM     55  N   UNL A   1      41.566  31.432  36.288  1.00  0.00    -0.354 N 
ATOM     56  N   UNL A   1      41.366  29.970  33.758  1.00  0.00    -0.248 NA
ATOM     57  C   UNL A   1      42.239  28.457  32.209  1.00  0.00     0.031 C 
ATOM     58  C   UNL A   1      43.301  31.009  37.612  1.00  0.00     0.029 A 
ATOM     59  C   UNL A   1      42.717  30.668  36.403  1.00  0.00     0.049 A 
ATOM     60  H   UNL A   1      40.947  31.408  35.523  1.00  0.00     0.167 HD
ATOM     61  C   UNL A   1      42.550  29.445  34.254  1.00  0.00     0.074 A 
ATOM     62  C   UNL A   1      43.035  28.501  33.269  1.00  0.00     0.031 C 
ATOM     63  C   UNL A   1      43.176  29.717  35.424  1.00  0.00     0.037 A 
BRANCH  50  64
ATOM     64  C   UNL A   1      40.356  34.000  38.860  1.00  0.00     0.064 A 
ATOM     65  C   UNL A   1      39.740  33.569  40.044  1.00  0.00     0.173 A 
ATOM     66  C   UNL A   1      41.043  35.223  38.883  1.00  0.00     0.173 A 
ATOM     67  F   UNL A   1      39.060  32.413  40.068  1.00  0.00    -0.203 F 
ATOM     68  C   UNL A   1      39.792  34.343  41.200  1.00  0.00     0.198 A 
ATOM     69  C   UNL A   1      41.116  35.981  40.048  1.00  0.00     0.198 A 
ATOM     70  F   UNL A   1      41.653  35.676  37.778  1.00  0.00    -0.203 F 
ATOM     71  F   UNL A   1      39.163  33.931  42.309  1.00  0.00    -0.200 F 
ATOM     72  C   UNL A   1      40.486  35.544  41.204  1.00  0.00     0.200 A 
ATOM     73  F   UNL A   1      41.795  37.136  40.053  1.00  0.00    -0.200 F 
ATOM     74  F   UNL A   1      40.542  36.284  42.319  1.00  0.00    -0.200 F 
ENDBRANCH  50  64
BRANCH  51  75
ATOM     75  C   UNL A   1      40.011  28.825  30.346  1.00  0.00     0.064 A 
ATOM     76  C   UNL A   1      40.591  29.378  29.195  1.00  0.00     0.173 A 
ATOM     77  C   UNL A   1      39.422  27.557  30.237  1.00  0.00     0.173 A 
ATOM     78  F   UNL A   1      41.147  30.598  29.248  1.00  0.00    -0.203 F 
ATOM     79  C   UNL A   1      40.570  28.696  27.981  1.00  0.00     0.198 A 
ATOM     80  C   UNL A   1      39.423  26.867  29.028  1.00  0.00     0.198 A 
ATOM     81  F   UNL A   1      38.859  26.985  31.311  1.00  0.00    -0.203 F 
ATOM     82  F   UNL A   1      41.100  29.263  26.888  1.00  0.00    -0.200 F 
ATOM     83  C   UNL A   1      39.991  27.439  27.900  1.00  0.00     0.200 A 
ATOM     84  F   UNL A   1      38.873  25.647  28.956  1.00  0.00    -0.200 F 
ATOM     85  F   UNL A   1      39.976  26.781  26.733  1.00  0.00    -0.200 F 
ENDBRANCH  51  75
BRANCH  63  86
ATOM     86  C   UNL A   1      44.427  28.951  35.732  1.00  0.00     0.064 A 
ATOM     87  C   UNL A   1      44.391  27.728  36.416  1.00  0.00     0.173 A 
ATOM     88  C   UNL A   1      45.671  29.425  35.291  1.00  0.00     0.173 A 
ATOM     89  F   UNL A   1      43.226  27.243  36.871  1.00  0.00    -0.203 F 
ATOM     90  C   UNL A   1      45.561  27.012  36.657  1.00  0.00     0.198 A 
ATOM     91  C   UNL A   1      46.835  28.695  35.515  1.00  0.00     0.198 A 
ATOM     92  F   UNL A   1      45.755  30.589  34.629  1.00  0.00    -0.203 F 
ATOM     93  F   UNL A   1      45.509  25.859  37.341  1.00  0.00    -0.200 F 
ATOM     94  C   UNL A   1      46.780  27.491  36.201  1.00  0.00     0.200 A 
ATOM     95  F   UNL A   1      48.011  29.156  35.065  1.00  0.00    -0.200 F 
ATOM     96  F   UNL A   1      47.902  26.795  36.426  1.00  0.00    -0.200 F 
ENDBRANCH  63  86
ENDBRANCH  37  38
ENDBRANCH  29  32
ENDBRANCH  27  28
ENDBRANCH  26  27
ENDBRANCH  25  26
ENDBRANCH   3  25
TORSDOF 15
ENDMDL
