MODEL 1
REMARK VINA RESULT:     -12.3      0.000      0.000
REMARK SMILES Cc1cc(Cl)ccc1Oc1cc(C)c(N)c(C(=O)NCCCNC(=O)c2ccc(-c3c4nc(c(-c5c(F)c(F)c(F)c(F)c5F)c5ccc([nH]5)c(-c5c(F)c(F)c(F)c(F)c5F)c5nc(c(-c6c(F)c(F)c(F)c(F)c6F)c6ccc3[nH]6)C=C5)C=C4)cc2)c1
REMARK SMILES IDX 21 1 20 2 19 3 17 4 18 5 16 7 10 8 11 9 89 10 12 11 13 12
REMARK SMILES IDX 14 13 9 14 8 15 1 16 2 17 3 18 4 19 7 20 5 21 6 22 15 23
REMARK SMILES IDX 22 26 23 27 24 28 25 30 26 31 27 32 88 33 28 34 87 35 29 36
REMARK SMILES IDX 30 37 31 38 81 39 32 40 86 41 80 42 82 43 33 44 85 45 79 46
REMARK SMILES IDX 78 47 34 49 66 50 46 51 65 52 47 53 50 54 64 55 83 56 48 57
REMARK SMILES IDX 49 58 63 60 84 61 51 62 35 63 36 64 44 65 37 66 38 67 42 68
REMARK SMILES IDX 45 69 39 70 40 71 43 72 41 73 67 74 68 75 76 76 69 77 70 78
REMARK SMILES IDX 74 79 77 80 71 81 72 82 75 83 73 84 52 85 53 86 61 87 54 88
REMARK SMILES IDX 55 89 59 90 62 91 56 92 57 93 60 94 58 95
REMARK H PARENT 19 6 15 24 15 25 23 29 82 48 50 59
REMARK Flexibility Score: inf
ROOT
ATOM      1  C   UNL A   1      32.868  28.956  23.694  1.00  0.00     0.042 C 
ENDROOT
BRANCH   1   2
ATOM      2  C   UNL A   1      34.039  28.701  22.740  1.00  0.00     0.118 C 
BRANCH   2   3
ATOM      3  N   UNL A   1      33.764  27.568  21.875  1.00  0.00    -0.352 N 
ATOM      4  C   UNL A   1      33.433  26.254  22.097  1.00  0.00     0.253 C 
ATOM      5  O   UNL A   1      33.277  25.564  21.086  1.00  0.00    -0.269 OA
ATOM      6  H   UNL A   1      33.828  27.792  20.918  1.00  0.00     0.163 HD
BRANCH   4   7
ATOM      7  C   UNL A   1      33.230  25.646  23.456  1.00  0.00     0.066 A 
ATOM      8  C   UNL A   1      34.097  24.681  25.503  1.00  0.00     0.128 A 
ATOM      9  C   UNL A   1      32.820  24.601  26.040  1.00  0.00     0.052 A 
ATOM     10  C   UNL A   1      34.305  25.195  24.226  1.00  0.00     0.063 A 
ATOM     11  C   UNL A   1      31.712  24.939  25.253  1.00  0.00    -0.024 A 
ATOM     12  C   UNL A   1      30.334  24.680  25.802  1.00  0.00     0.047 C 
ATOM     13  C   UNL A   1      31.906  25.462  23.950  1.00  0.00     0.048 A 
BRANCH   8  14
ATOM     14  O   UNL A   1      35.192  24.371  26.256  1.00  0.00    -0.457 OA
BRANCH  14  15
ATOM     15  C   UNL A   1      36.009  23.307  25.936  1.00  0.00     0.130 A 
ATOM     16  C   UNL A   1      38.373  24.298  26.325  1.00  0.00     0.048 C 
ATOM     17  C   UNL A   1      37.412  23.204  25.948  1.00  0.00    -0.007 A 
ATOM     18  C   UNL A   1      37.995  21.980  25.548  1.00  0.00     0.027 A 
ATOM     19  C   UNL A   1      37.215  20.885  25.184  1.00  0.00     0.041 A 
ATOM     20  C   UNL A   1      35.239  22.184  25.570  1.00  0.00     0.049 A 
ATOM     21  Cl  UNL A   1      37.970  19.413  24.715  1.00  0.00    -0.084 Cl
ATOM     22  C   UNL A   1      35.833  20.978  25.199  1.00  0.00     0.024 A 
ENDBRANCH  14  15
ENDBRANCH   8  14
BRANCH  13  23
ATOM     23  N   UNL A   1      30.798  25.886  23.215  1.00  0.00    -0.398 N 
ATOM     24  H   UNL A   1      30.881  26.643  22.591  1.00  0.00     0.156 HD
ATOM     25  H   UNL A   1      29.932  25.429  23.321  1.00  0.00     0.156 HD
ENDBRANCH  13  23
ENDBRANCH   4   7
ENDBRANCH   2   3
ENDBRANCH   1   2
BRANCH   1  26
ATOM     26  C   UNL A   1      33.303  29.198  25.140  1.00  0.00     0.118 C 
BRANCH  26  27
ATOM     27  N   UNL A   1      32.743  30.429  25.676  1.00  0.00    -0.352 N 
ATOM     28  C   UNL A   1      33.082  31.144  26.797  1.00  0.00     0.251 C 
ATOM     29  H   UNL A   1      32.003  30.810  25.151  1.00  0.00     0.163 HD
ATOM     30  O   UNL A   1      32.333  32.032  27.193  1.00  0.00    -0.269 OA
BRANCH  28  31
ATOM     31  C   UNL A   1      34.334  30.864  27.534  1.00  0.00     0.039 A 
ATOM     32  C   UNL A   1      34.501  29.600  28.111  1.00  0.00     0.014 A 
ATOM     33  C   UNL A   1      35.303  31.852  27.731  1.00  0.00     0.014 A 
ATOM     34  C   UNL A   1      35.648  29.318  28.856  1.00  0.00     0.010 A 
ATOM     35  C   UNL A   1      36.477  31.550  28.421  1.00  0.00     0.010 A 
ATOM     36  C   UNL A   1      36.654  30.286  29.003  1.00  0.00    -0.014 A 
BRANCH  36  37
ATOM     37  C   UNL A   1      37.886  29.994  29.779  1.00  0.00     0.031 A 
ATOM     38  C   UNL A   1      38.932  29.070  29.219  1.00  0.00     0.074 A 
ATOM     39  C   UNL A   1      38.039  30.521  31.007  1.00  0.00     0.049 A 
ATOM     40  N   UNL A   1      40.045  28.648  29.767  1.00  0.00    -0.248 NA
ATOM     41  C   UNL A   1      38.682  28.527  27.875  1.00  0.00     0.031 C 
ATOM     42  C   UNL A   1      37.076  31.398  31.676  1.00  0.00     0.029 A 
ATOM     43  N   UNL A   1      39.058  30.391  31.918  1.00  0.00    -0.354 N 
ATOM     44  C   UNL A   1      40.615  27.780  28.844  1.00  0.00     0.074 A 
ATOM     45  C   UNL A   1      39.704  27.698  27.723  1.00  0.00     0.031 C 
ATOM     46  C   UNL A   1      37.558  31.742  32.881  1.00  0.00     0.029 A 
ATOM     47  C   UNL A   1      38.847  31.087  33.083  1.00  0.00     0.049 A 
ATOM     48  H   UNL A   1      39.863  29.850  31.751  1.00  0.00     0.167 HD
ATOM     49  C   UNL A   1      41.800  27.127  28.917  1.00  0.00     0.037 A 
ATOM     50  C   UNL A   1      39.607  31.182  34.189  1.00  0.00     0.037 A 
ATOM     51  C   UNL A   1      42.717  27.235  30.022  1.00  0.00     0.049 A 
ATOM     52  C   UNL A   1      40.925  30.459  34.240  1.00  0.00     0.074 A 
ATOM     53  C   UNL A   1      43.967  26.660  30.167  1.00  0.00     0.029 A 
ATOM     54  N   UNL A   1      42.480  27.972  31.174  1.00  0.00    -0.354 N 
ATOM     55  N   UNL A   1      41.482  29.689  33.337  1.00  0.00    -0.248 NA
ATOM     56  C   UNL A   1      41.724  30.625  35.462  1.00  0.00     0.031 C 
ATOM     57  C   UNL A   1      44.471  27.017  31.423  1.00  0.00     0.029 A 
ATOM     58  C   UNL A   1      43.555  27.854  32.040  1.00  0.00     0.049 A 
ATOM     59  H   UNL A   1      41.669  28.501  31.349  1.00  0.00     0.167 HD
ATOM     60  C   UNL A   1      42.705  29.303  33.866  1.00  0.00     0.074 A 
ATOM     61  C   UNL A   1      42.816  29.935  35.165  1.00  0.00     0.031 C 
ATOM     62  C   UNL A   1      43.652  28.497  33.325  1.00  0.00     0.037 A 
BRANCH  49  63
ATOM     63  C   UNL A   1      42.174  26.238  27.767  1.00  0.00     0.064 A 
ATOM     64  C   UNL A   1      43.035  26.676  26.748  1.00  0.00     0.173 A 
ATOM     65  C   UNL A   1      41.691  24.923  27.694  1.00  0.00     0.173 A 
ATOM     66  F   UNL A   1      43.516  27.929  26.764  1.00  0.00    -0.203 F 
ATOM     67  C   UNL A   1      43.373  25.841  25.685  1.00  0.00     0.198 A 
ATOM     68  C   UNL A   1      42.055  24.081  26.646  1.00  0.00     0.198 A 
ATOM     69  F   UNL A   1      40.871  24.450  28.645  1.00  0.00    -0.203 F 
ATOM     70  F   UNL A   1      44.156  26.300  24.699  1.00  0.00    -0.200 F 
ATOM     71  C   UNL A   1      42.889  24.544  25.638  1.00  0.00     0.200 A 
ATOM     72  F   UNL A   1      41.596  22.823  26.609  1.00  0.00    -0.200 F 
ATOM     73  F   UNL A   1      43.218  23.741  24.618  1.00  0.00    -0.200 F 
ENDBRANCH  49  63
BRANCH  50  74
ATOM     74  C   UNL A   1      39.155  32.024  35.327  1.00  0.00     0.064 A 
ATOM     75  C   UNL A   1      39.459  33.391  35.371  1.00  0.00     0.173 A 
ATOM     76  C   UNL A   1      38.411  31.485  36.385  1.00  0.00     0.173 A 
ATOM     77  F   UNL A   1      40.186  33.948  34.392  1.00  0.00    -0.203 F 
ATOM     78  C   UNL A   1      39.049  34.184  36.441  1.00  0.00     0.198 A 
ATOM     79  C   UNL A   1      37.979  32.284  37.442  1.00  0.00     0.198 A 
ATOM     80  F   UNL A   1      38.090  30.182  36.386  1.00  0.00    -0.203 F 
ATOM     81  F   UNL A   1      39.388  35.481  36.479  1.00  0.00    -0.200 F 
ATOM     82  C   UNL A   1      38.305  33.632  37.472  1.00  0.00     0.200 A 
ATOM     83  F   UNL A   1      37.249  31.750  38.429  1.00  0.00    -0.200 F 
ATOM     84  F   UNL A   1      37.907  34.396  38.499  1.00  0.00    -0.200 F 
ENDBRANCH  50  74
BRANCH  62  85
ATOM     85  C   UNL A   1      44.906  28.284  34.121  1.00  0.00     0.064 A 
ATOM     86  C   UNL A   1      46.005  29.148  34.008  1.00  0.00     0.173 A 
ATOM     87  C   UNL A   1      44.996  27.221  35.033  1.00  0.00     0.173 A 
ATOM     88  F   UNL A   1      45.974  30.170  33.138  1.00  0.00    -0.203 F 
ATOM     89  C   UNL A   1      47.158  28.941  34.759  1.00  0.00     0.198 A 
ATOM     90  C   UNL A   1      46.140  27.034  35.803  1.00  0.00     0.198 A 
ATOM     91  F   UNL A   1      43.970  26.370  35.182  1.00  0.00    -0.203 F 
ATOM     92  F   UNL A   1      48.215  29.751  34.600  1.00  0.00    -0.200 F 
ATOM     93  C   UNL A   1      47.222  27.888  35.661  1.00  0.00     0.200 A 
ATOM     94  F   UNL A   1      46.196  26.023  36.681  1.00  0.00    -0.200 F 
ATOM     95  F   UNL A   1      48.331  27.692  36.386  1.00  0.00    -0.200 F 
ENDBRANCH  62  85
ENDBRANCH  36  37
ENDBRANCH  28  31
ENDBRANCH  26  27
ENDBRANCH   1  26
TORSDOF 13
ENDMDL
MODEL 2
REMARK VINA RESULT:     -12.3      0.426      7.407
REMARK SMILES Cc1cc(Cl)ccc1Oc1cc(C)c(N)c(C(=O)NCCCNC(=O)c2ccc(-c3c4nc(c(-c5c(F)c(F)c(F)c(F)c5F)c5ccc([nH]5)c(-c5c(F)c(F)c(F)c(F)c5F)c5nc(c(-c6c(F)c(F)c(F)c(F)c6F)c6ccc3[nH]6)C=C5)C=C4)cc2)c1
REMARK SMILES IDX 21 1 20 2 19 3 17 4 18 5 16 7 10 8 11 9 89 10 12 11 13 12
REMARK SMILES IDX 14 13 9 14 8 15 1 16 2 17 3 18 4 19 7 20 5 21 6 22 15 23
REMARK SMILES IDX 22 26 23 27 24 28 25 30 26 31 27 32 88 33 28 34 87 35 29 36
REMARK SMILES IDX 30 37 31 38 81 39 32 40 86 41 80 42 82 43 33 44 85 45 79 46
REMARK SMILES IDX 78 47 34 49 66 50 46 51 65 52 47 53 50 54 64 55 83 56 48 57
REMARK SMILES IDX 49 58 63 60 84 61 51 62 35 63 36 64 44 65 37 66 38 67 42 68
REMARK SMILES IDX 45 69 39 70 40 71 43 72 41 73 67 74 68 75 76 76 69 77 70 78
REMARK SMILES IDX 74 79 77 80 71 81 72 82 75 83 73 84 52 85 53 86 61 87 54 88
REMARK SMILES IDX 55 89 59 90 62 91 56 92 57 93 60 94 58 95
REMARK H PARENT 19 6 15 24 15 25 23 29 82 48 50 59
REMARK Flexibility Score: inf
ROOT
ATOM      1  C   UNL A   1      32.874  29.111  23.712  1.00  0.00     0.042 C 
ENDROOT
BRANCH   1   2
ATOM      2  C   UNL A   1      34.057  28.802  22.790  1.00  0.00     0.118 C 
BRANCH   2   3
ATOM      3  N   UNL A   1      33.750  27.688  21.911  1.00  0.00    -0.352 N 
ATOM      4  C   UNL A   1      33.423  26.370  22.117  1.00  0.00     0.253 C 
ATOM      5  O   UNL A   1      33.232  25.703  21.097  1.00  0.00    -0.269 OA
ATOM      6  H   UNL A   1      33.783  27.932  20.957  1.00  0.00     0.163 HD
BRANCH   4   7
ATOM      7  C   UNL A   1      33.264  25.735  23.468  1.00  0.00     0.066 A 
ATOM      8  C   UNL A   1      34.198  24.758  25.480  1.00  0.00     0.128 A 
ATOM      9  C   UNL A   1      32.935  24.636  26.042  1.00  0.00     0.052 A 
ATOM     10  C   UNL A   1      34.366  25.298  24.208  1.00  0.00     0.063 A 
ATOM     11  C   UNL A   1      31.803  24.959  25.284  1.00  0.00    -0.024 A 
ATOM     12  C   UNL A   1      30.443  24.655  25.856  1.00  0.00     0.047 C 
ATOM     13  C   UNL A   1      31.956  25.508  23.986  1.00  0.00     0.048 A 
BRANCH   8  14
ATOM     14  O   UNL A   1      35.316  24.463  26.204  1.00  0.00    -0.457 OA
BRANCH  14  15
ATOM     15  C   UNL A   1      36.100  23.369  25.907  1.00  0.00     0.130 A 
ATOM     16  C   UNL A   1      38.491  24.283  26.324  1.00  0.00     0.048 C 
ATOM     17  C   UNL A   1      37.500  23.218  25.942  1.00  0.00    -0.007 A 
ATOM     18  C   UNL A   1      38.046  21.972  25.561  1.00  0.00     0.027 A 
ATOM     19  C   UNL A   1      37.234  20.900  25.194  1.00  0.00     0.041 A 
ATOM     20  C   UNL A   1      35.298  22.270  25.538  1.00  0.00     0.049 A 
ATOM     21  Cl  UNL A   1      37.945  19.399  24.750  1.00  0.00    -0.084 Cl
ATOM     22  C   UNL A   1      35.856  21.041  25.187  1.00  0.00     0.024 A 
ENDBRANCH  14  15
ENDBRANCH   8  14
BRANCH  13  23
ATOM     23  N   UNL A   1      30.822  25.917  23.282  1.00  0.00    -0.398 N 
ATOM     24  H   UNL A   1      30.204  25.245  22.911  1.00  0.00     0.156 HD
ATOM     25  H   UNL A   1      30.640  26.876  23.154  1.00  0.00     0.156 HD
ENDBRANCH  13  23
ENDBRANCH   4   7
ENDBRANCH   2   3
ENDBRANCH   1   2
BRANCH   1  26
ATOM     26  C   UNL A   1      33.272  29.266  25.180  1.00  0.00     0.118 C 
BRANCH  26  27
ATOM     27  N   UNL A   1      32.805  30.526  25.739  1.00  0.00    -0.352 N 
ATOM     28  C   UNL A   1      33.218  31.208  26.855  1.00  0.00     0.251 C 
ATOM     29  H   UNL A   1      32.076  30.957  25.237  1.00  0.00     0.163 HD
ATOM     30  O   UNL A   1      32.536  32.138  27.277  1.00  0.00    -0.269 OA
BRANCH  28  31
ATOM     31  C   UNL A   1      34.469  30.845  27.556  1.00  0.00     0.039 A 
ATOM     32  C   UNL A   1      34.566  29.573  28.133  1.00  0.00     0.014 A 
ATOM     33  C   UNL A   1      35.509  31.765  27.722  1.00  0.00     0.014 A 
ATOM     34  C   UNL A   1      35.713  29.214  28.844  1.00  0.00     0.010 A 
ATOM     35  C   UNL A   1      36.679  31.384  28.379  1.00  0.00     0.010 A 
ATOM     36  C   UNL A   1      36.786  30.111  28.959  1.00  0.00    -0.014 A 
BRANCH  36  37
ATOM     37  C   UNL A   1      38.017  29.737  29.700  1.00  0.00     0.031 A 
ATOM     38  C   UNL A   1      38.269  30.289  31.076  1.00  0.00     0.074 A 
ATOM     39  C   UNL A   1      38.930  28.941  29.115  1.00  0.00     0.049 A 
ATOM     40  N   UNL A   1      39.308  30.127  31.857  1.00  0.00    -0.248 NA
ATOM     41  C   UNL A   1      37.227  31.161  31.638  1.00  0.00     0.031 C 
ATOM     42  C   UNL A   1      38.820  28.376  27.768  1.00  0.00     0.029 A 
ATOM     43  N   UNL A   1      40.138  28.474  29.573  1.00  0.00    -0.354 N 
ATOM     44  C   UNL A   1      39.052  30.889  32.991  1.00  0.00     0.074 A 
ATOM     45  C   UNL A   1      37.783  31.550  32.776  1.00  0.00     0.031 C 
ATOM     46  C   UNL A   1      39.903  27.624  27.517  1.00  0.00     0.029 A 
ATOM     47  C   UNL A   1      40.798  27.679  28.669  1.00  0.00     0.049 A 
ATOM     48  H   UNL A   1      40.495  28.689  30.464  1.00  0.00     0.167 HD
ATOM     49  C   UNL A   1      39.798  31.008  34.115  1.00  0.00     0.037 A 
ATOM     50  C   UNL A   1      41.993  27.066  28.760  1.00  0.00     0.037 A 
ATOM     51  C   UNL A   1      41.046  30.325  34.337  1.00  0.00     0.049 A 
ATOM     52  C   UNL A   1      42.795  27.203  30.025  1.00  0.00     0.074 A 
ATOM     53  C   UNL A   1      41.848  30.335  35.463  1.00  0.00     0.029 A 
ATOM     54  N   UNL A   1      41.670  29.505  33.408  1.00  0.00    -0.354 N 
ATOM     55  N   UNL A   1      42.514  27.877  31.114  1.00  0.00    -0.248 NA
ATOM     56  C   UNL A   1      44.077  26.486  30.076  1.00  0.00     0.031 C 
ATOM     57  C   UNL A   1      42.978  29.551  35.203  1.00  0.00     0.029 A 
ATOM     58  C   UNL A   1      42.856  29.016  33.930  1.00  0.00     0.049 A 
ATOM     59  H   UNL A   1      41.322  29.301  32.510  1.00  0.00     0.167 HD
ATOM     60  C   UNL A   1      43.566  27.644  31.988  1.00  0.00     0.074 A 
ATOM     61  C   UNL A   1      44.485  26.755  31.309  1.00  0.00     0.031 C 
ATOM     62  C   UNL A   1      43.754  28.124  33.243  1.00  0.00     0.037 A 
BRANCH  49  63
ATOM     63  C   UNL A   1      39.281  31.912  35.197  1.00  0.00     0.064 A 
ATOM     64  C   UNL A   1      38.497  31.422  36.253  1.00  0.00     0.173 A 
ATOM     65  C   UNL A   1      39.595  33.280  35.195  1.00  0.00     0.173 A 
ATOM     66  F   UNL A   1      38.159  30.124  36.296  1.00  0.00    -0.203 F 
ATOM     67  C   UNL A   1      38.023  32.272  37.250  1.00  0.00     0.198 A 
ATOM     68  C   UNL A   1      39.144  34.121  36.209  1.00  0.00     0.198 A 
ATOM     69  F   UNL A   1      40.346  33.800  34.213  1.00  0.00    -0.203 F 
ATOM     70  F   UNL A   1      37.234  31.789  38.220  1.00  0.00    -0.200 F 
ATOM     71  C   UNL A   1      38.351  33.618  37.231  1.00  0.00     0.200 A 
ATOM     72  F   UNL A   1      39.473  35.420  36.196  1.00  0.00    -0.200 F 
ATOM     73  F   UNL A   1      37.898  34.434  38.192  1.00  0.00    -0.200 F 
ENDBRANCH  49  63
BRANCH  50  74
ATOM     74  C   UNL A   1      42.486  26.237  27.630  1.00  0.00     0.064 A 
ATOM     75  C   UNL A   1      42.022  24.928  27.446  1.00  0.00     0.173 A 
ATOM     76  C   UNL A   1      43.424  26.733  26.714  1.00  0.00     0.173 A 
ATOM     77  F   UNL A   1      41.139  24.402  28.308  1.00  0.00    -0.203 F 
ATOM     78  C   UNL A   1      42.489  24.140  26.396  1.00  0.00     0.198 A 
ATOM     79  C   UNL A   1      43.872  25.953  25.649  1.00  0.00     0.198 A 
ATOM     80  F   UNL A   1      43.896  27.983  26.845  1.00  0.00    -0.203 F 
ATOM     81  F   UNL A   1      42.059  22.877  26.266  1.00  0.00    -0.200 F 
ATOM     82  C   UNL A   1      43.409  24.655  25.496  1.00  0.00     0.200 A 
ATOM     83  F   UNL A   1      44.750  26.459  24.774  1.00  0.00    -0.200 F 
ATOM     84  F   UNL A   1      43.856  23.898  24.483  1.00  0.00    -0.200 F 
ENDBRANCH  50  74
BRANCH  62  85
ATOM     85  C   UNL A   1      44.982  27.667  33.974  1.00  0.00     0.064 A 
ATOM     86  C   UNL A   1      46.185  28.385  33.914  1.00  0.00     0.173 A 
ATOM     87  C   UNL A   1      44.944  26.513  34.771  1.00  0.00     0.173 A 
ATOM     88  F   UNL A   1      46.276  29.487  33.152  1.00  0.00    -0.203 F 
ATOM     89  C   UNL A   1      47.312  27.951  34.605  1.00  0.00     0.198 A 
ATOM     90  C   UNL A   1      46.065  26.097  35.483  1.00  0.00     0.198 A 
ATOM     91  F   UNL A   1      43.816  25.793  34.866  1.00  0.00    -0.203 F 
ATOM     92  F   UNL A   1      48.465  28.627  34.495  1.00  0.00    -0.200 F 
ATOM     93  C   UNL A   1      47.250  26.812  35.394  1.00  0.00     0.200 A 
ATOM     94  F   UNL A   1      46.000  25.003  36.253  1.00  0.00    -0.200 F 
ATOM     95  F   UNL A   1      48.335  26.397  36.062  1.00  0.00    -0.200 F 
ENDBRANCH  62  85
ENDBRANCH  36  37
ENDBRANCH  28  31
ENDBRANCH  26  27
ENDBRANCH   1  26
TORSDOF 13
ENDMDL
MODEL 3
REMARK VINA RESULT:     -12.2      0.452      7.409
REMARK SMILES Cc1cc(Cl)ccc1Oc1cc(C)c(N)c(C(=O)NCCCNC(=O)c2ccc(-c3c4nc(c(-c5c(F)c(F)c(F)c(F)c5F)c5ccc([nH]5)c(-c5c(F)c(F)c(F)c(F)c5F)c5nc(c(-c6c(F)c(F)c(F)c(F)c6F)c6ccc3[nH]6)C=C5)C=C4)cc2)c1
REMARK SMILES IDX 21 1 20 2 19 3 17 4 18 5 16 7 10 8 11 9 89 10 12 11 13 12
REMARK SMILES IDX 14 13 9 14 8 15 1 16 2 17 3 18 4 19 7 20 5 21 6 22 15 23
REMARK SMILES IDX 22 26 23 27 24 28 25 30 26 31 27 32 88 33 28 34 87 35 29 36
REMARK SMILES IDX 30 37 31 38 81 39 32 40 86 41 80 42 82 43 33 44 85 45 79 46
REMARK SMILES IDX 78 47 34 49 66 50 46 51 65 52 47 53 50 54 64 55 83 56 48 57
REMARK SMILES IDX 49 58 63 60 84 61 51 62 35 63 36 64 44 65 37 66 38 67 42 68
REMARK SMILES IDX 45 69 39 70 40 71 43 72 41 73 67 74 68 75 76 76 69 77 70 78
REMARK SMILES IDX 74 79 77 80 71 81 72 82 75 83 73 84 52 85 53 86 61 87 54 88
REMARK SMILES IDX 55 89 59 90 62 91 56 92 57 93 60 94 58 95
REMARK H PARENT 19 6 15 24 15 25 23 29 82 48 50 59
REMARK Flexibility Score: inf
ROOT
ATOM      1  C   UNL A   1      32.846  28.981  23.632  1.00  0.00     0.042 C 
ENDROOT
BRANCH   1   2
ATOM      2  C   UNL A   1      33.987  28.725  22.643  1.00  0.00     0.118 C 
BRANCH   2   3
ATOM      3  N   UNL A   1      33.686  27.590  21.790  1.00  0.00    -0.352 N 
ATOM      4  C   UNL A   1      33.375  26.273  22.026  1.00  0.00     0.253 C 
ATOM      5  O   UNL A   1      33.184  25.582  21.022  1.00  0.00    -0.269 OA
ATOM      6  H   UNL A   1      33.711  27.813  20.831  1.00  0.00     0.163 HD
BRANCH   4   7
ATOM      7  C   UNL A   1      33.231  25.665  23.391  1.00  0.00     0.066 A 
ATOM      8  C   UNL A   1      34.187  24.734  25.415  1.00  0.00     0.128 A 
ATOM      9  C   UNL A   1      32.930  24.618  25.990  1.00  0.00     0.052 A 
ATOM     10  C   UNL A   1      34.341  25.249  24.130  1.00  0.00     0.063 A 
ATOM     11  C   UNL A   1      31.789  24.920  25.236  1.00  0.00    -0.024 A 
ATOM     12  C   UNL A   1      30.436  24.623  25.826  1.00  0.00     0.047 C 
ATOM     13  C   UNL A   1      31.928  25.444  23.926  1.00  0.00     0.048 A 
BRANCH   8  14
ATOM     14  O   UNL A   1      35.312  24.459  26.135  1.00  0.00    -0.457 OA
BRANCH  14  15
ATOM     15  C   UNL A   1      36.100  23.364  25.852  1.00  0.00     0.130 A 
ATOM     16  C   UNL A   1      38.480  24.254  26.369  1.00  0.00     0.048 C 
ATOM     17  C   UNL A   1      37.496  23.202  25.937  1.00  0.00    -0.007 A 
ATOM     18  C   UNL A   1      38.048  21.957  25.560  1.00  0.00     0.027 A 
ATOM     19  C   UNL A   1      37.242  20.896  25.149  1.00  0.00     0.041 A 
ATOM     20  C   UNL A   1      35.305  22.275  25.440  1.00  0.00     0.049 A 
ATOM     21  Cl  UNL A   1      37.960  19.396  24.711  1.00  0.00    -0.084 Cl
ATOM     22  C   UNL A   1      35.867  21.047  25.093  1.00  0.00     0.024 A 
ENDBRANCH  14  15
ENDBRANCH   8  14
BRANCH  13  23
ATOM     23  N   UNL A   1      30.786  25.832  23.223  1.00  0.00    -0.398 N 
ATOM     24  H   UNL A   1      29.962  25.297  23.288  1.00  0.00     0.156 HD
ATOM     25  H   UNL A   1      30.805  26.641  22.662  1.00  0.00     0.156 HD
ENDBRANCH  13  23
ENDBRANCH   4   7
ENDBRANCH   2   3
ENDBRANCH   1   2
BRANCH   1  26
ATOM     26  C   UNL A   1      33.321  29.169  25.073  1.00  0.00     0.118 C 
BRANCH  26  27
ATOM     27  N   UNL A   1      32.823  30.407  25.652  1.00  0.00    -0.352 N 
ATOM     28  C   UNL A   1      33.211  31.076  26.785  1.00  0.00     0.251 C 
ATOM     29  H   UNL A   1      32.089  30.833  25.152  1.00  0.00     0.163 HD
ATOM     30  O   UNL A   1      32.506  31.983  27.218  1.00  0.00    -0.269 OA
BRANCH  28  31
ATOM     31  C   UNL A   1      34.463  30.726  27.491  1.00  0.00     0.039 A 
ATOM     32  C   UNL A   1      34.590  29.439  28.025  1.00  0.00     0.014 A 
ATOM     33  C   UNL A   1      35.473  31.669  27.701  1.00  0.00     0.014 A 
ATOM     34  C   UNL A   1      35.738  29.088  28.740  1.00  0.00     0.010 A 
ATOM     35  C   UNL A   1      36.646  31.300  28.360  1.00  0.00     0.010 A 
ATOM     36  C   UNL A   1      36.783  30.012  28.899  1.00  0.00    -0.014 A 
BRANCH  36  37
ATOM     37  C   UNL A   1      38.015  29.649  29.644  1.00  0.00     0.031 A 
ATOM     38  C   UNL A   1      38.270  30.222  31.011  1.00  0.00     0.074 A 
ATOM     39  C   UNL A   1      38.927  28.843  29.070  1.00  0.00     0.049 A 
ATOM     40  N   UNL A   1      39.310  30.072  31.793  1.00  0.00    -0.248 NA
ATOM     41  C   UNL A   1      37.229  31.103  31.561  1.00  0.00     0.031 C 
ATOM     42  C   UNL A   1      38.814  28.258  27.732  1.00  0.00     0.029 A 
ATOM     43  N   UNL A   1      40.135  28.383  29.533  1.00  0.00    -0.354 N 
ATOM     44  C   UNL A   1      39.056  30.851  32.915  1.00  0.00     0.074 A 
ATOM     45  C   UNL A   1      37.787  31.509  32.692  1.00  0.00     0.031 C 
ATOM     46  C   UNL A   1      39.897  27.501  27.491  1.00  0.00     0.029 A 
ATOM     47  C   UNL A   1      40.793  27.574  28.641  1.00  0.00     0.049 A 
ATOM     48  H   UNL A   1      40.494  28.612  30.420  1.00  0.00     0.167 HD
ATOM     49  C   UNL A   1      39.803  30.987  34.036  1.00  0.00     0.037 A 
ATOM     50  C   UNL A   1      41.988  26.962  28.739  1.00  0.00     0.037 A 
ATOM     51  C   UNL A   1      41.051  30.307  34.266  1.00  0.00     0.049 A 
ATOM     52  C   UNL A   1      42.792  27.118  30.000  1.00  0.00     0.074 A 
ATOM     53  C   UNL A   1      41.856  30.334  35.391  1.00  0.00     0.029 A 
ATOM     54  N   UNL A   1      41.674  29.473  33.349  1.00  0.00    -0.354 N 
ATOM     55  N   UNL A   1      42.514  27.809  31.079  1.00  0.00    -0.248 NA
ATOM     56  C   UNL A   1      44.074  26.401  30.061  1.00  0.00     0.031 C 
ATOM     57  C   UNL A   1      42.985  29.546  35.141  1.00  0.00     0.029 A 
ATOM     58  C   UNL A   1      42.860  28.991  33.877  1.00  0.00     0.049 A 
ATOM     59  H   UNL A   1      41.325  29.254  32.455  1.00  0.00     0.167 HD
ATOM     60  C   UNL A   1      43.567  27.589  31.955  1.00  0.00     0.074 A 
ATOM     61  C   UNL A   1      44.484  26.689  31.288  1.00  0.00     0.031 C 
ATOM     62  C   UNL A   1      43.757  28.088  33.202  1.00  0.00     0.037 A 
BRANCH  49  63
ATOM     63  C   UNL A   1      39.288  31.908  35.105  1.00  0.00     0.064 A 
ATOM     64  C   UNL A   1      39.531  33.290  35.065  1.00  0.00     0.173 A 
ATOM     65  C   UNL A   1      38.518  31.409  36.166  1.00  0.00     0.173 A 
ATOM     66  F   UNL A   1      40.272  33.817  34.078  1.00  0.00    -0.203 F 
ATOM     67  C   UNL A   1      39.049  34.132  36.064  1.00  0.00     0.198 A 
ATOM     68  C   UNL A   1      38.012  32.259  37.147  1.00  0.00     0.198 A 
ATOM     69  F   UNL A   1      38.249  30.098  36.249  1.00  0.00    -0.203 F 
ATOM     70  F   UNL A   1      39.338  35.440  36.031  1.00  0.00    -0.200 F 
ATOM     71  C   UNL A   1      38.285  33.618  37.100  1.00  0.00     0.200 A 
ATOM     72  F   UNL A   1      37.263  31.762  38.141  1.00  0.00    -0.200 F 
ATOM     73  F   UNL A   1      37.818  34.430  38.057  1.00  0.00    -0.200 F 
ENDBRANCH  49  63
BRANCH  50  74
ATOM     74  C   UNL A   1      42.479  26.115  27.621  1.00  0.00     0.064 A 
ATOM     75  C   UNL A   1      42.037  24.794  27.476  1.00  0.00     0.173 A 
ATOM     76  C   UNL A   1      43.393  26.606  26.678  1.00  0.00     0.173 A 
ATOM     77  F   UNL A   1      41.179  24.272  28.364  1.00  0.00    -0.203 F 
ATOM     78  C   UNL A   1      42.503  23.989  26.437  1.00  0.00     0.198 A 
ATOM     79  C   UNL A   1      43.838  25.810  25.625  1.00  0.00     0.198 A 
ATOM     80  F   UNL A   1      43.842  27.867  26.772  1.00  0.00    -0.203 F 
ATOM     81  F   UNL A   1      42.095  22.716  26.345  1.00  0.00    -0.200 F 
ATOM     82  C   UNL A   1      43.398  24.499  25.511  1.00  0.00     0.200 A 
ATOM     83  F   UNL A   1      44.693  26.310  24.724  1.00  0.00    -0.200 F 
ATOM     84  F   UNL A   1      43.843  23.727  24.509  1.00  0.00    -0.200 F 
ENDBRANCH  50  74
BRANCH  62  85
ATOM     85  C   UNL A   1      44.986  27.641  33.938  1.00  0.00     0.064 A 
ATOM     86  C   UNL A   1      44.982  26.498  34.750  1.00  0.00     0.173 A 
ATOM     87  C   UNL A   1      46.190  28.349  33.803  1.00  0.00     0.173 A 
ATOM     88  F   UNL A   1      43.851  25.797  34.924  1.00  0.00    -0.203 F 
ATOM     89  C   UNL A   1      46.133  26.093  35.420  1.00  0.00     0.198 A 
ATOM     90  C   UNL A   1      47.346  27.925  34.452  1.00  0.00     0.198 A 
ATOM     91  F   UNL A   1      46.247  29.446  33.034  1.00  0.00    -0.203 F 
ATOM     92  F   UNL A   1      46.095  25.025  36.229  1.00  0.00    -0.200 F 
ATOM     93  C   UNL A   1      47.315  26.803  35.266  1.00  0.00     0.200 A 
ATOM     94  F   UNL A   1      48.489  28.604  34.292  1.00  0.00    -0.200 F 
ATOM     95  F   UNL A   1      48.423  26.409  35.908  1.00  0.00    -0.200 F 
ENDBRANCH  62  85
ENDBRANCH  36  37
ENDBRANCH  28  31
ENDBRANCH  26  27
ENDBRANCH   1  26
TORSDOF 13
ENDMDL
