MODEL 1
REMARK VINA RESULT:     -15.0      0.000      0.000
REMARK SMILES Cc1cc(F)ccc1OC1(C(=O)NCCCNC(=O)c2ccc(-c3c4nc(c(-c5c(F)c(F)c(F)c(F)c5F)c5ccc([nH]5)c(-c5c(F)c(F)c(F)c(F)c5F)c5nc(c(-c6c(F)c(F)c(F)c(F)c6F)c6ccc3[nH]6)C=C5)C=C4)cc2)CCN(C(=O)[C@H]2CCOC2)CC1
REMARK SMILES IDX 15 1 14 2 13 3 11 4 12 5 10 7 83 8 94 9 84 10 93 11 85 12
REMARK SMILES IDX 86 13 87 14 9 15 8 16 1 17 2 18 3 19 4 20 7 21 5 22 6 23
REMARK SMILES IDX 88 24 89 25 92 26 90 27 91 28 16 29 17 30 18 31 19 33 20 34
REMARK SMILES IDX 21 35 82 36 22 37 81 38 23 39 24 40 25 41 75 42 26 43 80 44
REMARK SMILES IDX 74 45 76 46 27 47 79 48 73 49 72 50 28 52 60 53 40 54 59 55
REMARK SMILES IDX 41 56 44 57 58 58 77 59 42 60 43 61 57 63 78 64 45 65 29 66
REMARK SMILES IDX 30 67 38 68 31 69 32 70 36 71 39 72 33 73 34 74 37 75 35 76
REMARK SMILES IDX 61 77 62 78 70 79 63 80 64 81 68 82 71 83 65 84 66 85 69 86
REMARK SMILES IDX 67 87 46 88 47 89 55 90 48 91 49 92 53 93 56 94 50 95 51 96
REMARK SMILES IDX 54 97 52 98
REMARK H PARENT 13 6 17 32 76 51 44 62
REMARK Flexibility Score: inf
ROOT
ATOM      1  C   UNL A   1      33.750  28.445  27.556  1.00  0.00     0.042 C 
ENDROOT
BRANCH   1   2
ATOM      2  C   UNL A   1      32.319  28.782  27.155  1.00  0.00     0.118 C 
BRANCH   2   3
ATOM      3  N   UNL A   1      31.417  27.650  27.248  1.00  0.00    -0.353 N 
ATOM      4  C   UNL A   1      30.900  26.810  26.303  1.00  0.00     0.264 C 
ATOM      5  O   UNL A   1      30.211  25.887  26.755  1.00  0.00    -0.270 OA
ATOM      6  H   UNL A   1      31.121  27.450  28.166  1.00  0.00     0.163 HD
BRANCH   4   7
ATOM      7  C   UNL A   1      31.133  27.023  24.755  1.00  0.00     0.190 C 
ATOM      8  C   UNL A   1      29.912  26.442  24.059  1.00  0.00     0.080 C 
ATOM      9  C   UNL A   1      31.538  28.480  24.532  1.00  0.00     0.080 C 
ATOM     10  C   UNL A   1      29.010  27.404  23.311  1.00  0.00     0.124 C 
ATOM     11  C   UNL A   1      30.677  29.307  23.587  1.00  0.00     0.124 C 
ATOM     12  N   UNL A   1      29.327  28.828  23.305  1.00  0.00    -0.342 N 
ATOM     13  C   UNL A   1      28.344  29.628  22.704  1.00  0.00     0.228 C 
ATOM     14  O   UNL A   1      27.196  29.205  22.549  1.00  0.00    -0.274 OA
BRANCH   7  15
ATOM     15  O   UNL A   1      32.277  26.164  24.543  1.00  0.00    -0.477 OA
BRANCH  15  16
ATOM     16  C   UNL A   1      32.445  25.006  23.855  1.00  0.00     0.124 A 
ATOM     17  C   UNL A   1      32.744  25.689  21.363  1.00  0.00     0.048 C 
ATOM     18  C   UNL A   1      32.667  24.725  22.498  1.00  0.00    -0.006 A 
ATOM     19  C   UNL A   1      32.747  23.374  22.085  1.00  0.00     0.046 A 
ATOM     20  C   UNL A   1      32.627  22.331  22.988  1.00  0.00     0.123 A 
ATOM     21  C   UNL A   1      32.327  23.918  24.746  1.00  0.00     0.050 A 
ATOM     22  F   UNL A   1      32.702  21.069  22.551  1.00  0.00    -0.207 F 
ATOM     23  C   UNL A   1      32.417  22.591  24.325  1.00  0.00     0.043 A 
ENDBRANCH  15  16
ENDBRANCH   7  15
BRANCH  13  24
ATOM     24  C   UNL A   1      28.750  30.987  22.155  1.00  0.00     0.107 C 
ATOM     25  C   UNL A   1      28.093  31.255  20.814  1.00  0.00     0.044 C 
ATOM     26  C   UNL A   1      28.211  32.128  22.998  1.00  0.00     0.173 C 
ATOM     27  C   UNL A   1      27.921  32.758  20.780  1.00  0.00     0.161 C 
ATOM     28  O   UNL A   1      28.033  33.245  22.119  1.00  0.00    -0.381 OA
ENDBRANCH  13  24
ENDBRANCH   4   7
ENDBRANCH   2   3
ENDBRANCH   1   2
BRANCH   1  29
ATOM     29  C   UNL A   1      34.746  29.162  26.685  1.00  0.00     0.118 C 
BRANCH  29  30
ATOM     30  N   UNL A   1      34.986  30.530  27.129  1.00  0.00    -0.352 N 
ATOM     31  C   UNL A   1      35.936  30.997  28.005  1.00  0.00     0.251 C 
ATOM     32  H   UNL A   1      34.386  31.212  26.749  1.00  0.00     0.163 HD
ATOM     33  O   UNL A   1      35.869  32.139  28.439  1.00  0.00    -0.269 OA
BRANCH  31  34
ATOM     34  C   UNL A   1      37.045  30.113  28.405  1.00  0.00     0.039 A 
ATOM     35  C   UNL A   1      36.961  29.338  29.571  1.00  0.00     0.014 A 
ATOM     36  C   UNL A   1      38.203  30.108  27.636  1.00  0.00     0.014 A 
ATOM     37  C   UNL A   1      38.042  28.542  29.949  1.00  0.00     0.010 A 
ATOM     38  C   UNL A   1      39.197  29.224  27.913  1.00  0.00     0.010 A 
ATOM     39  C   UNL A   1      39.152  28.505  29.108  1.00  0.00    -0.014 A 
BRANCH  39  40
ATOM     40  C   UNL A   1      40.416  27.853  29.380  1.00  0.00     0.031 A 
ATOM     41  C   UNL A   1      40.718  26.536  28.808  1.00  0.00     0.074 A 
ATOM     42  C   UNL A   1      41.378  28.708  29.790  1.00  0.00     0.049 A 
ATOM     43  N   UNL A   1      41.747  25.840  29.134  1.00  0.00    -0.248 NA
ATOM     44  C   UNL A   1      39.888  25.901  27.787  1.00  0.00     0.031 C 
ATOM     45  C   UNL A   1      42.820  28.616  29.631  1.00  0.00     0.029 A 
ATOM     46  N   UNL A   1      41.189  29.905  30.502  1.00  0.00    -0.354 N 
ATOM     47  C   UNL A   1      41.900  24.866  28.174  1.00  0.00     0.074 A 
ATOM     48  C   UNL A   1      40.668  24.876  27.418  1.00  0.00     0.031 C 
ATOM     49  C   UNL A   1      43.399  29.504  30.462  1.00  0.00     0.029 A 
ATOM     50  C   UNL A   1      42.341  30.059  31.293  1.00  0.00     0.049 A 
ATOM     51  H   UNL A   1      40.412  30.509  30.457  1.00  0.00     0.167 HD
ATOM     52  C   UNL A   1      43.122  24.281  28.021  1.00  0.00     0.037 A 
ATOM     53  C   UNL A   1      42.233  29.878  32.644  1.00  0.00     0.037 A 
ATOM     54  C   UNL A   1      44.083  24.849  28.963  1.00  0.00     0.049 A 
ATOM     55  C   UNL A   1      43.016  28.677  33.114  1.00  0.00     0.074 A 
ATOM     56  C   UNL A   1      45.030  25.851  28.825  1.00  0.00     0.029 A 
ATOM     57  N   UNL A   1      43.884  24.682  30.330  1.00  0.00    -0.354 N 
ATOM     58  N   UNL A   1      43.266  27.632  32.372  1.00  0.00    -0.248 NA
ATOM     59  C   UNL A   1      43.626  28.593  34.434  1.00  0.00     0.031 C 
ATOM     60  C   UNL A   1      45.354  26.332  30.117  1.00  0.00     0.029 A 
ATOM     61  C   UNL A   1      44.615  25.613  31.043  1.00  0.00     0.049 A 
ATOM     62  H   UNL A   1      43.304  23.996  30.734  1.00  0.00     0.167 HD
ATOM     63  C   UNL A   1      44.095  26.782  33.055  1.00  0.00     0.074 A 
ATOM     64  C   UNL A   1      44.276  27.420  34.348  1.00  0.00     0.031 C 
ATOM     65  C   UNL A   1      44.597  25.641  32.496  1.00  0.00     0.037 A 
BRANCH  52  66
ATOM     66  C   UNL A   1      43.502  23.434  26.833  1.00  0.00     0.064 A 
ATOM     67  C   UNL A   1      43.125  22.075  26.751  1.00  0.00     0.173 A 
ATOM     68  C   UNL A   1      44.248  23.913  25.740  1.00  0.00     0.173 A 
ATOM     69  F   UNL A   1      42.369  21.498  27.692  1.00  0.00    -0.203 F 
ATOM     70  C   UNL A   1      43.520  21.247  25.698  1.00  0.00     0.198 A 
ATOM     71  C   UNL A   1      44.679  23.072  24.705  1.00  0.00     0.198 A 
ATOM     72  F   UNL A   1      44.550  25.213  25.628  1.00  0.00    -0.203 F 
ATOM     73  F   UNL A   1      43.130  19.965  25.679  1.00  0.00    -0.200 F 
ATOM     74  C   UNL A   1      44.317  21.739  24.686  1.00  0.00     0.200 A 
ATOM     75  F   UNL A   1      45.449  23.565  23.724  1.00  0.00    -0.200 F 
ATOM     76  F   UNL A   1      44.721  20.937  23.692  1.00  0.00    -0.200 F 
ENDBRANCH  52  66
BRANCH  53  77
ATOM     77  C   UNL A   1      40.898  30.317  33.157  1.00  0.00     0.064 A 
ATOM     78  C   UNL A   1      40.611  31.697  33.107  1.00  0.00     0.173 A 
ATOM     79  C   UNL A   1      39.808  29.435  33.210  1.00  0.00     0.173 A 
ATOM     80  F   UNL A   1      41.617  32.586  33.052  1.00  0.00    -0.203 F 
ATOM     81  C   UNL A   1      39.305  32.164  32.965  1.00  0.00     0.198 A 
ATOM     82  C   UNL A   1      38.497  29.910  33.079  1.00  0.00     0.198 A 
ATOM     83  F   UNL A   1      40.007  28.111  33.259  1.00  0.00    -0.203 F 
ATOM     84  F   UNL A   1      39.080  33.474  32.786  1.00  0.00    -0.200 F 
ATOM     85  C   UNL A   1      38.252  31.267  32.917  1.00  0.00     0.200 A 
ATOM     86  F   UNL A   1      37.475  29.043  33.023  1.00  0.00    -0.200 F 
ATOM     87  F   UNL A   1      37.007  31.705  32.679  1.00  0.00    -0.200 F 
ENDBRANCH  53  77
BRANCH  65  88
ATOM     88  C   UNL A   1      45.249  24.503  33.243  1.00  0.00     0.064 A 
ATOM     89  C   UNL A   1      46.537  24.572  33.796  1.00  0.00     0.173 A 
ATOM     90  C   UNL A   1      44.512  23.335  33.565  1.00  0.00     0.173 A 
ATOM     91  F   UNL A   1      47.286  25.678  33.689  1.00  0.00    -0.203 F 
ATOM     92  C   UNL A   1      47.078  23.523  34.541  1.00  0.00     0.198 A 
ATOM     93  C   UNL A   1      45.030  22.321  34.367  1.00  0.00     0.198 A 
ATOM     94  F   UNL A   1      43.254  23.150  33.141  1.00  0.00    -0.203 F 
ATOM     95  F   UNL A   1      48.334  23.617  34.999  1.00  0.00    -0.200 F 
ATOM     96  C   UNL A   1      46.323  22.405  34.836  1.00  0.00     0.200 A 
ATOM     97  F   UNL A   1      44.260  21.275  34.698  1.00  0.00    -0.200 F 
ATOM     98  F   UNL A   1      46.831  21.422  35.590  1.00  0.00    -0.200 F 
ENDBRANCH  65  88
ENDBRANCH  39  40
ENDBRANCH  31  34
ENDBRANCH  29  30
ENDBRANCH   1  29
TORSDOF 13
ENDMDL
MODEL 2
REMARK VINA RESULT:     -14.7      4.457     10.590
REMARK SMILES Cc1cc(F)ccc1OC1(C(=O)NCCCNC(=O)c2ccc(-c3c4nc(c(-c5c(F)c(F)c(F)c(F)c5F)c5ccc([nH]5)c(-c5c(F)c(F)c(F)c(F)c5F)c5nc(c(-c6c(F)c(F)c(F)c(F)c6F)c6ccc3[nH]6)C=C5)C=C4)cc2)CCN(C(=O)[C@H]2CCOC2)CC1
REMARK SMILES IDX 15 1 14 2 13 3 11 4 12 5 10 7 83 8 94 9 84 10 93 11 85 12
REMARK SMILES IDX 86 13 87 14 9 15 8 16 1 17 2 18 3 19 4 20 7 21 5 22 6 23
REMARK SMILES IDX 88 24 89 25 92 26 90 27 91 28 16 29 17 30 18 31 19 33 20 34
REMARK SMILES IDX 21 35 82 36 22 37 81 38 23 39 24 40 25 41 75 42 26 43 80 44
REMARK SMILES IDX 74 45 76 46 27 47 79 48 73 49 72 50 28 52 60 53 40 54 59 55
REMARK SMILES IDX 41 56 44 57 58 58 77 59 42 60 43 61 57 63 78 64 45 65 29 66
REMARK SMILES IDX 30 67 38 68 31 69 32 70 36 71 39 72 33 73 34 74 37 75 35 76
REMARK SMILES IDX 61 77 62 78 70 79 63 80 64 81 68 82 71 83 65 84 66 85 69 86
REMARK SMILES IDX 67 87 46 88 47 89 55 90 48 91 49 92 53 93 56 94 50 95 51 96
REMARK SMILES IDX 54 97 52 98
REMARK H PARENT 13 6 17 32 76 51 44 62
REMARK Flexibility Score: inf
ROOT
ATOM      1  C   UNL A   1      37.166  23.824  24.842  1.00  0.00     0.042 C 
ENDROOT
BRANCH   1   2
ATOM      2  C   UNL A   1      36.050  22.856  24.471  1.00  0.00     0.118 C 
BRANCH   2   3
ATOM      3  N   UNL A   1      35.397  23.189  23.220  1.00  0.00    -0.353 N 
ATOM      4  C   UNL A   1      34.105  23.052  22.795  1.00  0.00     0.264 C 
ATOM      5  O   UNL A   1      33.879  23.523  21.673  1.00  0.00    -0.270 OA
ATOM      6  H   UNL A   1      35.998  23.589  22.549  1.00  0.00     0.163 HD
BRANCH   4   7
ATOM      7  C   UNL A   1      33.000  22.318  23.652  1.00  0.00     0.190 C 
ATOM      8  C   UNL A   1      32.119  21.575  22.659  1.00  0.00     0.080 C 
ATOM      9  C   UNL A   1      33.699  21.570  24.787  1.00  0.00     0.080 C 
ATOM     10  C   UNL A   1      32.127  20.060  22.716  1.00  0.00     0.124 C 
ATOM     11  C   UNL A   1      33.467  20.068  24.879  1.00  0.00     0.124 C 
ATOM     12  N   UNL A   1      32.979  19.382  23.686  1.00  0.00    -0.342 N 
ATOM     13  C   UNL A   1      33.007  17.987  23.543  1.00  0.00     0.228 C 
ATOM     14  O   UNL A   1      32.650  17.455  22.490  1.00  0.00    -0.274 OA
BRANCH   7  15
ATOM     15  O   UNL A   1      32.288  23.457  24.188  1.00  0.00    -0.477 OA
BRANCH  15  16
ATOM     16  C   UNL A   1      32.598  24.775  24.286  1.00  0.00     0.124 A 
ATOM     17  C   UNL A   1      31.597  25.907  22.169  1.00  0.00     0.048 C 
ATOM     18  C   UNL A   1      32.322  25.884  23.472  1.00  0.00    -0.006 A 
ATOM     19  C   UNL A   1      32.846  27.146  23.838  1.00  0.00     0.046 A 
ATOM     20  C   UNL A   1      33.609  27.311  24.982  1.00  0.00     0.123 A 
ATOM     21  C   UNL A   1      33.379  24.980  25.444  1.00  0.00     0.050 A 
ATOM     22  F   UNL A   1      34.091  28.522  25.285  1.00  0.00    -0.207 F 
ATOM     23  C   UNL A   1      33.882  26.233  25.796  1.00  0.00     0.043 A 
ENDBRANCH  15  16
ENDBRANCH   7  15
BRANCH  13  24
ATOM     24  C   UNL A   1      33.387  17.142  24.750  1.00  0.00     0.107 C 
ATOM     25  C   UNL A   1      32.223  16.279  25.202  1.00  0.00     0.044 C 
ATOM     26  C   UNL A   1      34.434  16.097  24.408  1.00  0.00     0.173 C 
ATOM     27  C   UNL A   1      32.881  15.045  25.782  1.00  0.00     0.161 C 
ATOM     28  O   UNL A   1      34.226  14.995  25.300  1.00  0.00    -0.381 OA
ENDBRANCH  13  24
ENDBRANCH   4   7
ENDBRANCH   2   3
ENDBRANCH   1   2
BRANCH   1  29
ATOM     29  C   UNL A   1      37.373  23.875  26.333  1.00  0.00     0.118 C 
BRANCH  29  30
ATOM     30  N   UNL A   1      38.573  23.162  26.750  1.00  0.00    -0.352 N 
ATOM     31  C   UNL A   1      39.780  23.673  27.167  1.00  0.00     0.251 C 
ATOM     32  H   UNL A   1      38.512  22.179  26.732  1.00  0.00     0.163 HD
ATOM     33  O   UNL A   1      40.755  22.944  27.275  1.00  0.00    -0.269 OA
BRANCH  31  34
ATOM     34  C   UNL A   1      39.880  25.106  27.494  1.00  0.00     0.039 A 
ATOM     35  C   UNL A   1      40.310  26.034  26.534  1.00  0.00     0.014 A 
ATOM     36  C   UNL A   1      39.599  25.514  28.792  1.00  0.00     0.014 A 
ATOM     37  C   UNL A   1      40.437  27.378  26.883  1.00  0.00     0.010 A 
ATOM     38  C   UNL A   1      39.573  26.838  29.098  1.00  0.00     0.010 A 
ATOM     39  C   UNL A   1      40.068  27.757  28.171  1.00  0.00    -0.014 A 
BRANCH  39  40
ATOM     40  C   UNL A   1      40.246  29.064  28.768  1.00  0.00     0.031 A 
ATOM     41  C   UNL A   1      39.124  30.006  28.857  1.00  0.00     0.074 A 
ATOM     42  C   UNL A   1      41.326  29.137  29.577  1.00  0.00     0.049 A 
ATOM     43  N   UNL A   1      39.252  31.229  29.229  1.00  0.00    -0.248 NA
ATOM     44  C   UNL A   1      37.744  29.632  28.557  1.00  0.00     0.031 C 
ATOM     45  C   UNL A   1      41.552  29.984  30.736  1.00  0.00     0.029 A 
ATOM     46  N   UNL A   1      42.516  28.398  29.457  1.00  0.00    -0.354 N 
ATOM     47  C   UNL A   1      37.995  31.695  29.532  1.00  0.00     0.074 A 
ATOM     48  C   UNL A   1      37.081  30.708  29.002  1.00  0.00     0.031 C 
ATOM     49  C   UNL A   1      42.865  29.960  31.034  1.00  0.00     0.029 A 
ATOM     50  C   UNL A   1      43.529  29.231  29.964  1.00  0.00     0.049 A 
ATOM     51  H   UNL A   1      42.618  27.489  29.094  1.00  0.00     0.167 HD
ATOM     52  C   UNL A   1      37.875  32.779  30.351  1.00  0.00     0.037 A 
ATOM     53  C   UNL A   1      44.423  29.777  29.086  1.00  0.00     0.037 A 
ATOM     54  C   UNL A   1      39.192  33.250  30.771  1.00  0.00     0.049 A 
ATOM     55  C   UNL A   1      44.297  31.279  29.017  1.00  0.00     0.074 A 
ATOM     56  C   UNL A   1      39.936  33.014  31.916  1.00  0.00     0.029 A 
ATOM     57  N   UNL A   1      40.082  33.739  29.819  1.00  0.00    -0.354 N 
ATOM     58  N   UNL A   1      43.191  31.931  29.252  1.00  0.00    -0.248 NA
ATOM     59  C   UNL A   1      45.425  32.159  28.739  1.00  0.00     0.031 C 
ATOM     60  C   UNL A   1      41.292  33.303  31.629  1.00  0.00     0.029 A 
ATOM     61  C   UNL A   1      41.373  33.729  30.313  1.00  0.00     0.049 A 
ATOM     62  H   UNL A   1      39.828  34.049  28.920  1.00  0.00     0.167 HD
ATOM     63  C   UNL A   1      43.446  33.277  29.224  1.00  0.00     0.074 A 
ATOM     64  C   UNL A   1      44.854  33.368  28.880  1.00  0.00     0.031 C 
ATOM     65  C   UNL A   1      42.492  34.210  29.520  1.00  0.00     0.037 A 
BRANCH  52  66
ATOM     66  C   UNL A   1      36.581  33.204  30.995  1.00  0.00     0.064 A 
ATOM     67  C   UNL A   1      35.625  33.968  30.288  1.00  0.00     0.173 A 
ATOM     68  C   UNL A   1      36.227  32.887  32.320  1.00  0.00     0.173 A 
ATOM     69  F   UNL A   1      35.802  34.297  29.003  1.00  0.00    -0.203 F 
ATOM     70  C   UNL A   1      34.449  34.435  30.878  1.00  0.00     0.198 A 
ATOM     71  C   UNL A   1      35.068  33.391  32.925  1.00  0.00     0.198 A 
ATOM     72  F   UNL A   1      36.979  32.055  33.054  1.00  0.00    -0.203 F 
ATOM     73  F   UNL A   1      33.582  35.156  30.153  1.00  0.00    -0.200 F 
ATOM     74  C   UNL A   1      34.180  34.167  32.204  1.00  0.00     0.200 A 
ATOM     75  F   UNL A   1      34.816  33.117  34.212  1.00  0.00    -0.200 F 
ATOM     76  F   UNL A   1      33.067  34.639  32.778  1.00  0.00    -0.200 F 
ENDBRANCH  52  66
BRANCH  53  77
ATOM     77  C   UNL A   1      44.700  28.862  27.934  1.00  0.00     0.064 A 
ATOM     78  C   UNL A   1      45.395  27.667  28.215  1.00  0.00     0.173 A 
ATOM     79  C   UNL A   1      43.918  28.892  26.770  1.00  0.00     0.173 A 
ATOM     80  F   UNL A   1      46.156  27.581  29.319  1.00  0.00    -0.203 F 
ATOM     81  C   UNL A   1      45.198  26.515  27.454  1.00  0.00     0.198 A 
ATOM     82  C   UNL A   1      43.734  27.736  26.002  1.00  0.00     0.198 A 
ATOM     83  F   UNL A   1      43.231  29.995  26.442  1.00  0.00    -0.203 F 
ATOM     84  F   UNL A   1      45.772  25.361  27.828  1.00  0.00    -0.200 F 
ATOM     85  C   UNL A   1      44.341  26.542  26.368  1.00  0.00     0.200 A 
ATOM     86  F   UNL A   1      42.897  27.757  24.954  1.00  0.00    -0.200 F 
ATOM     87  F   UNL A   1      44.072  25.413  25.697  1.00  0.00    -0.200 F 
ENDBRANCH  53  77
BRANCH  65  88
ATOM     88  C   UNL A   1      42.578  35.687  29.223  1.00  0.00     0.064 A 
ATOM     89  C   UNL A   1      43.386  36.579  29.943  1.00  0.00     0.173 A 
ATOM     90  C   UNL A   1      41.950  36.230  28.072  1.00  0.00     0.173 A 
ATOM     91  F   UNL A   1      44.146  36.166  30.966  1.00  0.00    -0.203 F 
ATOM     92  C   UNL A   1      43.493  37.927  29.593  1.00  0.00     0.198 A 
ATOM     93  C   UNL A   1      42.115  37.557  27.687  1.00  0.00     0.198 A 
ATOM     94  F   UNL A   1      41.182  35.485  27.265  1.00  0.00    -0.203 F 
ATOM     95  F   UNL A   1      44.234  38.748  30.348  1.00  0.00    -0.200 F 
ATOM     96  C   UNL A   1      42.868  38.412  28.461  1.00  0.00     0.200 A 
ATOM     97  F   UNL A   1      41.556  37.994  26.549  1.00  0.00    -0.200 F 
ATOM     98  F   UNL A   1      43.012  39.695  28.103  1.00  0.00    -0.200 F 
ENDBRANCH  65  88
ENDBRANCH  39  40
ENDBRANCH  31  34
ENDBRANCH  29  30
ENDBRANCH   1  29
TORSDOF 13
ENDMDL
MODEL 3
REMARK VINA RESULT:     -14.4      1.304      2.108
REMARK SMILES Cc1cc(F)ccc1OC1(C(=O)NCCCNC(=O)c2ccc(-c3c4nc(c(-c5c(F)c(F)c(F)c(F)c5F)c5ccc([nH]5)c(-c5c(F)c(F)c(F)c(F)c5F)c5nc(c(-c6c(F)c(F)c(F)c(F)c6F)c6ccc3[nH]6)C=C5)C=C4)cc2)CCN(C(=O)[C@H]2CCOC2)CC1
REMARK SMILES IDX 15 1 14 2 13 3 11 4 12 5 10 7 83 8 94 9 84 10 93 11 85 12
REMARK SMILES IDX 86 13 87 14 9 15 8 16 1 17 2 18 3 19 4 20 7 21 5 22 6 23
REMARK SMILES IDX 88 24 89 25 92 26 90 27 91 28 16 29 17 30 18 31 19 33 20 34
REMARK SMILES IDX 21 35 82 36 22 37 81 38 23 39 24 40 25 41 75 42 26 43 80 44
REMARK SMILES IDX 74 45 76 46 27 47 79 48 73 49 72 50 28 52 60 53 40 54 59 55
REMARK SMILES IDX 41 56 44 57 58 58 77 59 42 60 43 61 57 63 78 64 45 65 29 66
REMARK SMILES IDX 30 67 38 68 31 69 32 70 36 71 39 72 33 73 34 74 37 75 35 76
REMARK SMILES IDX 61 77 62 78 70 79 63 80 64 81 68 82 71 83 65 84 66 85 69 86
REMARK SMILES IDX 67 87 46 88 47 89 55 90 48 91 49 92 53 93 56 94 50 95 51 96
REMARK SMILES IDX 54 97 52 98
REMARK H PARENT 13 6 17 32 76 51 44 62
REMARK Flexibility Score: inf
ROOT
ATOM      1  C   UNL A   1      34.026  28.014  26.090  1.00  0.00     0.042 C 
ENDROOT
BRANCH   1   2
ATOM      2  C   UNL A   1      32.839  27.681  25.196  1.00  0.00     0.118 C 
BRANCH   2   3
ATOM      3  N   UNL A   1      31.855  26.836  25.844  1.00  0.00    -0.353 N 
ATOM      4  C   UNL A   1      30.747  26.190  25.370  1.00  0.00     0.264 C 
ATOM      5  O   UNL A   1      30.169  25.480  26.203  1.00  0.00    -0.270 OA
ATOM      6  H   UNL A   1      32.014  26.702  26.807  1.00  0.00     0.163 HD
BRANCH   4   7
ATOM      7  C   UNL A   1      30.225  26.368  23.890  1.00  0.00     0.190 C 
ATOM      8  C   UNL A   1      28.706  26.368  23.974  1.00  0.00     0.080 C 
ATOM      9  C   UNL A   1      30.971  27.544  23.261  1.00  0.00     0.080 C 
ATOM     10  C   UNL A   1      27.986  27.650  23.603  1.00  0.00     0.124 C 
ATOM     11  C   UNL A   1      30.133  28.696  22.724  1.00  0.00     0.124 C 
ATOM     12  N   UNL A   1      28.762  28.820  23.209  1.00  0.00    -0.342 N 
ATOM     13  C   UNL A   1      27.992  29.980  23.030  1.00  0.00     0.228 C 
ATOM     14  O   UNL A   1      26.863  30.067  23.518  1.00  0.00    -0.274 OA
BRANCH   7  15
ATOM     15  O   UNL A   1      30.687  25.131  23.301  1.00  0.00    -0.477 OA
BRANCH  15  16
ATOM     16  C   UNL A   1      31.847  24.435  23.410  1.00  0.00     0.124 A 
ATOM     17  C   UNL A   1      33.653  25.855  22.191  1.00  0.00     0.048 C 
ATOM     18  C   UNL A   1      33.157  24.689  22.977  1.00  0.00    -0.006 A 
ATOM     19  C   UNL A   1      34.155  23.712  23.209  1.00  0.00     0.046 A 
ATOM     20  C   UNL A   1      33.869  22.526  23.864  1.00  0.00     0.123 A 
ATOM     21  C   UNL A   1      31.593  23.215  24.073  1.00  0.00     0.050 A 
ATOM     22  F   UNL A   1      34.842  21.627  24.056  1.00  0.00    -0.207 F 
ATOM     23  C   UNL A   1      32.589  22.265  24.303  1.00  0.00     0.043 A 
ENDBRANCH  15  16
ENDBRANCH   7  15
BRANCH  13  24
ATOM     24  C   UNL A   1      28.538  31.083  22.136  1.00  0.00     0.107 C 
ATOM     25  C   UNL A   1      27.954  30.994  20.738  1.00  0.00     0.044 C 
ATOM     26  C   UNL A   1      28.076  32.459  22.579  1.00  0.00     0.173 C 
ATOM     27  C   UNL A   1      27.920  32.430  20.261  1.00  0.00     0.161 C 
ATOM     28  O   UNL A   1      28.029  33.278  21.406  1.00  0.00    -0.381 OA
ENDBRANCH  13  24
ENDBRANCH   4   7
ENDBRANCH   2   3
ENDBRANCH   1   2
BRANCH   1  29
ATOM     29  C   UNL A   1      33.588  28.732  27.339  1.00  0.00     0.118 C 
BRANCH  29  30
ATOM     30  N   UNL A   1      33.802  30.171  27.254  1.00  0.00    -0.352 N 
ATOM     31  C   UNL A   1      34.861  30.914  27.719  1.00  0.00     0.251 C 
ATOM     32  H   UNL A   1      33.091  30.681  26.802  1.00  0.00     0.163 HD
ATOM     33  O   UNL A   1      34.788  32.134  27.761  1.00  0.00    -0.269 OA
BRANCH  31  34
ATOM     34  C   UNL A   1      36.088  30.225  28.153  1.00  0.00     0.039 A 
ATOM     35  C   UNL A   1      36.213  29.734  29.462  1.00  0.00     0.014 A 
ATOM     36  C   UNL A   1      37.147  30.124  27.258  1.00  0.00     0.014 A 
ATOM     37  C   UNL A   1      37.403  29.124  29.858  1.00  0.00     0.010 A 
ATOM     38  C   UNL A   1      38.248  29.399  27.588  1.00  0.00     0.010 A 
ATOM     39  C   UNL A   1      38.409  28.972  28.907  1.00  0.00    -0.014 A 
BRANCH  39  40
ATOM     40  C   UNL A   1      39.753  28.490  29.145  1.00  0.00     0.031 A 
ATOM     41  C   UNL A   1      40.125  27.111  28.812  1.00  0.00     0.074 A 
ATOM     42  C   UNL A   1      40.662  29.484  29.258  1.00  0.00     0.049 A 
ATOM     43  N   UNL A   1      41.247  26.579  29.141  1.00  0.00    -0.248 NA
ATOM     44  C   UNL A   1      39.261  26.216  28.046  1.00  0.00     0.031 C 
ATOM     45  C   UNL A   1      42.082  29.473  28.946  1.00  0.00     0.029 A 
ATOM     46  N   UNL A   1      40.429  30.785  29.737  1.00  0.00    -0.354 N 
ATOM     47  C   UNL A   1      41.396  25.442  28.382  1.00  0.00     0.074 A 
ATOM     48  C   UNL A   1      40.097  25.200  27.795  1.00  0.00     0.031 C 
ATOM     49  C   UNL A   1      42.652  30.555  29.508  1.00  0.00     0.029 A 
ATOM     50  C   UNL A   1      41.636  31.188  30.335  1.00  0.00     0.049 A 
ATOM     51  H   UNL A   1      39.595  31.304  29.669  1.00  0.00     0.167 HD
ATOM     52  C   UNL A   1      42.648  24.934  28.199  1.00  0.00     0.037 A 
ATOM     53  C   UNL A   1      41.688  31.284  31.698  1.00  0.00     0.037 A 
ATOM     54  C   UNL A   1      43.640  25.757  28.885  1.00  0.00     0.049 A 
ATOM     55  C   UNL A   1      42.631  30.270  32.297  1.00  0.00     0.074 A 
ATOM     56  C   UNL A   1      44.462  26.778  28.438  1.00  0.00     0.029 A 
ATOM     57  N   UNL A   1      43.602  25.863  30.273  1.00  0.00    -0.354 N 
ATOM     58  N   UNL A   1      42.907  29.117  31.752  1.00  0.00    -0.248 NA
ATOM     59  C   UNL A   1      43.381  30.510  33.523  1.00  0.00     0.031 C 
ATOM     60  C   UNL A   1      44.869  27.541  29.560  1.00  0.00     0.029 A 
ATOM     61  C   UNL A   1      44.306  26.975  30.692  1.00  0.00     0.049 A 
ATOM     62  H   UNL A   1      43.139  25.234  30.872  1.00  0.00     0.167 HD
ATOM     63  C   UNL A   1      43.883  28.494  32.483  1.00  0.00     0.074 A 
ATOM     64  C   UNL A   1      44.133  29.398  33.591  1.00  0.00     0.031 C 
ATOM     65  C   UNL A   1      44.436  27.303  32.102  1.00  0.00     0.037 A 
BRANCH  52  66
ATOM     66  C   UNL A   1      42.986  23.890  27.165  1.00  0.00     0.064 A 
ATOM     67  C   UNL A   1      42.710  22.522  27.386  1.00  0.00     0.173 A 
ATOM     68  C   UNL A   1      43.590  24.184  25.928  1.00  0.00     0.173 A 
ATOM     69  F   UNL A   1      42.089  22.102  28.494  1.00  0.00    -0.203 F 
ATOM     70  C   UNL A   1      43.074  21.526  26.478  1.00  0.00     0.198 A 
ATOM     71  C   UNL A   1      43.992  23.181  25.037  1.00  0.00     0.198 A 
ATOM     72  F   UNL A   1      43.778  25.451  25.536  1.00  0.00    -0.203 F 
ATOM     73  F   UNL A   1      42.785  20.244  26.747  1.00  0.00    -0.200 F 
ATOM     74  C   UNL A   1      43.736  21.851  25.314  1.00  0.00     0.200 A 
ATOM     75  F   UNL A   1      44.629  23.512  23.905  1.00  0.00    -0.200 F 
ATOM     76  F   UNL A   1      44.111  20.892  24.457  1.00  0.00    -0.200 F 
ENDBRANCH  52  66
BRANCH  53  77
ATOM     77  C   UNL A   1      40.375  31.715  32.274  1.00  0.00     0.064 A 
ATOM     78  C   UNL A   1      39.605  30.732  32.928  1.00  0.00     0.173 A 
ATOM     79  C   UNL A   1      40.129  33.055  32.612  1.00  0.00     0.173 A 
ATOM     80  F   UNL A   1      39.801  29.433  32.646  1.00  0.00    -0.203 F 
ATOM     81  C   UNL A   1      38.742  31.059  33.973  1.00  0.00     0.198 A 
ATOM     82  C   UNL A   1      39.253  33.380  33.654  1.00  0.00     0.198 A 
ATOM     83  F   UNL A   1      40.825  34.041  32.030  1.00  0.00    -0.203 F 
ATOM     84  F   UNL A   1      38.126  30.086  34.661  1.00  0.00    -0.200 F 
ATOM     85  C   UNL A   1      38.593  32.381  34.358  1.00  0.00     0.200 A 
ATOM     86  F   UNL A   1      39.112  34.658  34.035  1.00  0.00    -0.200 F 
ATOM     87  F   UNL A   1      37.843  32.688  35.426  1.00  0.00    -0.200 F 
ENDBRANCH  53  77
BRANCH  65  88
ATOM     88  C   UNL A   1      45.274  26.399  32.974  1.00  0.00     0.064 A 
ATOM     89  C   UNL A   1      44.733  25.470  33.876  1.00  0.00     0.173 A 
ATOM     90  C   UNL A   1      46.680  26.333  32.805  1.00  0.00     0.173 A 
ATOM     91  F   UNL A   1      43.409  25.329  34.026  1.00  0.00    -0.203 F 
ATOM     92  C   UNL A   1      45.539  24.602  34.614  1.00  0.00     0.198 A 
ATOM     93  C   UNL A   1      47.474  25.418  33.492  1.00  0.00     0.198 A 
ATOM     94  F   UNL A   1      47.330  27.131  31.946  1.00  0.00    -0.203 F 
ATOM     95  F   UNL A   1      44.976  23.773  35.504  1.00  0.00    -0.200 F 
ATOM     96  C   UNL A   1      46.906  24.567  34.414  1.00  0.00     0.200 A 
ATOM     97  F   UNL A   1      48.788  25.353  33.235  1.00  0.00    -0.200 F 
ATOM     98  F   UNL A   1      47.669  23.699  35.091  1.00  0.00    -0.200 F 
ENDBRANCH  65  88
ENDBRANCH  39  40
ENDBRANCH  31  34
ENDBRANCH  29  30
ENDBRANCH   1  29
TORSDOF 13
ENDMDL
