MODEL 1
REMARK VINA RESULT:     -10.3      0.000      0.000
REMARK SMILES O=C(NCCCNC(=O)c1ccc(-c2c3nc(c(-c4c(F)c(F)c(F)c(F)c4F)c4ccc([nH]4)c(-c4c(F)c(F)c(F)c(F)c4F)c4nc(c(-c5c(F)c(F)c(F)c(F)c5F)c5ccc2[nH]5)C=C4)C=C3)cc1)c1ccc(-c2ccc(/C=C3/SC(=S)N(c4ccccc4)C3=O)o2)cc1
REMARK SMILES IDX 4 1 3 2 1 3 2 4 73 6 74 7 97 8 75 9 96 10 76 11 77 12 78 13
REMARK SMILES IDX 95 14 79 15 80 16 81 17 82 18 83 19 93 20 84 21 86 22 94 23
REMARK SMILES IDX 85 24 87 25 88 26 92 27 89 28 91 29 90 30 5 31 6 32 7 33
REMARK SMILES IDX 8 34 9 36 10 37 11 38 72 39 12 40 71 41 13 42 14 43 15 44
REMARK SMILES IDX 65 45 16 46 70 47 64 48 66 49 17 50 69 51 63 52 62 53 18 55
REMARK SMILES IDX 50 56 30 57 49 58 31 59 34 60 48 61 67 62 32 63 33 64 47 66
REMARK SMILES IDX 68 67 35 68 19 69 20 70 28 71 21 72 22 73 26 74 29 75 23 76
REMARK SMILES IDX 24 77 27 78 25 79 51 80 52 81 60 82 53 83 54 84 58 85 61 86
REMARK SMILES IDX 55 87 56 88 59 89 57 90 36 91 37 92 45 93 38 94 39 95 43 96
REMARK SMILES IDX 46 97 40 98 41 99 44 100 42 101
REMARK H PARENT 3 5 7 35 66 54 34 65
REMARK Flexibility Score: inf
ROOT
ATOM      1  C   UNL A   1      42.794  20.678  26.155  1.00  0.00     0.118 C 
ENDROOT
BRANCH   1   2
ATOM      2  N   UNL A   1      43.016  21.893  25.385  1.00  0.00    -0.352 N 
ATOM      3  O   UNL A   1      43.284  24.102  25.022  1.00  0.00    -0.269 OA
ATOM      4  C   UNL A   1      43.291  23.168  25.816  1.00  0.00     0.251 C 
ATOM      5  H   UNL A   1      42.960  21.785  24.409  1.00  0.00     0.163 HD
BRANCH   4   6
ATOM      6  C   UNL A   1      43.550  23.420  27.248  1.00  0.00     0.039 A 
ATOM      7  C   UNL A   1      44.842  23.681  27.713  1.00  0.00     0.014 A 
ATOM      8  C   UNL A   1      42.475  23.393  28.137  1.00  0.00     0.014 A 
ATOM      9  C   UNL A   1      45.074  23.796  29.084  1.00  0.00     0.013 A 
ATOM     10  C   UNL A   1      42.711  23.513  29.508  1.00  0.00     0.013 A 
ATOM     11  C   UNL A   1      44.016  23.677  29.997  1.00  0.00     0.017 A 
BRANCH  11  12
ATOM     12  C   UNL A   1      44.268  23.683  31.428  1.00  0.00     0.134 A 
ATOM     13  C   UNL A   1      43.776  22.954  32.488  1.00  0.00     0.051 A 
ATOM     14  O   UNL A   1      45.182  24.585  31.876  1.00  0.00    -0.457 OA
ATOM     15  C   UNL A   1      44.426  23.449  33.644  1.00  0.00     0.051 A 
ATOM     16  C   UNL A   1      45.248  24.493  33.246  1.00  0.00     0.128 A 
BRANCH  16  17
ATOM     17  C   UNL A   1      46.044  25.361  34.033  1.00  0.00     0.068 C 
ATOM     18  C   UNL A   1      45.597  26.555  34.447  1.00  0.00     0.084 C 
ATOM     19  S   UNL A   1      46.595  27.665  35.303  1.00  0.00    -0.054 SA
ATOM     20  C   UNL A   1      44.228  27.132  34.261  1.00  0.00     0.270 C 
ATOM     21  C   UNL A   1      45.342  28.907  35.357  1.00  0.00     0.152 C 
ATOM     22  N   UNL A   1      44.202  28.459  34.704  1.00  0.00    -0.261 N 
ATOM     23  O   UNL A   1      43.295  26.493  33.807  1.00  0.00    -0.268 OA
ATOM     24  S   UNL A   1      45.612  30.315  36.222  1.00  0.00    -0.051 S 
BRANCH  22  25
ATOM     25  C   UNL A   1      43.026  29.249  34.487  1.00  0.00     0.051 A 
ATOM     26  C   UNL A   1      42.949  30.152  33.414  1.00  0.00     0.027 A 
ATOM     27  C   UNL A   1      41.945  29.196  35.379  1.00  0.00     0.027 A 
ATOM     28  C   UNL A   1      41.823  30.960  33.228  1.00  0.00     0.002 A 
ATOM     29  C   UNL A   1      40.820  30.008  35.197  1.00  0.00     0.002 A 
ATOM     30  C   UNL A   1      40.759  30.887  34.121  1.00  0.00     0.000 A 
ENDBRANCH  22  25
ENDBRANCH  16  17
ENDBRANCH  11  12
ENDBRANCH   4   6
ENDBRANCH   1   2
BRANCH   1  31
ATOM     31  C   UNL A   1      41.321  20.299  26.255  1.00  0.00     0.042 C 
BRANCH  31  32
ATOM     32  C   UNL A   1      40.441  21.327  26.959  1.00  0.00     0.118 C 
BRANCH  32  33
ATOM     33  N   UNL A   1      39.280  21.717  26.174  1.00  0.00    -0.352 N 
ATOM     34  C   UNL A   1      38.602  22.905  26.074  1.00  0.00     0.251 C 
ATOM     35  H   UNL A   1      38.913  20.997  25.613  1.00  0.00     0.163 HD
ATOM     36  O   UNL A   1      37.545  22.930  25.448  1.00  0.00    -0.269 OA
BRANCH  34  37
ATOM     37  C   UNL A   1      39.096  24.149  26.711  1.00  0.00     0.039 A 
ATOM     38  C   UNL A   1      39.896  25.006  25.947  1.00  0.00     0.014 A 
ATOM     39  C   UNL A   1      38.851  24.455  28.052  1.00  0.00     0.014 A 
ATOM     40  C   UNL A   1      40.402  26.182  26.507  1.00  0.00     0.010 A 
ATOM     41  C   UNL A   1      39.287  25.668  28.586  1.00  0.00     0.010 A 
ATOM     42  C   UNL A   1      40.077  26.540  27.825  1.00  0.00    -0.014 A 
BRANCH  42  43
ATOM     43  C   UNL A   1      40.563  27.819  28.404  1.00  0.00     0.031 A 
ATOM     44  C   UNL A   1      42.029  28.033  28.673  1.00  0.00     0.074 A 
ATOM     45  C   UNL A   1      39.677  28.781  28.726  1.00  0.00     0.049 A 
ATOM     46  N   UNL A   1      42.635  29.082  29.173  1.00  0.00    -0.248 NA
ATOM     47  C   UNL A   1      42.931  26.912  28.365  1.00  0.00     0.031 C 
ATOM     48  C   UNL A   1      38.224  28.673  28.580  1.00  0.00     0.029 A 
ATOM     49  N   UNL A   1      39.866  30.038  29.243  1.00  0.00    -0.354 N 
ATOM     50  C   UNL A   1      43.979  28.741  29.255  1.00  0.00     0.074 A 
ATOM     51  C   UNL A   1      44.096  27.373  28.800  1.00  0.00     0.031 C 
ATOM     52  C   UNL A   1      37.656  29.825  28.970  1.00  0.00     0.029 A 
ATOM     53  C   UNL A   1      38.701  30.743  29.413  1.00  0.00     0.049 A 
ATOM     54  H   UNL A   1      40.753  30.400  29.470  1.00  0.00     0.167 HD
ATOM     55  C   UNL A   1      45.023  29.507  29.653  1.00  0.00     0.037 A 
ATOM     56  C   UNL A   1      38.497  31.994  29.869  1.00  0.00     0.037 A 
ATOM     57  C   UNL A   1      44.914  30.880  30.071  1.00  0.00     0.049 A 
ATOM     58  C   UNL A   1      39.679  32.840  30.252  1.00  0.00     0.074 A 
ATOM     59  C   UNL A   1      45.922  31.760  30.424  1.00  0.00     0.029 A 
ATOM     60  N   UNL A   1      43.719  31.575  30.190  1.00  0.00    -0.354 N 
ATOM     61  N   UNL A   1      40.953  32.532  30.249  1.00  0.00    -0.248 NA
ATOM     62  C   UNL A   1      39.394  34.215  30.686  1.00  0.00     0.031 C 
ATOM     63  C   UNL A   1      45.336  32.977  30.789  1.00  0.00     0.029 A 
ATOM     64  C   UNL A   1      43.965  32.869  30.624  1.00  0.00     0.049 A 
ATOM     65  H   UNL A   1      42.829  31.204  29.995  1.00  0.00     0.167 HD
ATOM     66  C   UNL A   1      41.622  33.677  30.658  1.00  0.00     0.074 A 
ATOM     67  C   UNL A   1      40.615  34.694  30.878  1.00  0.00     0.031 C 
ATOM     68  C   UNL A   1      42.952  33.869  30.838  1.00  0.00     0.037 A 
BRANCH  55  69
ATOM     69  C   UNL A   1      46.387  28.878  29.645  1.00  0.00     0.064 A 
ATOM     70  C   UNL A   1      46.932  28.291  30.798  1.00  0.00     0.173 A 
ATOM     71  C   UNL A   1      47.140  28.825  28.463  1.00  0.00     0.173 A 
ATOM     72  F   UNL A   1      46.256  28.325  31.956  1.00  0.00    -0.203 F 
ATOM     73  C   UNL A   1      48.191  27.697  30.773  1.00  0.00     0.198 A 
ATOM     74  C   UNL A   1      48.387  28.206  28.435  1.00  0.00     0.198 A 
ATOM     75  F   UNL A   1      46.663  29.366  27.333  1.00  0.00    -0.203 F 
ATOM     76  F   UNL A   1      48.709  27.183  31.896  1.00  0.00    -0.200 F 
ATOM     77  C   UNL A   1      48.915  27.650  29.591  1.00  0.00     0.200 A 
ATOM     78  F   UNL A   1      49.080  28.150  27.289  1.00  0.00    -0.200 F 
ATOM     79  F   UNL A   1      50.123  27.072  29.567  1.00  0.00    -0.200 F 
ENDBRANCH  55  69
BRANCH  56  80
ATOM     80  C   UNL A   1      37.117  32.539  29.944  1.00  0.00     0.064 A 
ATOM     81  C   UNL A   1      36.562  33.238  28.863  1.00  0.00     0.173 A 
ATOM     82  C   UNL A   1      36.329  32.373  31.091  1.00  0.00     0.173 A 
ATOM     83  F   UNL A   1      37.286  33.438  27.752  1.00  0.00    -0.203 F 
ATOM     84  C   UNL A   1      35.277  33.771  28.936  1.00  0.00     0.198 A 
ATOM     85  C   UNL A   1      35.034  32.884  31.152  1.00  0.00     0.198 A 
ATOM     86  F   UNL A   1      36.814  31.705  32.148  1.00  0.00    -0.203 F 
ATOM     87  F   UNL A   1      34.786  34.475  27.906  1.00  0.00    -0.200 F 
ATOM     88  C   UNL A   1      34.513  33.590  30.079  1.00  0.00     0.200 A 
ATOM     89  F   UNL A   1      34.294  32.695  32.253  1.00  0.00    -0.200 F 
ATOM     90  F   UNL A   1      33.276  34.101  30.147  1.00  0.00    -0.200 F 
ENDBRANCH  56  80
BRANCH  68  91
ATOM     91  C   UNL A   1      43.391  35.236  31.272  1.00  0.00     0.064 A 
ATOM     92  C   UNL A   1      43.492  35.578  32.629  1.00  0.00     0.173 A 
ATOM     93  C   UNL A   1      43.723  36.212  30.321  1.00  0.00     0.173 A 
ATOM     94  F   UNL A   1      43.169  34.684  33.577  1.00  0.00    -0.203 F 
ATOM     95  C   UNL A   1      43.877  36.859  33.018  1.00  0.00     0.198 A 
ATOM     96  C   UNL A   1      44.135  37.484  30.714  1.00  0.00     0.198 A 
ATOM     97  F   UNL A   1      43.649  35.933  29.011  1.00  0.00    -0.203 F 
ATOM     98  F   UNL A   1      43.912  37.181  34.317  1.00  0.00    -0.200 F 
ATOM     99  C   UNL A   1      44.202  37.809  32.060  1.00  0.00     0.200 A 
ATOM    100  F   UNL A   1      44.458  38.396  29.787  1.00  0.00    -0.200 F 
ATOM    101  F   UNL A   1      44.568  39.041  32.435  1.00  0.00    -0.200 F 
ENDBRANCH  68  91
ENDBRANCH  42  43
ENDBRANCH  34  37
ENDBRANCH  32  33
ENDBRANCH  31  32
ENDBRANCH   1  31
TORSDOF 13
ENDMDL
MODEL 2
REMARK VINA RESULT:     -10.1      2.588      4.446
REMARK SMILES O=C(NCCCNC(=O)c1ccc(-c2c3nc(c(-c4c(F)c(F)c(F)c(F)c4F)c4ccc([nH]4)c(-c4c(F)c(F)c(F)c(F)c4F)c4nc(c(-c5c(F)c(F)c(F)c(F)c5F)c5ccc2[nH]5)C=C4)C=C3)cc1)c1ccc(-c2ccc(/C=C3/SC(=S)N(c4ccccc4)C3=O)o2)cc1
REMARK SMILES IDX 4 1 3 2 1 3 2 4 73 6 74 7 97 8 75 9 96 10 76 11 77 12 78 13
REMARK SMILES IDX 95 14 79 15 80 16 81 17 82 18 83 19 93 20 84 21 86 22 94 23
REMARK SMILES IDX 85 24 87 25 88 26 92 27 89 28 91 29 90 30 5 31 6 32 7 33
REMARK SMILES IDX 8 34 9 36 10 37 11 38 72 39 12 40 71 41 13 42 14 43 15 44
REMARK SMILES IDX 65 45 16 46 70 47 64 48 66 49 17 50 69 51 63 52 62 53 18 55
REMARK SMILES IDX 50 56 30 57 49 58 31 59 34 60 48 61 67 62 32 63 33 64 47 66
REMARK SMILES IDX 68 67 35 68 19 69 20 70 28 71 21 72 22 73 26 74 29 75 23 76
REMARK SMILES IDX 24 77 27 78 25 79 51 80 52 81 60 82 53 83 54 84 58 85 61 86
REMARK SMILES IDX 55 87 56 88 59 89 57 90 36 91 37 92 45 93 38 94 39 95 43 96
REMARK SMILES IDX 46 97 40 98 41 99 44 100 42 101
REMARK H PARENT 3 5 7 35 66 54 34 65
REMARK Flexibility Score: inf
ROOT
ATOM      1  C   UNL A   1      42.795  21.120  26.969  1.00  0.00     0.118 C 
ENDROOT
BRANCH   1   2
ATOM      2  N   UNL A   1      42.648  21.608  28.332  1.00  0.00    -0.352 N 
ATOM      3  O   UNL A   1      43.078  22.886  30.139  1.00  0.00    -0.269 OA
ATOM      4  C   UNL A   1      43.180  22.725  28.927  1.00  0.00     0.251 C 
ATOM      5  H   UNL A   1      42.083  21.052  28.915  1.00  0.00     0.163 HD
BRANCH   4   6
ATOM      6  C   UNL A   1      43.917  23.712  28.113  1.00  0.00     0.039 A 
ATOM      7  C   UNL A   1      45.294  23.893  28.268  1.00  0.00     0.014 A 
ATOM      8  C   UNL A   1      43.209  24.469  27.178  1.00  0.00     0.014 A 
ATOM      9  C   UNL A   1      45.941  24.915  27.572  1.00  0.00     0.013 A 
ATOM     10  C   UNL A   1      43.861  25.488  26.480  1.00  0.00     0.013 A 
ATOM     11  C   UNL A   1      45.223  25.746  26.698  1.00  0.00     0.017 A 
BRANCH  11  12
ATOM     12  C   UNL A   1      45.867  26.881  26.058  1.00  0.00     0.134 A 
ATOM     13  C   UNL A   1      45.959  27.317  24.756  1.00  0.00     0.051 A 
ATOM     14  O   UNL A   1      46.539  27.734  26.877  1.00  0.00    -0.457 OA
ATOM     15  C   UNL A   1      46.738  28.499  24.788  1.00  0.00     0.051 A 
ATOM     16  C   UNL A   1      47.130  28.704  26.102  1.00  0.00     0.128 A 
BRANCH  16  17
ATOM     17  C   UNL A   1      47.980  29.699  26.642  1.00  0.00     0.068 C 
ATOM     18  C   UNL A   1      47.558  30.953  26.859  1.00  0.00     0.084 C 
ATOM     19  S   UNL A   1      48.613  32.198  27.404  1.00  0.00    -0.054 SA
ATOM     20  C   UNL A   1      46.173  31.494  26.681  1.00  0.00     0.270 C 
ATOM     21  C   UNL A   1      47.357  33.436  27.327  1.00  0.00     0.152 C 
ATOM     22  N   UNL A   1      46.172  32.880  26.866  1.00  0.00    -0.261 N 
ATOM     23  O   UNL A   1      45.212  30.786  26.435  1.00  0.00    -0.268 OA
ATOM     24  S   UNL A   1      47.685  34.981  27.885  1.00  0.00    -0.051 S 
BRANCH  22  25
ATOM     25  C   UNL A   1      44.975  33.623  26.602  1.00  0.00     0.051 A 
ATOM     26  C   UNL A   1      44.539  33.848  25.286  1.00  0.00     0.027 A 
ATOM     27  C   UNL A   1      44.241  34.207  27.646  1.00  0.00     0.027 A 
ATOM     28  C   UNL A   1      43.399  34.614  25.024  1.00  0.00     0.002 A 
ATOM     29  C   UNL A   1      43.104  34.977  27.384  1.00  0.00     0.002 A 
ATOM     30  C   UNL A   1      42.682  35.178  26.073  1.00  0.00     0.000 A 
ENDBRANCH  22  25
ENDBRANCH  16  17
ENDBRANCH  11  12
ENDBRANCH   4   6
ENDBRANCH   1   2
BRANCH   1  31
ATOM     31  C   UNL A   1      41.498  21.186  26.171  1.00  0.00     0.042 C 
BRANCH  31  32
ATOM     32  C   UNL A   1      40.294  21.711  26.947  1.00  0.00     0.118 C 
BRANCH  32  33
ATOM     33  N   UNL A   1      39.245  22.235  26.086  1.00  0.00    -0.352 N 
ATOM     34  C   UNL A   1      38.609  23.449  26.057  1.00  0.00     0.251 C 
ATOM     35  H   UNL A   1      38.935  21.603  25.398  1.00  0.00     0.163 HD
ATOM     36  O   UNL A   1      37.636  23.588  25.318  1.00  0.00    -0.269 OA
BRANCH  34  37
ATOM     37  C   UNL A   1      39.046  24.587  26.901  1.00  0.00     0.039 A 
ATOM     38  C   UNL A   1      39.835  25.580  26.309  1.00  0.00     0.014 A 
ATOM     39  C   UNL A   1      38.759  24.664  28.266  1.00  0.00     0.014 A 
ATOM     40  C   UNL A   1      40.289  26.663  27.065  1.00  0.00     0.010 A 
ATOM     41  C   UNL A   1      39.142  25.787  29.001  1.00  0.00     0.010 A 
ATOM     42  C   UNL A   1      39.920  26.793  28.414  1.00  0.00    -0.014 A 
BRANCH  42  43
ATOM     43  C   UNL A   1      40.351  27.974  29.205  1.00  0.00     0.031 A 
ATOM     44  C   UNL A   1      41.743  28.055  29.772  1.00  0.00     0.074 A 
ATOM     45  C   UNL A   1      39.472  28.965  29.450  1.00  0.00     0.049 A 
ATOM     46  N   UNL A   1      42.293  29.006  30.486  1.00  0.00    -0.248 NA
ATOM     47  C   UNL A   1      42.626  26.904  29.528  1.00  0.00     0.031 C 
ATOM     48  C   UNL A   1      38.073  28.978  29.016  1.00  0.00     0.029 A 
ATOM     49  N   UNL A   1      39.621  30.153  30.121  1.00  0.00    -0.354 N 
ATOM     50  C   UNL A   1      43.574  28.562  30.789  1.00  0.00     0.074 A 
ATOM     51  C   UNL A   1      43.705  27.236  30.225  1.00  0.00     0.031 C 
ATOM     52  C   UNL A   1      37.502  30.128  29.407  1.00  0.00     0.029 A 
ATOM     53  C   UNL A   1      38.486  30.923  30.136  1.00  0.00     0.049 A 
ATOM     54  H   UNL A   1      40.464  30.426  30.551  1.00  0.00     0.167 HD
ATOM     55  C   UNL A   1      44.558  29.209  31.458  1.00  0.00     0.037 A 
ATOM     56  C   UNL A   1      38.263  32.138  30.672  1.00  0.00     0.037 A 
ATOM     57  C   UNL A   1      44.442  30.543  31.988  1.00  0.00     0.049 A 
ATOM     58  C   UNL A   1      39.390  32.857  31.362  1.00  0.00     0.074 A 
ATOM     59  C   UNL A   1      45.407  31.311  32.618  1.00  0.00     0.029 A 
ATOM     60  N   UNL A   1      43.288  31.310  31.946  1.00  0.00    -0.354 N 
ATOM     61  N   UNL A   1      40.621  32.458  31.571  1.00  0.00    -0.248 NA
ATOM     62  C   UNL A   1      39.099  34.203  31.873  1.00  0.00     0.031 C 
ATOM     63  C   UNL A   1      44.826  32.529  32.988  1.00  0.00     0.029 A 
ATOM     64  C   UNL A   1      43.512  32.537  32.551  1.00  0.00     0.049 A 
ATOM     65  H   UNL A   1      42.434  31.025  31.546  1.00  0.00     0.167 HD
ATOM     66  C   UNL A   1      41.256  33.509  32.218  1.00  0.00     0.074 A 
ATOM     67  C   UNL A   1      40.281  34.572  32.345  1.00  0.00     0.031 C 
ATOM     68  C   UNL A   1      42.532  33.585  32.670  1.00  0.00     0.037 A 
BRANCH  55  69
ATOM     69  C   UNL A   1      45.860  28.485  31.647  1.00  0.00     0.064 A 
ATOM     70  C   UNL A   1      46.907  28.603  30.720  1.00  0.00     0.173 A 
ATOM     71  C   UNL A   1      46.078  27.698  32.787  1.00  0.00     0.173 A 
ATOM     72  F   UNL A   1      46.744  29.335  29.608  1.00  0.00    -0.203 F 
ATOM     73  C   UNL A   1      48.115  27.938  30.915  1.00  0.00     0.198 A 
ATOM     74  C   UNL A   1      47.298  27.057  32.993  1.00  0.00     0.198 A 
ATOM     75  F   UNL A   1      45.112  27.557  33.707  1.00  0.00    -0.203 F 
ATOM     76  F   UNL A   1      49.084  28.030  29.994  1.00  0.00    -0.200 F 
ATOM     77  C   UNL A   1      48.312  27.171  32.054  1.00  0.00     0.200 A 
ATOM     78  F   UNL A   1      47.491  26.326  34.100  1.00  0.00    -0.200 F 
ATOM     79  F   UNL A   1      49.477  26.538  32.243  1.00  0.00    -0.200 F 
ENDBRANCH  55  69
BRANCH  56  80
ATOM     80  C   UNL A   1      36.928  32.774  30.536  1.00  0.00     0.064 A 
ATOM     81  C   UNL A   1      36.601  33.521  29.396  1.00  0.00     0.173 A 
ATOM     82  C   UNL A   1      35.956  32.649  31.538  1.00  0.00     0.173 A 
ATOM     83  F   UNL A   1      37.506  33.684  28.420  1.00  0.00    -0.203 F 
ATOM     84  C   UNL A   1      35.358  34.138  29.273  1.00  0.00     0.198 A 
ATOM     85  C   UNL A   1      34.703  33.245  31.402  1.00  0.00     0.198 A 
ATOM     86  F   UNL A   1      36.219  31.938  32.645  1.00  0.00    -0.203 F 
ATOM     87  F   UNL A   1      35.087  34.885  28.194  1.00  0.00    -0.200 F 
ATOM     88  C   UNL A   1      34.409  33.996  30.275  1.00  0.00     0.200 A 
ATOM     89  F   UNL A   1      33.785  33.094  32.365  1.00  0.00    -0.200 F 
ATOM     90  F   UNL A   1      33.213  34.588  30.155  1.00  0.00    -0.200 F 
ENDBRANCH  56  80
BRANCH  68  91
ATOM     91  C   UNL A   1      42.949  34.871  33.320  1.00  0.00     0.064 A 
ATOM     92  C   UNL A   1      42.888  35.044  34.711  1.00  0.00     0.173 A 
ATOM     93  C   UNL A   1      43.423  35.939  32.545  1.00  0.00     0.173 A 
ATOM     94  F   UNL A   1      42.425  34.057  35.494  1.00  0.00    -0.203 F 
ATOM     95  C   UNL A   1      43.255  36.251  35.299  1.00  0.00     0.198 A 
ATOM     96  C   UNL A   1      43.817  37.136  33.138  1.00  0.00     0.198 A 
ATOM     97  F   UNL A   1      43.507  35.822  31.211  1.00  0.00    -0.203 F 
ATOM     98  F   UNL A   1      43.135  36.413  36.623  1.00  0.00    -0.200 F 
ATOM     99  C   UNL A   1      43.723  37.294  34.512  1.00  0.00     0.200 A 
ATOM    100  F   UNL A   1      44.278  38.139  32.378  1.00  0.00    -0.200 F 
ATOM    101  F   UNL A   1      44.072  38.457  35.079  1.00  0.00    -0.200 F 
ENDBRANCH  68  91
ENDBRANCH  42  43
ENDBRANCH  34  37
ENDBRANCH  32  33
ENDBRANCH  31  32
ENDBRANCH   1  31
TORSDOF 13
ENDMDL
MODEL 3
REMARK VINA RESULT:     -10.1      3.630     10.133
REMARK SMILES O=C(NCCCNC(=O)c1ccc(-c2c3nc(c(-c4c(F)c(F)c(F)c(F)c4F)c4ccc([nH]4)c(-c4c(F)c(F)c(F)c(F)c4F)c4nc(c(-c5c(F)c(F)c(F)c(F)c5F)c5ccc2[nH]5)C=C4)C=C3)cc1)c1ccc(-c2ccc(/C=C3/SC(=S)N(c4ccccc4)C3=O)o2)cc1
REMARK SMILES IDX 4 1 3 2 1 3 2 4 73 6 74 7 97 8 75 9 96 10 76 11 77 12 78 13
REMARK SMILES IDX 95 14 79 15 80 16 81 17 82 18 83 19 93 20 84 21 86 22 94 23
REMARK SMILES IDX 85 24 87 25 88 26 92 27 89 28 91 29 90 30 5 31 6 32 7 33
REMARK SMILES IDX 8 34 9 36 10 37 11 38 72 39 12 40 71 41 13 42 14 43 15 44
REMARK SMILES IDX 65 45 16 46 70 47 64 48 66 49 17 50 69 51 63 52 62 53 18 55
REMARK SMILES IDX 50 56 30 57 49 58 31 59 34 60 48 61 67 62 32 63 33 64 47 66
REMARK SMILES IDX 68 67 35 68 19 69 20 70 28 71 21 72 22 73 26 74 29 75 23 76
REMARK SMILES IDX 24 77 27 78 25 79 51 80 52 81 60 82 53 83 54 84 58 85 61 86
REMARK SMILES IDX 55 87 56 88 59 89 57 90 36 91 37 92 45 93 38 94 39 95 43 96
REMARK SMILES IDX 46 97 40 98 41 99 44 100 42 101
REMARK H PARENT 3 5 7 35 66 54 34 65
REMARK Flexibility Score: inf
ROOT
ATOM      1  C   UNL A   1      34.259  34.560  29.966  1.00  0.00     0.118 C 
ENDROOT
BRANCH   1   2
ATOM      2  N   UNL A   1      34.388  33.563  31.017  1.00  0.00    -0.352 N 
ATOM      3  O   UNL A   1      35.405  31.997  32.282  1.00  0.00    -0.269 OA
ATOM      4  C   UNL A   1      35.511  32.937  31.501  1.00  0.00     0.251 C 
ATOM      5  H   UNL A   1      33.543  33.295  31.445  1.00  0.00     0.163 HD
BRANCH   4   6
ATOM      6  C   UNL A   1      36.847  33.367  31.044  1.00  0.00     0.039 A 
ATOM      7  C   UNL A   1      37.703  34.082  31.887  1.00  0.00     0.014 A 
ATOM      8  C   UNL A   1      37.245  33.047  29.745  1.00  0.00     0.014 A 
ATOM      9  C   UNL A   1      38.909  34.579  31.389  1.00  0.00     0.013 A 
ATOM     10  C   UNL A   1      38.454  33.543  29.253  1.00  0.00     0.013 A 
ATOM     11  C   UNL A   1      39.279  34.344  30.057  1.00  0.00     0.017 A 
BRANCH  11  12
ATOM     12  C   UNL A   1      40.476  34.953  29.502  1.00  0.00     0.134 A 
ATOM     13  C   UNL A   1      40.744  35.658  28.351  1.00  0.00     0.051 A 
ATOM     14  O   UNL A   1      41.612  34.832  30.241  1.00  0.00    -0.457 OA
ATOM     15  C   UNL A   1      42.122  35.976  28.392  1.00  0.00     0.051 A 
ATOM     16  C   UNL A   1      42.647  35.406  29.542  1.00  0.00     0.128 A 
BRANCH  16  17
ATOM     17  C   UNL A   1      43.988  35.371  29.997  1.00  0.00     0.068 C 
ATOM     18  C   UNL A   1      44.796  34.331  29.746  1.00  0.00     0.084 C 
ATOM     19  S   UNL A   1      46.387  34.225  30.392  1.00  0.00    -0.054 SA
ATOM     20  C   UNL A   1      44.500  33.126  28.909  1.00  0.00     0.270 C 
ATOM     21  C   UNL A   1      46.671  32.626  29.701  1.00  0.00     0.152 C 
ATOM     22  N   UNL A   1      45.542  32.199  29.016  1.00  0.00    -0.261 N 
ATOM     23  O   UNL A   1      43.493  33.021  28.229  1.00  0.00    -0.268 OA
ATOM     24  S   UNL A   1      48.184  31.922  29.841  1.00  0.00    -0.051 S 
BRANCH  22  25
ATOM     25  C   UNL A   1      45.400  30.909  28.408  1.00  0.00     0.051 A 
ATOM     26  C   UNL A   1      45.866  30.667  27.106  1.00  0.00     0.027 A 
ATOM     27  C   UNL A   1      44.729  29.869  29.069  1.00  0.00     0.027 A 
ATOM     28  C   UNL A   1      45.685  29.424  26.492  1.00  0.00     0.002 A 
ATOM     29  C   UNL A   1      44.543  28.626  28.454  1.00  0.00     0.002 A 
ATOM     30  C   UNL A   1      45.023  28.404  27.167  1.00  0.00     0.000 A 
ENDBRANCH  22  25
ENDBRANCH  16  17
ENDBRANCH  11  12
ENDBRANCH   4   6
ENDBRANCH   1   2
BRANCH   1  31
ATOM     31  C   UNL A   1      33.691  33.990  28.672  1.00  0.00     0.042 C 
BRANCH  31  32
ATOM     32  C   UNL A   1      34.594  32.987  27.962  1.00  0.00     0.118 C 
BRANCH  32  33
ATOM     33  N   UNL A   1      33.915  31.745  27.628  1.00  0.00    -0.352 N 
ATOM     34  C   UNL A   1      34.352  30.445  27.597  1.00  0.00     0.251 C 
ATOM     35  H   UNL A   1      32.970  31.857  27.379  1.00  0.00     0.163 HD
ATOM     36  O   UNL A   1      33.612  29.585  27.126  1.00  0.00    -0.269 OA
BRANCH  34  37
ATOM     37  C   UNL A   1      35.692  30.053  28.097  1.00  0.00     0.039 A 
ATOM     38  C   UNL A   1      35.809  29.680  29.441  1.00  0.00     0.014 A 
ATOM     39  C   UNL A   1      36.837  30.111  27.299  1.00  0.00     0.014 A 
ATOM     40  C   UNL A   1      37.053  29.320  29.965  1.00  0.00     0.010 A 
ATOM     41  C   UNL A   1      38.064  29.673  27.800  1.00  0.00     0.010 A 
ATOM     42  C   UNL A   1      38.189  29.284  29.141  1.00  0.00    -0.014 A 
BRANCH  42  43
ATOM     43  C   UNL A   1      39.502  28.844  29.680  1.00  0.00     0.031 A 
ATOM     44  C   UNL A   1      40.158  29.590  30.811  1.00  0.00     0.074 A 
ATOM     45  C   UNL A   1      40.128  27.788  29.124  1.00  0.00     0.049 A 
ATOM     46  N   UNL A   1      41.299  29.351  31.409  1.00  0.00    -0.248 NA
ATOM     47  C   UNL A   1      39.453  30.776  31.321  1.00  0.00     0.031 C 
ATOM     48  C   UNL A   1      39.632  27.021  27.979  1.00  0.00     0.029 A 
ATOM     49  N   UNL A   1      41.314  27.178  29.444  1.00  0.00    -0.354 N 
ATOM     50  C   UNL A   1      41.455  30.363  32.348  1.00  0.00     0.074 A 
ATOM     51  C   UNL A   1      40.318  31.246  32.209  1.00  0.00     0.031 C 
ATOM     52  C   UNL A   1      40.492  26.026  27.712  1.00  0.00     0.029 A 
ATOM     53  C   UNL A   1      41.609  26.098  28.650  1.00  0.00     0.049 A 
ATOM     54  H   UNL A   1      41.898  27.485  30.175  1.00  0.00     0.167 HD
ATOM     55  C   UNL A   1      42.446  30.528  33.257  1.00  0.00     0.037 A 
ATOM     56  C   UNL A   1      42.658  25.254  28.679  1.00  0.00     0.037 A 
ATOM     57  C   UNL A   1      43.559  29.630  33.422  1.00  0.00     0.049 A 
ATOM     58  C   UNL A   1      43.715  25.429  29.734  1.00  0.00     0.074 A 
ATOM     59  C   UNL A   1      44.574  29.674  34.362  1.00  0.00     0.029 A 
ATOM     60  N   UNL A   1      43.801  28.521  32.625  1.00  0.00    -0.354 N 
ATOM     61  N   UNL A   1      43.809  26.344  30.668  1.00  0.00    -0.248 NA
ATOM     62  C   UNL A   1      44.802  24.441  29.749  1.00  0.00     0.031 C 
ATOM     63  C   UNL A   1      45.450  28.611  34.113  1.00  0.00     0.029 A 
ATOM     64  C   UNL A   1      44.957  27.880  33.044  1.00  0.00     0.049 A 
ATOM     65  H   UNL A   1      43.236  28.232  31.873  1.00  0.00     0.167 HD
ATOM     66  C   UNL A   1      44.950  26.031  31.393  1.00  0.00     0.074 A 
ATOM     67  C   UNL A   1      45.502  24.828  30.805  1.00  0.00     0.031 C 
ATOM     68  C   UNL A   1      45.494  26.685  32.449  1.00  0.00     0.037 A 
BRANCH  55  69
ATOM     69  C   UNL A   1      42.366  31.726  34.160  1.00  0.00     0.064 A 
ATOM     70  C   UNL A   1      41.716  31.667  35.403  1.00  0.00     0.173 A 
ATOM     71  C   UNL A   1      42.980  32.933  33.797  1.00  0.00     0.173 A 
ATOM     72  F   UNL A   1      41.103  30.538  35.791  1.00  0.00    -0.203 F 
ATOM     73  C   UNL A   1      41.662  32.780  36.237  1.00  0.00     0.198 A 
ATOM     74  C   UNL A   1      42.948  34.037  34.647  1.00  0.00     0.198 A 
ATOM     75  F   UNL A   1      43.619  33.042  32.623  1.00  0.00    -0.203 F 
ATOM     76  F   UNL A   1      40.997  32.713  37.399  1.00  0.00    -0.200 F 
ATOM     77  C   UNL A   1      42.283  33.962  35.861  1.00  0.00     0.200 A 
ATOM     78  F   UNL A   1      43.559  35.175  34.288  1.00  0.00    -0.200 F 
ATOM     79  F   UNL A   1      42.236  35.031  36.668  1.00  0.00    -0.200 F 
ENDBRANCH  55  69
BRANCH  56  80
ATOM     80  C   UNL A   1      42.736  24.137  27.703  1.00  0.00     0.064 A 
ATOM     81  C   UNL A   1      42.320  22.845  28.055  1.00  0.00     0.173 A 
ATOM     82  C   UNL A   1      43.227  24.336  26.406  1.00  0.00     0.173 A 
ATOM     83  F   UNL A   1      41.861  22.604  29.292  1.00  0.00    -0.203 F 
ATOM     84  C   UNL A   1      42.413  21.789  27.152  1.00  0.00     0.198 A 
ATOM     85  C   UNL A   1      43.295  23.284  25.494  1.00  0.00     0.198 A 
ATOM     86  F   UNL A   1      43.631  25.555  26.019  1.00  0.00    -0.203 F 
ATOM     87  F   UNL A   1      42.051  20.555  27.528  1.00  0.00    -0.200 F 
ATOM     88  C   UNL A   1      42.896  22.011  25.871  1.00  0.00     0.200 A 
ATOM     89  F   UNL A   1      43.750  23.503  24.254  1.00  0.00    -0.200 F 
ATOM     90  F   UNL A   1      42.983  20.994  25.002  1.00  0.00    -0.200 F 
ENDBRANCH  56  80
BRANCH  68  91
ATOM     91  C   UNL A   1      46.736  26.094  33.049  1.00  0.00     0.064 A 
ATOM     92  C   UNL A   1      46.674  25.146  34.081  1.00  0.00     0.173 A 
ATOM     93  C   UNL A   1      48.002  26.473  32.580  1.00  0.00     0.173 A 
ATOM     94  F   UNL A   1      45.486  24.763  34.575  1.00  0.00    -0.203 F 
ATOM     95  C   UNL A   1      47.835  24.624  34.644  1.00  0.00     0.198 A 
ATOM     96  C   UNL A   1      49.162  25.928  33.126  1.00  0.00     0.198 A 
ATOM     97  F   UNL A   1      48.115  27.372  31.590  1.00  0.00    -0.203 F 
ATOM     98  F   UNL A   1      47.753  23.762  35.666  1.00  0.00    -0.200 F 
ATOM     99  C   UNL A   1      49.078  25.012  34.163  1.00  0.00     0.200 A 
ATOM    100  F   UNL A   1      50.360  26.297  32.653  1.00  0.00    -0.200 F 
ATOM    101  F   UNL A   1      50.194  24.512  34.709  1.00  0.00    -0.200 F 
ENDBRANCH  68  91
ENDBRANCH  42  43
ENDBRANCH  34  37
ENDBRANCH  32  33
ENDBRANCH  31  32
ENDBRANCH   1  31
TORSDOF 13
ENDMDL
