MODEL 1
REMARK VINA RESULT:     -12.8      0.000      0.000
REMARK SMILES O=C(NCCCNC(=O)[C@@H]1CCCC[C@H]1C(=O)Nc1ccc(NC(=O)c2ccco2)cc1)c1ccc(-c2c3nc(c(-c4c(F)c(F)c(F)c(F)c4F)c4ccc([nH]4)c(-c4c(F)c(F)c(F)c(F)c4F)c4nc(c(-c5c(F)c(F)c(F)c(F)c5F)c5ccc2[nH]5)C=C4)C=C3)cc1
REMARK SMILES IDX 6 1 5 2 4 3 3 4 1 5 2 6 33 8 34 9 95 10 35 11 94 12 36 13
REMARK SMILES IDX 37 14 38 15 88 16 39 17 93 18 87 19 89 20 40 21 92 22 86 23
REMARK SMILES IDX 85 24 41 26 73 27 53 28 72 29 54 30 57 31 71 32 90 33 55 34
REMARK SMILES IDX 56 35 70 37 91 38 58 39 42 40 43 41 51 42 44 43 45 44 49 45
REMARK SMILES IDX 52 46 46 47 47 48 50 49 48 50 74 51 75 52 83 53 76 54 77 55
REMARK SMILES IDX 81 56 84 57 78 58 79 59 82 60 80 61 59 62 60 63 68 64 61 65
REMARK SMILES IDX 62 66 66 67 69 68 63 69 64 70 67 71 65 72 7 73 8 74 9 76
REMARK SMILES IDX 10 77 11 78 15 79 12 80 14 81 13 82 16 83 17 84 18 85 19 87
REMARK SMILES IDX 20 88 32 89 21 90 31 91 22 92 23 93 24 94 25 96 26 97 27 98
REMARK SMILES IDX 30 99 28 100 29 101
REMARK H PARENT 3 7 89 25 57 36 7 75 18 86 23 95
REMARK Flexibility Score: inf
ROOT
ATOM      1  C   UNL A   1      31.631  30.169  25.734  1.00  0.00     0.117 C 
ENDROOT
BRANCH   1   2
ATOM      2  C   UNL A   1      31.418  31.515  26.408  1.00  0.00     0.042 C 
BRANCH   2   3
ATOM      3  C   UNL A   1      32.716  32.181  26.843  1.00  0.00     0.118 C 
BRANCH   3   4
ATOM      4  N   UNL A   1      32.505  33.535  27.339  1.00  0.00    -0.352 N 
ATOM      5  O   UNL A   1      32.634  35.290  28.733  1.00  0.00    -0.269 OA
ATOM      6  C   UNL A   1      33.107  34.216  28.367  1.00  0.00     0.251 C 
ATOM      7  H   UNL A   1      31.816  34.045  26.857  1.00  0.00     0.163 HD
BRANCH   6   8
ATOM      8  C   UNL A   1      34.308  33.679  29.046  1.00  0.00     0.039 A 
ATOM      9  C   UNL A   1      34.212  32.666  30.002  1.00  0.00     0.014 A 
ATOM     10  C   UNL A   1      35.570  34.151  28.663  1.00  0.00     0.014 A 
ATOM     11  C   UNL A   1      35.351  32.224  30.666  1.00  0.00     0.010 A 
ATOM     12  C   UNL A   1      36.724  33.640  29.267  1.00  0.00     0.010 A 
ATOM     13  C   UNL A   1      36.622  32.687  30.289  1.00  0.00    -0.014 A 
BRANCH  13  14
ATOM     14  C   UNL A   1      37.823  32.092  30.926  1.00  0.00     0.031 A 
ATOM     15  C   UNL A   1      38.238  32.469  32.318  1.00  0.00     0.074 A 
ATOM     16  C   UNL A   1      38.523  31.169  30.236  1.00  0.00     0.049 A 
ATOM     17  N   UNL A   1      39.235  32.007  33.032  1.00  0.00    -0.248 NA
ATOM     18  C   UNL A   1      37.442  33.501  32.999  1.00  0.00     0.031 C 
ATOM     19  C   UNL A   1      38.230  30.743  28.865  1.00  0.00     0.029 A 
ATOM     20  N   UNL A   1      39.603  30.404  30.596  1.00  0.00    -0.354 N 
ATOM     21  C   UNL A   1      39.200  32.705  34.232  1.00  0.00     0.074 A 
ATOM     22  C   UNL A   1      38.093  33.633  34.147  1.00  0.00     0.031 C 
ATOM     23  C   UNL A   1      39.071  29.759  28.519  1.00  0.00     0.029 A 
ATOM     24  C   UNL A   1      39.996  29.521  29.621  1.00  0.00     0.049 A 
ATOM     25  H   UNL A   1      40.053  30.482  31.467  1.00  0.00     0.167 HD
ATOM     26  C   UNL A   1      40.015  32.574  35.305  1.00  0.00     0.037 A 
ATOM     27  C   UNL A   1      40.997  28.620  29.611  1.00  0.00     0.037 A 
ATOM     28  C   UNL A   1      41.097  31.627  35.397  1.00  0.00     0.049 A 
ATOM     29  C   UNL A   1      41.872  28.489  30.822  1.00  0.00     0.074 A 
ATOM     30  C   UNL A   1      41.947  31.389  36.463  1.00  0.00     0.029 A 
ATOM     31  N   UNL A   1      41.477  30.761  34.382  1.00  0.00    -0.354 N 
ATOM     32  N   UNL A   1      41.803  29.130  31.963  1.00  0.00    -0.248 NA
ATOM     33  C   UNL A   1      42.967  27.514  30.744  1.00  0.00     0.031 C 
ATOM     34  C   UNL A   1      42.862  30.401  36.083  1.00  0.00     0.029 A 
ATOM     35  C   UNL A   1      42.561  30.000  34.792  1.00  0.00     0.049 A 
ATOM     36  H   UNL A   1      41.042  30.697  33.501  1.00  0.00     0.167 HD
ATOM     37  C   UNL A   1      42.841  28.637  32.739  1.00  0.00     0.074 A 
ATOM     38  C   UNL A   1      43.508  27.622  31.949  1.00  0.00     0.031 C 
ATOM     39  C   UNL A   1      43.214  29.000  33.989  1.00  0.00     0.037 A 
BRANCH  26  40
ATOM     40  C   UNL A   1      39.781  33.480  36.477  1.00  0.00     0.064 A 
ATOM     41  C   UNL A   1      40.390  34.740  36.561  1.00  0.00     0.173 A 
ATOM     42  C   UNL A   1      38.880  33.114  37.487  1.00  0.00     0.173 A 
ATOM     43  F   UNL A   1      41.267  35.131  35.624  1.00  0.00    -0.203 F 
ATOM     44  C   UNL A   1      40.113  35.598  37.623  1.00  0.00     0.198 A 
ATOM     45  C   UNL A   1      38.591  33.983  38.536  1.00  0.00     0.198 A 
ATOM     46  F   UNL A   1      38.268  31.921  37.448  1.00  0.00    -0.203 F 
ATOM     47  F   UNL A   1      40.723  36.790  37.697  1.00  0.00    -0.200 F 
ATOM     48  C   UNL A   1      39.207  35.222  38.604  1.00  0.00     0.200 A 
ATOM     49  F   UNL A   1      37.708  33.622  39.479  1.00  0.00    -0.200 F 
ATOM     50  F   UNL A   1      38.931  36.055  39.617  1.00  0.00    -0.200 F 
ENDBRANCH  26  40
BRANCH  27  51
ATOM     51  C   UNL A   1      41.216  27.778  28.409  1.00  0.00     0.064 A 
ATOM     52  C   UNL A   1      42.096  28.181  27.396  1.00  0.00     0.173 A 
ATOM     53  C   UNL A   1      40.564  26.545  28.258  1.00  0.00     0.173 A 
ATOM     54  F   UNL A   1      42.727  29.361  27.489  1.00  0.00    -0.203 F 
ATOM     55  C   UNL A   1      42.308  27.388  26.272  1.00  0.00     0.198 A 
ATOM     56  C   UNL A   1      40.797  25.740  27.146  1.00  0.00     0.198 A 
ATOM     57  F   UNL A   1      39.717  26.114  29.204  1.00  0.00    -0.203 F 
ATOM     58  F   UNL A   1      43.128  27.811  25.301  1.00  0.00    -0.200 F 
ATOM     59  C   UNL A   1      41.664  26.165  26.150  1.00  0.00     0.200 A 
ATOM     60  F   UNL A   1      40.184  24.553  27.041  1.00  0.00    -0.200 F 
ATOM     61  F   UNL A   1      41.875  25.398  25.073  1.00  0.00    -0.200 F 
ENDBRANCH  27  51
BRANCH  39  62
ATOM     62  C   UNL A   1      44.394  28.289  34.575  1.00  0.00     0.064 A 
ATOM     63  C   UNL A   1      45.693  28.797  34.432  1.00  0.00     0.173 A 
ATOM     64  C   UNL A   1      44.223  27.103  35.304  1.00  0.00     0.173 A 
ATOM     65  F   UNL A   1      45.906  29.919  33.728  1.00  0.00    -0.203 F 
ATOM     66  C   UNL A   1      46.784  28.129  34.981  1.00  0.00     0.198 A 
ATOM     67  C   UNL A   1      45.314  26.450  35.870  1.00  0.00     0.198 A 
ATOM     68  F   UNL A   1      42.998  26.582  35.469  1.00  0.00    -0.203 F 
ATOM     69  F   UNL A   1      48.023  28.607  34.798  1.00  0.00    -0.200 F 
ATOM     70  C   UNL A   1      46.593  26.960  35.703  1.00  0.00     0.200 A 
ATOM     71  F   UNL A   1      45.128  25.325  36.573  1.00  0.00    -0.200 F 
ATOM     72  F   UNL A   1      47.645  26.318  36.231  1.00  0.00    -0.200 F 
ENDBRANCH  39  62
ENDBRANCH  13  14
ENDBRANCH   6   8
ENDBRANCH   3   4
ENDBRANCH   2   3
ENDBRANCH   1   2
BRANCH   1  73
ATOM     73  N   UNL A   1      31.343  29.045  26.605  1.00  0.00    -0.356 N 
ATOM     74  C   UNL A   1      31.543  27.708  26.409  1.00  0.00     0.223 C 
ATOM     75  H   UNL A   1      30.942  29.283  27.472  1.00  0.00     0.163 HD
ATOM     76  O   UNL A   1      31.216  26.934  27.307  1.00  0.00    -0.275 OA
BRANCH  74  77
ATOM     77  C   UNL A   1      32.159  27.222  25.094  1.00  0.00     0.091 C 
ATOM     78  C   UNL A   1      33.494  27.953  24.862  1.00  0.00     0.014 C 
ATOM     79  C   UNL A   1      31.184  27.464  23.920  1.00  0.00     0.091 C 
ATOM     80  C   UNL A   1      34.094  27.640  23.498  1.00  0.00     0.001 C 
ATOM     81  C   UNL A   1      31.775  27.449  22.498  1.00  0.00     0.014 C 
ATOM     82  C   UNL A   1      33.156  28.082  22.385  1.00  0.00     0.001 C 
BRANCH  79  83
ATOM     83  C   UNL A   1      29.907  26.630  23.974  1.00  0.00     0.228 C 
ATOM     84  O   UNL A   1      28.816  27.219  23.968  1.00  0.00    -0.274 OA
ATOM     85  N   UNL A   1      29.827  25.273  24.019  1.00  0.00    -0.326 N 
ATOM     86  H   UNL A   1      28.898  24.967  23.906  1.00  0.00     0.169 HD
BRANCH  85  87
ATOM     87  C   UNL A   1      30.704  24.185  24.180  1.00  0.00     0.041 A 
ATOM     88  C   UNL A   1      30.912  23.745  25.493  1.00  0.00     0.028 A 
ATOM     89  C   UNL A   1      31.411  23.543  23.172  1.00  0.00     0.028 A 
ATOM     90  C   UNL A   1      31.752  22.659  25.769  1.00  0.00     0.028 A 
ATOM     91  C   UNL A   1      32.277  22.478  23.440  1.00  0.00     0.028 A 
ATOM     92  C   UNL A   1      32.406  21.991  24.734  1.00  0.00     0.041 A 
BRANCH  92  93
ATOM     93  N   UNL A   1      33.210  20.856  24.914  1.00  0.00    -0.319 N 
ATOM     94  C   UNL A   1      34.580  20.715  24.825  1.00  0.00     0.291 C 
ATOM     95  H   UNL A   1      32.720  20.031  25.140  1.00  0.00     0.170 HD
ATOM     96  O   UNL A   1      35.034  19.571  24.754  1.00  0.00    -0.265 OA
BRANCH  94  97
ATOM     97  C   UNL A   1      35.412  21.894  24.929  1.00  0.00     0.191 A 
ATOM     98  C   UNL A   1      36.128  22.613  23.986  1.00  0.00     0.056 A 
ATOM     99  O   UNL A   1      35.585  22.466  26.159  1.00  0.00    -0.459 OA
ATOM    100  C   UNL A   1      36.804  23.641  24.683  1.00  0.00     0.043 A 
ATOM    101  C   UNL A   1      36.439  23.509  26.001  1.00  0.00     0.196 A 
ENDBRANCH  94  97
ENDBRANCH  92  93
ENDBRANCH  85  87
ENDBRANCH  79  83
ENDBRANCH  74  77
ENDBRANCH   1  73
TORSDOF 14
ENDMDL
MODEL 2
REMARK VINA RESULT:     -12.7      0.731      1.826
REMARK SMILES O=C(NCCCNC(=O)[C@@H]1CCCC[C@H]1C(=O)Nc1ccc(NC(=O)c2ccco2)cc1)c1ccc(-c2c3nc(c(-c4c(F)c(F)c(F)c(F)c4F)c4ccc([nH]4)c(-c4c(F)c(F)c(F)c(F)c4F)c4nc(c(-c5c(F)c(F)c(F)c(F)c5F)c5ccc2[nH]5)C=C4)C=C3)cc1
REMARK SMILES IDX 6 1 5 2 4 3 3 4 1 5 2 6 33 8 34 9 95 10 35 11 94 12 36 13
REMARK SMILES IDX 37 14 38 15 88 16 39 17 93 18 87 19 89 20 40 21 92 22 86 23
REMARK SMILES IDX 85 24 41 26 73 27 53 28 72 29 54 30 57 31 71 32 90 33 55 34
REMARK SMILES IDX 56 35 70 37 91 38 58 39 42 40 43 41 51 42 44 43 45 44 49 45
REMARK SMILES IDX 52 46 46 47 47 48 50 49 48 50 74 51 75 52 83 53 76 54 77 55
REMARK SMILES IDX 81 56 84 57 78 58 79 59 82 60 80 61 59 62 60 63 68 64 61 65
REMARK SMILES IDX 62 66 66 67 69 68 63 69 64 70 67 71 65 72 7 73 8 74 9 76
REMARK SMILES IDX 10 77 11 78 15 79 12 80 14 81 13 82 16 83 17 84 18 85 19 87
REMARK SMILES IDX 20 88 32 89 21 90 31 91 22 92 23 93 24 94 25 96 26 97 27 98
REMARK SMILES IDX 30 99 28 100 29 101
REMARK H PARENT 3 7 89 25 57 36 7 75 18 86 23 95
REMARK Flexibility Score: inf
ROOT
ATOM      1  C   UNL A   1      31.567  30.826  25.840  1.00  0.00     0.117 C 
ENDROOT
BRANCH   1   2
ATOM      2  C   UNL A   1      31.386  32.187  26.492  1.00  0.00     0.042 C 
BRANCH   2   3
ATOM      3  C   UNL A   1      32.669  32.739  27.096  1.00  0.00     0.118 C 
BRANCH   3   4
ATOM      4  N   UNL A   1      32.496  34.082  27.633  1.00  0.00    -0.352 N 
ATOM      5  O   UNL A   1      32.674  35.791  29.078  1.00  0.00    -0.269 OA
ATOM      6  C   UNL A   1      33.117  34.716  28.680  1.00  0.00     0.251 C 
ATOM      7  H   UNL A   1      31.821  34.626  27.167  1.00  0.00     0.163 HD
BRANCH   6   8
ATOM      8  C   UNL A   1      34.304  34.126  29.341  1.00  0.00     0.039 A 
ATOM      9  C   UNL A   1      34.174  33.172  30.353  1.00  0.00     0.014 A 
ATOM     10  C   UNL A   1      35.579  34.483  28.886  1.00  0.00     0.014 A 
ATOM     11  C   UNL A   1      35.305  32.680  30.995  1.00  0.00     0.010 A 
ATOM     12  C   UNL A   1      36.718  33.919  29.472  1.00  0.00     0.010 A 
ATOM     13  C   UNL A   1      36.589  33.029  30.546  1.00  0.00    -0.014 A 
BRANCH  13  14
ATOM     14  C   UNL A   1      37.770  32.378  31.168  1.00  0.00     0.031 A 
ATOM     15  C   UNL A   1      38.215  32.730  32.558  1.00  0.00     0.074 A 
ATOM     16  C   UNL A   1      38.422  31.430  30.467  1.00  0.00     0.049 A 
ATOM     17  N   UNL A   1      39.197  32.221  33.259  1.00  0.00    -0.248 NA
ATOM     18  C   UNL A   1      37.471  33.792  33.251  1.00  0.00     0.031 C 
ATOM     19  C   UNL A   1      38.097  31.024  29.096  1.00  0.00     0.029 A 
ATOM     20  N   UNL A   1      39.472  30.617  30.812  1.00  0.00    -0.354 N 
ATOM     21  C   UNL A   1      39.205  32.914  34.462  1.00  0.00     0.074 A 
ATOM     22  C   UNL A   1      38.138  33.890  34.393  1.00  0.00     0.031 C 
ATOM     23  C   UNL A   1      38.891  30.006  28.738  1.00  0.00     0.029 A 
ATOM     24  C   UNL A   1      39.816  29.722  29.829  1.00  0.00     0.049 A 
ATOM     25  H   UNL A   1      39.933  30.671  31.679  1.00  0.00     0.167 HD
ATOM     26  C   UNL A   1      40.024  32.742  35.527  1.00  0.00     0.037 A 
ATOM     27  C   UNL A   1      40.776  28.779  29.804  1.00  0.00     0.037 A 
ATOM     28  C   UNL A   1      41.065  31.749  35.603  1.00  0.00     0.049 A 
ATOM     29  C   UNL A   1      41.657  28.603  31.006  1.00  0.00     0.074 A 
ATOM     30  C   UNL A   1      41.914  31.468  36.660  1.00  0.00     0.029 A 
ATOM     31  N   UNL A   1      41.397  30.872  34.581  1.00  0.00    -0.354 N 
ATOM     32  N   UNL A   1      41.628  29.241  32.151  1.00  0.00    -0.248 NA
ATOM     33  C   UNL A   1      42.708  27.583  30.912  1.00  0.00     0.031 C 
ATOM     34  C   UNL A   1      42.782  30.443  36.266  1.00  0.00     0.029 A 
ATOM     35  C   UNL A   1      42.450  30.063  34.976  1.00  0.00     0.049 A 
ATOM     36  H   UNL A   1      40.950  30.831  33.704  1.00  0.00     0.167 HD
ATOM     37  C   UNL A   1      42.650  28.700  32.913  1.00  0.00     0.074 A 
ATOM     38  C   UNL A   1      43.265  27.661  32.112  1.00  0.00     0.031 C 
ATOM     39  C   UNL A   1      43.051  29.040  34.161  1.00  0.00     0.037 A 
BRANCH  26  40
ATOM     40  C   UNL A   1      39.842  33.652  36.705  1.00  0.00     0.064 A 
ATOM     41  C   UNL A   1      40.495  34.890  36.782  1.00  0.00     0.173 A 
ATOM     42  C   UNL A   1      38.947  33.313  37.730  1.00  0.00     0.173 A 
ATOM     43  F   UNL A   1      41.368  35.254  35.831  1.00  0.00    -0.203 F 
ATOM     44  C   UNL A   1      40.265  35.753  37.851  1.00  0.00     0.198 A 
ATOM     45  C   UNL A   1      38.705  34.187  38.787  1.00  0.00     0.198 A 
ATOM     46  F   UNL A   1      38.294  32.142  37.698  1.00  0.00    -0.203 F 
ATOM     47  F   UNL A   1      40.916  36.923  37.918  1.00  0.00    -0.200 F 
ATOM     48  C   UNL A   1      39.364  35.405  38.847  1.00  0.00     0.200 A 
ATOM     49  F   UNL A   1      37.827  33.853  39.744  1.00  0.00    -0.200 F 
ATOM     50  F   UNL A   1      39.134  36.243  39.867  1.00  0.00    -0.200 F 
ENDBRANCH  26  40
BRANCH  27  51
ATOM     51  C   UNL A   1      40.947  27.934  28.597  1.00  0.00     0.064 A 
ATOM     52  C   UNL A   1      40.213  26.752  28.434  1.00  0.00     0.173 A 
ATOM     53  C   UNL A   1      41.834  28.300  27.574  1.00  0.00     0.173 A 
ATOM     54  F   UNL A   1      39.366  26.353  29.395  1.00  0.00    -0.203 F 
ATOM     55  C   UNL A   1      40.367  25.961  27.298  1.00  0.00     0.198 A 
ATOM     56  C   UNL A   1      41.968  27.523  26.427  1.00  0.00     0.198 A 
ATOM     57  F   UNL A   1      42.555  29.426  27.682  1.00  0.00    -0.203 F 
ATOM     58  F   UNL A   1      39.679  24.818  27.181  1.00  0.00    -0.200 F 
ATOM     59  C   UNL A   1      41.240  26.351  26.292  1.00  0.00     0.200 A 
ATOM     60  F   UNL A   1      42.800  27.911  25.451  1.00  0.00    -0.200 F 
ATOM     61  F   UNL A   1      41.381  25.595  25.195  1.00  0.00    -0.200 F 
ENDBRANCH  27  51
BRANCH  39  62
ATOM     62  C   UNL A   1      44.205  28.275  34.732  1.00  0.00     0.064 A 
ATOM     63  C   UNL A   1      44.009  27.071  35.423  1.00  0.00     0.173 A 
ATOM     64  C   UNL A   1      45.519  28.738  34.570  1.00  0.00     0.173 A 
ATOM     65  F   UNL A   1      42.769  26.599  35.617  1.00  0.00    -0.203 F 
ATOM     66  C   UNL A   1      45.088  26.367  35.950  1.00  0.00     0.198 A 
ATOM     67  C   UNL A   1      46.597  28.021  35.079  1.00  0.00     0.198 A 
ATOM     68  F   UNL A   1      45.755  29.885  33.914  1.00  0.00    -0.203 F 
ATOM     69  F   UNL A   1      44.877  25.239  36.643  1.00  0.00    -0.200 F 
ATOM     70  C   UNL A   1      46.380  26.840  35.773  1.00  0.00     0.200 A 
ATOM     71  F   UNL A   1      47.845  28.475  34.902  1.00  0.00    -0.200 F 
ATOM     72  F   UNL A   1      47.418  26.161  36.282  1.00  0.00    -0.200 F 
ENDBRANCH  39  62
ENDBRANCH  13  14
ENDBRANCH   6   8
ENDBRANCH   3   4
ENDBRANCH   2   3
ENDBRANCH   1   2
BRANCH   1  73
ATOM     73  N   UNL A   1      31.375  29.723  26.762  1.00  0.00    -0.356 N 
ATOM     74  C   UNL A   1      31.649  28.393  26.610  1.00  0.00     0.223 C 
ATOM     75  H   UNL A   1      30.989  29.971  27.633  1.00  0.00     0.163 HD
ATOM     76  O   UNL A   1      31.398  27.638  27.548  1.00  0.00    -0.275 OA
BRANCH  74  77
ATOM     77  C   UNL A   1      32.250  27.891  25.294  1.00  0.00     0.091 C 
ATOM     78  C   UNL A   1      33.739  28.278  25.241  1.00  0.00     0.014 C 
ATOM     79  C   UNL A   1      31.482  28.482  24.090  1.00  0.00     0.091 C 
ATOM     80  C   UNL A   1      34.373  27.952  23.895  1.00  0.00     0.001 C 
ATOM     81  C   UNL A   1      32.185  28.450  22.721  1.00  0.00     0.014 C 
ATOM     82  C   UNL A   1      33.683  28.719  22.778  1.00  0.00     0.001 C 
BRANCH  79  83
ATOM     83  C   UNL A   1      30.041  27.999  23.960  1.00  0.00     0.228 C 
ATOM     84  O   UNL A   1      29.166  28.823  23.658  1.00  0.00    -0.274 OA
ATOM     85  N   UNL A   1      29.594  26.724  24.131  1.00  0.00    -0.326 N 
ATOM     86  H   UNL A   1      28.653  26.637  23.856  1.00  0.00     0.169 HD
BRANCH  85  87
ATOM     87  C   UNL A   1      30.106  25.497  24.592  1.00  0.00     0.041 A 
ATOM     88  C   UNL A   1      30.616  24.633  23.617  1.00  0.00     0.028 A 
ATOM     89  C   UNL A   1      30.111  25.052  25.907  1.00  0.00     0.028 A 
ATOM     90  C   UNL A   1      31.165  23.392  23.964  1.00  0.00     0.028 A 
ATOM     91  C   UNL A   1      30.628  23.801  26.260  1.00  0.00     0.028 A 
ATOM     92  C   UNL A   1      31.213  22.989  25.298  1.00  0.00     0.041 A 
BRANCH  92  93
ATOM     93  N   UNL A   1      31.805  21.797  25.739  1.00  0.00    -0.319 N 
ATOM     94  C   UNL A   1      33.117  21.375  25.662  1.00  0.00     0.291 C 
ATOM     95  H   UNL A   1      31.188  21.162  26.172  1.00  0.00     0.170 HD
ATOM     96  O   UNL A   1      33.348  20.182  25.869  1.00  0.00    -0.265 OA
BRANCH  94  97
ATOM     97  C   UNL A   1      34.156  22.360  25.455  1.00  0.00     0.191 A 
ATOM     98  C   UNL A   1      34.544  23.472  26.186  1.00  0.00     0.056 A 
ATOM     99  O   UNL A   1      34.947  22.253  24.344  1.00  0.00    -0.459 OA
ATOM    100  C   UNL A   1      35.586  24.094  25.461  1.00  0.00     0.043 A 
ATOM    101  C   UNL A   1      35.795  23.313  24.350  1.00  0.00     0.196 A 
ENDBRANCH  94  97
ENDBRANCH  92  93
ENDBRANCH  85  87
ENDBRANCH  79  83
ENDBRANCH  74  77
ENDBRANCH   1  73
TORSDOF 14
ENDMDL
MODEL 3
REMARK VINA RESULT:     -12.6      4.699     10.533
REMARK SMILES O=C(NCCCNC(=O)[C@@H]1CCCC[C@H]1C(=O)Nc1ccc(NC(=O)c2ccco2)cc1)c1ccc(-c2c3nc(c(-c4c(F)c(F)c(F)c(F)c4F)c4ccc([nH]4)c(-c4c(F)c(F)c(F)c(F)c4F)c4nc(c(-c5c(F)c(F)c(F)c(F)c5F)c5ccc2[nH]5)C=C4)C=C3)cc1
REMARK SMILES IDX 6 1 5 2 4 3 3 4 1 5 2 6 33 8 34 9 95 10 35 11 94 12 36 13
REMARK SMILES IDX 37 14 38 15 88 16 39 17 93 18 87 19 89 20 40 21 92 22 86 23
REMARK SMILES IDX 85 24 41 26 73 27 53 28 72 29 54 30 57 31 71 32 90 33 55 34
REMARK SMILES IDX 56 35 70 37 91 38 58 39 42 40 43 41 51 42 44 43 45 44 49 45
REMARK SMILES IDX 52 46 46 47 47 48 50 49 48 50 74 51 75 52 83 53 76 54 77 55
REMARK SMILES IDX 81 56 84 57 78 58 79 59 82 60 80 61 59 62 60 63 68 64 61 65
REMARK SMILES IDX 62 66 66 67 69 68 63 69 64 70 67 71 65 72 7 73 8 74 9 76
REMARK SMILES IDX 10 77 11 78 15 79 12 80 14 81 13 82 16 83 17 84 18 85 19 87
REMARK SMILES IDX 20 88 32 89 21 90 31 91 22 92 23 93 24 94 25 96 26 97 27 98
REMARK SMILES IDX 30 99 28 100 29 101
REMARK H PARENT 3 7 89 25 57 36 7 75 18 86 23 95
REMARK Flexibility Score: inf
ROOT
ATOM      1  C   UNL A   1      36.526  20.566  25.003  1.00  0.00     0.117 C 
ENDROOT
BRANCH   1   2
ATOM      2  C   UNL A   1      37.763  19.682  24.982  1.00  0.00     0.042 C 
BRANCH   2   3
ATOM      3  C   UNL A   1      38.923  20.254  25.783  1.00  0.00     0.118 C 
BRANCH   3   4
ATOM      4  N   UNL A   1      40.051  19.334  25.860  1.00  0.00    -0.352 N 
ATOM      5  O   UNL A   1      42.188  18.648  25.858  1.00  0.00    -0.269 OA
ATOM      6  C   UNL A   1      41.394  19.573  26.013  1.00  0.00     0.251 C 
ATOM      7  H   UNL A   1      39.809  18.383  25.791  1.00  0.00     0.163 HD
BRANCH   6   8
ATOM      8  C   UNL A   1      41.901  20.923  26.352  1.00  0.00     0.039 A 
ATOM      9  C   UNL A   1      42.054  21.909  25.376  1.00  0.00     0.014 A 
ATOM     10  C   UNL A   1      42.161  21.230  27.693  1.00  0.00     0.014 A 
ATOM     11  C   UNL A   1      42.589  23.147  25.715  1.00  0.00     0.010 A 
ATOM     12  C   UNL A   1      42.613  22.506  28.047  1.00  0.00     0.010 A 
ATOM     13  C   UNL A   1      42.851  23.468  27.057  1.00  0.00    -0.014 A 
BRANCH  13  14
ATOM     14  C   UNL A   1      43.291  24.845  27.394  1.00  0.00     0.031 A 
ATOM     15  C   UNL A   1      44.682  25.318  27.086  1.00  0.00     0.074 A 
ATOM     16  C   UNL A   1      42.399  25.683  27.957  1.00  0.00     0.049 A 
ATOM     17  N   UNL A   1      45.208  26.503  27.276  1.00  0.00    -0.248 NA
ATOM     18  C   UNL A   1      45.608  24.341  26.495  1.00  0.00     0.031 C 
ATOM     19  C   UNL A   1      41.027  25.325  28.329  1.00  0.00     0.029 A 
ATOM     20  N   UNL A   1      42.497  27.009  28.293  1.00  0.00    -0.354 N 
ATOM     21  C   UNL A   1      46.526  26.408  26.852  1.00  0.00     0.074 A 
ATOM     22  C   UNL A   1      46.728  25.045  26.407  1.00  0.00     0.031 C 
ATOM     23  C   UNL A   1      40.396  26.415  28.788  1.00  0.00     0.029 A 
ATOM     24  C   UNL A   1      41.331  27.534  28.796  1.00  0.00     0.049 A 
ATOM     25  H   UNL A   1      43.322  27.534  28.185  1.00  0.00     0.167 HD
ATOM     26  C   UNL A   1      47.475  27.373  26.832  1.00  0.00     0.037 A 
ATOM     27  C   UNL A   1      41.046  28.778  29.223  1.00  0.00     0.037 A 
ATOM     28  C   UNL A   1      47.261  28.736  27.248  1.00  0.00     0.049 A 
ATOM     29  C   UNL A   1      42.116  29.829  29.172  1.00  0.00     0.074 A 
ATOM     30  C   UNL A   1      48.150  29.797  27.218  1.00  0.00     0.029 A 
ATOM     31  N   UNL A   1      46.073  29.226  27.769  1.00  0.00    -0.354 N 
ATOM     32  N   UNL A   1      43.347  29.733  28.734  1.00  0.00    -0.248 NA
ATOM     33  C   UNL A   1      41.760  31.160  29.681  1.00  0.00     0.031 C 
ATOM     34  C   UNL A   1      47.510  30.922  27.751  1.00  0.00     0.029 A 
ATOM     35  C   UNL A   1      46.212  30.569  28.081  1.00  0.00     0.049 A 
ATOM     36  H   UNL A   1      45.252  28.697  27.898  1.00  0.00     0.167 HD
ATOM     37  C   UNL A   1      43.912  30.986  28.911  1.00  0.00     0.074 A 
ATOM     38  C   UNL A   1      42.880  31.835  29.470  1.00  0.00     0.031 C 
ATOM     39  C   UNL A   1      45.175  31.394  28.642  1.00  0.00     0.037 A 
BRANCH  26  40
ATOM     40  C   UNL A   1      48.845  26.999  26.350  1.00  0.00     0.064 A 
ATOM     41  C   UNL A   1      49.807  26.465  27.220  1.00  0.00     0.173 A 
ATOM     42  C   UNL A   1      49.172  27.106  24.991  1.00  0.00     0.173 A 
ATOM     43  F   UNL A   1      49.544  26.353  28.530  1.00  0.00    -0.203 F 
ATOM     44  C   UNL A   1      51.053  26.061  26.745  1.00  0.00     0.198 A 
ATOM     45  C   UNL A   1      50.412  26.682  24.517  1.00  0.00     0.198 A 
ATOM     46  F   UNL A   1      48.284  27.605  24.118  1.00  0.00    -0.203 F 
ATOM     47  F   UNL A   1      51.967  25.574  27.597  1.00  0.00    -0.200 F 
ATOM     48  C   UNL A   1      51.350  26.162  25.394  1.00  0.00     0.200 A 
ATOM     49  F   UNL A   1      50.694  26.772  23.210  1.00  0.00    -0.200 F 
ATOM     50  F   UNL A   1      52.544  25.759  24.938  1.00  0.00    -0.200 F 
ENDBRANCH  26  40
BRANCH  27  51
ATOM     51  C   UNL A   1      39.688  29.087  29.734  1.00  0.00     0.064 A 
ATOM     52  C   UNL A   1      39.394  29.002  31.101  1.00  0.00     0.173 A 
ATOM     53  C   UNL A   1      38.662  29.492  28.868  1.00  0.00     0.173 A 
ATOM     54  F   UNL A   1      40.340  28.601  31.964  1.00  0.00    -0.203 F 
ATOM     55  C   UNL A   1      38.122  29.299  31.582  1.00  0.00     0.198 A 
ATOM     56  C   UNL A   1      37.398  29.814  29.352  1.00  0.00     0.198 A 
ATOM     57  F   UNL A   1      38.896  29.594  27.551  1.00  0.00    -0.203 F 
ATOM     58  F   UNL A   1      37.857  29.176  32.890  1.00  0.00    -0.200 F 
ATOM     59  C   UNL A   1      37.126  29.711  30.709  1.00  0.00     0.200 A 
ATOM     60  F   UNL A   1      36.443  30.227  28.507  1.00  0.00    -0.200 F 
ATOM     61  F   UNL A   1      35.905  30.006  31.173  1.00  0.00    -0.200 F 
ENDBRANCH  27  51
BRANCH  39  62
ATOM     62  C   UNL A   1      45.503  32.823  28.949  1.00  0.00     0.064 A 
ATOM     63  C   UNL A   1      46.053  33.193  30.185  1.00  0.00     0.173 A 
ATOM     64  C   UNL A   1      45.286  33.826  27.994  1.00  0.00     0.173 A 
ATOM     65  F   UNL A   1      46.261  32.269  31.135  1.00  0.00    -0.203 F 
ATOM     66  C   UNL A   1      46.356  34.523  30.461  1.00  0.00     0.198 A 
ATOM     67  C   UNL A   1      45.610  35.152  28.265  1.00  0.00     0.198 A 
ATOM     68  F   UNL A   1      44.764  33.518  26.797  1.00  0.00    -0.203 F 
ATOM     69  F   UNL A   1      46.841  34.864  31.663  1.00  0.00    -0.200 F 
ATOM     70  C   UNL A   1      46.138  35.500  29.500  1.00  0.00     0.200 A 
ATOM     71  F   UNL A   1      45.406  36.094  27.334  1.00  0.00    -0.200 F 
ATOM     72  F   UNL A   1      46.429  36.781  29.768  1.00  0.00    -0.200 F 
ENDBRANCH  39  62
ENDBRANCH  13  14
ENDBRANCH   6   8
ENDBRANCH   3   4
ENDBRANCH   2   3
ENDBRANCH   1   2
BRANCH   1  73
ATOM     73  N   UNL A   1      36.512  21.550  23.936  1.00  0.00    -0.356 N 
ATOM     74  C   UNL A   1      35.697  22.630  23.749  1.00  0.00     0.223 C 
ATOM     75  H   UNL A   1      37.196  21.418  23.240  1.00  0.00     0.163 HD
ATOM     76  O   UNL A   1      35.881  23.330  22.755  1.00  0.00    -0.275 OA
BRANCH  74  77
ATOM     77  C   UNL A   1      34.594  22.930  24.768  1.00  0.00     0.091 C 
ATOM     78  C   UNL A   1      35.236  23.178  26.145  1.00  0.00     0.014 C 
ATOM     79  C   UNL A   1      33.584  21.762  24.829  1.00  0.00     0.091 C 
ATOM     80  C   UNL A   1      34.195  23.330  27.247  1.00  0.00     0.001 C 
ATOM     81  C   UNL A   1      32.677  21.679  26.071  1.00  0.00     0.014 C 
ATOM     82  C   UNL A   1      33.361  22.064  27.376  1.00  0.00     0.001 C 
BRANCH  79  83
ATOM     83  C   UNL A   1      32.766  21.565  23.557  1.00  0.00     0.228 C 
ATOM     84  O   UNL A   1      32.822  20.469  22.982  1.00  0.00    -0.274 OA
ATOM     85  N   UNL A   1      31.946  22.480  22.971  1.00  0.00    -0.326 N 
ATOM     86  H   UNL A   1      31.421  22.074  22.244  1.00  0.00     0.169 HD
BRANCH  85  87
ATOM     87  C   UNL A   1      31.641  23.846  23.117  1.00  0.00     0.041 A 
ATOM     88  C   UNL A   1      32.448  24.741  22.406  1.00  0.00     0.028 A 
ATOM     89  C   UNL A   1      30.651  24.383  23.928  1.00  0.00     0.028 A 
ATOM     90  C   UNL A   1      32.224  26.122  22.464  1.00  0.00     0.028 A 
ATOM     91  C   UNL A   1      30.439  25.763  24.018  1.00  0.00     0.028 A 
ATOM     92  C   UNL A   1      31.186  26.637  23.240  1.00  0.00     0.041 A 
BRANCH  92  93
ATOM     93  N   UNL A   1      30.850  27.997  23.302  1.00  0.00    -0.319 N 
ATOM     94  C   UNL A   1      31.096  28.929  24.290  1.00  0.00     0.291 C 
ATOM     95  H   UNL A   1      30.363  28.341  22.518  1.00  0.00     0.170 HD
ATOM     96  O   UNL A   1      30.470  29.990  24.246  1.00  0.00    -0.265 OA
BRANCH  94  97
ATOM     97  C   UNL A   1      32.144  28.665  25.253  1.00  0.00     0.191 A 
ATOM     98  C   UNL A   1      33.515  28.517  25.118  1.00  0.00     0.056 A 
ATOM     99  O   UNL A   1      31.800  28.509  26.568  1.00  0.00    -0.459 OA
ATOM    100  C   UNL A   1      34.020  28.211  26.403  1.00  0.00     0.043 A 
ATOM    101  C   UNL A   1      32.938  28.220  27.249  1.00  0.00     0.196 A 
ENDBRANCH  94  97
ENDBRANCH  92  93
ENDBRANCH  85  87
ENDBRANCH  79  83
ENDBRANCH  74  77
ENDBRANCH   1  73
TORSDOF 14
ENDMDL
