MODEL 1
REMARK VINA RESULT:     -11.2      0.000      0.000
REMARK SMILES COc1cc(C(=O)CCC(=O)NCCCNC(=O)c2ccc(-c3c4nc(c(-c5c(F)c(F)c(F)c(F)c5F)c5ccc([nH]5)c(-c5c(F)c(F)c(F)c(F)c5F)c5nc(c(-c6c(F)c(F)c(F)c(F)c6F)c6ccc3[nH]6)C=C5)C=C4)cc2)cc(OC)c1OC
REMARK SMILES IDX 13 1 12 2 10 3 11 4 9 6 8 7 6 8 7 9 5 10 3 11 4 12 86 13
REMARK SMILES IDX 83 14 82 15 2 16 1 17 87 18 88 19 84 20 85 21 14 22 15 23
REMARK SMILES IDX 16 24 17 25 18 27 19 28 20 29 81 30 21 31 80 32 22 33 23 34
REMARK SMILES IDX 24 35 74 36 25 37 79 38 73 39 75 40 26 41 78 42 72 43 71 44
REMARK SMILES IDX 27 46 59 47 39 48 58 49 40 50 43 51 57 52 76 53 41 54 42 55
REMARK SMILES IDX 56 57 77 58 44 59 28 60 29 61 37 62 30 63 31 64 35 65 38 66
REMARK SMILES IDX 32 67 33 68 36 69 34 70 60 71 61 72 69 73 62 74 63 75 67 76
REMARK SMILES IDX 70 77 64 78 65 79 68 80 66 81 45 82 46 83 54 84 47 85 48 86
REMARK SMILES IDX 52 87 55 88 49 89 50 90 53 91 51 92
REMARK H PARENT 12 5 16 26 75 45 43 56
REMARK Flexibility Score: inf
ROOT
ATOM      1  C   UNL A   1      31.831  30.699  26.109  1.00  0.00     0.117 C 
ENDROOT
BRANCH   1   2
ATOM      2  N   UNL A   1      31.136  30.463  24.839  1.00  0.00    -0.356 N 
ATOM      3  C   UNL A   1      30.833  29.322  24.164  1.00  0.00     0.220 C 
ATOM      4  O   UNL A   1      30.289  29.421  23.063  1.00  0.00    -0.275 OA
ATOM      5  H   UNL A   1      30.830  31.286  24.391  1.00  0.00     0.163 HD
BRANCH   3   6
ATOM      6  C   UNL A   1      31.185  27.967  24.731  1.00  0.00     0.108 C 
BRANCH   6   7
ATOM      7  C   UNL A   1      32.605  27.571  24.335  1.00  0.00     0.091 C 
BRANCH   7   8
ATOM      8  C   UNL A   1      33.366  27.064  25.546  1.00  0.00     0.163 C 
ATOM      9  O   UNL A   1      34.012  27.853  26.240  1.00  0.00    -0.294 OA
BRANCH   8  10
ATOM     10  C   UNL A   1      33.449  25.599  25.846  1.00  0.00     0.025 A 
ATOM     11  C   UNL A   1      32.390  23.654  26.905  1.00  0.00     0.165 A 
ATOM     12  C   UNL A   1      32.352  24.989  26.471  1.00  0.00     0.062 A 
ATOM     13  C   UNL A   1      33.486  22.855  26.589  1.00  0.00     0.203 A 
ATOM     14  C   UNL A   1      34.593  23.479  25.981  1.00  0.00     0.165 A 
ATOM     15  C   UNL A   1      34.579  24.829  25.604  1.00  0.00     0.062 A 
BRANCH  11  16
ATOM     16  O   UNL A   1      31.294  23.187  27.576  1.00  0.00    -0.493 OA
ATOM     17  C   UNL A   1      30.191  22.939  26.696  1.00  0.00     0.278 C 
ENDBRANCH  11  16
BRANCH  13  18
ATOM     18  O   UNL A   1      33.584  21.497  26.712  1.00  0.00    -0.490 OA
ATOM     19  C   UNL A   1      33.132  20.652  25.673  1.00  0.00     0.278 C 
ENDBRANCH  13  18
BRANCH  14  20
ATOM     20  O   UNL A   1      35.769  22.819  25.708  1.00  0.00    -0.493 OA
ATOM     21  C   UNL A   1      36.880  23.717  25.647  1.00  0.00     0.278 C 
ENDBRANCH  14  20
ENDBRANCH   8  10
ENDBRANCH   7   8
ENDBRANCH   6   7
ENDBRANCH   3   6
ENDBRANCH   1   2
BRANCH   1  22
ATOM     22  C   UNL A   1      31.402  32.029  26.748  1.00  0.00     0.042 C 
BRANCH  22  23
ATOM     23  C   UNL A   1      32.519  33.022  27.094  1.00  0.00     0.118 C 
BRANCH  23  24
ATOM     24  N   UNL A   1      32.121  34.132  27.950  1.00  0.00    -0.352 N 
ATOM     25  C   UNL A   1      32.909  35.061  28.611  1.00  0.00     0.251 C 
ATOM     26  H   UNL A   1      31.152  34.237  28.079  1.00  0.00     0.163 HD
ATOM     27  O   UNL A   1      32.509  36.224  28.663  1.00  0.00    -0.269 OA
BRANCH  25  28
ATOM     28  C   UNL A   1      34.164  34.722  29.349  1.00  0.00     0.039 A 
ATOM     29  C   UNL A   1      34.106  34.181  30.647  1.00  0.00     0.014 A 
ATOM     30  C   UNL A   1      35.388  34.687  28.689  1.00  0.00     0.014 A 
ATOM     31  C   UNL A   1      35.253  33.630  31.274  1.00  0.00     0.010 A 
ATOM     32  C   UNL A   1      36.540  34.185  29.331  1.00  0.00     0.010 A 
ATOM     33  C   UNL A   1      36.493  33.615  30.620  1.00  0.00    -0.014 A 
BRANCH  33  34
ATOM     34  C   UNL A   1      37.688  32.853  31.133  1.00  0.00     0.031 A 
ATOM     35  C   UNL A   1      38.221  31.585  30.506  1.00  0.00     0.074 A 
ATOM     36  C   UNL A   1      38.269  33.271  32.278  1.00  0.00     0.049 A 
ATOM     37  N   UNL A   1      39.227  30.831  30.896  1.00  0.00    -0.248 NA
ATOM     38  C   UNL A   1      37.550  31.093  29.297  1.00  0.00     0.031 C 
ATOM     39  C   UNL A   1      37.893  34.477  33.016  1.00  0.00     0.029 A 
ATOM     40  N   UNL A   1      39.246  32.697  33.060  1.00  0.00    -0.354 N 
ATOM     41  C   UNL A   1      39.329  29.796  29.974  1.00  0.00     0.074 A 
ATOM     42  C   UNL A   1      38.256  30.000  29.019  1.00  0.00     0.031 C 
ATOM     43  C   UNL A   1      38.537  34.491  34.193  1.00  0.00     0.029 A 
ATOM     44  C   UNL A   1      39.403  33.318  34.276  1.00  0.00     0.049 A 
ATOM     45  H   UNL A   1      39.779  31.920  32.777  1.00  0.00     0.167 HD
ATOM     46  C   UNL A   1      40.235  28.782  29.921  1.00  0.00     0.037 A 
ATOM     47  C   UNL A   1      40.145  32.994  35.353  1.00  0.00     0.037 A 
ATOM     48  C   UNL A   1      41.295  28.552  30.879  1.00  0.00     0.049 A 
ATOM     49  C   UNL A   1      41.094  31.835  35.307  1.00  0.00     0.074 A 
ATOM     50  C   UNL A   1      42.325  27.623  30.822  1.00  0.00     0.029 A 
ATOM     51  N   UNL A   1      41.441  29.221  32.083  1.00  0.00    -0.354 N 
ATOM     52  N   UNL A   1      41.285  30.966  34.348  1.00  0.00    -0.248 NA
ATOM     53  C   UNL A   1      41.970  31.642  36.473  1.00  0.00     0.031 C 
ATOM     54  C   UNL A   1      43.055  27.688  32.015  1.00  0.00     0.029 A 
ATOM     55  C   UNL A   1      42.515  28.696  32.793  1.00  0.00     0.049 A 
ATOM     56  H   UNL A   1      40.868  29.960  32.391  1.00  0.00     0.167 HD
ATOM     57  C   UNL A   1      42.337  30.164  34.765  1.00  0.00     0.074 A 
ATOM     58  C   UNL A   1      42.731  30.632  36.076  1.00  0.00     0.031 C 
ATOM     59  C   UNL A   1      42.933  29.149  34.094  1.00  0.00     0.037 A 
BRANCH  46  60
ATOM     60  C   UNL A   1      40.163  27.818  28.766  1.00  0.00     0.064 A 
ATOM     61  C   UNL A   1      40.854  28.064  27.570  1.00  0.00     0.173 A 
ATOM     62  C   UNL A   1      39.528  26.573  28.910  1.00  0.00     0.173 A 
ATOM     63  F   UNL A   1      41.490  29.231  27.387  1.00  0.00    -0.203 F 
ATOM     64  C   UNL A   1      40.901  27.109  26.557  1.00  0.00     0.198 A 
ATOM     65  C   UNL A   1      39.598  25.611  27.904  1.00  0.00     0.198 A 
ATOM     66  F   UNL A   1      38.876  26.272  30.043  1.00  0.00    -0.203 F 
ATOM     67  F   UNL A   1      41.556  27.372  25.419  1.00  0.00    -0.200 F 
ATOM     68  C   UNL A   1      40.281  25.879  26.728  1.00  0.00     0.200 A 
ATOM     69  F   UNL A   1      39.018  24.414  28.080  1.00  0.00    -0.200 F 
ATOM     70  F   UNL A   1      40.348  24.953  25.762  1.00  0.00    -0.200 F 
ENDBRANCH  46  60
BRANCH  47  71
ATOM     71  C   UNL A   1      40.038  33.834  36.569  1.00  0.00     0.064 A 
ATOM     72  C   UNL A   1      40.838  34.971  36.729  1.00  0.00     0.173 A 
ATOM     73  C   UNL A   1      39.100  33.538  37.569  1.00  0.00     0.173 A 
ATOM     74  F   UNL A   1      41.760  35.275  35.805  1.00  0.00    -0.203 F 
ATOM     75  C   UNL A   1      40.705  35.786  37.850  1.00  0.00     0.198 A 
ATOM     76  C   UNL A   1      38.957  34.363  38.681  1.00  0.00     0.198 A 
ATOM     77  F   UNL A   1      38.314  32.458  37.454  1.00  0.00    -0.203 F 
ATOM     78  F   UNL A   1      41.495  36.859  37.992  1.00  0.00    -0.200 F 
ATOM     79  C   UNL A   1      39.760  35.486  38.821  1.00  0.00     0.200 A 
ATOM     80  F   UNL A   1      38.039  34.076  39.615  1.00  0.00    -0.200 F 
ATOM     81  F   UNL A   1      39.626  36.278  39.893  1.00  0.00    -0.200 F 
ENDBRANCH  47  71
BRANCH  59  82
ATOM     82  C   UNL A   1      44.128  28.500  34.730  1.00  0.00     0.064 A 
ATOM     83  C   UNL A   1      44.013  27.353  35.528  1.00  0.00     0.173 A 
ATOM     84  C   UNL A   1      45.413  29.022  34.513  1.00  0.00     0.173 A 
ATOM     85  F   UNL A   1      42.807  26.826  35.782  1.00  0.00    -0.203 F 
ATOM     86  C   UNL A   1      45.139  26.762  36.099  1.00  0.00     0.198 A 
ATOM     87  C   UNL A   1      46.538  28.416  35.067  1.00  0.00     0.198 A 
ATOM     88  F   UNL A   1      45.579  30.118  33.758  1.00  0.00    -0.203 F 
ATOM     89  F   UNL A   1      45.003  25.687  36.888  1.00  0.00    -0.200 F 
ATOM     90  C   UNL A   1      46.401  27.289  35.862  1.00  0.00     0.200 A 
ATOM     91  F   UNL A   1      47.756  28.924  34.833  1.00  0.00    -0.200 F 
ATOM     92  F   UNL A   1      47.482  26.716  36.409  1.00  0.00    -0.200 F 
ENDBRANCH  59  82
ENDBRANCH  33  34
ENDBRANCH  25  28
ENDBRANCH  23  24
ENDBRANCH  22  23
ENDBRANCH   1  22
TORSDOF 16
ENDMDL
MODEL 2
REMARK VINA RESULT:     -11.2      5.006     10.286
REMARK SMILES COc1cc(C(=O)CCC(=O)NCCCNC(=O)c2ccc(-c3c4nc(c(-c5c(F)c(F)c(F)c(F)c5F)c5ccc([nH]5)c(-c5c(F)c(F)c(F)c(F)c5F)c5nc(c(-c6c(F)c(F)c(F)c(F)c6F)c6ccc3[nH]6)C=C5)C=C4)cc2)cc(OC)c1OC
REMARK SMILES IDX 13 1 12 2 10 3 11 4 9 6 8 7 6 8 7 9 5 10 3 11 4 12 86 13
REMARK SMILES IDX 83 14 82 15 2 16 1 17 87 18 88 19 84 20 85 21 14 22 15 23
REMARK SMILES IDX 16 24 17 25 18 27 19 28 20 29 81 30 21 31 80 32 22 33 23 34
REMARK SMILES IDX 24 35 74 36 25 37 79 38 73 39 75 40 26 41 78 42 72 43 71 44
REMARK SMILES IDX 27 46 59 47 39 48 58 49 40 50 43 51 57 52 76 53 41 54 42 55
REMARK SMILES IDX 56 57 77 58 44 59 28 60 29 61 37 62 30 63 31 64 35 65 38 66
REMARK SMILES IDX 32 67 33 68 36 69 34 70 60 71 61 72 69 73 62 74 63 75 67 76
REMARK SMILES IDX 70 77 64 78 65 79 68 80 66 81 45 82 46 83 54 84 47 85 48 86
REMARK SMILES IDX 52 87 55 88 49 89 50 90 53 91 51 92
REMARK H PARENT 12 5 16 26 75 45 43 56
REMARK Flexibility Score: inf
ROOT
ATOM      1  C   UNL A   1      46.992  26.064  31.928  1.00  0.00     0.117 C 
ENDROOT
BRANCH   1   2
ATOM      2  N   UNL A   1      47.184  26.723  30.632  1.00  0.00    -0.356 N 
ATOM      3  C   UNL A   1      46.876  26.343  29.363  1.00  0.00     0.220 C 
ATOM      4  O   UNL A   1      47.217  27.078  28.434  1.00  0.00    -0.275 OA
ATOM      5  H   UNL A   1      47.617  27.606  30.692  1.00  0.00     0.163 HD
BRANCH   3   6
ATOM      6  C   UNL A   1      46.164  25.039  29.093  1.00  0.00     0.108 C 
BRANCH   6   7
ATOM      7  C   UNL A   1      45.518  25.055  27.710  1.00  0.00     0.091 C 
BRANCH   7   8
ATOM      8  C   UNL A   1      46.109  23.960  26.842  1.00  0.00     0.163 C 
ATOM      9  O   UNL A   1      47.263  24.065  26.420  1.00  0.00    -0.294 OA
BRANCH   8  10
ATOM     10  C   UNL A   1      45.272  22.804  26.384  1.00  0.00     0.025 A 
ATOM     11  C   UNL A   1      43.109  21.652  26.515  1.00  0.00     0.165 A 
ATOM     12  C   UNL A   1      43.931  22.758  26.788  1.00  0.00     0.062 A 
ATOM     13  C   UNL A   1      43.579  20.626  25.698  1.00  0.00     0.203 A 
ATOM     14  C   UNL A   1      44.934  20.668  25.314  1.00  0.00     0.165 A 
ATOM     15  C   UNL A   1      45.772  21.743  25.641  1.00  0.00     0.062 A 
BRANCH  11  16
ATOM     16  O   UNL A   1      41.842  21.678  27.028  1.00  0.00    -0.493 OA
ATOM     17  C   UNL A   1      41.786  22.361  28.286  1.00  0.00     0.278 C 
ENDBRANCH  11  16
BRANCH  13  18
ATOM     18  O   UNL A   1      42.850  19.616  25.136  1.00  0.00    -0.490 OA
ATOM     19  C   UNL A   1      42.455  18.503  25.914  1.00  0.00     0.278 C 
ENDBRANCH  13  18
BRANCH  14  20
ATOM     20  O   UNL A   1      45.539  19.667  24.590  1.00  0.00    -0.493 OA
ATOM     21  C   UNL A   1      46.404  18.872  25.405  1.00  0.00     0.278 C 
ENDBRANCH  14  20
ENDBRANCH   8  10
ENDBRANCH   7   8
ENDBRANCH   6   7
ENDBRANCH   3   6
ENDBRANCH   1   2
BRANCH   1  22
ATOM     22  C   UNL A   1      48.326  25.574  32.514  1.00  0.00     0.042 C 
BRANCH  22  23
ATOM     23  C   UNL A   1      48.246  24.547  33.650  1.00  0.00     0.118 C 
BRANCH  23  24
ATOM     24  N   UNL A   1      48.383  25.094  34.994  1.00  0.00    -0.352 N 
ATOM     25  C   UNL A   1      47.401  25.446  35.906  1.00  0.00     0.251 C 
ATOM     26  H   UNL A   1      49.308  25.235  35.298  1.00  0.00     0.163 HD
ATOM     27  O   UNL A   1      47.606  25.204  37.096  1.00  0.00    -0.269 OA
BRANCH  25  28
ATOM     28  C   UNL A   1      46.154  26.188  35.551  1.00  0.00     0.039 A 
ATOM     29  C   UNL A   1      46.209  27.547  35.190  1.00  0.00     0.014 A 
ATOM     30  C   UNL A   1      44.965  25.506  35.316  1.00  0.00     0.014 A 
ATOM     31  C   UNL A   1      45.092  28.211  34.620  1.00  0.00     0.010 A 
ATOM     32  C   UNL A   1      43.838  26.177  34.796  1.00  0.00     0.010 A 
ATOM     33  C   UNL A   1      43.885  27.531  34.406  1.00  0.00    -0.014 A 
BRANCH  33  34
ATOM     34  C   UNL A   1      42.743  28.109  33.608  1.00  0.00     0.031 A 
ATOM     35  C   UNL A   1      42.580  27.943  32.114  1.00  0.00     0.074 A 
ATOM     36  C   UNL A   1      41.855  28.902  34.246  1.00  0.00     0.049 A 
ATOM     37  N   UNL A   1      41.646  28.435  31.327  1.00  0.00    -0.248 NA
ATOM     38  C   UNL A   1      43.581  27.135  31.409  1.00  0.00     0.031 C 
ATOM     39  C   UNL A   1      41.852  29.168  35.685  1.00  0.00     0.029 A 
ATOM     40  N   UNL A   1      40.831  29.685  33.764  1.00  0.00    -0.354 N 
ATOM     41  C   UNL A   1      41.928  27.977  30.045  1.00  0.00     0.074 A 
ATOM     42  C   UNL A   1      43.144  27.193  30.154  1.00  0.00     0.031 C 
ATOM     43  C   UNL A   1      40.963  30.135  35.950  1.00  0.00     0.029 A 
ATOM     44  C   UNL A   1      40.301  30.529  34.709  1.00  0.00     0.049 A 
ATOM     45  H   UNL A   1      40.510  29.645  32.834  1.00  0.00     0.167 HD
ATOM     46  C   UNL A   1      41.234  28.181  28.892  1.00  0.00     0.037 A 
ATOM     47  C   UNL A   1      39.395  31.521  34.611  1.00  0.00     0.037 A 
ATOM     48  C   UNL A   1      40.034  28.979  28.763  1.00  0.00     0.049 A 
ATOM     49  C   UNL A   1      38.682  31.780  33.318  1.00  0.00     0.074 A 
ATOM     50  C   UNL A   1      39.209  29.127  27.657  1.00  0.00     0.029 A 
ATOM     51  N   UNL A   1      39.510  29.796  29.751  1.00  0.00    -0.354 N 
ATOM     52  N   UNL A   1      38.859  31.212  32.154  1.00  0.00    -0.248 NA
ATOM     53  C   UNL A   1      37.604  32.782  33.339  1.00  0.00     0.031 C 
ATOM     54  C   UNL A   1      38.224  30.077  27.955  1.00  0.00     0.029 A 
ATOM     55  C   UNL A   1      38.401  30.480  29.266  1.00  0.00     0.049 A 
ATOM     56  H   UNL A   1      39.869  29.880  30.664  1.00  0.00     0.167 HD
ATOM     57  C   UNL A   1      37.883  31.739  31.321  1.00  0.00     0.074 A 
ATOM     58  C   UNL A   1      37.128  32.692  32.105  1.00  0.00     0.031 C 
ATOM     59  C   UNL A   1      37.628  31.427  30.027  1.00  0.00     0.037 A 
BRANCH  46  60
ATOM     60  C   UNL A   1      41.724  27.510  27.635  1.00  0.00     0.064 A 
ATOM     61  C   UNL A   1      42.827  28.011  26.927  1.00  0.00     0.173 A 
ATOM     62  C   UNL A   1      41.188  26.278  27.225  1.00  0.00     0.173 A 
ATOM     63  F   UNL A   1      43.386  29.176  27.287  1.00  0.00    -0.203 F 
ATOM     64  C   UNL A   1      43.365  27.313  25.848  1.00  0.00     0.198 A 
ATOM     65  C   UNL A   1      41.745  25.572  26.160  1.00  0.00     0.198 A 
ATOM     66  F   UNL A   1      40.151  25.737  27.882  1.00  0.00    -0.203 F 
ATOM     67  F   UNL A   1      44.410  27.819  25.179  1.00  0.00    -0.200 F 
ATOM     68  C   UNL A   1      42.830  26.090  25.471  1.00  0.00     0.200 A 
ATOM     69  F   UNL A   1      41.241  24.378  25.811  1.00  0.00    -0.200 F 
ATOM     70  F   UNL A   1      43.365  25.409  24.448  1.00  0.00    -0.200 F 
ENDBRANCH  46  60
BRANCH  47  71
ATOM     71  C   UNL A   1      39.083  32.323  35.818  1.00  0.00     0.064 A 
ATOM     72  C   UNL A   1      39.596  33.615  35.975  1.00  0.00     0.173 A 
ATOM     73  C   UNL A   1      38.228  31.825  36.812  1.00  0.00     0.173 A 
ATOM     74  F   UNL A   1      40.433  34.117  35.057  1.00  0.00    -0.203 F 
ATOM     75  C   UNL A   1      39.266  34.385  37.087  1.00  0.00     0.198 A 
ATOM     76  C   UNL A   1      37.885  32.602  37.915  1.00  0.00     0.198 A 
ATOM     77  F   UNL A   1      37.714  30.592  36.700  1.00  0.00    -0.203 F 
ATOM     78  F   UNL A   1      39.785  35.612  37.226  1.00  0.00    -0.200 F 
ATOM     79  C   UNL A   1      38.405  33.881  38.052  1.00  0.00     0.200 A 
ATOM     80  F   UNL A   1      37.049  32.116  38.843  1.00  0.00    -0.200 F 
ATOM     81  F   UNL A   1      38.080  34.628  39.115  1.00  0.00    -0.200 F 
ENDBRANCH  47  71
BRANCH  59  82
ATOM     82  C   UNL A   1      36.440  32.072  29.375  1.00  0.00     0.064 A 
ATOM     83  C   UNL A   1      36.404  33.445  29.090  1.00  0.00     0.173 A 
ATOM     84  C   UNL A   1      35.330  31.297  29.006  1.00  0.00     0.173 A 
ATOM     85  F   UNL A   1      37.431  34.233  29.440  1.00  0.00    -0.203 F 
ATOM     86  C   UNL A   1      35.294  34.020  28.474  1.00  0.00     0.198 A 
ATOM     87  C   UNL A   1      34.231  31.871  28.371  1.00  0.00     0.198 A 
ATOM     88  F   UNL A   1      35.312  29.979  29.256  1.00  0.00    -0.203 F 
ATOM     89  F   UNL A   1      35.266  35.339  28.243  1.00  0.00    -0.200 F 
ATOM     90  C   UNL A   1      34.212  33.232  28.108  1.00  0.00     0.200 A 
ATOM     91  F   UNL A   1      33.189  31.107  28.014  1.00  0.00    -0.200 F 
ATOM     92  F   UNL A   1      33.147  33.787  27.512  1.00  0.00    -0.200 F 
ENDBRANCH  59  82
ENDBRANCH  33  34
ENDBRANCH  25  28
ENDBRANCH  23  24
ENDBRANCH  22  23
ENDBRANCH   1  22
TORSDOF 16
ENDMDL
MODEL 3
REMARK VINA RESULT:     -11.1      2.932      8.978
REMARK SMILES COc1cc(C(=O)CCC(=O)NCCCNC(=O)c2ccc(-c3c4nc(c(-c5c(F)c(F)c(F)c(F)c5F)c5ccc([nH]5)c(-c5c(F)c(F)c(F)c(F)c5F)c5nc(c(-c6c(F)c(F)c(F)c(F)c6F)c6ccc3[nH]6)C=C5)C=C4)cc2)cc(OC)c1OC
REMARK SMILES IDX 13 1 12 2 10 3 11 4 9 6 8 7 6 8 7 9 5 10 3 11 4 12 86 13
REMARK SMILES IDX 83 14 82 15 2 16 1 17 87 18 88 19 84 20 85 21 14 22 15 23
REMARK SMILES IDX 16 24 17 25 18 27 19 28 20 29 81 30 21 31 80 32 22 33 23 34
REMARK SMILES IDX 24 35 74 36 25 37 79 38 73 39 75 40 26 41 78 42 72 43 71 44
REMARK SMILES IDX 27 46 59 47 39 48 58 49 40 50 43 51 57 52 76 53 41 54 42 55
REMARK SMILES IDX 56 57 77 58 44 59 28 60 29 61 37 62 30 63 31 64 35 65 38 66
REMARK SMILES IDX 32 67 33 68 36 69 34 70 60 71 61 72 69 73 62 74 63 75 67 76
REMARK SMILES IDX 70 77 64 78 65 79 68 80 66 81 45 82 46 83 54 84 47 85 48 86
REMARK SMILES IDX 52 87 55 88 49 89 50 90 53 91 51 92
REMARK H PARENT 12 5 16 26 75 45 43 56
REMARK Flexibility Score: inf
ROOT
ATOM      1  C   UNL A   1      39.078  21.967  25.760  1.00  0.00     0.117 C 
ENDROOT
BRANCH   1   2
ATOM      2  N   UNL A   1      37.710  21.604  26.145  1.00  0.00    -0.356 N 
ATOM      3  C   UNL A   1      36.523  21.694  25.486  1.00  0.00     0.220 C 
ATOM      4  O   UNL A   1      35.496  21.370  26.085  1.00  0.00    -0.275 OA
ATOM      5  H   UNL A   1      37.636  21.223  27.051  1.00  0.00     0.163 HD
BRANCH   3   6
ATOM      6  C   UNL A   1      36.459  22.211  24.068  1.00  0.00     0.108 C 
BRANCH   6   7
ATOM      7  C   UNL A   1      36.077  23.689  24.051  1.00  0.00     0.091 C 
BRANCH   7   8
ATOM      8  C   UNL A   1      34.624  23.850  23.649  1.00  0.00     0.163 C 
ATOM      9  O   UNL A   1      34.227  23.388  22.576  1.00  0.00    -0.294 OA
BRANCH   8  10
ATOM     10  C   UNL A   1      33.682  24.670  24.477  1.00  0.00     0.025 A 
ATOM     11  C   UNL A   1      32.903  26.917  25.086  1.00  0.00     0.165 A 
ATOM     12  C   UNL A   1      33.657  26.057  24.271  1.00  0.00     0.062 A 
ATOM     13  C   UNL A   1      32.038  26.385  26.040  1.00  0.00     0.203 A 
ATOM     14  C   UNL A   1      32.084  24.993  26.257  1.00  0.00     0.165 A 
ATOM     15  C   UNL A   1      32.886  24.141  25.485  1.00  0.00     0.062 A 
BRANCH  11  16
ATOM     16  O   UNL A   1      33.017  28.259  24.847  1.00  0.00    -0.493 OA
ATOM     17  C   UNL A   1      33.290  28.536  23.469  1.00  0.00     0.278 C 
ENDBRANCH  11  16
BRANCH  13  18
ATOM     18  O   UNL A   1      31.066  27.046  26.737  1.00  0.00    -0.490 OA
ATOM     19  C   UNL A   1      31.416  28.009  27.711  1.00  0.00     0.278 C 
ENDBRANCH  13  18
BRANCH  14  20
ATOM     20  O   UNL A   1      31.351  24.363  27.235  1.00  0.00    -0.493 OA
ATOM     21  C   UNL A   1      31.081  23.000  26.900  1.00  0.00     0.278 C 
ENDBRANCH  14  20
ENDBRANCH   8  10
ENDBRANCH   7   8
ENDBRANCH   6   7
ENDBRANCH   3   6
ENDBRANCH   1   2
BRANCH   1  22
ATOM     22  C   UNL A   1      40.101  20.948  26.287  1.00  0.00     0.042 C 
BRANCH  22  23
ATOM     23  C   UNL A   1      41.541  21.445  26.467  1.00  0.00     0.118 C 
BRANCH  23  24
ATOM     24  N   UNL A   1      42.106  22.143  25.319  1.00  0.00    -0.352 N 
ATOM     25  C   UNL A   1      42.767  23.359  25.265  1.00  0.00     0.251 C 
ATOM     26  H   UNL A   1      42.001  21.684  24.455  1.00  0.00     0.163 HD
ATOM     27  O   UNL A   1      43.723  23.462  24.497  1.00  0.00    -0.269 OA
BRANCH  25  28
ATOM     28  C   UNL A   1      42.335  24.582  26.007  1.00  0.00     0.039 A 
ATOM     29  C   UNL A   1      41.173  24.564  26.800  1.00  0.00     0.014 A 
ATOM     30  C   UNL A   1      43.191  25.670  26.142  1.00  0.00     0.014 A 
ATOM     31  C   UNL A   1      40.869  25.618  27.699  1.00  0.00     0.010 A 
ATOM     32  C   UNL A   1      42.865  26.743  26.998  1.00  0.00     0.010 A 
ATOM     33  C   UNL A   1      41.719  26.727  27.819  1.00  0.00    -0.014 A 
BRANCH  33  34
ATOM     34  C   UNL A   1      41.573  27.765  28.903  1.00  0.00     0.031 A 
ATOM     35  C   UNL A   1      42.372  27.771  30.187  1.00  0.00     0.074 A 
ATOM     36  C   UNL A   1      40.606  28.698  28.768  1.00  0.00     0.049 A 
ATOM     37  N   UNL A   1      42.294  28.605  31.203  1.00  0.00    -0.248 NA
ATOM     38  C   UNL A   1      43.378  26.718  30.363  1.00  0.00     0.031 C 
ATOM     39  C   UNL A   1      39.746  28.849  27.595  1.00  0.00     0.029 A 
ATOM     40  N   UNL A   1      40.136  29.649  29.647  1.00  0.00    -0.354 N 
ATOM     41  C   UNL A   1      43.253  28.198  32.124  1.00  0.00     0.074 A 
ATOM     42  C   UNL A   1      43.879  27.018  31.559  1.00  0.00     0.031 C 
ATOM     43  C   UNL A   1      38.782  29.741  27.869  1.00  0.00     0.029 A 
ATOM     44  C   UNL A   1      38.981  30.258  29.221  1.00  0.00     0.049 A 
ATOM     45  H   UNL A   1      40.583  29.869  30.496  1.00  0.00     0.167 HD
ATOM     46  C   UNL A   1      43.586  28.760  33.317  1.00  0.00     0.037 A 
ATOM     47  C   UNL A   1      38.154  31.127  29.833  1.00  0.00     0.037 A 
ATOM     48  C   UNL A   1      42.954  29.922  33.904  1.00  0.00     0.049 A 
ATOM     49  C   UNL A   1      38.498  31.693  31.177  1.00  0.00     0.074 A 
ATOM     50  C   UNL A   1      43.321  30.621  35.046  1.00  0.00     0.029 A 
ATOM     51  N   UNL A   1      41.805  30.531  33.428  1.00  0.00    -0.354 N 
ATOM     52  N   UNL A   1      39.508  31.405  31.956  1.00  0.00    -0.248 NA
ATOM     53  C   UNL A   1      37.615  32.745  31.705  1.00  0.00     0.031 C 
ATOM     54  C   UNL A   1      42.363  31.612  35.293  1.00  0.00     0.029 A 
ATOM     55  C   UNL A   1      41.428  31.567  34.275  1.00  0.00     0.049 A 
ATOM     56  H   UNL A   1      41.325  30.269  32.608  1.00  0.00     0.167 HD
ATOM     57  C   UNL A   1      39.419  32.275  33.033  1.00  0.00     0.074 A 
ATOM     58  C   UNL A   1      38.241  33.088  32.822  1.00  0.00     0.031 C 
ATOM     59  C   UNL A   1      40.266  32.397  34.083  1.00  0.00     0.037 A 
BRANCH  46  60
ATOM     60  C   UNL A   1      44.720  28.153  34.101  1.00  0.00     0.064 A 
ATOM     61  C   UNL A   1      44.506  27.072  34.969  1.00  0.00     0.173 A 
ATOM     62  C   UNL A   1      46.047  28.551  33.867  1.00  0.00     0.173 A 
ATOM     63  F   UNL A   1      43.260  26.641  35.215  1.00  0.00    -0.203 F 
ATOM     64  C   UNL A   1      45.574  26.422  35.585  1.00  0.00     0.198 A 
ATOM     65  C   UNL A   1      47.114  27.884  34.467  1.00  0.00     0.198 A 
ATOM     66  F   UNL A   1      46.312  29.562  33.025  1.00  0.00    -0.203 F 
ATOM     67  F   UNL A   1      45.344  25.401  36.420  1.00  0.00    -0.200 F 
ATOM     68  C   UNL A   1      46.877  26.822  35.326  1.00  0.00     0.200 A 
ATOM     69  F   UNL A   1      48.374  28.257  34.197  1.00  0.00    -0.200 F 
ATOM     70  F   UNL A   1      47.904  26.180  35.900  1.00  0.00    -0.200 F 
ENDBRANCH  46  60
BRANCH  47  71
ATOM     71  C   UNL A   1      36.919  31.549  29.131  1.00  0.00     0.064 A 
ATOM     72  C   UNL A   1      35.843  30.666  28.975  1.00  0.00     0.173 A 
ATOM     73  C   UNL A   1      36.777  32.857  28.645  1.00  0.00     0.173 A 
ATOM     74  F   UNL A   1      35.949  29.402  29.408  1.00  0.00    -0.203 F 
ATOM     75  C   UNL A   1      34.666  31.077  28.357  1.00  0.00     0.198 A 
ATOM     76  C   UNL A   1      35.592  33.271  28.042  1.00  0.00     0.198 A 
ATOM     77  F   UNL A   1      37.782  33.735  28.774  1.00  0.00    -0.203 F 
ATOM     78  F   UNL A   1      33.657  30.209  28.202  1.00  0.00    -0.200 F 
ATOM     79  C   UNL A   1      34.538  32.380  27.897  1.00  0.00     0.200 A 
ATOM     80  F   UNL A   1      35.468  34.532  27.605  1.00  0.00    -0.200 F 
ATOM     81  F   UNL A   1      33.400  32.775  27.313  1.00  0.00    -0.200 F 
ENDBRANCH  47  71
BRANCH  59  82
ATOM     82  C   UNL A   1      39.998  33.494  35.071  1.00  0.00     0.064 A 
ATOM     83  C   UNL A   1      39.280  33.269  36.255  1.00  0.00     0.173 A 
ATOM     84  C   UNL A   1      40.492  34.788  34.841  1.00  0.00     0.173 A 
ATOM     85  F   UNL A   1      38.770  32.056  36.514  1.00  0.00    -0.203 F 
ATOM     86  C   UNL A   1      39.053  34.302  37.163  1.00  0.00     0.198 A 
ATOM     87  C   UNL A   1      40.282  35.812  35.761  1.00  0.00     0.198 A 
ATOM     88  F   UNL A   1      41.185  35.058  33.725  1.00  0.00    -0.203 F 
ATOM     89  F   UNL A   1      38.333  34.073  38.269  1.00  0.00    -0.200 F 
ATOM     90  C   UNL A   1      39.560  35.570  36.919  1.00  0.00     0.200 A 
ATOM     91  F   UNL A   1      40.778  37.035  35.526  1.00  0.00    -0.200 F 
ATOM     92  F   UNL A   1      39.344  36.561  37.796  1.00  0.00    -0.200 F 
ENDBRANCH  59  82
ENDBRANCH  33  34
ENDBRANCH  25  28
ENDBRANCH  23  24
ENDBRANCH  22  23
ENDBRANCH   1  22
TORSDOF 16
ENDMDL
