MODEL 1
REMARK VINA RESULT:     -11.9      0.000      0.000
REMARK SMILES COc1cc(-c2ccc(NC(=O)CCC(=O)NCCCNC(=O)c3ccc(-c4c5nc(c(-c6c(F)c(F)c(F)c(F)c6F)c6ccc([nH]6)c(-c6c(F)c(F)c(F)c(F)c6F)c6nc(c(-c7c(F)c(F)c(F)c(F)c7F)c7ccc4[nH]7)C=C6)C=C5)cc3)c(OC)c2)ccc1N
REMARK SMILES IDX 15 1 16 2 17 3 14 5 13 6 11 7 10 8 12 10 9 11 6 12 7 13
REMARK SMILES IDX 90 14 8 15 87 16 5 17 3 18 4 19 93 20 92 21 91 22 2 23 1 24
REMARK SMILES IDX 94 25 88 28 89 29 18 30 19 31 20 32 21 33 22 34 23 36 24 37
REMARK SMILES IDX 25 38 86 39 26 40 85 41 27 42 28 43 29 44 79 45 30 46 84 47
REMARK SMILES IDX 78 48 80 49 31 50 83 51 77 52 76 53 32 55 64 56 44 57 63 58
REMARK SMILES IDX 45 59 48 60 62 61 81 62 46 63 47 64 61 66 82 67 49 68 33 69
REMARK SMILES IDX 34 70 42 71 35 72 36 73 40 74 43 75 37 76 38 77 41 78 39 79
REMARK SMILES IDX 65 80 66 81 74 82 67 83 68 84 72 85 75 86 69 87 70 88 73 89
REMARK SMILES IDX 71 90 50 91 51 92 59 93 52 94 53 95 57 96 60 97 54 98 55 99
REMARK SMILES IDX 58 100 56 101
REMARK H PARENT 17 4 10 9 94 26 94 27 21 35 80 54 48 65
REMARK Flexibility Score: inf
ROOT
ATOM      1  C   UNL A   1      30.620  25.268  26.130  1.00  0.00     0.220 C 
ATOM      2  O   UNL A   1      30.887  24.080  26.364  1.00  0.00    -0.275 OA
ATOM      3  N   UNL A   1      31.266  26.179  26.931  1.00  0.00    -0.356 N 
ATOM      4  H   UNL A   1      31.657  25.756  27.730  1.00  0.00     0.163 HD
ENDROOT
BRANCH   1   5
ATOM      5  C   UNL A   1      29.590  25.583  25.023  1.00  0.00     0.110 C 
BRANCH   5   6
ATOM      6  C   UNL A   1      30.256  25.804  23.620  1.00  0.00     0.110 C 
BRANCH   6   7
ATOM      7  C   UNL A   1      30.814  27.199  23.212  1.00  0.00     0.224 C 
ATOM      8  N   UNL A   1      32.174  27.485  23.186  1.00  0.00    -0.323 N 
ATOM      9  H   UNL A   1      32.426  28.436  23.131  1.00  0.00     0.170 HD
ATOM     10  O   UNL A   1      30.036  28.127  22.962  1.00  0.00    -0.275 OA
BRANCH   8  11
ATOM     11  C   UNL A   1      33.224  26.559  23.232  1.00  0.00     0.083 A 
ATOM     12  C   UNL A   1      33.951  23.972  23.827  1.00  0.00    -0.014 A 
ATOM     13  C   UNL A   1      34.383  25.047  24.631  1.00  0.00     0.011 A 
ATOM     14  C   UNL A   1      33.634  24.343  22.512  1.00  0.00     0.057 A 
ATOM     15  C   UNL A   1      33.973  26.356  24.364  1.00  0.00     0.031 A 
ATOM     16  C   UNL A   1      33.425  25.697  22.191  1.00  0.00     0.142 A 
BRANCH  12  17
ATOM     17  C   UNL A   1      33.728  22.602  24.420  1.00  0.00    -0.014 A 
ATOM     18  C   UNL A   1      32.785  20.302  24.402  1.00  0.00     0.142 A 
ATOM     19  C   UNL A   1      33.134  21.513  23.738  1.00  0.00     0.057 A 
ATOM     20  C   UNL A   1      33.092  20.113  25.759  1.00  0.00     0.074 A 
ATOM     21  C   UNL A   1      33.607  21.198  26.454  1.00  0.00     0.030 A 
ATOM     22  C   UNL A   1      33.930  22.393  25.800  1.00  0.00     0.011 A 
BRANCH  18  23
ATOM     23  O   UNL A   1      32.182  19.337  23.624  1.00  0.00    -0.495 OA
ATOM     24  C   UNL A   1      33.004  18.194  23.359  1.00  0.00     0.278 C 
ENDBRANCH  18  23
BRANCH  20  25
ATOM     25  N   UNL A   1      32.817  18.946  26.469  1.00  0.00    -0.396 N 
ATOM     26  H   UNL A   1      32.294  18.989  27.301  1.00  0.00     0.156 HD
ATOM     27  H   UNL A   1      33.147  18.080  26.136  1.00  0.00     0.156 HD
ENDBRANCH  20  25
ENDBRANCH  12  17
BRANCH  16  28
ATOM     28  O   UNL A   1      33.298  26.121  20.902  1.00  0.00    -0.495 OA
ATOM     29  C   UNL A   1      32.552  25.341  19.944  1.00  0.00     0.278 C 
ENDBRANCH  16  28
ENDBRANCH   8  11
ENDBRANCH   6   7
ENDBRANCH   5   6
ENDBRANCH   1   5
BRANCH   3  30
ATOM     30  C   UNL A   1      31.520  27.625  26.891  1.00  0.00     0.117 C 
BRANCH  30  31
ATOM     31  C   UNL A   1      32.955  28.271  26.974  1.00  0.00     0.042 C 
BRANCH  31  32
ATOM     32  C   UNL A   1      33.390  29.544  26.214  1.00  0.00     0.118 C 
BRANCH  32  33
ATOM     33  N   UNL A   1      33.712  30.618  27.171  1.00  0.00    -0.352 N 
ATOM     34  C   UNL A   1      34.643  30.821  28.155  1.00  0.00     0.251 C 
ATOM     35  H   UNL A   1      33.102  31.385  27.081  1.00  0.00     0.163 HD
ATOM     36  O   UNL A   1      34.348  31.685  29.005  1.00  0.00    -0.269 OA
BRANCH  34  37
ATOM     37  C   UNL A   1      35.979  30.170  28.301  1.00  0.00     0.039 A 
ATOM     38  C   UNL A   1      36.328  29.692  29.582  1.00  0.00     0.014 A 
ATOM     39  C   UNL A   1      36.983  30.210  27.331  1.00  0.00     0.014 A 
ATOM     40  C   UNL A   1      37.636  29.276  29.894  1.00  0.00     0.010 A 
ATOM     41  C   UNL A   1      38.297  29.771  27.640  1.00  0.00     0.010 A 
ATOM     42  C   UNL A   1      38.649  29.311  28.926  1.00  0.00    -0.014 A 
BRANCH  42  43
ATOM     43  C   UNL A   1      40.053  28.895  29.268  1.00  0.00     0.031 A 
ATOM     44  C   UNL A   1      40.952  29.775  30.108  1.00  0.00     0.074 A 
ATOM     45  C   UNL A   1      40.550  27.717  28.835  1.00  0.00     0.049 A 
ATOM     46  N   UNL A   1      42.214  29.609  30.437  1.00  0.00    -0.248 NA
ATOM     47  C   UNL A   1      40.354  31.004  30.644  1.00  0.00     0.031 C 
ATOM     48  C   UNL A   1      39.817  26.734  28.041  1.00  0.00     0.029 A 
ATOM     49  N   UNL A   1      41.797  27.149  28.995  1.00  0.00    -0.354 N 
ATOM     50  C   UNL A   1      42.566  30.719  31.195  1.00  0.00     0.074 A 
ATOM     51  C   UNL A   1      41.390  31.562  31.264  1.00  0.00     0.031 C 
ATOM     52  C   UNL A   1      40.621  25.689  27.780  1.00  0.00     0.029 A 
ATOM     53  C   UNL A   1      41.942  25.940  28.356  1.00  0.00     0.049 A 
ATOM     54  H   UNL A   1      42.517  27.570  29.518  1.00  0.00     0.167 HD
ATOM     55  C   UNL A   1      43.753  31.013  31.790  1.00  0.00     0.037 A 
ATOM     56  C   UNL A   1      43.012  25.127  28.225  1.00  0.00     0.037 A 
ATOM     57  C   UNL A   1      44.927  30.176  31.766  1.00  0.00     0.049 A 
ATOM     58  C   UNL A   1      44.328  25.490  28.864  1.00  0.00     0.074 A 
ATOM     59  C   UNL A   1      46.153  30.391  32.377  1.00  0.00     0.029 A 
ATOM     60  N   UNL A   1      45.026  28.965  31.102  1.00  0.00    -0.354 N 
ATOM     61  N   UNL A   1      44.635  26.535  29.592  1.00  0.00    -0.248 NA
ATOM     62  C   UNL A   1      45.445  24.553  28.662  1.00  0.00     0.031 C 
ATOM     63  C   UNL A   1      47.006  29.331  32.049  1.00  0.00     0.029 A 
ATOM     64  C   UNL A   1      46.297  28.433  31.271  1.00  0.00     0.049 A 
ATOM     65  H   UNL A   1      44.303  28.543  30.585  1.00  0.00     0.167 HD
ATOM     66  C   UNL A   1      45.963  26.366  29.960  1.00  0.00     0.074 A 
ATOM     67  C   UNL A   1      46.410  25.119  29.385  1.00  0.00     0.031 C 
ATOM     68  C   UNL A   1      46.741  27.181  30.716  1.00  0.00     0.037 A 
BRANCH  55  69
ATOM     69  C   UNL A   1      43.858  32.321  32.523  1.00  0.00     0.064 A 
ATOM     70  C   UNL A   1      43.558  32.427  33.888  1.00  0.00     0.173 A 
ATOM     71  C   UNL A   1      44.331  33.467  31.863  1.00  0.00     0.173 A 
ATOM     72  F   UNL A   1      43.103  31.361  34.564  1.00  0.00    -0.203 F 
ATOM     73  C   UNL A   1      43.699  33.640  34.560  1.00  0.00     0.198 A 
ATOM     74  C   UNL A   1      44.495  34.670  32.544  1.00  0.00     0.198 A 
ATOM     75  F   UNL A   1      44.650  33.415  30.561  1.00  0.00    -0.203 F 
ATOM     76  F   UNL A   1      43.368  33.728  35.855  1.00  0.00    -0.200 F 
ATOM     77  C   UNL A   1      44.172  34.758  33.890  1.00  0.00     0.200 A 
ATOM     78  F   UNL A   1      44.970  35.746  31.898  1.00  0.00    -0.200 F 
ATOM     79  F   UNL A   1      44.313  35.922  34.540  1.00  0.00    -0.200 F 
ENDBRANCH  55  69
BRANCH  56  80
ATOM     80  C   UNL A   1      42.892  23.868  27.443  1.00  0.00     0.064 A 
ATOM     81  C   UNL A   1      42.453  22.681  28.049  1.00  0.00     0.173 A 
ATOM     82  C   UNL A   1      43.235  23.820  26.085  1.00  0.00     0.173 A 
ATOM     83  F   UNL A   1      42.146  22.670  29.354  1.00  0.00    -0.203 F 
ATOM     84  C   UNL A   1      42.375  21.491  27.327  1.00  0.00     0.198 A 
ATOM     85  C   UNL A   1      43.131  22.636  25.358  1.00  0.00     0.198 A 
ATOM     86  F   UNL A   1      43.668  24.927  25.462  1.00  0.00    -0.203 F 
ATOM     87  F   UNL A   1      41.996  20.362  27.940  1.00  0.00    -0.200 F 
ATOM     88  C   UNL A   1      42.707  21.472  25.980  1.00  0.00     0.200 A 
ATOM     89  F   UNL A   1      43.446  22.623  24.056  1.00  0.00    -0.200 F 
ATOM     90  F   UNL A   1      42.630  20.329  25.285  1.00  0.00    -0.200 F 
ENDBRANCH  56  80
BRANCH  68  91
ATOM     91  C   UNL A   1      48.145  26.735  31.008  1.00  0.00     0.064 A 
ATOM     92  C   UNL A   1      49.226  27.117  30.199  1.00  0.00     0.173 A 
ATOM     93  C   UNL A   1      48.419  25.950  32.140  1.00  0.00     0.173 A 
ATOM     94  F   UNL A   1      49.017  27.853  29.098  1.00  0.00    -0.203 F 
ATOM     95  C   UNL A   1      50.525  26.718  30.504  1.00  0.00     0.198 A 
ATOM     96  C   UNL A   1      49.722  25.572  32.454  1.00  0.00     0.198 A 
ATOM     97  F   UNL A   1      47.423  25.560  32.949  1.00  0.00    -0.203 F 
ATOM     98  F   UNL A   1      51.538  27.065  29.697  1.00  0.00    -0.200 F 
ATOM     99  C   UNL A   1      50.774  25.952  31.634  1.00  0.00     0.200 A 
ATOM    100  F   UNL A   1      49.961  24.841  33.551  1.00  0.00    -0.200 F 
ATOM    101  F   UNL A   1      52.026  25.576  31.928  1.00  0.00    -0.200 F 
ENDBRANCH  68  91
ENDBRANCH  42  43
ENDBRANCH  34  37
ENDBRANCH  32  33
ENDBRANCH  31  32
ENDBRANCH  30  31
ENDBRANCH   3  30
TORSDOF 17
ENDMDL
MODEL 2
REMARK VINA RESULT:     -11.9      2.751      3.756
REMARK SMILES COc1cc(-c2ccc(NC(=O)CCC(=O)NCCCNC(=O)c3ccc(-c4c5nc(c(-c6c(F)c(F)c(F)c(F)c6F)c6ccc([nH]6)c(-c6c(F)c(F)c(F)c(F)c6F)c6nc(c(-c7c(F)c(F)c(F)c(F)c7F)c7ccc4[nH]7)C=C6)C=C5)cc3)c(OC)c2)ccc1N
REMARK SMILES IDX 15 1 16 2 17 3 14 5 13 6 11 7 10 8 12 10 9 11 6 12 7 13
REMARK SMILES IDX 90 14 8 15 87 16 5 17 3 18 4 19 93 20 92 21 91 22 2 23 1 24
REMARK SMILES IDX 94 25 88 28 89 29 18 30 19 31 20 32 21 33 22 34 23 36 24 37
REMARK SMILES IDX 25 38 86 39 26 40 85 41 27 42 28 43 29 44 79 45 30 46 84 47
REMARK SMILES IDX 78 48 80 49 31 50 83 51 77 52 76 53 32 55 64 56 44 57 63 58
REMARK SMILES IDX 45 59 48 60 62 61 81 62 46 63 47 64 61 66 82 67 49 68 33 69
REMARK SMILES IDX 34 70 42 71 35 72 36 73 40 74 43 75 37 76 38 77 41 78 39 79
REMARK SMILES IDX 65 80 66 81 74 82 67 83 68 84 72 85 75 86 69 87 70 88 73 89
REMARK SMILES IDX 71 90 50 91 51 92 59 93 52 94 53 95 57 96 60 97 54 98 55 99
REMARK SMILES IDX 58 100 56 101
REMARK H PARENT 17 4 10 9 94 26 94 27 21 35 80 54 48 65
REMARK Flexibility Score: inf
ROOT
ATOM      1  C   UNL A   1      30.910  25.421  26.475  1.00  0.00     0.220 C 
ATOM      2  O   UNL A   1      31.515  24.379  26.766  1.00  0.00    -0.275 OA
ATOM      3  N   UNL A   1      31.284  26.531  27.194  1.00  0.00    -0.356 N 
ATOM      4  H   UNL A   1      31.799  26.294  27.999  1.00  0.00     0.163 HD
ENDROOT
BRANCH   1   5
ATOM      5  C   UNL A   1      29.807  25.351  25.397  1.00  0.00     0.110 C 
BRANCH   5   6
ATOM      6  C   UNL A   1      30.356  25.605  23.950  1.00  0.00     0.110 C 
BRANCH   6   7
ATOM      7  C   UNL A   1      30.903  27.003  23.537  1.00  0.00     0.224 C 
ATOM      8  N   UNL A   1      32.260  27.306  23.526  1.00  0.00    -0.323 N 
ATOM      9  H   UNL A   1      32.501  28.258  23.466  1.00  0.00     0.170 HD
ATOM     10  O   UNL A   1      30.117  27.921  23.271  1.00  0.00    -0.275 OA
BRANCH   8  11
ATOM     11  C   UNL A   1      33.319  26.391  23.591  1.00  0.00     0.083 A 
ATOM     12  C   UNL A   1      34.052  23.791  24.113  1.00  0.00    -0.014 A 
ATOM     13  C   UNL A   1      34.420  24.834  24.988  1.00  0.00     0.011 A 
ATOM     14  C   UNL A   1      33.804  24.216  22.800  1.00  0.00     0.057 A 
ATOM     15  C   UNL A   1      34.006  26.149  24.755  1.00  0.00     0.031 A 
ATOM     16  C   UNL A   1      33.593  25.580  22.527  1.00  0.00     0.142 A 
BRANCH  12  17
ATOM     17  C   UNL A   1      33.817  22.393  24.632  1.00  0.00    -0.014 A 
ATOM     18  C   UNL A   1      32.793  20.130  24.529  1.00  0.00     0.142 A 
ATOM     19  C   UNL A   1      33.145  21.370  23.922  1.00  0.00     0.057 A 
ATOM     20  C   UNL A   1      33.175  19.843  25.850  1.00  0.00     0.074 A 
ATOM     21  C   UNL A   1      33.769  20.865  26.577  1.00  0.00     0.030 A 
ATOM     22  C   UNL A   1      34.095  22.088  25.981  1.00  0.00     0.011 A 
BRANCH  18  23
ATOM     23  O   UNL A   1      32.111  19.237  23.731  1.00  0.00    -0.495 OA
ATOM     24  C   UNL A   1      32.910  18.154  23.239  1.00  0.00     0.278 C 
ENDBRANCH  18  23
BRANCH  20  25
ATOM     25  N   UNL A   1      32.903  18.643  26.500  1.00  0.00    -0.396 N 
ATOM     26  H   UNL A   1      33.268  18.477  27.400  1.00  0.00     0.156 HD
ATOM     27  H   UNL A   1      32.346  17.961  26.061  1.00  0.00     0.156 HD
ENDBRANCH  20  25
ENDBRANCH  12  17
BRANCH  16  28
ATOM     28  O   UNL A   1      33.533  26.059  21.253  1.00  0.00    -0.495 OA
ATOM     29  C   UNL A   1      32.528  25.578  20.335  1.00  0.00     0.278 C 
ENDBRANCH  16  28
ENDBRANCH   8  11
ENDBRANCH   6   7
ENDBRANCH   5   6
ENDBRANCH   1   5
BRANCH   3  30
ATOM     30  C   UNL A   1      31.107  27.983  27.060  1.00  0.00     0.117 C 
BRANCH  30  31
ATOM     31  C   UNL A   1      32.293  29.002  26.865  1.00  0.00     0.042 C 
BRANCH  31  32
ATOM     32  C   UNL A   1      32.378  30.045  25.729  1.00  0.00     0.118 C 
BRANCH  32  33
ATOM     33  N   UNL A   1      32.543  31.396  26.295  1.00  0.00    -0.352 N 
ATOM     34  C   UNL A   1      33.334  31.981  27.247  1.00  0.00     0.251 C 
ATOM     35  H   UNL A   1      31.926  32.044  25.884  1.00  0.00     0.163 HD
ATOM     36  O   UNL A   1      32.908  33.055  27.716  1.00  0.00    -0.269 OA
BRANCH  34  37
ATOM     37  C   UNL A   1      34.660  31.513  27.750  1.00  0.00     0.039 A 
ATOM     38  C   UNL A   1      34.741  30.184  28.220  1.00  0.00     0.014 A 
ATOM     39  C   UNL A   1      35.747  32.353  28.001  1.00  0.00     0.014 A 
ATOM     40  C   UNL A   1      35.861  29.708  28.926  1.00  0.00     0.010 A 
ATOM     41  C   UNL A   1      36.885  31.867  28.695  1.00  0.00     0.010 A 
ATOM     42  C   UNL A   1      36.956  30.544  29.181  1.00  0.00    -0.014 A 
BRANCH  42  43
ATOM     43  C   UNL A   1      38.140  30.044  29.961  1.00  0.00     0.031 A 
ATOM     44  C   UNL A   1      38.389  30.489  31.385  1.00  0.00     0.074 A 
ATOM     45  C   UNL A   1      39.015  29.176  29.410  1.00  0.00     0.049 A 
ATOM     46  N   UNL A   1      39.399  30.217  32.182  1.00  0.00    -0.248 NA
ATOM     47  C   UNL A   1      37.371  31.356  31.990  1.00  0.00     0.031 C 
ATOM     48  C   UNL A   1      38.917  28.621  28.063  1.00  0.00     0.029 A 
ATOM     49  N   UNL A   1      40.170  28.615  29.915  1.00  0.00    -0.354 N 
ATOM     50  C   UNL A   1      39.149  30.896  33.369  1.00  0.00     0.074 A 
ATOM     51  C   UNL A   1      37.902  31.608  33.183  1.00  0.00     0.031 C 
ATOM     52  C   UNL A   1      39.961  27.804  27.844  1.00  0.00     0.029 A 
ATOM     53  C   UNL A   1      40.828  27.802  29.022  1.00  0.00     0.049 A 
ATOM     54  H   UNL A   1      40.494  28.779  30.830  1.00  0.00     0.167 HD
ATOM     55  C   UNL A   1      39.882  30.923  34.514  1.00  0.00     0.037 A 
ATOM     56  C   UNL A   1      42.002  27.142  29.119  1.00  0.00     0.037 A 
ATOM     57  C   UNL A   1      41.108  30.197  34.737  1.00  0.00     0.049 A 
ATOM     58  C   UNL A   1      42.815  27.214  30.386  1.00  0.00     0.074 A 
ATOM     59  C   UNL A   1      41.885  30.147  35.884  1.00  0.00     0.029 A 
ATOM     60  N   UNL A   1      41.737  29.393  33.801  1.00  0.00    -0.354 N 
ATOM     61  N   UNL A   1      42.553  27.848  31.503  1.00  0.00    -0.248 NA
ATOM     62  C   UNL A   1      44.087  26.474  30.402  1.00  0.00     0.031 C 
ATOM     63  C   UNL A   1      43.004  29.345  35.630  1.00  0.00     0.029 A 
ATOM     64  C   UNL A   1      42.901  28.860  34.338  1.00  0.00     0.049 A 
ATOM     65  H   UNL A   1      41.408  29.224  32.889  1.00  0.00     0.167 HD
ATOM     66  C   UNL A   1      43.606  27.557  32.360  1.00  0.00     0.074 A 
ATOM     67  C   UNL A   1      44.511  26.688  31.647  1.00  0.00     0.031 C 
ATOM     68  C   UNL A   1      43.796  27.979  33.636  1.00  0.00     0.037 A 
BRANCH  55  69
ATOM     69  C   UNL A   1      39.383  31.787  35.638  1.00  0.00     0.064 A 
ATOM     70  C   UNL A   1      38.460  31.312  36.580  1.00  0.00     0.173 A 
ATOM     71  C   UNL A   1      39.888  33.086  35.811  1.00  0.00     0.173 A 
ATOM     72  F   UNL A   1      37.948  30.079  36.460  1.00  0.00    -0.203 F 
ATOM     73  C   UNL A   1      38.039  32.115  37.638  1.00  0.00     0.198 A 
ATOM     74  C   UNL A   1      39.485  33.876  36.884  1.00  0.00     0.198 A 
ATOM     75  F   UNL A   1      40.787  33.583  34.948  1.00  0.00    -0.203 F 
ATOM     76  F   UNL A   1      37.126  31.655  38.504  1.00  0.00    -0.200 F 
ATOM     77  C   UNL A   1      38.555  33.393  37.792  1.00  0.00     0.200 A 
ATOM     78  F   UNL A   1      39.998  35.105  37.041  1.00  0.00    -0.200 F 
ATOM     79  F   UNL A   1      38.153  34.162  38.814  1.00  0.00    -0.200 F 
ENDBRANCH  55  69
BRANCH  56  80
ATOM     80  C   UNL A   1      42.498  26.343  27.967  1.00  0.00     0.064 A 
ATOM     81  C   UNL A   1      42.160  24.989  27.830  1.00  0.00     0.173 A 
ATOM     82  C   UNL A   1      43.336  26.908  26.996  1.00  0.00     0.173 A 
ATOM     83  F   UNL A   1      41.388  24.395  28.752  1.00  0.00    -0.203 F 
ATOM     84  C   UNL A   1      42.653  24.227  26.771  1.00  0.00     0.198 A 
ATOM     85  C   UNL A   1      43.808  26.153  25.924  1.00  0.00     0.198 A 
ATOM     86  F   UNL A   1      43.695  28.198  27.088  1.00  0.00    -0.203 F 
ATOM     87  F   UNL A   1      42.351  22.925  26.688  1.00  0.00    -0.200 F 
ATOM     88  C   UNL A   1      43.471  24.813  25.815  1.00  0.00     0.200 A 
ATOM     89  F   UNL A   1      44.591  26.724  25.000  1.00  0.00    -0.200 F 
ATOM     90  F   UNL A   1      43.943  24.082  24.797  1.00  0.00    -0.200 F 
ENDBRANCH  56  80
BRANCH  68  91
ATOM     91  C   UNL A   1      45.008  27.471  34.366  1.00  0.00     0.064 A 
ATOM     92  C   UNL A   1      44.999  26.245  35.048  1.00  0.00     0.173 A 
ATOM     93  C   UNL A   1      46.207  28.201  34.344  1.00  0.00     0.173 A 
ATOM     94  F   UNL A   1      43.876  25.517  35.113  1.00  0.00    -0.203 F 
ATOM     95  C   UNL A   1      46.142  25.777  35.694  1.00  0.00     0.198 A 
ATOM     96  C   UNL A   1      47.353  27.720  34.971  1.00  0.00     0.198 A 
ATOM     97  F   UNL A   1      46.270  29.378  33.704  1.00  0.00    -0.203 F 
ATOM     98  F   UNL A   1      46.102  24.620  36.370  1.00  0.00    -0.200 F 
ATOM     99  C   UNL A   1      47.319  26.510  35.649  1.00  0.00     0.200 A 
ATOM    100  F   UNL A   1      48.491  28.424  34.919  1.00  0.00    -0.200 F 
ATOM    101  F   UNL A   1      48.418  26.054  36.265  1.00  0.00    -0.200 F 
ENDBRANCH  68  91
ENDBRANCH  42  43
ENDBRANCH  34  37
ENDBRANCH  32  33
ENDBRANCH  31  32
ENDBRANCH  30  31
ENDBRANCH   3  30
TORSDOF 17
ENDMDL
MODEL 3
REMARK VINA RESULT:     -11.9      2.922      7.694
REMARK SMILES COc1cc(-c2ccc(NC(=O)CCC(=O)NCCCNC(=O)c3ccc(-c4c5nc(c(-c6c(F)c(F)c(F)c(F)c6F)c6ccc([nH]6)c(-c6c(F)c(F)c(F)c(F)c6F)c6nc(c(-c7c(F)c(F)c(F)c(F)c7F)c7ccc4[nH]7)C=C6)C=C5)cc3)c(OC)c2)ccc1N
REMARK SMILES IDX 15 1 16 2 17 3 14 5 13 6 11 7 10 8 12 10 9 11 6 12 7 13
REMARK SMILES IDX 90 14 8 15 87 16 5 17 3 18 4 19 93 20 92 21 91 22 2 23 1 24
REMARK SMILES IDX 94 25 88 28 89 29 18 30 19 31 20 32 21 33 22 34 23 36 24 37
REMARK SMILES IDX 25 38 86 39 26 40 85 41 27 42 28 43 29 44 79 45 30 46 84 47
REMARK SMILES IDX 78 48 80 49 31 50 83 51 77 52 76 53 32 55 64 56 44 57 63 58
REMARK SMILES IDX 45 59 48 60 62 61 81 62 46 63 47 64 61 66 82 67 49 68 33 69
REMARK SMILES IDX 34 70 42 71 35 72 36 73 40 74 43 75 37 76 38 77 41 78 39 79
REMARK SMILES IDX 65 80 66 81 74 82 67 83 68 84 72 85 75 86 69 87 70 88 73 89
REMARK SMILES IDX 71 90 50 91 51 92 59 93 52 94 53 95 57 96 60 97 54 98 55 99
REMARK SMILES IDX 58 100 56 101
REMARK H PARENT 17 4 10 9 94 26 94 27 21 35 80 54 48 65
REMARK Flexibility Score: inf
ROOT
ATOM      1  C   UNL A   1      30.964  25.567  26.458  1.00  0.00     0.220 C 
ATOM      2  O   UNL A   1      31.633  24.550  26.695  1.00  0.00    -0.275 OA
ATOM      3  N   UNL A   1      31.299  26.671  27.205  1.00  0.00    -0.356 N 
ATOM      4  H   UNL A   1      31.849  26.435  27.987  1.00  0.00     0.163 HD
ENDROOT
BRANCH   1   5
ATOM      5  C   UNL A   1      29.836  25.473  25.408  1.00  0.00     0.110 C 
BRANCH   5   6
ATOM      6  C   UNL A   1      30.346  25.720  23.945  1.00  0.00     0.110 C 
BRANCH   6   7
ATOM      7  C   UNL A   1      30.898  27.111  23.517  1.00  0.00     0.224 C 
ATOM      8  N   UNL A   1      32.257  27.401  23.480  1.00  0.00    -0.323 N 
ATOM      9  H   UNL A   1      32.506  28.351  23.411  1.00  0.00     0.170 HD
ATOM     10  O   UNL A   1      30.116  28.035  23.260  1.00  0.00    -0.275 OA
BRANCH   8  11
ATOM     11  C   UNL A   1      33.309  26.477  23.531  1.00  0.00     0.083 A 
ATOM     12  C   UNL A   1      34.029  23.876  24.067  1.00  0.00    -0.014 A 
ATOM     13  C   UNL A   1      34.428  24.926  24.920  1.00  0.00     0.011 A 
ATOM     14  C   UNL A   1      33.755  24.288  22.755  1.00  0.00     0.057 A 
ATOM     15  C   UNL A   1      34.021  26.242  24.681  1.00  0.00     0.031 A 
ATOM     16  C   UNL A   1      33.550  25.651  22.471  1.00  0.00     0.142 A 
BRANCH  12  17
ATOM     17  C   UNL A   1      33.794  22.487  24.608  1.00  0.00    -0.014 A 
ATOM     18  C   UNL A   1      32.777  20.219  24.535  1.00  0.00     0.142 A 
ATOM     19  C   UNL A   1      33.131  21.449  23.910  1.00  0.00     0.057 A 
ATOM     20  C   UNL A   1      33.147  19.957  25.864  1.00  0.00     0.074 A 
ATOM     21  C   UNL A   1      33.731  20.993  26.580  1.00  0.00     0.030 A 
ATOM     22  C   UNL A   1      34.059  22.207  25.965  1.00  0.00     0.011 A 
BRANCH  18  23
ATOM     23  O   UNL A   1      32.106  19.310  23.746  1.00  0.00    -0.495 OA
ATOM     24  C   UNL A   1      32.893  18.185  23.339  1.00  0.00     0.278 C 
ENDBRANCH  18  23
BRANCH  20  25
ATOM     25  N   UNL A   1      32.872  18.767  26.533  1.00  0.00    -0.396 N 
ATOM     26  H   UNL A   1      33.518  18.025  26.500  1.00  0.00     0.156 HD
ATOM     27  H   UNL A   1      32.033  18.670  27.038  1.00  0.00     0.156 HD
ENDBRANCH  20  25
ENDBRANCH  12  17
BRANCH  16  28
ATOM     28  O   UNL A   1      33.465  26.115  21.193  1.00  0.00    -0.495 OA
ATOM     29  C   UNL A   1      32.524  25.537  20.263  1.00  0.00     0.278 C 
ENDBRANCH  16  28
ENDBRANCH   8  11
ENDBRANCH   6   7
ENDBRANCH   5   6
ENDBRANCH   1   5
BRANCH   3  30
ATOM     30  C   UNL A   1      31.040  28.114  27.128  1.00  0.00     0.117 C 
BRANCH  30  31
ATOM     31  C   UNL A   1      32.156  29.198  26.877  1.00  0.00     0.042 C 
BRANCH  31  32
ATOM     32  C   UNL A   1      32.161  30.197  25.698  1.00  0.00     0.118 C 
BRANCH  32  33
ATOM     33  N   UNL A   1      32.225  31.579  26.208  1.00  0.00    -0.352 N 
ATOM     34  C   UNL A   1      32.964  32.256  27.141  1.00  0.00     0.251 C 
ATOM     35  H   UNL A   1      31.569  32.164  25.766  1.00  0.00     0.163 HD
ATOM     36  O   UNL A   1      32.460  33.317  27.562  1.00  0.00    -0.269 OA
BRANCH  34  37
ATOM     37  C   UNL A   1      34.314  31.903  27.674  1.00  0.00     0.039 A 
ATOM     38  C   UNL A   1      34.536  30.555  28.028  1.00  0.00     0.014 A 
ATOM     39  C   UNL A   1      35.276  32.839  28.059  1.00  0.00     0.014 A 
ATOM     40  C   UNL A   1      35.673  30.150  28.751  1.00  0.00     0.010 A 
ATOM     41  C   UNL A   1      36.434  32.427  28.770  1.00  0.00     0.010 A 
ATOM     42  C   UNL A   1      36.645  31.082  29.139  1.00  0.00    -0.014 A 
BRANCH  42  43
ATOM     43  C   UNL A   1      37.846  30.653  29.937  1.00  0.00     0.031 A 
ATOM     44  C   UNL A   1      38.882  29.717  29.358  1.00  0.00     0.074 A 
ATOM     45  C   UNL A   1      38.033  31.099  31.198  1.00  0.00     0.049 A 
ATOM     46  N   UNL A   1      39.940  29.184  29.929  1.00  0.00    -0.248 NA
ATOM     47  C   UNL A   1      38.703  29.325  27.955  1.00  0.00     0.031 C 
ATOM     48  C   UNL A   1      37.152  32.026  31.903  1.00  0.00     0.029 A 
ATOM     49  N   UNL A   1      39.025  30.822  32.116  1.00  0.00    -0.354 N 
ATOM     50  C   UNL A   1      40.536  28.379  28.965  1.00  0.00     0.074 A 
ATOM     51  C   UNL A   1      39.714  28.478  27.778  1.00  0.00     0.031 C 
ATOM     52  C   UNL A   1      37.636  32.241  33.139  1.00  0.00     0.029 A 
ATOM     53  C   UNL A   1      38.844  31.440  33.331  1.00  0.00     0.049 A 
ATOM     54  H   UNL A   1      39.792  30.237  31.920  1.00  0.00     0.167 HD
ATOM     55  C   UNL A   1      41.668  27.631  29.052  1.00  0.00     0.037 A 
ATOM     56  C   UNL A   1      39.548  31.363  34.481  1.00  0.00     0.037 A 
ATOM     57  C   UNL A   1      42.524  27.542  30.210  1.00  0.00     0.049 A 
ATOM     58  C   UNL A   1      40.781  30.499  34.563  1.00  0.00     0.074 A 
ATOM     59  C   UNL A   1      43.706  26.833  30.357  1.00  0.00     0.029 A 
ATOM     60  N   UNL A   1      42.295  28.180  31.417  1.00  0.00    -0.354 N 
ATOM     61  N   UNL A   1      41.338  29.760  33.635  1.00  0.00    -0.248 NA
ATOM     62  C   UNL A   1      41.482  30.465  35.857  1.00  0.00     0.031 C 
ATOM     63  C   UNL A   1      44.171  27.010  31.665  1.00  0.00     0.029 A 
ATOM     64  C   UNL A   1      43.302  27.866  32.319  1.00  0.00     0.049 A 
ATOM     65  H   UNL A   1      41.531  28.770  31.609  1.00  0.00     0.167 HD
ATOM     66  C   UNL A   1      42.466  29.202  34.221  1.00  0.00     0.074 A 
ATOM     67  C   UNL A   1      42.527  29.686  35.580  1.00  0.00     0.031 C 
ATOM     68  C   UNL A   1      43.376  28.360  33.668  1.00  0.00     0.037 A 
BRANCH  55  69
ATOM     69  C   UNL A   1      42.058  26.819  27.848  1.00  0.00     0.064 A 
ATOM     70  C   UNL A   1      42.986  27.291  26.910  1.00  0.00     0.173 A 
ATOM     71  C   UNL A   1      41.544  25.524  27.669  1.00  0.00     0.173 A 
ATOM     72  F   UNL A   1      43.507  28.521  27.035  1.00  0.00    -0.203 F 
ATOM     73  C   UNL A   1      43.365  26.508  25.821  1.00  0.00     0.198 A 
ATOM     74  C   UNL A   1      41.944  24.735  26.595  1.00  0.00     0.198 A 
ATOM     75  F   UNL A   1      40.666  25.018  28.548  1.00  0.00    -0.203 F 
ATOM     76  F   UNL A   1      44.223  26.995  24.914  1.00  0.00    -0.200 F 
ATOM     77  C   UNL A   1      42.848  25.230  25.667  1.00  0.00     0.200 A 
ATOM     78  F   UNL A   1      41.457  23.493  26.458  1.00  0.00    -0.200 F 
ATOM     79  F   UNL A   1      43.218  24.476  24.622  1.00  0.00    -0.200 F 
ENDBRANCH  55  69
BRANCH  56  80
ATOM     80  C   UNL A   1      39.103  32.132  35.673  1.00  0.00     0.064 A 
ATOM     81  C   UNL A   1      39.496  33.465  35.859  1.00  0.00     0.173 A 
ATOM     82  C   UNL A   1      38.298  31.545  36.659  1.00  0.00     0.173 A 
ATOM     83  F   UNL A   1      40.294  34.060  34.960  1.00  0.00    -0.203 F 
ATOM     84  C   UNL A   1      39.111  34.177  36.994  1.00  0.00     0.198 A 
ATOM     85  C   UNL A   1      37.891  32.265  37.779  1.00  0.00     0.198 A 
ATOM     86  F   UNL A   1      37.902  30.269  36.530  1.00  0.00    -0.203 F 
ATOM     87  F   UNL A   1      39.537  35.435  37.170  1.00  0.00    -0.200 F 
ATOM     88  C   UNL A   1      38.303  33.578  37.950  1.00  0.00     0.200 A 
ATOM     89  F   UNL A   1      37.105  31.686  38.696  1.00  0.00    -0.200 F 
ATOM     90  F   UNL A   1      37.930  34.263  39.039  1.00  0.00    -0.200 F 
ENDBRANCH  56  80
BRANCH  68  91
ATOM     91  C   UNL A   1      44.544  27.940  34.514  1.00  0.00     0.064 A 
ATOM     92  C   UNL A   1      44.516  26.765  35.280  1.00  0.00     0.173 A 
ATOM     93  C   UNL A   1      45.725  28.700  34.522  1.00  0.00     0.173 A 
ATOM     94  F   UNL A   1      43.408  26.011  35.320  1.00  0.00    -0.203 F 
ATOM     95  C   UNL A   1      45.621  26.376  36.036  1.00  0.00     0.198 A 
ATOM     96  C   UNL A   1      46.835  28.296  35.259  1.00  0.00     0.198 A 
ATOM     97  F   UNL A   1      45.806  29.830  33.804  1.00  0.00    -0.203 F 
ATOM     98  F   UNL A   1      45.560  25.269  36.789  1.00  0.00    -0.200 F 
ATOM     99  C   UNL A   1      46.781  27.136  36.019  1.00  0.00     0.200 A 
ATOM    100  F   UNL A   1      47.958  29.027  35.235  1.00  0.00    -0.200 F 
ATOM    101  F   UNL A   1      47.844  26.756  36.740  1.00  0.00    -0.200 F 
ENDBRANCH  68  91
ENDBRANCH  42  43
ENDBRANCH  34  37
ENDBRANCH  32  33
ENDBRANCH  31  32
ENDBRANCH  30  31
ENDBRANCH   3  30
TORSDOF 17
ENDMDL
