MODEL 1
REMARK VINA RESULT:     -13.1      0.000      0.000
REMARK SMILES COc1cc(CC(=O)N[C@@H](CC(=O)NCCCNC(=O)c2ccc(-c3c4nc(c(-c5c(F)c(F)c(F)c(F)c5F)c5ccc([nH]5)c(-c5c(F)c(F)c(F)c(F)c5F)c5nc(c(-c6c(F)c(F)c(F)c(F)c6F)c6ccc3[nH]6)C=C5)C=C4)cc2)c2cccs2)ccc1C
REMARK SMILES IDX 12 1 13 2 14 3 11 5 10 6 9 7 7 8 8 9 6 11 5 12 3 13 4 14
REMARK SMILES IDX 91 15 90 16 92 17 89 18 2 19 1 20 84 21 85 22 88 23 86 24
REMARK SMILES IDX 87 25 15 26 16 27 17 28 18 29 19 30 20 32 21 33 22 34 83 35
REMARK SMILES IDX 23 36 82 37 24 38 25 39 26 40 76 41 27 42 81 43 75 44 77 45
REMARK SMILES IDX 28 46 80 47 74 48 73 49 29 51 61 52 41 53 60 54 42 55 45 56
REMARK SMILES IDX 59 57 78 58 43 59 44 60 58 62 79 63 46 64 30 65 31 66 39 67
REMARK SMILES IDX 32 68 33 69 37 70 40 71 34 72 35 73 38 74 36 75 62 76 63 77
REMARK SMILES IDX 71 78 64 79 65 80 69 81 72 82 66 83 67 84 70 85 68 86 47 87
REMARK SMILES IDX 48 88 56 89 49 90 50 91 54 92 57 93 51 94 52 95 55 96 53 97
REMARK H PARENT 14 4 9 10 18 31 77 50 45 61
REMARK Flexibility Score: inf
ROOT
ATOM      1  C   UNL A   1      36.169  22.590  23.824  1.00  0.00     0.222 C 
ATOM      2  O   UNL A   1      36.170  23.155  22.727  1.00  0.00    -0.275 OA
ATOM      3  N   UNL A   1      37.245  21.809  24.120  1.00  0.00    -0.356 N 
ATOM      4  H   UNL A   1      37.888  21.692  23.384  1.00  0.00     0.163 HD
ENDROOT
BRANCH   1   5
ATOM      5  C   UNL A   1      35.050  22.831  24.822  1.00  0.00     0.130 C 
BRANCH   5   6
ATOM      6  C   UNL A   1      33.697  23.393  24.357  1.00  0.00     0.131 C 
BRANCH   6   7
ATOM      7  N   UNL A   1      33.078  22.679  23.252  1.00  0.00    -0.348 N 
ATOM      8  C   UNL A   1      32.501  21.451  23.168  1.00  0.00     0.224 C 
ATOM      9  O   UNL A   1      32.090  21.099  22.058  1.00  0.00    -0.275 OA
ATOM     10  H   UNL A   1      33.076  23.180  22.403  1.00  0.00     0.164 HD
BRANCH   8  11
ATOM     11  C   UNL A   1      32.248  20.581  24.382  1.00  0.00     0.135 C 
BRANCH  11  12
ATOM     12  C   UNL A   1      33.080  19.334  24.523  1.00  0.00    -0.035 A 
ATOM     13  C   UNL A   1      33.172  16.902  24.725  1.00  0.00     0.122 A 
ATOM     14  C   UNL A   1      32.442  18.084  24.570  1.00  0.00     0.051 A 
ATOM     15  C   UNL A   1      34.568  16.963  24.840  1.00  0.00    -0.009 A 
ATOM     16  C   UNL A   1      35.211  18.209  24.738  1.00  0.00     0.007 A 
ATOM     17  C   UNL A   1      35.409  15.728  25.015  1.00  0.00     0.048 C 
ATOM     18  C   UNL A   1      34.476  19.384  24.575  1.00  0.00     0.005 A 
BRANCH  13  19
ATOM     19  O   UNL A   1      32.591  15.666  24.824  1.00  0.00    -0.496 OA
ATOM     20  C   UNL A   1      32.065  15.319  26.101  1.00  0.00     0.278 C 
ENDBRANCH  13  19
ENDBRANCH  11  12
ENDBRANCH   8  11
ENDBRANCH   6   7
BRANCH   6  21
ATOM     21  C   UNL A   1      33.613  24.867  24.015  1.00  0.00     0.027 A 
ATOM     22  C   UNL A   1      33.855  25.922  24.883  1.00  0.00     0.017 A 
ATOM     23  S   UNL A   1      33.047  25.454  22.508  1.00  0.00    -0.147 S 
ATOM     24  C   UNL A   1      33.633  27.196  24.286  1.00  0.00     0.012 A 
ATOM     25  C   UNL A   1      33.228  27.083  22.978  1.00  0.00     0.065 A 
ENDBRANCH   6  21
ENDBRANCH   5   6
ENDBRANCH   1   5
BRANCH   3  26
ATOM     26  C   UNL A   1      37.591  21.121  25.351  1.00  0.00     0.117 C 
BRANCH  26  27
ATOM     27  C   UNL A   1      39.007  21.455  25.802  1.00  0.00     0.042 C 
BRANCH  27  28
ATOM     28  C   UNL A   1      39.195  22.901  26.244  1.00  0.00     0.118 C 
BRANCH  28  29
ATOM     29  N   UNL A   1      40.610  23.186  26.498  1.00  0.00    -0.352 N 
ATOM     30  C   UNL A   1      41.241  24.352  26.888  1.00  0.00     0.251 C 
ATOM     31  H   UNL A   1      41.212  22.417  26.372  1.00  0.00     0.163 HD
ATOM     32  O   UNL A   1      42.434  24.382  27.123  1.00  0.00    -0.269 OA
BRANCH  30  33
ATOM     33  C   UNL A   1      40.397  25.532  27.148  1.00  0.00     0.039 A 
ATOM     34  C   UNL A   1      40.692  26.684  26.413  1.00  0.00     0.014 A 
ATOM     35  C   UNL A   1      39.616  25.579  28.301  1.00  0.00     0.014 A 
ATOM     36  C   UNL A   1      40.451  27.921  26.993  1.00  0.00     0.010 A 
ATOM     37  C   UNL A   1      39.437  26.811  28.905  1.00  0.00     0.010 A 
ATOM     38  C   UNL A   1      39.958  27.964  28.297  1.00  0.00    -0.014 A 
BRANCH  38  39
ATOM     39  C   UNL A   1      40.160  29.124  29.159  1.00  0.00     0.031 A 
ATOM     40  C   UNL A   1      39.176  30.222  29.195  1.00  0.00     0.074 A 
ATOM     41  C   UNL A   1      41.242  29.166  29.973  1.00  0.00     0.049 A 
ATOM     42  N   UNL A   1      39.417  31.380  29.714  1.00  0.00    -0.248 NA
ATOM     43  C   UNL A   1      37.860  30.137  28.567  1.00  0.00     0.031 C 
ATOM     44  C   UNL A   1      41.477  30.071  31.099  1.00  0.00     0.029 A 
ATOM     45  N   UNL A   1      42.486  28.535  29.778  1.00  0.00    -0.354 N 
ATOM     46  C   UNL A   1      38.228  32.057  29.772  1.00  0.00     0.074 A 
ATOM     47  C   UNL A   1      37.334  31.315  28.920  1.00  0.00     0.031 C 
ATOM     48  C   UNL A   1      42.800  30.194  31.284  1.00  0.00     0.029 A 
ATOM     49  C   UNL A   1      43.451  29.485  30.200  1.00  0.00     0.049 A 
ATOM     50  H   UNL A   1      42.651  27.631  29.425  1.00  0.00     0.167 HD
ATOM     51  C   UNL A   1      38.107  33.087  30.652  1.00  0.00     0.037 A 
ATOM     52  C   UNL A   1      44.338  30.034  29.320  1.00  0.00     0.037 A 
ATOM     53  C   UNL A   1      39.414  33.574  31.091  1.00  0.00     0.049 A 
ATOM     54  C   UNL A   1      44.262  31.542  29.189  1.00  0.00     0.074 A 
ATOM     55  C   UNL A   1      40.141  33.549  32.268  1.00  0.00     0.029 A 
ATOM     56  N   UNL A   1      40.283  34.041  30.117  1.00  0.00    -0.354 N 
ATOM     57  N   UNL A   1      43.383  32.292  29.792  1.00  0.00    -0.248 NA
ATOM     58  C   UNL A   1      45.108  32.308  28.269  1.00  0.00     0.031 C 
ATOM     59  C   UNL A   1      41.486  33.929  31.960  1.00  0.00     0.029 A 
ATOM     60  C   UNL A   1      41.559  34.216  30.608  1.00  0.00     0.049 A 
ATOM     61  H   UNL A   1      40.021  34.225  29.186  1.00  0.00     0.167 HD
ATOM     62  C   UNL A   1      43.480  33.570  29.315  1.00  0.00     0.074 A 
ATOM     63  C   UNL A   1      44.578  33.537  28.369  1.00  0.00     0.031 C 
ATOM     64  C   UNL A   1      42.621  34.563  29.681  1.00  0.00     0.037 A 
BRANCH  51  65
ATOM     65  C   UNL A   1      36.795  33.582  31.217  1.00  0.00     0.064 A 
ATOM     66  C   UNL A   1      36.460  33.330  32.564  1.00  0.00     0.173 A 
ATOM     67  C   UNL A   1      35.768  34.187  30.457  1.00  0.00     0.173 A 
ATOM     68  F   UNL A   1      37.329  32.735  33.393  1.00  0.00    -0.203 F 
ATOM     69  C   UNL A   1      35.207  33.656  33.099  1.00  0.00     0.198 A 
ATOM     70  C   UNL A   1      34.542  34.567  31.007  1.00  0.00     0.198 A 
ATOM     71  F   UNL A   1      35.870  34.373  29.136  1.00  0.00    -0.203 F 
ATOM     72  F   UNL A   1      34.921  33.336  34.368  1.00  0.00    -0.200 F 
ATOM     73  C   UNL A   1      34.255  34.289  32.325  1.00  0.00     0.200 A 
ATOM     74  F   UNL A   1      33.629  35.174  30.234  1.00  0.00    -0.200 F 
ATOM     75  F   UNL A   1      33.059  34.606  32.836  1.00  0.00    -0.200 F 
ENDBRANCH  51  65
BRANCH  52  76
ATOM     76  C   UNL A   1      44.720  29.108  28.224  1.00  0.00     0.064 A 
ATOM     77  C   UNL A   1      45.600  28.046  28.514  1.00  0.00     0.173 A 
ATOM     78  C   UNL A   1      43.992  29.039  27.032  1.00  0.00     0.173 A 
ATOM     79  F   UNL A   1      46.322  28.063  29.646  1.00  0.00    -0.203 F 
ATOM     80  C   UNL A   1      45.654  26.913  27.708  1.00  0.00     0.198 A 
ATOM     81  C   UNL A   1      44.065  27.910  26.216  1.00  0.00     0.198 A 
ATOM     82  F   UNL A   1      43.120  30.006  26.711  1.00  0.00    -0.203 F 
ATOM     83  F   UNL A   1      46.410  25.868  28.075  1.00  0.00    -0.200 F 
ATOM     84  C   UNL A   1      44.867  26.836  26.572  1.00  0.00     0.200 A 
ATOM     85  F   UNL A   1      43.280  27.823  25.133  1.00  0.00    -0.200 F 
ATOM     86  F   UNL A   1      44.846  25.711  25.844  1.00  0.00    -0.200 F 
ENDBRANCH  52  76
BRANCH  64  87
ATOM     87  C   UNL A   1      42.733  35.954  29.141  1.00  0.00     0.064 A 
ATOM     88  C   UNL A   1      43.433  36.958  29.827  1.00  0.00     0.173 A 
ATOM     89  C   UNL A   1      42.051  36.343  27.973  1.00  0.00     0.173 A 
ATOM     90  F   UNL A   1      44.093  36.676  30.960  1.00  0.00    -0.203 F 
ATOM     91  C   UNL A   1      43.463  38.272  29.361  1.00  0.00     0.198 A 
ATOM     92  C   UNL A   1      42.047  37.665  27.533  1.00  0.00     0.198 A 
ATOM     93  F   UNL A   1      41.398  35.444  27.221  1.00  0.00    -0.203 F 
ATOM     94  F   UNL A   1      44.176  39.197  30.019  1.00  0.00    -0.200 F 
ATOM     95  C   UNL A   1      42.757  38.629  28.223  1.00  0.00     0.200 A 
ATOM     96  F   UNL A   1      41.354  37.998  26.434  1.00  0.00    -0.200 F 
ATOM     97  F   UNL A   1      42.768  39.896  27.789  1.00  0.00    -0.200 F 
ENDBRANCH  64  87
ENDBRANCH  38  39
ENDBRANCH  30  33
ENDBRANCH  28  29
ENDBRANCH  27  28
ENDBRANCH  26  27
ENDBRANCH   3  26
TORSDOF 16
ENDMDL
MODEL 2
REMARK VINA RESULT:     -13.0      1.556      3.884
REMARK SMILES COc1cc(CC(=O)N[C@@H](CC(=O)NCCCNC(=O)c2ccc(-c3c4nc(c(-c5c(F)c(F)c(F)c(F)c5F)c5ccc([nH]5)c(-c5c(F)c(F)c(F)c(F)c5F)c5nc(c(-c6c(F)c(F)c(F)c(F)c6F)c6ccc3[nH]6)C=C5)C=C4)cc2)c2cccs2)ccc1C
REMARK SMILES IDX 12 1 13 2 14 3 11 5 10 6 9 7 7 8 8 9 6 11 5 12 3 13 4 14
REMARK SMILES IDX 91 15 90 16 92 17 89 18 2 19 1 20 84 21 85 22 88 23 86 24
REMARK SMILES IDX 87 25 15 26 16 27 17 28 18 29 19 30 20 32 21 33 22 34 83 35
REMARK SMILES IDX 23 36 82 37 24 38 25 39 26 40 76 41 27 42 81 43 75 44 77 45
REMARK SMILES IDX 28 46 80 47 74 48 73 49 29 51 61 52 41 53 60 54 42 55 45 56
REMARK SMILES IDX 59 57 78 58 43 59 44 60 58 62 79 63 46 64 30 65 31 66 39 67
REMARK SMILES IDX 32 68 33 69 37 70 40 71 34 72 35 73 38 74 36 75 62 76 63 77
REMARK SMILES IDX 71 78 64 79 65 80 69 81 72 82 66 83 67 84 70 85 68 86 47 87
REMARK SMILES IDX 48 88 56 89 49 90 50 91 54 92 57 93 51 94 52 95 55 96 53 97
REMARK H PARENT 14 4 9 10 18 31 77 50 45 61
REMARK Flexibility Score: inf
ROOT
ATOM      1  C   UNL A   1      34.946  22.016  25.926  1.00  0.00     0.222 C 
ATOM      2  O   UNL A   1      34.257  22.225  26.928  1.00  0.00    -0.275 OA
ATOM      3  N   UNL A   1      36.235  21.625  26.129  1.00  0.00    -0.356 N 
ATOM      4  H   UNL A   1      36.528  21.635  27.069  1.00  0.00     0.163 HD
ENDROOT
BRANCH   1   5
ATOM      5  C   UNL A   1      34.345  22.115  24.535  1.00  0.00     0.130 C 
BRANCH   5   6
ATOM      6  C   UNL A   1      32.960  21.516  24.238  1.00  0.00     0.131 C 
BRANCH   6   7
ATOM      7  N   UNL A   1      31.950  21.762  25.254  1.00  0.00    -0.348 N 
ATOM      8  C   UNL A   1      31.130  22.820  25.490  1.00  0.00     0.224 C 
ATOM      9  O   UNL A   1      30.390  22.749  26.475  1.00  0.00    -0.275 OA
ATOM     10  H   UNL A   1      31.838  21.020  25.894  1.00  0.00     0.164 HD
BRANCH   8  11
ATOM     11  C   UNL A   1      31.017  23.994  24.539  1.00  0.00     0.135 C 
BRANCH  11  12
ATOM     12  C   UNL A   1      31.784  25.242  24.889  1.00  0.00    -0.035 A 
ATOM     13  C   UNL A   1      32.154  27.630  24.534  1.00  0.00     0.122 A 
ATOM     14  C   UNL A   1      31.453  26.453  24.258  1.00  0.00     0.051 A 
ATOM     15  C   UNL A   1      33.211  27.605  25.453  1.00  0.00    -0.009 A 
ATOM     16  C   UNL A   1      33.508  26.406  26.124  1.00  0.00     0.007 A 
ATOM     17  C   UNL A   1      34.008  28.836  25.788  1.00  0.00     0.048 C 
ATOM     18  C   UNL A   1      32.798  25.235  25.850  1.00  0.00     0.005 A 
BRANCH  13  19
ATOM     19  O   UNL A   1      31.897  28.822  23.910  1.00  0.00    -0.496 OA
ATOM     20  C   UNL A   1      31.012  28.769  22.795  1.00  0.00     0.278 C 
ENDBRANCH  13  19
ENDBRANCH  11  12
ENDBRANCH   8  11
ENDBRANCH   6   7
BRANCH   6  21
ATOM     21  C   UNL A   1      32.876  20.042  23.898  1.00  0.00     0.027 A 
ATOM     22  C   UNL A   1      32.311  19.499  22.752  1.00  0.00     0.017 A 
ATOM     23  S   UNL A   1      33.345  18.797  24.978  1.00  0.00    -0.147 S 
ATOM     24  C   UNL A   1      32.324  18.075  22.747  1.00  0.00     0.012 A 
ATOM     25  C   UNL A   1      32.900  17.565  23.886  1.00  0.00     0.065 A 
ENDBRANCH   6  21
ENDBRANCH   5   6
ENDBRANCH   1   5
BRANCH   3  26
ATOM     26  C   UNL A   1      37.243  21.196  25.178  1.00  0.00     0.117 C 
BRANCH  26  27
ATOM     27  C   UNL A   1      38.652  21.469  25.689  1.00  0.00     0.042 C 
BRANCH  27  28
ATOM     28  C   UNL A   1      38.887  22.909  26.127  1.00  0.00     0.118 C 
BRANCH  28  29
ATOM     29  N   UNL A   1      40.299  23.127  26.452  1.00  0.00    -0.352 N 
ATOM     30  C   UNL A   1      40.962  24.262  26.881  1.00  0.00     0.251 C 
ATOM     31  H   UNL A   1      40.871  22.333  26.350  1.00  0.00     0.163 HD
ATOM     32  O   UNL A   1      42.142  24.236  27.175  1.00  0.00    -0.269 OA
BRANCH  30  33
ATOM     33  C   UNL A   1      40.160  25.478  27.108  1.00  0.00     0.039 A 
ATOM     34  C   UNL A   1      40.527  26.612  26.378  1.00  0.00     0.014 A 
ATOM     35  C   UNL A   1      39.346  25.564  28.235  1.00  0.00     0.014 A 
ATOM     36  C   UNL A   1      40.320  27.862  26.945  1.00  0.00     0.010 A 
ATOM     37  C   UNL A   1      39.198  26.806  28.827  1.00  0.00     0.010 A 
ATOM     38  C   UNL A   1      39.787  27.932  28.231  1.00  0.00    -0.014 A 
BRANCH  38  39
ATOM     39  C   UNL A   1      40.009  29.088  29.095  1.00  0.00     0.031 A 
ATOM     40  C   UNL A   1      39.035  30.194  29.145  1.00  0.00     0.074 A 
ATOM     41  C   UNL A   1      41.101  29.119  29.895  1.00  0.00     0.049 A 
ATOM     42  N   UNL A   1      39.292  31.348  29.665  1.00  0.00    -0.248 NA
ATOM     43  C   UNL A   1      37.711  30.123  28.534  1.00  0.00     0.031 C 
ATOM     44  C   UNL A   1      41.358  30.018  31.020  1.00  0.00     0.029 A 
ATOM     45  N   UNL A   1      42.338  28.477  29.683  1.00  0.00    -0.354 N 
ATOM     46  C   UNL A   1      38.110  32.036  29.740  1.00  0.00     0.074 A 
ATOM     47  C   UNL A   1      37.199  31.304  28.897  1.00  0.00     0.031 C 
ATOM     48  C   UNL A   1      42.684  30.129  31.190  1.00  0.00     0.029 A 
ATOM     49  C   UNL A   1      43.316  29.418  30.096  1.00  0.00     0.049 A 
ATOM     50  H   UNL A   1      42.491  27.573  29.326  1.00  0.00     0.167 HD
ATOM     51  C   UNL A   1      38.008  33.064  30.625  1.00  0.00     0.037 A 
ATOM     52  C   UNL A   1      44.197  29.963  29.207  1.00  0.00     0.037 A 
ATOM     53  C   UNL A   1      39.325  33.538  31.049  1.00  0.00     0.049 A 
ATOM     54  C   UNL A   1      44.132  31.471  29.081  1.00  0.00     0.074 A 
ATOM     55  C   UNL A   1      40.067  33.504  32.217  1.00  0.00     0.029 A 
ATOM     56  N   UNL A   1      40.186  34.001  30.066  1.00  0.00    -0.354 N 
ATOM     57  N   UNL A   1      43.267  32.226  29.697  1.00  0.00    -0.248 NA
ATOM     58  C   UNL A   1      44.973  32.232  28.153  1.00  0.00     0.031 C 
ATOM     59  C   UNL A   1      41.410  33.873  31.893  1.00  0.00     0.029 A 
ATOM     60  C   UNL A   1      41.470  34.164  30.541  1.00  0.00     0.049 A 
ATOM     61  H   UNL A   1      39.914  34.190  29.139  1.00  0.00     0.167 HD
ATOM     62  C   UNL A   1      43.368  33.506  29.222  1.00  0.00     0.074 A 
ATOM     63  C   UNL A   1      44.455  33.466  28.262  1.00  0.00     0.031 C 
ATOM     64  C   UNL A   1      42.523  34.505  29.602  1.00  0.00     0.037 A 
BRANCH  51  65
ATOM     65  C   UNL A   1      36.708  33.568  31.207  1.00  0.00     0.064 A 
ATOM     66  C   UNL A   1      36.387  33.314  32.557  1.00  0.00     0.173 A 
ATOM     67  C   UNL A   1      35.677  34.184  30.461  1.00  0.00     0.173 A 
ATOM     68  F   UNL A   1      37.261  32.709  33.374  1.00  0.00    -0.203 F 
ATOM     69  C   UNL A   1      35.144  33.649  33.108  1.00  0.00     0.198 A 
ATOM     70  C   UNL A   1      34.461  34.573  31.028  1.00  0.00     0.198 A 
ATOM     71  F   UNL A   1      35.765  34.374  29.140  1.00  0.00    -0.203 F 
ATOM     72  F   UNL A   1      34.870  33.327  34.380  1.00  0.00    -0.200 F 
ATOM     73  C   UNL A   1      34.188  34.293  32.348  1.00  0.00     0.200 A 
ATOM     74  F   UNL A   1      33.544  35.191  30.268  1.00  0.00    -0.200 F 
ATOM     75  F   UNL A   1      33.001  34.619  32.875  1.00  0.00    -0.200 F 
ENDBRANCH  51  65
BRANCH  52  76
ATOM     76  C   UNL A   1      44.557  29.036  28.103  1.00  0.00     0.064 A 
ATOM     77  C   UNL A   1      45.414  27.954  28.384  1.00  0.00     0.173 A 
ATOM     78  C   UNL A   1      43.826  28.992  26.912  1.00  0.00     0.173 A 
ATOM     79  F   UNL A   1      46.138  27.947  29.515  1.00  0.00    -0.203 F 
ATOM     80  C   UNL A   1      45.444  26.825  27.570  1.00  0.00     0.198 A 
ATOM     81  C   UNL A   1      43.873  27.868  26.088  1.00  0.00     0.198 A 
ATOM     82  F   UNL A   1      42.974  29.979  26.599  1.00  0.00    -0.203 F 
ATOM     83  F   UNL A   1      46.178  25.762  27.927  1.00  0.00    -0.200 F 
ATOM     84  C   UNL A   1      44.653  26.773  26.434  1.00  0.00     0.200 A 
ATOM     85  F   UNL A   1      43.085  27.805  25.005  1.00  0.00    -0.200 F 
ATOM     86  F   UNL A   1      44.607  25.655  25.698  1.00  0.00    -0.200 F 
ENDBRANCH  52  76
BRANCH  64  87
ATOM     87  C   UNL A   1      42.640  35.896  29.065  1.00  0.00     0.064 A 
ATOM     88  C   UNL A   1      43.407  36.876  29.713  1.00  0.00     0.173 A 
ATOM     89  C   UNL A   1      41.899  36.313  27.943  1.00  0.00     0.173 A 
ATOM     90  F   UNL A   1      44.127  36.567  30.803  1.00  0.00    -0.203 F 
ATOM     91  C   UNL A   1      43.445  38.192  29.254  1.00  0.00     0.198 A 
ATOM     92  C   UNL A   1      41.904  37.638  27.512  1.00  0.00     0.198 A 
ATOM     93  F   UNL A   1      41.177  35.437  27.226  1.00  0.00    -0.203 F 
ATOM     94  F   UNL A   1      44.222  39.092  29.873  1.00  0.00    -0.200 F 
ATOM     95  C   UNL A   1      42.682  38.577  28.164  1.00  0.00     0.200 A 
ATOM     96  F   UNL A   1      41.156  37.998  26.459  1.00  0.00    -0.200 F 
ATOM     97  F   UNL A   1      42.701  39.846  27.738  1.00  0.00    -0.200 F 
ENDBRANCH  64  87
ENDBRANCH  38  39
ENDBRANCH  30  33
ENDBRANCH  28  29
ENDBRANCH  27  28
ENDBRANCH  26  27
ENDBRANCH   3  26
TORSDOF 16
ENDMDL
MODEL 3
REMARK VINA RESULT:     -13.0      1.956      3.785
REMARK SMILES COc1cc(CC(=O)N[C@@H](CC(=O)NCCCNC(=O)c2ccc(-c3c4nc(c(-c5c(F)c(F)c(F)c(F)c5F)c5ccc([nH]5)c(-c5c(F)c(F)c(F)c(F)c5F)c5nc(c(-c6c(F)c(F)c(F)c(F)c6F)c6ccc3[nH]6)C=C5)C=C4)cc2)c2cccs2)ccc1C
REMARK SMILES IDX 12 1 13 2 14 3 11 5 10 6 9 7 7 8 8 9 6 11 5 12 3 13 4 14
REMARK SMILES IDX 91 15 90 16 92 17 89 18 2 19 1 20 84 21 85 22 88 23 86 24
REMARK SMILES IDX 87 25 15 26 16 27 17 28 18 29 19 30 20 32 21 33 22 34 83 35
REMARK SMILES IDX 23 36 82 37 24 38 25 39 26 40 76 41 27 42 81 43 75 44 77 45
REMARK SMILES IDX 28 46 80 47 74 48 73 49 29 51 61 52 41 53 60 54 42 55 45 56
REMARK SMILES IDX 59 57 78 58 43 59 44 60 58 62 79 63 46 64 30 65 31 66 39 67
REMARK SMILES IDX 32 68 33 69 37 70 40 71 34 72 35 73 38 74 36 75 62 76 63 77
REMARK SMILES IDX 71 78 64 79 65 80 69 81 72 82 66 83 67 84 70 85 68 86 47 87
REMARK SMILES IDX 48 88 56 89 49 90 50 91 54 92 57 93 51 94 52 95 55 96 53 97
REMARK H PARENT 14 4 9 10 18 31 77 50 45 61
REMARK Flexibility Score: inf
ROOT
ATOM      1  C   UNL A   1      36.443  22.552  23.529  1.00  0.00     0.222 C 
ATOM      2  O   UNL A   1      36.589  22.984  22.383  1.00  0.00    -0.275 OA
ATOM      3  N   UNL A   1      37.410  21.719  24.006  1.00  0.00    -0.356 N 
ATOM      4  H   UNL A   1      38.097  21.461  23.349  1.00  0.00     0.163 HD
ENDROOT
BRANCH   1   5
ATOM      5  C   UNL A   1      35.276  23.005  24.388  1.00  0.00     0.130 C 
BRANCH   5   6
ATOM      6  C   UNL A   1      33.829  22.708  23.959  1.00  0.00     0.131 C 
BRANCH   6   7
ATOM      7  N   UNL A   1      33.416  23.327  22.711  1.00  0.00    -0.348 N 
ATOM      8  C   UNL A   1      33.500  24.604  22.253  1.00  0.00     0.224 C 
ATOM      9  O   UNL A   1      33.016  24.836  21.141  1.00  0.00    -0.275 OA
ATOM     10  H   UNL A   1      32.995  22.702  22.075  1.00  0.00     0.164 HD
BRANCH   8  11
ATOM     11  C   UNL A   1      34.255  25.690  22.993  1.00  0.00     0.135 C 
BRANCH  11  12
ATOM     12  C   UNL A   1      33.531  26.394  24.111  1.00  0.00    -0.035 A 
ATOM     13  C   UNL A   1      31.661  27.790  24.829  1.00  0.00     0.122 A 
ATOM     14  C   UNL A   1      32.351  27.101  23.828  1.00  0.00     0.051 A 
ATOM     15  C   UNL A   1      32.154  27.781  26.141  1.00  0.00    -0.009 A 
ATOM     16  C   UNL A   1      33.305  27.029  26.435  1.00  0.00     0.007 A 
ATOM     17  C   UNL A   1      31.461  28.507  27.260  1.00  0.00     0.048 C 
ATOM     18  C   UNL A   1      33.986  26.336  25.431  1.00  0.00     0.005 A 
BRANCH  13  19
ATOM     19  O   UNL A   1      30.533  28.531  24.591  1.00  0.00    -0.496 OA
ATOM     20  C   UNL A   1      29.818  28.221  23.399  1.00  0.00     0.278 C 
ENDBRANCH  13  19
ENDBRANCH  11  12
ENDBRANCH   8  11
ENDBRANCH   6   7
BRANCH   6  21
ATOM     21  C   UNL A   1      32.719  22.970  24.956  1.00  0.00     0.027 A 
ATOM     22  C   UNL A   1      31.435  23.402  24.654  1.00  0.00     0.017 A 
ATOM     23  S   UNL A   1      32.944  22.915  26.654  1.00  0.00    -0.147 S 
ATOM     24  C   UNL A   1      30.635  23.622  25.811  1.00  0.00     0.012 A 
ATOM     25  C   UNL A   1      31.326  23.353  26.968  1.00  0.00     0.065 A 
ENDBRANCH   6  21
ENDBRANCH   5   6
ENDBRANCH   1   5
BRANCH   3  26
ATOM     26  C   UNL A   1      37.586  21.151  25.330  1.00  0.00     0.117 C 
BRANCH  26  27
ATOM     27  C   UNL A   1      38.954  21.486  25.908  1.00  0.00     0.042 C 
BRANCH  27  28
ATOM     28  C   UNL A   1      39.167  22.968  26.187  1.00  0.00     0.118 C 
BRANCH  28  29
ATOM     29  N   UNL A   1      40.575  23.244  26.481  1.00  0.00    -0.352 N 
ATOM     30  C   UNL A   1      41.201  24.402  26.905  1.00  0.00     0.251 C 
ATOM     31  H   UNL A   1      41.178  22.476  26.357  1.00  0.00     0.163 HD
ATOM     32  O   UNL A   1      42.387  24.423  27.170  1.00  0.00    -0.269 OA
BRANCH  30  33
ATOM     33  C   UNL A   1      40.354  25.580  27.165  1.00  0.00     0.039 A 
ATOM     34  C   UNL A   1      40.646  26.732  26.429  1.00  0.00     0.014 A 
ATOM     35  C   UNL A   1      39.573  25.626  28.318  1.00  0.00     0.014 A 
ATOM     36  C   UNL A   1      40.402  27.969  27.009  1.00  0.00     0.010 A 
ATOM     37  C   UNL A   1      39.391  26.857  28.921  1.00  0.00     0.010 A 
ATOM     38  C   UNL A   1      39.909  28.011  28.313  1.00  0.00    -0.014 A 
BRANCH  38  39
ATOM     39  C   UNL A   1      40.109  29.172  29.174  1.00  0.00     0.031 A 
ATOM     40  C   UNL A   1      39.116  30.262  29.218  1.00  0.00     0.074 A 
ATOM     41  C   UNL A   1      41.197  29.223  29.979  1.00  0.00     0.049 A 
ATOM     42  N   UNL A   1      39.352  31.421  29.736  1.00  0.00    -0.248 NA
ATOM     43  C   UNL A   1      37.796  30.167  28.602  1.00  0.00     0.031 C 
ATOM     44  C   UNL A   1      41.434  30.129  31.103  1.00  0.00     0.029 A 
ATOM     45  N   UNL A   1      42.445  28.602  29.773  1.00  0.00    -0.354 N 
ATOM     46  C   UNL A   1      38.158  32.089  29.805  1.00  0.00     0.074 A 
ATOM     47  C   UNL A   1      37.263  31.340  28.960  1.00  0.00     0.031 C 
ATOM     48  C   UNL A   1      42.757  30.263  31.278  1.00  0.00     0.029 A 
ATOM     49  C   UNL A   1      43.405  29.560  30.188  1.00  0.00     0.049 A 
ATOM     50  H   UNL A   1      42.614  27.699  29.419  1.00  0.00     0.167 HD
ATOM     51  C   UNL A   1      38.035  33.117  30.687  1.00  0.00     0.037 A 
ATOM     52  C   UNL A   1      44.280  30.117  29.301  1.00  0.00     0.037 A 
ATOM     53  C   UNL A   1      39.342  33.614  31.116  1.00  0.00     0.049 A 
ATOM     54  C   UNL A   1      44.191  31.624  29.172  1.00  0.00     0.074 A 
ATOM     55  C   UNL A   1      40.079  33.595  32.286  1.00  0.00     0.029 A 
ATOM     56  N   UNL A   1      40.199  34.089  30.135  1.00  0.00    -0.354 N 
ATOM     57  N   UNL A   1      43.311  32.366  29.783  1.00  0.00    -0.248 NA
ATOM     58  C   UNL A   1      45.023  32.397  28.245  1.00  0.00     0.031 C 
ATOM     59  C   UNL A   1      41.418  33.986  31.967  1.00  0.00     0.029 A 
ATOM     60  C   UNL A   1      41.478  34.275  30.615  1.00  0.00     0.049 A 
ATOM     61  H   UNL A   1      39.927  34.272  29.206  1.00  0.00     0.167 HD
ATOM     62  C   UNL A   1      43.392  33.646  29.305  1.00  0.00     0.074 A 
ATOM     63  C   UNL A   1      44.483  33.622  28.350  1.00  0.00     0.031 C 
ATOM     64  C   UNL A   1      42.529  34.631  29.679  1.00  0.00     0.037 A 
BRANCH  51  65
ATOM     65  C   UNL A   1      36.723  33.601  31.262  1.00  0.00     0.064 A 
ATOM     66  C   UNL A   1      36.403  33.347  32.613  1.00  0.00     0.173 A 
ATOM     67  C   UNL A   1      35.685  34.196  30.511  1.00  0.00     0.173 A 
ATOM     68  F   UNL A   1      37.284  32.760  33.435  1.00  0.00    -0.203 F 
ATOM     69  C   UNL A   1      35.152  33.662  33.158  1.00  0.00     0.198 A 
ATOM     70  C   UNL A   1      34.461  34.566  31.072  1.00  0.00     0.198 A 
ATOM     71  F   UNL A   1      35.774  34.382  29.190  1.00  0.00    -0.203 F 
ATOM     72  F   UNL A   1      34.880  33.340  34.430  1.00  0.00    -0.200 F 
ATOM     73  C   UNL A   1      34.187  34.286  32.392  1.00  0.00     0.200 A 
ATOM     74  F   UNL A   1      33.535  35.164  30.306  1.00  0.00    -0.200 F 
ATOM     75  F   UNL A   1      32.993  34.593  32.913  1.00  0.00    -0.200 F 
ENDBRANCH  51  65
BRANCH  52  76
ATOM     76  C   UNL A   1      44.661  29.195  28.201  1.00  0.00     0.064 A 
ATOM     77  C   UNL A   1      45.548  28.137  28.484  1.00  0.00     0.173 A 
ATOM     78  C   UNL A   1      43.926  29.123  27.014  1.00  0.00     0.173 A 
ATOM     79  F   UNL A   1      46.277  28.157  29.612  1.00  0.00    -0.203 F 
ATOM     80  C   UNL A   1      45.604  27.006  27.677  1.00  0.00     0.198 A 
ATOM     81  C   UNL A   1      44.000  27.996  26.196  1.00  0.00     0.198 A 
ATOM     82  F   UNL A   1      43.047  30.086  26.700  1.00  0.00    -0.203 F 
ATOM     83  F   UNL A   1      46.369  25.965  28.037  1.00  0.00    -0.200 F 
ATOM     84  C   UNL A   1      44.811  26.926  26.545  1.00  0.00     0.200 A 
ATOM     85  F   UNL A   1      43.209  27.906  25.117  1.00  0.00    -0.200 F 
ATOM     86  F   UNL A   1      44.792  25.802  25.815  1.00  0.00    -0.200 F 
ENDBRANCH  52  76
BRANCH  64  87
ATOM     87  C   UNL A   1      42.625  36.023  29.140  1.00  0.00     0.064 A 
ATOM     88  C   UNL A   1      41.964  36.407  27.963  1.00  0.00     0.173 A 
ATOM     89  C   UNL A   1      43.468  36.982  29.734  1.00  0.00     0.173 A 
ATOM     90  F   UNL A   1      41.158  35.546  27.323  1.00  0.00    -0.203 F 
ATOM     91  C   UNL A   1      42.124  37.682  27.421  1.00  0.00     0.198 A 
ATOM     92  C   UNL A   1      43.659  38.240  29.166  1.00  0.00     0.198 A 
ATOM     93  F   UNL A   1      44.100  36.727  30.889  1.00  0.00    -0.203 F 
ATOM     94  F   UNL A   1      41.445  38.027  26.318  1.00  0.00    -0.200 F 
ATOM     95  C   UNL A   1      42.983  38.593  28.014  1.00  0.00     0.200 A 
ATOM     96  F   UNL A   1      44.499  39.110  29.747  1.00  0.00    -0.200 F 
ATOM     97  F   UNL A   1      43.154  39.809  27.479  1.00  0.00    -0.200 F 
ENDBRANCH  64  87
ENDBRANCH  38  39
ENDBRANCH  30  33
ENDBRANCH  28  29
ENDBRANCH  27  28
ENDBRANCH  26  27
ENDBRANCH   3  26
TORSDOF 16
ENDMDL
