MODEL 1
REMARK VINA RESULT:     -13.6      0.000      0.000
REMARK SMILES COc1c[nH]c(C[N@H+]2CCC[C@@H](c3ccc(C(=O)NCCCNC(=O)c4ccc(-c5c6nc(c(-c7c(F)c(F)c(F)c(F)c7F)c7ccc([nH]7)c(-c7c(F)c(F)c(F)c(F)c7F)c7nc(c(-c8c(F)c(F)c(F)c(F)c8F)c8ccc5[nH]8)C=C7)C=C6)cc4)cc3)C2)cc1=O
REMARK SMILES IDX 20 1 19 2 17 3 18 4 16 6 13 7 14 8 90 9 15 10 89 11 12 12
REMARK SMILES IDX 8 13 9 14 91 15 10 17 11 18 7 19 6 20 3 21 4 22 93 23 5 24
REMARK SMILES IDX 92 25 94 26 2 28 1 29 21 30 22 31 23 32 24 33 25 35 26 36
REMARK SMILES IDX 27 37 88 38 28 39 87 40 29 41 30 42 31 43 81 44 32 45 86 46
REMARK SMILES IDX 80 47 82 48 33 49 85 50 79 51 78 52 34 54 66 55 46 56 65 57
REMARK SMILES IDX 47 58 50 59 64 60 83 61 48 62 49 63 63 65 84 66 51 67 35 68
REMARK SMILES IDX 36 69 44 70 37 71 38 72 42 73 45 74 39 75 40 76 43 77 41 78
REMARK SMILES IDX 67 79 68 80 76 81 69 82 70 83 74 84 77 85 71 86 72 87 75 88
REMARK SMILES IDX 73 89 52 90 53 91 61 92 54 93 55 94 59 95 62 96 56 97 57 98
REMARK SMILES IDX 60 99 58 100
REMARK H PARENT 19 5 8 16 5 27 23 34 82 53 50 64
REMARK Flexibility Score: inf
ROOT
ATOM      1  C   UNL A   1      31.617  30.644  26.395  1.00  0.00     0.118 C 
ENDROOT
BRANCH   1   2
ATOM      2  N   UNL A   1      31.237  30.441  25.010  1.00  0.00    -0.352 N 
ATOM      3  C   UNL A   1      31.226  29.322  24.219  1.00  0.00     0.251 C 
ATOM      4  O   UNL A   1      30.790  29.437  23.073  1.00  0.00    -0.269 OA
ATOM      5  H   UNL A   1      30.931  31.258  24.554  1.00  0.00     0.163 HD
BRANCH   3   6
ATOM      6  C   UNL A   1      31.657  27.982  24.701  1.00  0.00     0.039 A 
ATOM      7  C   UNL A   1      32.641  25.458  25.510  1.00  0.00    -0.039 A 
ATOM      8  C   UNL A   1      33.498  26.419  24.952  1.00  0.00     0.005 A 
ATOM      9  C   UNL A   1      31.302  25.803  25.718  1.00  0.00     0.005 A 
ATOM     10  C   UNL A   1      33.009  27.660  24.542  1.00  0.00     0.014 A 
ATOM     11  C   UNL A   1      30.821  27.061  25.336  1.00  0.00     0.014 A 
BRANCH   7  12
ATOM     12  C   UNL A   1      33.132  24.070  25.893  1.00  0.00     0.074 C 
ATOM     13  N   UNL A   1      32.900  21.620  25.357  1.00  0.00    -0.329 N 
ATOM     14  C   UNL A   1      34.351  21.520  25.141  1.00  0.00     0.262 C 
ATOM     15  C   UNL A   1      32.413  22.976  25.075  1.00  0.00     0.270 C 
ATOM     16  H   UNL A   1      32.723  21.441  26.345  1.00  0.00     0.348 HD
ATOM     17  C   UNL A   1      35.112  22.527  26.007  1.00  0.00     0.062 C 
ATOM     18  C   UNL A   1      34.653  23.956  25.732  1.00  0.00     0.020 C 
BRANCH  13  19
ATOM     19  C   UNL A   1      32.153  20.577  24.619  1.00  0.00     0.317 C 
BRANCH  19  20
ATOM     20  C   UNL A   1      32.721  19.161  24.674  1.00  0.00     0.074 A 
ATOM     21  C   UNL A   1      33.487  16.423  24.977  1.00  0.00     0.182 A 
ATOM     22  C   UNL A   1      33.060  17.177  25.998  1.00  0.00     0.133 A 
ATOM     23  C   UNL A   1      33.636  17.128  23.652  1.00  0.00     0.223 A 
ATOM     24  N   UNL A   1      32.749  18.505  25.891  1.00  0.00    -0.357 N 
ATOM     25  C   UNL A   1      33.179  18.547  23.569  1.00  0.00     0.083 A 
ATOM     26  O   UNL A   1      34.086  16.586  22.646  1.00  0.00    -0.286 OA
ATOM     27  H   UNL A   1      32.538  19.011  26.709  1.00  0.00     0.166 HD
BRANCH  21  28
ATOM     28  O   UNL A   1      33.695  15.067  25.158  1.00  0.00    -0.491 OA
ATOM     29  C   UNL A   1      32.544  14.354  25.592  1.00  0.00     0.278 C 
ENDBRANCH  21  28
ENDBRANCH  19  20
ENDBRANCH  13  19
ENDBRANCH   7  12
ENDBRANCH   3   6
ENDBRANCH   1   2
BRANCH   1  30
ATOM     30  C   UNL A   1      31.436  32.104  26.805  1.00  0.00     0.042 C 
BRANCH  30  31
ATOM     31  C   UNL A   1      32.753  32.834  27.050  1.00  0.00     0.118 C 
BRANCH  31  32
ATOM     32  N   UNL A   1      32.547  34.159  27.611  1.00  0.00    -0.352 N 
ATOM     33  C   UNL A   1      33.131  34.753  28.701  1.00  0.00     0.251 C 
ATOM     34  H   UNL A   1      31.887  34.715  27.135  1.00  0.00     0.163 HD
ATOM     35  O   UNL A   1      32.665  35.797  29.144  1.00  0.00    -0.269 OA
BRANCH  33  36
ATOM     36  C   UNL A   1      34.311  34.142  29.352  1.00  0.00     0.039 A 
ATOM     37  C   UNL A   1      34.105  33.159  30.325  1.00  0.00     0.014 A 
ATOM     38  C   UNL A   1      35.609  34.565  29.053  1.00  0.00     0.014 A 
ATOM     39  C   UNL A   1      35.197  32.572  30.966  1.00  0.00     0.010 A 
ATOM     40  C   UNL A   1      36.701  33.933  29.643  1.00  0.00     0.010 A 
ATOM     41  C   UNL A   1      36.505  32.938  30.613  1.00  0.00    -0.014 A 
BRANCH  41  42
ATOM     42  C   UNL A   1      37.680  32.301  31.257  1.00  0.00     0.031 A 
ATOM     43  C   UNL A   1      38.445  31.226  30.539  1.00  0.00     0.074 A 
ATOM     44  C   UNL A   1      38.016  32.646  32.514  1.00  0.00     0.049 A 
ATOM     45  N   UNL A   1      39.453  30.503  30.959  1.00  0.00    -0.248 NA
ATOM     46  C   UNL A   1      38.000  30.900  29.175  1.00  0.00     0.031 C 
ATOM     47  C   UNL A   1      37.321  33.641  33.330  1.00  0.00     0.029 A 
ATOM     48  N   UNL A   1      39.020  32.187  33.329  1.00  0.00    -0.354 N 
ATOM     49  C   UNL A   1      39.748  29.628  29.923  1.00  0.00     0.074 A 
ATOM     50  C   UNL A   1      38.784  29.876  28.872  1.00  0.00     0.031 C 
ATOM     51  C   UNL A   1      37.927  33.729  34.525  1.00  0.00     0.029 A 
ATOM     52  C   UNL A   1      39.032  32.775  34.570  1.00  0.00     0.049 A 
ATOM     53  H   UNL A   1      39.670  31.501  33.051  1.00  0.00     0.167 HD
ATOM     54  C   UNL A   1      40.744  28.713  29.847  1.00  0.00     0.037 A 
ATOM     55  C   UNL A   1      39.839  32.563  35.626  1.00  0.00     0.037 A 
ATOM     56  C   UNL A   1      41.717  28.489  30.885  1.00  0.00     0.049 A 
ATOM     57  C   UNL A   1      40.946  31.552  35.514  1.00  0.00     0.074 A 
ATOM     58  C   UNL A   1      42.808  27.637  30.878  1.00  0.00     0.029 A 
ATOM     59  N   UNL A   1      41.714  29.123  32.119  1.00  0.00    -0.354 N 
ATOM     60  N   UNL A   1      41.260  30.779  34.504  1.00  0.00    -0.248 NA
ATOM     61  C   UNL A   1      41.816  31.392  36.687  1.00  0.00     0.031 C 
ATOM     62  C   UNL A   1      43.440  27.725  32.123  1.00  0.00     0.029 A 
ATOM     63  C   UNL A   1      42.770  28.665  32.890  1.00  0.00     0.049 A 
ATOM     64  H   UNL A   1      41.056  29.798  32.405  1.00  0.00     0.167 HD
ATOM     65  C   UNL A   1      42.373  30.055  34.908  1.00  0.00     0.074 A 
ATOM     66  C   UNL A   1      42.689  30.493  36.252  1.00  0.00     0.031 C 
ATOM     67  C   UNL A   1      43.070  29.113  34.227  1.00  0.00     0.037 A 
BRANCH  54  68
ATOM     68  C   UNL A   1      40.828  27.883  28.598  1.00  0.00     0.064 A 
ATOM     69  C   UNL A   1      41.625  28.270  27.510  1.00  0.00     0.173 A 
ATOM     70  C   UNL A   1      40.117  26.678  28.494  1.00  0.00     0.173 A 
ATOM     71  F   UNL A   1      42.316  29.419  27.554  1.00  0.00    -0.203 F 
ATOM     72  C   UNL A   1      41.678  27.501  26.350  1.00  0.00     0.198 A 
ATOM     73  C   UNL A   1      40.197  25.896  27.345  1.00  0.00     0.198 A 
ATOM     74  F   UNL A   1      39.345  26.258  29.508  1.00  0.00    -0.203 F 
ATOM     75  F   UNL A   1      42.402  27.919  25.303  1.00  0.00    -0.200 F 
ATOM     76  C   UNL A   1      40.968  26.312  26.271  1.00  0.00     0.200 A 
ATOM     77  F   UNL A   1      39.519  24.741  27.274  1.00  0.00    -0.200 F 
ATOM     78  F   UNL A   1      41.021  25.572  25.155  1.00  0.00    -0.200 F 
ENDBRANCH  54  68
BRANCH  55  79
ATOM     79  C   UNL A   1      39.643  33.352  36.868  1.00  0.00     0.064 A 
ATOM     80  C   UNL A   1      38.771  32.906  37.871  1.00  0.00     0.173 A 
ATOM     81  C   UNL A   1      40.340  34.549  37.091  1.00  0.00     0.173 A 
ATOM     82  F   UNL A   1      38.069  31.777  37.694  1.00  0.00    -0.203 F 
ATOM     83  C   UNL A   1      38.595  33.634  39.046  1.00  0.00     0.198 A 
ATOM     84  C   UNL A   1      40.181  35.262  38.277  1.00  0.00     0.198 A 
ATOM     85  F   UNL A   1      41.190  35.012  36.164  1.00  0.00    -0.203 F 
ATOM     86  F   UNL A   1      37.732  33.201  39.975  1.00  0.00    -0.200 F 
ATOM     87  C   UNL A   1      39.305  34.807  39.251  1.00  0.00     0.200 A 
ATOM     88  F   UNL A   1      40.881  36.387  38.478  1.00  0.00    -0.200 F 
ATOM     89  F   UNL A   1      39.145  35.500  40.386  1.00  0.00    -0.200 F 
ENDBRANCH  55  79
BRANCH  67  90
ATOM     90  C   UNL A   1      44.258  28.508  34.915  1.00  0.00     0.064 A 
ATOM     91  C   UNL A   1      44.145  27.341  35.684  1.00  0.00     0.173 A 
ATOM     92  C   UNL A   1      45.530  29.082  34.772  1.00  0.00     0.173 A 
ATOM     93  F   UNL A   1      42.947  26.764  35.864  1.00  0.00    -0.203 F 
ATOM     94  C   UNL A   1      45.260  26.782  36.302  1.00  0.00     0.198 A 
ATOM     95  C   UNL A   1      46.647  28.507  35.369  1.00  0.00     0.198 A 
ATOM     96  F   UNL A   1      45.690  30.198  34.042  1.00  0.00    -0.203 F 
ATOM     97  F   UNL A   1      45.123  25.691  37.068  1.00  0.00    -0.200 F 
ATOM     98  C   UNL A   1      46.510  27.361  36.139  1.00  0.00     0.200 A 
ATOM     99  F   UNL A   1      47.855  29.060  35.201  1.00  0.00    -0.200 F 
ATOM    100  F   UNL A   1      47.584  26.818  36.730  1.00  0.00    -0.200 F 
ENDBRANCH  67  90
ENDBRANCH  41  42
ENDBRANCH  33  36
ENDBRANCH  31  32
ENDBRANCH  30  31
ENDBRANCH   1  30
TORSDOF 14
ENDMDL
MODEL 2
REMARK VINA RESULT:     -13.6      0.078      1.899
REMARK SMILES COc1c[nH]c(C[N@H+]2CCC[C@@H](c3ccc(C(=O)NCCCNC(=O)c4ccc(-c5c6nc(c(-c7c(F)c(F)c(F)c(F)c7F)c7ccc([nH]7)c(-c7c(F)c(F)c(F)c(F)c7F)c7nc(c(-c8c(F)c(F)c(F)c(F)c8F)c8ccc5[nH]8)C=C7)C=C6)cc4)cc3)C2)cc1=O
REMARK SMILES IDX 20 1 19 2 17 3 18 4 16 6 13 7 14 8 90 9 15 10 89 11 12 12
REMARK SMILES IDX 8 13 9 14 91 15 10 17 11 18 7 19 6 20 3 21 4 22 93 23 5 24
REMARK SMILES IDX 92 25 94 26 2 28 1 29 21 30 22 31 23 32 24 33 25 35 26 36
REMARK SMILES IDX 27 37 88 38 28 39 87 40 29 41 30 42 31 43 81 44 32 45 86 46
REMARK SMILES IDX 80 47 82 48 33 49 85 50 79 51 78 52 34 54 66 55 46 56 65 57
REMARK SMILES IDX 47 58 50 59 64 60 83 61 48 62 49 63 63 65 84 66 51 67 35 68
REMARK SMILES IDX 36 69 44 70 37 71 38 72 42 73 45 74 39 75 40 76 43 77 41 78
REMARK SMILES IDX 67 79 68 80 76 81 69 82 70 83 74 84 77 85 71 86 72 87 75 88
REMARK SMILES IDX 73 89 52 90 53 91 61 92 54 93 55 94 59 95 62 96 56 97 57 98
REMARK SMILES IDX 60 99 58 100
REMARK H PARENT 19 5 8 16 5 27 23 34 82 53 50 64
REMARK Flexibility Score: inf
ROOT
ATOM      1  C   UNL A   1      31.560  30.591  26.374  1.00  0.00     0.118 C 
ENDROOT
BRANCH   1   2
ATOM      2  N   UNL A   1      31.181  30.390  24.988  1.00  0.00    -0.352 N 
ATOM      3  C   UNL A   1      31.182  29.274  24.192  1.00  0.00     0.251 C 
ATOM      4  O   UNL A   1      30.743  29.389  23.048  1.00  0.00    -0.269 OA
ATOM      5  H   UNL A   1      30.864  31.205  24.536  1.00  0.00     0.163 HD
BRANCH   3   6
ATOM      6  C   UNL A   1      31.628  27.938  24.669  1.00  0.00     0.039 A 
ATOM      7  C   UNL A   1      32.644  25.422  25.467  1.00  0.00    -0.039 A 
ATOM      8  C   UNL A   1      33.489  26.396  24.915  1.00  0.00     0.005 A 
ATOM      9  C   UNL A   1      31.300  25.749  25.674  1.00  0.00     0.005 A 
ATOM     10  C   UNL A   1      32.985  27.633  24.511  1.00  0.00     0.014 A 
ATOM     11  C   UNL A   1      30.804  27.002  25.298  1.00  0.00     0.014 A 
BRANCH   7  12
ATOM     12  C   UNL A   1      33.152  24.039  25.844  1.00  0.00     0.074 C 
ATOM     13  N   UNL A   1      32.916  21.585  25.329  1.00  0.00    -0.329 N 
ATOM     14  C   UNL A   1      34.361  21.489  25.073  1.00  0.00     0.262 C 
ATOM     15  C   UNL A   1      32.416  22.937  25.053  1.00  0.00     0.270 C 
ATOM     16  H   UNL A   1      32.768  21.411  26.323  1.00  0.00     0.348 HD
ATOM     17  C   UNL A   1      35.142  22.505  25.910  1.00  0.00     0.062 C 
ATOM     18  C   UNL A   1      34.669  23.931  25.641  1.00  0.00     0.020 C 
BRANCH  13  19
ATOM     19  C   UNL A   1      32.154  20.534  24.618  1.00  0.00     0.317 C 
BRANCH  19  20
ATOM     20  C   UNL A   1      32.724  19.119  24.674  1.00  0.00     0.074 A 
ATOM     21  C   UNL A   1      33.497  16.382  24.979  1.00  0.00     0.182 A 
ATOM     22  C   UNL A   1      33.072  17.138  26.000  1.00  0.00     0.133 A 
ATOM     23  C   UNL A   1      33.639  17.085  23.652  1.00  0.00     0.223 A 
ATOM     24  N   UNL A   1      32.758  18.465  25.892  1.00  0.00    -0.357 N 
ATOM     25  C   UNL A   1      33.179  18.503  23.568  1.00  0.00     0.083 A 
ATOM     26  O   UNL A   1      34.086  16.543  22.645  1.00  0.00    -0.286 OA
ATOM     27  H   UNL A   1      32.550  18.972  26.710  1.00  0.00     0.166 HD
BRANCH  21  28
ATOM     28  O   UNL A   1      33.708  15.028  25.161  1.00  0.00    -0.491 OA
ATOM     29  C   UNL A   1      32.558  14.312  25.595  1.00  0.00     0.278 C 
ENDBRANCH  21  28
ENDBRANCH  19  20
ENDBRANCH  13  19
ENDBRANCH   7  12
ENDBRANCH   3   6
ENDBRANCH   1   2
BRANCH   1  30
ATOM     30  C   UNL A   1      31.400  32.056  26.778  1.00  0.00     0.042 C 
BRANCH  30  31
ATOM     31  C   UNL A   1      32.726  32.759  27.050  1.00  0.00     0.118 C 
BRANCH  31  32
ATOM     32  N   UNL A   1      32.535  34.096  27.587  1.00  0.00    -0.352 N 
ATOM     33  C   UNL A   1      33.132  34.707  28.661  1.00  0.00     0.251 C 
ATOM     34  H   UNL A   1      31.877  34.649  27.106  1.00  0.00     0.163 HD
ATOM     35  O   UNL A   1      32.678  35.763  29.087  1.00  0.00    -0.269 OA
BRANCH  33  36
ATOM     36  C   UNL A   1      34.312  34.099  29.315  1.00  0.00     0.039 A 
ATOM     37  C   UNL A   1      34.114  33.023  30.187  1.00  0.00     0.014 A 
ATOM     38  C   UNL A   1      35.598  34.611  29.121  1.00  0.00     0.014 A 
ATOM     39  C   UNL A   1      35.205  32.435  30.828  1.00  0.00     0.010 A 
ATOM     40  C   UNL A   1      36.693  33.983  29.708  1.00  0.00     0.010 A 
ATOM     41  C   UNL A   1      36.506  32.896  30.576  1.00  0.00    -0.014 A 
BRANCH  41  42
ATOM     42  C   UNL A   1      37.683  32.263  31.221  1.00  0.00     0.031 A 
ATOM     43  C   UNL A   1      38.451  31.189  30.504  1.00  0.00     0.074 A 
ATOM     44  C   UNL A   1      38.018  32.609  32.478  1.00  0.00     0.049 A 
ATOM     45  N   UNL A   1      39.460  30.469  30.925  1.00  0.00    -0.248 NA
ATOM     46  C   UNL A   1      38.007  30.860  29.141  1.00  0.00     0.031 C 
ATOM     47  C   UNL A   1      37.320  33.603  33.293  1.00  0.00     0.029 A 
ATOM     48  N   UNL A   1      39.023  32.154  33.293  1.00  0.00    -0.354 N 
ATOM     49  C   UNL A   1      39.758  29.593  29.890  1.00  0.00     0.074 A 
ATOM     50  C   UNL A   1      38.794  29.839  28.838  1.00  0.00     0.031 C 
ATOM     51  C   UNL A   1      37.926  33.694  34.488  1.00  0.00     0.029 A 
ATOM     52  C   UNL A   1      39.033  32.743  34.533  1.00  0.00     0.049 A 
ATOM     53  H   UNL A   1      39.675  31.470  33.016  1.00  0.00     0.167 HD
ATOM     54  C   UNL A   1      40.757  28.681  29.815  1.00  0.00     0.037 A 
ATOM     55  C   UNL A   1      39.841  32.534  35.590  1.00  0.00     0.037 A 
ATOM     56  C   UNL A   1      41.730  28.461  30.853  1.00  0.00     0.049 A 
ATOM     57  C   UNL A   1      40.950  31.526  35.479  1.00  0.00     0.074 A 
ATOM     58  C   UNL A   1      42.824  27.612  30.847  1.00  0.00     0.029 A 
ATOM     59  N   UNL A   1      41.725  29.096  32.086  1.00  0.00    -0.354 N 
ATOM     60  N   UNL A   1      41.267  30.752  34.469  1.00  0.00    -0.248 NA
ATOM     61  C   UNL A   1      41.820  31.369  36.653  1.00  0.00     0.031 C 
ATOM     62  C   UNL A   1      43.455  27.702  32.092  1.00  0.00     0.029 A 
ATOM     63  C   UNL A   1      42.782  28.641  32.858  1.00  0.00     0.049 A 
ATOM     64  H   UNL A   1      41.066  29.770  32.371  1.00  0.00     0.167 HD
ATOM     65  C   UNL A   1      42.381  30.032  34.875  1.00  0.00     0.074 A 
ATOM     66  C   UNL A   1      42.696  30.472  36.218  1.00  0.00     0.031 C 
ATOM     67  C   UNL A   1      43.081  29.091  34.195  1.00  0.00     0.037 A 
BRANCH  54  68
ATOM     68  C   UNL A   1      40.843  27.851  28.566  1.00  0.00     0.064 A 
ATOM     69  C   UNL A   1      40.144  26.640  28.438  1.00  0.00     0.173 A 
ATOM     70  C   UNL A   1      41.618  28.279  27.478  1.00  0.00     0.173 A 
ATOM     71  F   UNL A   1      39.397  26.181  29.454  1.00  0.00    -0.203 F 
ATOM     72  C   UNL A   1      40.248  25.872  27.282  1.00  0.00     0.198 A 
ATOM     73  C   UNL A   1      41.695  27.522  26.311  1.00  0.00     0.198 A 
ATOM     74  F   UNL A   1      42.301  29.431  27.545  1.00  0.00    -0.203 F 
ATOM     75  F   UNL A   1      39.616  24.693  27.204  1.00  0.00    -0.200 F 
ATOM     76  C   UNL A   1      41.018  26.316  26.218  1.00  0.00     0.200 A 
ATOM     77  F   UNL A   1      42.431  27.958  25.279  1.00  0.00    -0.200 F 
ATOM     78  F   UNL A   1      41.116  25.575  25.105  1.00  0.00    -0.200 F 
ENDBRANCH  54  68
BRANCH  55  79
ATOM     79  C   UNL A   1      39.642  33.323  36.831  1.00  0.00     0.064 A 
ATOM     80  C   UNL A   1      40.345  34.518  37.042  1.00  0.00     0.173 A 
ATOM     81  C   UNL A   1      38.730  32.918  37.817  1.00  0.00     0.173 A 
ATOM     82  F   UNL A   1      41.241  34.936  36.136  1.00  0.00    -0.203 F 
ATOM     83  C   UNL A   1      40.151  35.272  38.198  1.00  0.00     0.198 A 
ATOM     84  C   UNL A   1      38.519  33.685  38.960  1.00  0.00     0.198 A 
ATOM     85  F   UNL A   1      38.029  31.786  37.657  1.00  0.00    -0.203 F 
ATOM     86  F   UNL A   1      40.858  36.393  38.389  1.00  0.00    -0.200 F 
ATOM     87  C   UNL A   1      39.233  34.858  39.152  1.00  0.00     0.200 A 
ATOM     88  F   UNL A   1      37.620  33.291  39.873  1.00  0.00    -0.200 F 
ATOM     89  F   UNL A   1      39.038  35.590  40.257  1.00  0.00    -0.200 F 
ENDBRANCH  55  79
BRANCH  67  90
ATOM     90  C   UNL A   1      44.270  28.490  34.883  1.00  0.00     0.064 A 
ATOM     91  C   UNL A   1      45.539  29.082  34.806  1.00  0.00     0.173 A 
ATOM     92  C   UNL A   1      44.131  27.329  35.658  1.00  0.00     0.173 A 
ATOM     93  F   UNL A   1      45.726  30.184  34.064  1.00  0.00    -0.203 F 
ATOM     94  C   UNL A   1      46.630  28.522  35.465  1.00  0.00     0.198 A 
ATOM     95  C   UNL A   1      45.218  26.786  36.337  1.00  0.00     0.198 A 
ATOM     96  F   UNL A   1      42.936  26.727  35.766  1.00  0.00    -0.203 F 
ATOM     97  F   UNL A   1      47.843  29.079  35.344  1.00  0.00    -0.200 F 
ATOM     98  C   UNL A   1      46.468  27.379  36.235  1.00  0.00     0.200 A 
ATOM     99  F   UNL A   1      45.056  25.689  37.089  1.00  0.00    -0.200 F 
ATOM    100  F   UNL A   1      47.518  26.844  36.873  1.00  0.00    -0.200 F 
ENDBRANCH  67  90
ENDBRANCH  41  42
ENDBRANCH  33  36
ENDBRANCH  31  32
ENDBRANCH  30  31
ENDBRANCH   1  30
TORSDOF 14
ENDMDL
MODEL 3
REMARK VINA RESULT:     -13.5      3.821      9.014
REMARK SMILES COc1c[nH]c(C[N@H+]2CCC[C@@H](c3ccc(C(=O)NCCCNC(=O)c4ccc(-c5c6nc(c(-c7c(F)c(F)c(F)c(F)c7F)c7ccc([nH]7)c(-c7c(F)c(F)c(F)c(F)c7F)c7nc(c(-c8c(F)c(F)c(F)c(F)c8F)c8ccc5[nH]8)C=C7)C=C6)cc4)cc3)C2)cc1=O
REMARK SMILES IDX 20 1 19 2 17 3 18 4 16 6 13 7 14 8 90 9 15 10 89 11 12 12
REMARK SMILES IDX 8 13 9 14 91 15 10 17 11 18 7 19 6 20 3 21 4 22 93 23 5 24
REMARK SMILES IDX 92 25 94 26 2 28 1 29 21 30 22 31 23 32 24 33 25 35 26 36
REMARK SMILES IDX 27 37 88 38 28 39 87 40 29 41 30 42 31 43 81 44 32 45 86 46
REMARK SMILES IDX 80 47 82 48 33 49 85 50 79 51 78 52 34 54 66 55 46 56 65 57
REMARK SMILES IDX 47 58 50 59 64 60 83 61 48 62 49 63 63 65 84 66 51 67 35 68
REMARK SMILES IDX 36 69 44 70 37 71 38 72 42 73 45 74 39 75 40 76 43 77 41 78
REMARK SMILES IDX 67 79 68 80 76 81 69 82 70 83 74 84 77 85 71 86 72 87 75 88
REMARK SMILES IDX 73 89 52 90 53 91 61 92 54 93 55 94 59 95 62 96 56 97 57 98
REMARK SMILES IDX 60 99 58 100
REMARK H PARENT 19 5 8 16 5 27 23 34 82 53 50 64
REMARK Flexibility Score: inf
ROOT
ATOM      1  C   UNL A   1      34.280  34.962  27.949  1.00  0.00     0.118 C 
ENDROOT
BRANCH   1   2
ATOM      2  N   UNL A   1      35.552  34.372  28.318  1.00  0.00    -0.352 N 
ATOM      3  C   UNL A   1      36.008  33.080  28.279  1.00  0.00     0.251 C 
ATOM      4  O   UNL A   1      37.177  32.876  28.607  1.00  0.00    -0.269 OA
ATOM      5  H   UNL A   1      36.211  35.019  28.660  1.00  0.00     0.163 HD
BRANCH   3   6
ATOM      6  C   UNL A   1      35.178  31.940  27.805  1.00  0.00     0.039 A 
ATOM      7  C   UNL A   1      33.768  29.681  26.853  1.00  0.00    -0.039 A 
ATOM      8  C   UNL A   1      35.140  29.605  27.139  1.00  0.00     0.005 A 
ATOM      9  C   UNL A   1      33.101  30.883  27.113  1.00  0.00     0.005 A 
ATOM     10  C   UNL A   1      35.837  30.724  27.598  1.00  0.00     0.014 A 
ATOM     11  C   UNL A   1      33.796  31.994  27.605  1.00  0.00     0.014 A 
BRANCH   7  12
ATOM     12  C   UNL A   1      33.002  28.499  26.279  1.00  0.00     0.074 C 
ATOM     13  N   UNL A   1      31.978  27.582  24.168  1.00  0.00    -0.329 N 
ATOM     14  C   UNL A   1      32.768  26.350  24.308  1.00  0.00     0.262 C 
ATOM     15  C   UNL A   1      32.659  28.724  24.790  1.00  0.00     0.270 C 
ATOM     16  H   UNL A   1      31.103  27.446  24.676  1.00  0.00     0.348 HD
ATOM     17  C   UNL A   1      33.052  26.037  25.780  1.00  0.00     0.062 C 
ATOM     18  C   UNL A   1      33.780  27.191  26.465  1.00  0.00     0.020 C 
BRANCH  13  19
ATOM     19  C   UNL A   1      31.592  27.840  22.763  1.00  0.00     0.317 C 
BRANCH  19  20
ATOM     20  C   UNL A   1      30.426  28.799  22.538  1.00  0.00     0.074 A 
ATOM     21  C   UNL A   1      28.337  30.592  21.763  1.00  0.00     0.182 A 
ATOM     22  C   UNL A   1      29.606  30.731  21.355  1.00  0.00     0.133 A 
ATOM     23  C   UNL A   1      28.078  29.477  22.745  1.00  0.00     0.223 A 
ATOM     24  N   UNL A   1      30.633  29.925  21.762  1.00  0.00    -0.357 N 
ATOM     25  C   UNL A   1      29.213  28.564  23.070  1.00  0.00     0.083 A 
ATOM     26  O   UNL A   1      26.983  29.275  23.263  1.00  0.00    -0.286 OA
ATOM     27  H   UNL A   1      31.552  30.155  21.494  1.00  0.00     0.166 HD
BRANCH  21  28
ATOM     28  O   UNL A   1      27.348  31.398  21.231  1.00  0.00    -0.491 OA
ATOM     29  C   UNL A   1      27.835  32.477  20.442  1.00  0.00     0.278 C 
ENDBRANCH  21  28
ENDBRANCH  19  20
ENDBRANCH  13  19
ENDBRANCH   7  12
ENDBRANCH   3   6
ENDBRANCH   1   2
BRANCH   1  30
ATOM     30  C   UNL A   1      33.334  35.021  29.147  1.00  0.00     0.042 C 
BRANCH  30  31
ATOM     31  C   UNL A   1      33.307  36.383  29.832  1.00  0.00     0.118 C 
BRANCH  31  32
ATOM     32  N   UNL A   1      32.418  36.398  30.983  1.00  0.00    -0.352 N 
ATOM     33  C   UNL A   1      32.504  35.712  32.169  1.00  0.00     0.251 C 
ATOM     34  H   UNL A   1      31.636  36.990  30.899  1.00  0.00     0.163 HD
ATOM     35  O   UNL A   1      31.541  35.692  32.927  1.00  0.00    -0.269 OA
BRANCH  33  36
ATOM     36  C   UNL A   1      33.742  34.990  32.536  1.00  0.00     0.039 A 
ATOM     37  C   UNL A   1      33.638  33.675  33.000  1.00  0.00     0.014 A 
ATOM     38  C   UNL A   1      34.993  35.613  32.479  1.00  0.00     0.014 A 
ATOM     39  C   UNL A   1      34.786  32.972  33.365  1.00  0.00     0.010 A 
ATOM     40  C   UNL A   1      36.144  34.889  32.779  1.00  0.00     0.010 A 
ATOM     41  C   UNL A   1      36.051  33.565  33.236  1.00  0.00    -0.014 A 
BRANCH  41  42
ATOM     42  C   UNL A   1      37.287  32.822  33.586  1.00  0.00     0.031 A 
ATOM     43  C   UNL A   1      38.030  33.146  34.851  1.00  0.00     0.074 A 
ATOM     44  C   UNL A   1      37.773  31.903  32.732  1.00  0.00     0.049 A 
ATOM     45  N   UNL A   1      39.161  32.659  35.296  1.00  0.00    -0.248 NA
ATOM     46  C   UNL A   1      37.438  34.175  35.719  1.00  0.00     0.031 C 
ATOM     47  C   UNL A   1      37.167  31.536  31.453  1.00  0.00     0.029 A 
ATOM     48  N   UNL A   1      38.897  31.118  32.807  1.00  0.00    -0.354 N 
ATOM     49  C   UNL A   1      39.423  33.334  36.480  1.00  0.00     0.074 A 
ATOM     50  C   UNL A   1      38.359  34.298  36.662  1.00  0.00     0.031 C 
ATOM     51  C   UNL A   1      37.917  30.588  30.868  1.00  0.00     0.029 A 
ATOM     52  C   UNL A   1      39.071  30.304  31.715  1.00  0.00     0.049 A 
ATOM     53  H   UNL A   1      39.519  31.138  33.570  1.00  0.00     0.167 HD
ATOM     54  C   UNL A   1      40.448  33.153  37.348  1.00  0.00     0.037 A 
ATOM     55  C   UNL A   1      40.056  29.432  31.429  1.00  0.00     0.037 A 
ATOM     56  C   UNL A   1      41.490  32.174  37.176  1.00  0.00     0.049 A 
ATOM     57  C   UNL A   1      41.176  29.239  32.411  1.00  0.00     0.074 A 
ATOM     58  C   UNL A   1      42.533  31.862  38.031  1.00  0.00     0.029 A 
ATOM     59  N   UNL A   1      41.620  31.347  36.069  1.00  0.00    -0.354 N 
ATOM     60  N   UNL A   1      41.378  29.832  33.563  1.00  0.00    -0.248 NA
ATOM     61  C   UNL A   1      42.201  28.247  32.059  1.00  0.00     0.031 C 
ATOM     62  C   UNL A   1      43.317  30.876  37.422  1.00  0.00     0.029 A 
ATOM     63  C   UNL A   1      42.738  30.541  36.208  1.00  0.00     0.049 A 
ATOM     64  H   UNL A   1      41.007  31.336  35.298  1.00  0.00     0.167 HD
ATOM     65  C   UNL A   1      42.537  29.275  34.082  1.00  0.00     0.074 A 
ATOM     66  C   UNL A   1      42.988  28.284  33.127  1.00  0.00     0.031 C 
ATOM     67  C   UNL A   1      43.172  29.559  35.246  1.00  0.00     0.037 A 
BRANCH  54  68
ATOM     68  C   UNL A   1      40.492  34.038  38.561  1.00  0.00     0.064 A 
ATOM     69  C   UNL A   1      41.186  35.258  38.557  1.00  0.00     0.173 A 
ATOM     70  C   UNL A   1      39.818  33.671  39.735  1.00  0.00     0.173 A 
ATOM     71  F   UNL A   1      41.856  35.650  37.462  1.00  0.00    -0.203 F 
ATOM     72  C   UNL A   1      41.233  36.059  39.695  1.00  0.00     0.198 A 
ATOM     73  C   UNL A   1      39.842  34.489  40.861  1.00  0.00     0.198 A 
ATOM     74  F   UNL A   1      39.134  32.518  39.791  1.00  0.00    -0.203 F 
ATOM     75  F   UNL A   1      41.948  37.193  39.684  1.00  0.00    -0.200 F 
ATOM     76  C   UNL A   1      40.558  35.677  40.843  1.00  0.00     0.200 A 
ATOM     77  F   UNL A   1      39.180  34.124  41.968  1.00  0.00    -0.200 F 
ATOM     78  F   UNL A   1      40.604  36.450  41.937  1.00  0.00    -0.200 F 
ENDBRANCH  54  68
BRANCH  55  79
ATOM     79  C   UNL A   1      40.001  28.656  30.165  1.00  0.00     0.064 A 
ATOM     80  C   UNL A   1      40.578  29.157  28.989  1.00  0.00     0.173 A 
ATOM     81  C   UNL A   1      39.399  27.390  30.110  1.00  0.00     0.173 A 
ATOM     82  F   UNL A   1      41.149  30.371  28.989  1.00  0.00    -0.203 F 
ATOM     83  C   UNL A   1      40.545  28.425  27.804  1.00  0.00     0.198 A 
ATOM     84  C   UNL A   1      39.389  26.650  28.930  1.00  0.00     0.198 A 
ATOM     85  F   UNL A   1      38.840  26.865  31.210  1.00  0.00    -0.203 F 
ATOM     86  F   UNL A   1      41.076  28.940  26.687  1.00  0.00    -0.200 F 
ATOM     87  C   UNL A   1      39.956  27.170  27.777  1.00  0.00     0.200 A 
ATOM     88  F   UNL A   1      38.833  25.430  28.912  1.00  0.00    -0.200 F 
ATOM     89  F   UNL A   1      39.935  26.462  26.640  1.00  0.00    -0.200 F 
ENDBRANCH  55  79
BRANCH  67  90
ATOM     90  C   UNL A   1      44.409  28.771  35.563  1.00  0.00     0.064 A 
ATOM     91  C   UNL A   1      45.680  29.214  35.170  1.00  0.00     0.173 A 
ATOM     92  C   UNL A   1      44.323  27.580  36.299  1.00  0.00     0.173 A 
ATOM     93  F   UNL A   1      45.812  30.338  34.451  1.00  0.00    -0.203 F 
ATOM     94  C   UNL A   1      46.821  28.481  35.487  1.00  0.00     0.198 A 
ATOM     95  C   UNL A   1      45.467  26.863  36.636  1.00  0.00     0.198 A 
ATOM     96  F   UNL A   1      43.129  27.117  36.701  1.00  0.00    -0.203 F 
ATOM     97  F   UNL A   1      48.022  28.898  35.066  1.00  0.00    -0.200 F 
ATOM     98  C   UNL A   1      46.714  27.310  36.224  1.00  0.00     0.200 A 
ATOM     99  F   UNL A   1      45.363  25.740  37.358  1.00  0.00    -0.200 F 
ATOM    100  F   UNL A   1      47.814  26.609  36.533  1.00  0.00    -0.200 F 
ENDBRANCH  67  90
ENDBRANCH  41  42
ENDBRANCH  33  36
ENDBRANCH  31  32
ENDBRANCH  30  31
ENDBRANCH   1  30
TORSDOF 14
ENDMDL
