MODEL 1
REMARK VINA RESULT:     -11.9      0.000      0.000
REMARK SMILES CCC(CC)(CC)NC(=O)NC[C@@H]1CC[C@H](C(=O)NCCCNC(=O)c2ccc(-c3c4nc(c(-c5c(F)c(F)c(F)c(F)c5F)c5ccc([nH]5)c(-c5c(F)c(F)c(F)c(F)c5F)c5nc(c(-c6c(F)c(F)c(F)c(F)c6F)c6ccc3[nH]6)C=C5)C=C4)cc2)O1
REMARK SMILES IDX 20 1 19 2 17 3 18 4 16 6 13 7 14 8 89 9 15 10 12 11 11 12
REMARK SMILES IDX 8 13 9 14 10 16 3 18 2 19 1 20 4 21 5 22 6 23 7 24 21 25
REMARK SMILES IDX 22 26 23 27 24 28 25 30 26 31 27 32 88 33 28 34 87 35 29 36
REMARK SMILES IDX 30 37 31 38 81 39 32 40 86 41 80 42 82 43 33 44 85 45 79 46
REMARK SMILES IDX 78 47 34 49 66 50 46 51 65 52 47 53 50 54 64 55 83 56 48 57
REMARK SMILES IDX 49 58 63 60 84 61 51 62 35 63 36 64 44 65 37 66 38 67 42 68
REMARK SMILES IDX 45 69 39 70 40 71 43 72 41 73 67 74 68 75 76 76 69 77 70 78
REMARK SMILES IDX 74 79 77 80 71 81 72 82 75 83 73 84 52 85 53 86 61 87 54 88
REMARK SMILES IDX 55 89 59 90 62 91 56 92 57 93 60 94 58 95
REMARK H PARENT 19 5 8 15 11 17 23 29 82 48 50 59
REMARK Flexibility Score: inf
ROOT
ATOM      1  C   UNL A   1      32.140  30.157  26.877  1.00  0.00     0.117 C 
ENDROOT
BRANCH   1   2
ATOM      2  N   UNL A   1      33.048  29.753  25.832  1.00  0.00    -0.354 N 
ATOM      3  C   UNL A   1      32.734  29.283  24.587  1.00  0.00     0.249 C 
ATOM      4  O   UNL A   1      33.650  29.212  23.762  1.00  0.00    -0.272 OA
ATOM      5  H   UNL A   1      34.009  29.824  26.039  1.00  0.00     0.163 HD
BRANCH   3   6
ATOM      6  C   UNL A   1      31.301  28.798  24.228  1.00  0.00     0.207 C 
ATOM      7  C   UNL A   1      30.215  26.766  23.766  1.00  0.00     0.138 C 
ATOM      8  C   UNL A   1      30.651  27.332  22.426  1.00  0.00     0.037 C 
ATOM      9  O   UNL A   1      30.917  27.527  24.745  1.00  0.00    -0.363 OA
ATOM     10  C   UNL A   1      31.018  28.774  22.735  1.00  0.00     0.045 C 
BRANCH   7  11
ATOM     11  C   UNL A   1      30.372  25.228  23.983  1.00  0.00     0.149 C 
BRANCH  11  12
ATOM     12  N   UNL A   1      30.207  24.707  25.344  1.00  0.00    -0.336 N 
ATOM     13  N   UNL A   1      32.067  23.562  26.383  1.00  0.00    -0.333 N 
ATOM     14  C   UNL A   1      30.831  24.022  26.292  1.00  0.00     0.315 C 
ATOM     15  H   UNL A   1      32.081  22.868  27.080  1.00  0.00     0.165 HD
ATOM     16  O   UNL A   1      30.107  23.706  27.251  1.00  0.00    -0.249 OA
ATOM     17  H   UNL A   1      29.312  24.956  25.670  1.00  0.00     0.165 HD
BRANCH  13  18
ATOM     18  C   UNL A   1      33.452  23.689  25.838  1.00  0.00     0.041 C 
BRANCH  18  19
ATOM     19  C   UNL A   1      34.530  23.072  26.744  1.00  0.00     0.025 C 
ATOM     20  C   UNL A   1      33.996  21.950  27.625  1.00  0.00     0.006 C 
ENDBRANCH  18  19
BRANCH  18  21
ATOM     21  C   UNL A   1      33.747  25.240  25.720  1.00  0.00     0.025 C 
ATOM     22  C   UNL A   1      34.028  25.765  24.308  1.00  0.00     0.006 C 
ENDBRANCH  18  21
BRANCH  18  23
ATOM     23  C   UNL A   1      33.510  23.114  24.387  1.00  0.00     0.025 C 
ATOM     24  C   UNL A   1      32.776  21.804  24.137  1.00  0.00     0.006 C 
ENDBRANCH  18  23
ENDBRANCH  13  18
ENDBRANCH  11  12
ENDBRANCH   7  11
ENDBRANCH   3   6
ENDBRANCH   1   2
BRANCH   1  25
ATOM     25  C   UNL A   1      31.780  31.634  26.853  1.00  0.00     0.042 C 
BRANCH  25  26
ATOM     26  C   UNL A   1      32.940  32.533  27.244  1.00  0.00     0.118 C 
BRANCH  26  27
ATOM     27  N   UNL A   1      32.515  33.867  27.653  1.00  0.00    -0.352 N 
ATOM     28  C   UNL A   1      33.059  34.771  28.542  1.00  0.00     0.251 C 
ATOM     29  H   UNL A   1      31.690  34.179  27.216  1.00  0.00     0.163 HD
ATOM     30  O   UNL A   1      32.527  35.846  28.744  1.00  0.00    -0.269 OA
BRANCH  28  31
ATOM     31  C   UNL A   1      34.254  34.403  29.333  1.00  0.00     0.039 A 
ATOM     32  C   UNL A   1      34.051  33.821  30.590  1.00  0.00     0.014 A 
ATOM     33  C   UNL A   1      35.546  34.579  28.846  1.00  0.00     0.014 A 
ATOM     34  C   UNL A   1      35.138  33.323  31.308  1.00  0.00     0.010 A 
ATOM     35  C   UNL A   1      36.615  33.989  29.510  1.00  0.00     0.010 A 
ATOM     36  C   UNL A   1      36.421  33.349  30.744  1.00  0.00    -0.014 A 
BRANCH  36  37
ATOM     37  C   UNL A   1      37.581  32.712  31.415  1.00  0.00     0.031 A 
ATOM     38  C   UNL A   1      38.274  31.553  30.758  1.00  0.00     0.074 A 
ATOM     39  C   UNL A   1      37.938  33.110  32.651  1.00  0.00     0.049 A 
ATOM     40  N   UNL A   1      39.193  30.757  31.239  1.00  0.00    -0.248 NA
ATOM     41  C   UNL A   1      37.844  31.219  29.391  1.00  0.00     0.031 C 
ATOM     42  C   UNL A   1      37.308  34.192  33.410  1.00  0.00     0.029 A 
ATOM     43  N   UNL A   1      38.906  32.633  33.500  1.00  0.00    -0.354 N 
ATOM     44  C   UNL A   1      39.425  29.811  30.248  1.00  0.00     0.074 A 
ATOM     45  C   UNL A   1      38.517  30.102  29.161  1.00  0.00     0.031 C 
ATOM     46  C   UNL A   1      37.915  34.308  34.602  1.00  0.00     0.029 A 
ATOM     47  C   UNL A   1      38.942  33.278  34.712  1.00  0.00     0.049 A 
ATOM     48  H   UNL A   1      39.516  31.897  33.263  1.00  0.00     0.167 HD
ATOM     49  C   UNL A   1      40.330  28.804  30.242  1.00  0.00     0.037 A 
ATOM     50  C   UNL A   1      39.705  33.050  35.799  1.00  0.00     0.037 A 
ATOM     51  C   UNL A   1      41.261  28.554  31.308  1.00  0.00     0.049 A 
ATOM     52  C   UNL A   1      40.710  31.931  35.761  1.00  0.00     0.074 A 
ATOM     53  C   UNL A   1      42.278  27.618  31.364  1.00  0.00     0.029 A 
ATOM     54  N   UNL A   1      41.288  29.248  32.509  1.00  0.00    -0.354 N 
ATOM     55  N   UNL A   1      40.968  31.084  34.794  1.00  0.00    -0.248 NA
ATOM     56  C   UNL A   1      41.529  31.735  36.965  1.00  0.00     0.031 C 
ATOM     57  C   UNL A   1      42.892  27.717  32.617  1.00  0.00     0.029 A 
ATOM     58  C   UNL A   1      42.287  28.743  33.325  1.00  0.00     0.049 A 
ATOM     59  H   UNL A   1      40.685  29.991  32.747  1.00  0.00     0.167 HD
ATOM     60  C   UNL A   1      41.987  30.267  35.263  1.00  0.00     0.074 A 
ATOM     61  C   UNL A   1      42.315  30.733  36.595  1.00  0.00     0.031 C 
ATOM     62  C   UNL A   1      42.595  29.224  34.648  1.00  0.00     0.037 A 
BRANCH  49  63
ATOM     63  C   UNL A   1      40.358  27.904  29.041  1.00  0.00     0.064 A 
ATOM     64  C   UNL A   1      41.114  28.217  27.901  1.00  0.00     0.173 A 
ATOM     65  C   UNL A   1      39.640  26.699  29.040  1.00  0.00     0.173 A 
ATOM     66  F   UNL A   1      41.809  29.364  27.845  1.00  0.00    -0.203 F 
ATOM     67  C   UNL A   1      41.123  27.374  26.793  1.00  0.00     0.198 A 
ATOM     68  C   UNL A   1      39.676  25.842  27.943  1.00  0.00     0.198 A 
ATOM     69  F   UNL A   1      38.904  26.349  30.106  1.00  0.00    -0.203 F 
ATOM     70  F   UNL A   1      41.810  27.720  25.696  1.00  0.00    -0.200 F 
ATOM     71  C   UNL A   1      40.411  26.185  26.818  1.00  0.00     0.200 A 
ATOM     72  F   UNL A   1      38.996  24.688  27.973  1.00  0.00    -0.200 F 
ATOM     73  F   UNL A   1      40.426  25.371  25.753  1.00  0.00    -0.200 F 
ENDBRANCH  49  63
BRANCH  50  74
ATOM     74  C   UNL A   1      39.555  33.906  37.005  1.00  0.00     0.064 A 
ATOM     75  C   UNL A   1      40.194  35.151  37.086  1.00  0.00     0.173 A 
ATOM     76  C   UNL A   1      38.768  33.504  38.094  1.00  0.00     0.173 A 
ATOM     77  F   UNL A   1      40.973  35.569  36.078  1.00  0.00    -0.203 F 
ATOM     78  C   UNL A   1      40.063  35.955  38.217  1.00  0.00     0.198 A 
ATOM     79  C   UNL A   1      38.616  34.320  39.212  1.00  0.00     0.198 A 
ATOM     80  F   UNL A   1      38.131  32.324  38.064  1.00  0.00    -0.203 F 
ATOM     81  F   UNL A   1      40.716  37.122  38.284  1.00  0.00    -0.200 F 
ATOM     82  C   UNL A   1      39.269  35.542  39.276  1.00  0.00     0.200 A 
ATOM     83  F   UNL A   1      37.835  33.926  40.227  1.00  0.00    -0.200 F 
ATOM     84  F   UNL A   1      39.137  36.319  40.359  1.00  0.00    -0.200 F 
ENDBRANCH  50  74
BRANCH  62  85
ATOM     85  C   UNL A   1      43.686  28.524  35.402  1.00  0.00     0.064 A 
ATOM     86  C   UNL A   1      43.405  27.469  36.283  1.00  0.00     0.173 A 
ATOM     87  C   UNL A   1      45.028  28.876  35.201  1.00  0.00     0.173 A 
ATOM     88  F   UNL A   1      42.134  27.108  36.519  1.00  0.00    -0.203 F 
ATOM     89  C   UNL A   1      44.429  26.802  36.947  1.00  0.00     0.198 A 
ATOM     90  C   UNL A   1      46.052  28.188  35.845  1.00  0.00     0.198 A 
ATOM     91  F   UNL A   1      45.347  29.875  34.365  1.00  0.00    -0.203 F 
ATOM     92  F   UNL A   1      44.136  25.822  37.813  1.00  0.00    -0.200 F 
ATOM     93  C   UNL A   1      45.751  27.155  36.721  1.00  0.00     0.200 A 
ATOM     94  F   UNL A   1      47.330  28.522  35.616  1.00  0.00    -0.200 F 
ATOM     95  F   UNL A   1      46.738  26.504  37.353  1.00  0.00    -0.200 F 
ENDBRANCH  62  85
ENDBRANCH  36  37
ENDBRANCH  28  31
ENDBRANCH  26  27
ENDBRANCH  25  26
ENDBRANCH   1  25
TORSDOF 16
ENDMDL
MODEL 2
REMARK VINA RESULT:     -11.9      0.155      1.843
REMARK SMILES CCC(CC)(CC)NC(=O)NC[C@@H]1CC[C@H](C(=O)NCCCNC(=O)c2ccc(-c3c4nc(c(-c5c(F)c(F)c(F)c(F)c5F)c5ccc([nH]5)c(-c5c(F)c(F)c(F)c(F)c5F)c5nc(c(-c6c(F)c(F)c(F)c(F)c6F)c6ccc3[nH]6)C=C5)C=C4)cc2)O1
REMARK SMILES IDX 20 1 19 2 17 3 18 4 16 6 13 7 14 8 89 9 15 10 12 11 11 12
REMARK SMILES IDX 8 13 9 14 10 16 3 18 2 19 1 20 4 21 5 22 6 23 7 24 21 25
REMARK SMILES IDX 22 26 23 27 24 28 25 30 26 31 27 32 88 33 28 34 87 35 29 36
REMARK SMILES IDX 30 37 31 38 81 39 32 40 86 41 80 42 82 43 33 44 85 45 79 46
REMARK SMILES IDX 78 47 34 49 66 50 46 51 65 52 47 53 50 54 64 55 83 56 48 57
REMARK SMILES IDX 49 58 63 60 84 61 51 62 35 63 36 64 44 65 37 66 38 67 42 68
REMARK SMILES IDX 45 69 39 70 40 71 43 72 41 73 67 74 68 75 76 76 69 77 70 78
REMARK SMILES IDX 74 79 77 80 71 81 72 82 75 83 73 84 52 85 53 86 61 87 54 88
REMARK SMILES IDX 55 89 59 90 62 91 56 92 57 93 60 94 58 95
REMARK H PARENT 19 5 8 15 11 17 23 29 82 48 50 59
REMARK Flexibility Score: inf
ROOT
ATOM      1  C   UNL A   1      32.178  30.219  26.897  1.00  0.00     0.117 C 
ENDROOT
BRANCH   1   2
ATOM      2  N   UNL A   1      33.003  29.809  25.788  1.00  0.00    -0.354 N 
ATOM      3  C   UNL A   1      32.595  29.308  24.583  1.00  0.00     0.249 C 
ATOM      4  O   UNL A   1      33.440  29.234  23.685  1.00  0.00    -0.272 OA
ATOM      5  H   UNL A   1      33.976  29.900  25.913  1.00  0.00     0.163 HD
BRANCH   3   6
ATOM      6  C   UNL A   1      31.146  28.791  24.355  1.00  0.00     0.207 C 
ATOM      7  C   UNL A   1      30.075  26.745  23.920  1.00  0.00     0.138 C 
ATOM      8  C   UNL A   1      30.350  27.380  22.568  1.00  0.00     0.037 C 
ATOM      9  O   UNL A   1      30.855  27.488  24.853  1.00  0.00    -0.363 OA
ATOM     10  C   UNL A   1      30.707  28.819  22.901  1.00  0.00     0.045 C 
BRANCH   7  11
ATOM     11  C   UNL A   1      30.297  25.206  24.051  1.00  0.00     0.149 C 
BRANCH  11  12
ATOM     12  N   UNL A   1      30.252  24.618  25.394  1.00  0.00    -0.336 N 
ATOM     13  N   UNL A   1      32.195  23.432  26.210  1.00  0.00    -0.333 N 
ATOM     14  C   UNL A   1      30.956  23.890  26.250  1.00  0.00     0.315 C 
ATOM     15  H   UNL A   1      32.269  22.704  26.869  1.00  0.00     0.165 HD
ATOM     16  O   UNL A   1      30.318  23.524  27.251  1.00  0.00    -0.249 OA
ATOM     17  H   UNL A   1      29.388  24.847  25.809  1.00  0.00     0.165 HD
BRANCH  13  18
ATOM     18  C   UNL A   1      33.527  23.592  25.554  1.00  0.00     0.041 C 
BRANCH  18  19
ATOM     19  C   UNL A   1      33.640  22.871  24.202  1.00  0.00     0.025 C 
ATOM     20  C   UNL A   1      32.717  21.664  24.092  1.00  0.00     0.006 C 
ENDBRANCH  18  19
BRANCH  18  21
ATOM     21  C   UNL A   1      34.590  22.949  26.536  1.00  0.00     0.025 C 
ATOM     22  C   UNL A   1      34.029  22.029  27.625  1.00  0.00     0.006 C 
ENDBRANCH  18  21
BRANCH  18  23
ATOM     23  C   UNL A   1      33.888  25.107  25.440  1.00  0.00     0.025 C 
ATOM     24  C   UNL A   1      33.818  25.728  24.052  1.00  0.00     0.006 C 
ENDBRANCH  18  23
ENDBRANCH  13  18
ENDBRANCH  11  12
ENDBRANCH   7  11
ENDBRANCH   3   6
ENDBRANCH   1   2
BRANCH   1  25
ATOM     25  C   UNL A   1      31.796  31.691  26.878  1.00  0.00     0.042 C 
BRANCH  25  26
ATOM     26  C   UNL A   1      32.953  32.609  27.233  1.00  0.00     0.118 C 
BRANCH  26  27
ATOM     27  N   UNL A   1      32.520  33.939  27.647  1.00  0.00    -0.352 N 
ATOM     28  C   UNL A   1      33.052  34.838  28.547  1.00  0.00     0.251 C 
ATOM     29  H   UNL A   1      31.699  34.251  27.203  1.00  0.00     0.163 HD
ATOM     30  O   UNL A   1      32.516  35.910  28.751  1.00  0.00    -0.269 OA
BRANCH  28  31
ATOM     31  C   UNL A   1      34.241  34.468  29.348  1.00  0.00     0.039 A 
ATOM     32  C   UNL A   1      34.027  33.850  30.586  1.00  0.00     0.014 A 
ATOM     33  C   UNL A   1      35.537  34.676  28.886  1.00  0.00     0.014 A 
ATOM     34  C   UNL A   1      35.110  33.350  31.309  1.00  0.00     0.010 A 
ATOM     35  C   UNL A   1      36.605  34.086  29.552  1.00  0.00     0.010 A 
ATOM     36  C   UNL A   1      36.401  33.411  30.766  1.00  0.00    -0.014 A 
BRANCH  36  37
ATOM     37  C   UNL A   1      37.560  32.775  31.439  1.00  0.00     0.031 A 
ATOM     38  C   UNL A   1      38.254  31.615  30.784  1.00  0.00     0.074 A 
ATOM     39  C   UNL A   1      37.914  33.173  32.676  1.00  0.00     0.049 A 
ATOM     40  N   UNL A   1      39.173  30.820  31.267  1.00  0.00    -0.248 NA
ATOM     41  C   UNL A   1      37.827  31.281  29.416  1.00  0.00     0.031 C 
ATOM     42  C   UNL A   1      37.283  34.255  33.433  1.00  0.00     0.029 A 
ATOM     43  N   UNL A   1      38.881  32.696  33.527  1.00  0.00    -0.354 N 
ATOM     44  C   UNL A   1      39.407  29.874  30.277  1.00  0.00     0.074 A 
ATOM     45  C   UNL A   1      38.501  30.164  29.188  1.00  0.00     0.031 C 
ATOM     46  C   UNL A   1      37.887  34.371  34.627  1.00  0.00     0.029 A 
ATOM     47  C   UNL A   1      38.914  33.341  34.739  1.00  0.00     0.049 A 
ATOM     48  H   UNL A   1      39.492  31.961  33.291  1.00  0.00     0.167 HD
ATOM     49  C   UNL A   1      40.313  28.868  30.272  1.00  0.00     0.037 A 
ATOM     50  C   UNL A   1      39.676  33.115  35.827  1.00  0.00     0.037 A 
ATOM     51  C   UNL A   1      41.242  28.618  31.341  1.00  0.00     0.049 A 
ATOM     52  C   UNL A   1      40.682  31.996  35.791  1.00  0.00     0.074 A 
ATOM     53  C   UNL A   1      42.259  27.683  31.398  1.00  0.00     0.029 A 
ATOM     54  N   UNL A   1      41.266  29.313  32.541  1.00  0.00    -0.354 N 
ATOM     55  N   UNL A   1      40.941  31.149  34.825  1.00  0.00    -0.248 NA
ATOM     56  C   UNL A   1      41.498  31.801  36.997  1.00  0.00     0.031 C 
ATOM     57  C   UNL A   1      42.870  27.782  32.653  1.00  0.00     0.029 A 
ATOM     58  C   UNL A   1      42.264  28.808  33.359  1.00  0.00     0.049 A 
ATOM     59  H   UNL A   1      40.663  30.055  32.778  1.00  0.00     0.167 HD
ATOM     60  C   UNL A   1      41.959  30.333  35.296  1.00  0.00     0.074 A 
ATOM     61  C   UNL A   1      42.285  30.799  36.628  1.00  0.00     0.031 C 
ATOM     62  C   UNL A   1      42.570  29.289  34.683  1.00  0.00     0.037 A 
BRANCH  49  63
ATOM     63  C   UNL A   1      40.343  27.967  29.072  1.00  0.00     0.064 A 
ATOM     64  C   UNL A   1      39.619  26.766  29.032  1.00  0.00     0.173 A 
ATOM     65  C   UNL A   1      41.086  28.322  27.936  1.00  0.00     0.173 A 
ATOM     66  F   UNL A   1      38.902  26.373  30.096  1.00  0.00    -0.203 F 
ATOM     67  C   UNL A   1      39.665  25.938  27.912  1.00  0.00     0.198 A 
ATOM     68  C   UNL A   1      41.105  27.508  26.807  1.00  0.00     0.198 A 
ATOM     69  F   UNL A   1      41.795  29.462  27.920  1.00  0.00    -0.203 F 
ATOM     70  F   UNL A   1      39.008  24.770  27.919  1.00  0.00    -0.200 F 
ATOM     71  C   UNL A   1      40.401  26.313  26.800  1.00  0.00     0.200 A 
ATOM     72  F   UNL A   1      41.808  27.877  25.727  1.00  0.00    -0.200 F 
ATOM     73  F   UNL A   1      40.439  25.518  25.721  1.00  0.00    -0.200 F 
ENDBRANCH  49  63
BRANCH  50  74
ATOM     74  C   UNL A   1      39.524  33.970  37.032  1.00  0.00     0.064 A 
ATOM     75  C   UNL A   1      40.168  35.212  37.118  1.00  0.00     0.173 A 
ATOM     76  C   UNL A   1      38.728  33.572  38.117  1.00  0.00     0.173 A 
ATOM     77  F   UNL A   1      40.954  35.627  36.115  1.00  0.00    -0.203 F 
ATOM     78  C   UNL A   1      40.034  36.017  38.249  1.00  0.00     0.198 A 
ATOM     79  C   UNL A   1      38.574  34.389  39.235  1.00  0.00     0.198 A 
ATOM     80  F   UNL A   1      38.086  32.395  38.083  1.00  0.00    -0.203 F 
ATOM     81  F   UNL A   1      40.693  37.180  38.320  1.00  0.00    -0.200 F 
ATOM     82  C   UNL A   1      39.232  35.607  39.303  1.00  0.00     0.200 A 
ATOM     83  F   UNL A   1      37.785  33.998  40.246  1.00  0.00    -0.200 F 
ATOM     84  F   UNL A   1      39.098  36.384  40.386  1.00  0.00    -0.200 F 
ENDBRANCH  50  74
BRANCH  62  85
ATOM     85  C   UNL A   1      43.659  28.590  35.439  1.00  0.00     0.064 A 
ATOM     86  C   UNL A   1      45.004  28.965  35.296  1.00  0.00     0.173 A 
ATOM     87  C   UNL A   1      43.351  27.573  36.354  1.00  0.00     0.173 A 
ATOM     88  F   UNL A   1      45.348  29.921  34.420  1.00  0.00    -0.203 F 
ATOM     89  C   UNL A   1      46.002  28.334  36.032  1.00  0.00     0.198 A 
ATOM     90  C   UNL A   1      44.348  26.964  37.109  1.00  0.00     0.198 A 
ATOM     91  F   UNL A   1      42.080  27.183  36.528  1.00  0.00    -0.203 F 
ATOM     92  F   UNL A   1      47.284  28.681  35.853  1.00  0.00    -0.200 F 
ATOM     93  C   UNL A   1      45.673  27.342  36.944  1.00  0.00     0.200 A 
ATOM     94  F   UNL A   1      44.028  26.015  37.999  1.00  0.00    -0.200 F 
ATOM     95  F   UNL A   1      46.635  26.744  37.661  1.00  0.00    -0.200 F 
ENDBRANCH  62  85
ENDBRANCH  36  37
ENDBRANCH  28  31
ENDBRANCH  26  27
ENDBRANCH  25  26
ENDBRANCH   1  25
TORSDOF 16
ENDMDL
MODEL 3
REMARK VINA RESULT:     -11.7      5.761     11.212
REMARK SMILES CCC(CC)(CC)NC(=O)NC[C@@H]1CC[C@H](C(=O)NCCCNC(=O)c2ccc(-c3c4nc(c(-c5c(F)c(F)c(F)c(F)c5F)c5ccc([nH]5)c(-c5c(F)c(F)c(F)c(F)c5F)c5nc(c(-c6c(F)c(F)c(F)c(F)c6F)c6ccc3[nH]6)C=C5)C=C4)cc2)O1
REMARK SMILES IDX 20 1 19 2 17 3 18 4 16 6 13 7 14 8 89 9 15 10 12 11 11 12
REMARK SMILES IDX 8 13 9 14 10 16 3 18 2 19 1 20 4 21 5 22 6 23 7 24 21 25
REMARK SMILES IDX 22 26 23 27 24 28 25 30 26 31 27 32 88 33 28 34 87 35 29 36
REMARK SMILES IDX 30 37 31 38 81 39 32 40 86 41 80 42 82 43 33 44 85 45 79 46
REMARK SMILES IDX 78 47 34 49 66 50 46 51 65 52 47 53 50 54 64 55 83 56 48 57
REMARK SMILES IDX 49 58 63 60 84 61 51 62 35 63 36 64 44 65 37 66 38 67 42 68
REMARK SMILES IDX 45 69 39 70 40 71 43 72 41 73 67 74 68 75 76 76 69 77 70 78
REMARK SMILES IDX 74 79 77 80 71 81 72 82 75 83 73 84 52 85 53 86 61 87 54 88
REMARK SMILES IDX 55 89 59 90 62 91 56 92 57 93 60 94 58 95
REMARK H PARENT 19 5 8 15 11 17 23 29 82 48 50 59
REMARK Flexibility Score: inf
ROOT
ATOM      1  C   UNL A   1      37.525  21.812  24.995  1.00  0.00     0.117 C 
ENDROOT
BRANCH   1   2
ATOM      2  N   UNL A   1      36.601  22.007  26.084  1.00  0.00    -0.354 N 
ATOM      3  C   UNL A   1      35.269  21.697  26.116  1.00  0.00     0.249 C 
ATOM      4  O   UNL A   1      34.708  21.728  27.216  1.00  0.00    -0.272 OA
ATOM      5  H   UNL A   1      36.972  22.412  26.902  1.00  0.00     0.163 HD
BRANCH   3   6
ATOM      6  C   UNL A   1      34.468  21.375  24.823  1.00  0.00     0.207 C 
ATOM      7  C   UNL A   1      32.398  21.948  23.869  1.00  0.00     0.138 C 
ATOM      8  C   UNL A   1      32.168  20.668  24.654  1.00  0.00     0.037 C 
ATOM      9  O   UNL A   1      33.669  22.431  24.297  1.00  0.00    -0.363 OA
ATOM     10  C   UNL A   1      33.569  20.156  24.947  1.00  0.00     0.045 C 
BRANCH   7  11
ATOM     11  C   UNL A   1      31.290  23.045  23.939  1.00  0.00     0.149 C 
BRANCH  11  12
ATOM     12  N   UNL A   1      30.684  23.324  25.246  1.00  0.00    -0.336 N 
ATOM     13  N   UNL A   1      31.048  25.490  26.257  1.00  0.00    -0.333 N 
ATOM     14  C   UNL A   1      30.601  24.248  26.193  1.00  0.00     0.315 C 
ATOM     15  H   UNL A   1      31.053  25.761  27.204  1.00  0.00     0.165 HD
ATOM     16  O   UNL A   1      30.047  23.860  27.234  1.00  0.00    -0.249 OA
ATOM     17  H   UNL A   1      30.147  22.544  25.517  1.00  0.00     0.165 HD
BRANCH  13  18
ATOM     18  C   UNL A   1      31.547  26.643  25.450  1.00  0.00     0.041 C 
BRANCH  18  19
ATOM     19  C   UNL A   1      30.952  26.711  24.035  1.00  0.00     0.025 C 
ATOM     20  C   UNL A   1      29.431  26.617  24.025  1.00  0.00     0.006 C 
ENDBRANCH  18  19
BRANCH  18  21
ATOM     21  C   UNL A   1      33.112  26.448  25.309  1.00  0.00     0.025 C 
ATOM     22  C   UNL A   1      33.631  26.187  23.891  1.00  0.00     0.006 C 
ENDBRANCH  18  21
BRANCH  18  23
ATOM     23  C   UNL A   1      31.336  27.977  26.237  1.00  0.00     0.025 C 
ATOM     24  C   UNL A   1      31.712  27.972  27.712  1.00  0.00     0.006 C 
ENDBRANCH  18  23
ENDBRANCH  13  18
ENDBRANCH  11  12
ENDBRANCH   7  11
ENDBRANCH   3   6
ENDBRANCH   1   2
BRANCH   1  25
ATOM     25  C   UNL A   1      38.228  20.463  25.008  1.00  0.00     0.042 C 
BRANCH  25  26
ATOM     26  C   UNL A   1      39.217  20.321  26.153  1.00  0.00     0.118 C 
BRANCH  26  27
ATOM     27  N   UNL A   1      40.204  19.272  25.926  1.00  0.00    -0.352 N 
ATOM     28  C   UNL A   1      41.578  19.261  26.055  1.00  0.00     0.251 C 
ATOM     29  H   UNL A   1      39.822  18.416  25.625  1.00  0.00     0.163 HD
ATOM     30  O   UNL A   1      42.221  18.261  25.802  1.00  0.00    -0.269 OA
BRANCH  28  31
ATOM     31  C   UNL A   1      42.296  20.502  26.420  1.00  0.00     0.039 A 
ATOM     32  C   UNL A   1      42.811  21.288  25.382  1.00  0.00     0.014 A 
ATOM     33  C   UNL A   1      42.428  20.919  27.742  1.00  0.00     0.014 A 
ATOM     34  C   UNL A   1      43.365  22.536  25.664  1.00  0.00     0.010 A 
ATOM     35  C   UNL A   1      42.881  22.205  28.013  1.00  0.00     0.010 A 
ATOM     36  C   UNL A   1      43.348  23.029  26.977  1.00  0.00    -0.014 A 
BRANCH  36  37
ATOM     37  C   UNL A   1      43.804  24.403  27.300  1.00  0.00     0.031 A 
ATOM     38  C   UNL A   1      42.815  25.415  27.803  1.00  0.00     0.074 A 
ATOM     39  C   UNL A   1      45.076  24.762  27.041  1.00  0.00     0.049 A 
ATOM     40  N   UNL A   1      42.967  26.700  27.990  1.00  0.00    -0.248 NA
ATOM     41  C   UNL A   1      41.460  24.920  28.096  1.00  0.00     0.031 C 
ATOM     42  C   UNL A   1      46.115  23.880  26.507  1.00  0.00     0.029 A 
ATOM     43  N   UNL A   1      45.709  25.973  27.174  1.00  0.00    -0.354 N 
ATOM     44  C   UNL A   1      41.722  27.171  28.388  1.00  0.00     0.074 A 
ATOM     45  C   UNL A   1      40.815  26.044  28.368  1.00  0.00     0.031 C 
ATOM     46  C   UNL A   1      47.257  24.572  26.371  1.00  0.00     0.029 A 
ATOM     47  C   UNL A   1      47.020  25.957  26.763  1.00  0.00     0.049 A 
ATOM     48  H   UNL A   1      45.265  26.777  27.528  1.00  0.00     0.167 HD
ATOM     49  C   UNL A   1      41.375  28.426  28.755  1.00  0.00     0.037 A 
ATOM     50  C   UNL A   1      47.923  26.954  26.692  1.00  0.00     0.037 A 
ATOM     51  C   UNL A   1      42.297  29.529  28.817  1.00  0.00     0.049 A 
ATOM     52  C   UNL A   1      47.515  28.338  27.116  1.00  0.00     0.074 A 
ATOM     53  C   UNL A   1      42.070  30.818  29.261  1.00  0.00     0.029 A 
ATOM     54  N   UNL A   1      43.625  29.467  28.421  1.00  0.00    -0.354 N 
ATOM     55  N   UNL A   1      46.353  28.759  27.554  1.00  0.00    -0.248 NA
ATOM     56  C   UNL A   1      48.541  29.386  27.035  1.00  0.00     0.031 C 
ATOM     57  C   UNL A   1      43.251  31.550  29.093  1.00  0.00     0.029 A 
ATOM     58  C   UNL A   1      44.225  30.705  28.586  1.00  0.00     0.049 A 
ATOM     59  H   UNL A   1      44.075  28.662  28.075  1.00  0.00     0.167 HD
ATOM     60  C   UNL A   1      46.511  30.112  27.817  1.00  0.00     0.074 A 
ATOM     61  C   UNL A   1      47.888  30.439  27.508  1.00  0.00     0.031 C 
ATOM     62  C   UNL A   1      45.598  31.006  28.271  1.00  0.00     0.037 A 
BRANCH  49  63
ATOM     63  C   UNL A   1      39.941  28.671  29.124  1.00  0.00     0.064 A 
ATOM     64  C   UNL A   1      39.469  28.462  30.429  1.00  0.00     0.173 A 
ATOM     65  C   UNL A   1      39.033  29.145  28.166  1.00  0.00     0.173 A 
ATOM     66  F   UNL A   1      40.293  27.997  31.380  1.00  0.00    -0.203 F 
ATOM     67  C   UNL A   1      38.132  28.688  30.752  1.00  0.00     0.198 A 
ATOM     68  C   UNL A   1      37.705  29.400  28.500  1.00  0.00     0.198 A 
ATOM     69  F   UNL A   1      39.433  29.365  26.904  1.00  0.00    -0.203 F 
ATOM     70  F   UNL A   1      37.693  28.430  31.991  1.00  0.00    -0.200 F 
ATOM     71  C   UNL A   1      37.255  29.162  29.791  1.00  0.00     0.200 A 
ATOM     72  F   UNL A   1      36.860  29.870  27.572  1.00  0.00    -0.200 F 
ATOM     73  F   UNL A   1      35.971  29.385  30.105  1.00  0.00    -0.200 F 
ENDBRANCH  49  63
BRANCH  50  74
ATOM     74  C   UNL A   1      49.301  26.675  26.211  1.00  0.00     0.064 A 
ATOM     75  C   UNL A   1      49.656  26.905  24.874  1.00  0.00     0.173 A 
ATOM     76  C   UNL A   1      50.292  26.183  27.073  1.00  0.00     0.173 A 
ATOM     77  F   UNL A   1      48.738  27.357  24.008  1.00  0.00    -0.203 F 
ATOM     78  C   UNL A   1      50.945  26.639  24.415  1.00  0.00     0.198 A 
ATOM     79  C   UNL A   1      51.587  25.943  26.620  1.00  0.00     0.198 A 
ATOM     80  F   UNL A   1      50.006  25.951  28.363  1.00  0.00    -0.203 F 
ATOM     81  F   UNL A   1      51.245  26.831  23.125  1.00  0.00    -0.200 F 
ATOM     82  C   UNL A   1      51.911  26.165  25.290  1.00  0.00     0.200 A 
ATOM     83  F   UNL A   1      52.523  25.500  27.471  1.00  0.00    -0.200 F 
ATOM     84  F   UNL A   1      53.152  25.917  24.850  1.00  0.00    -0.200 F 
ENDBRANCH  50  74
BRANCH  62  85
ATOM     85  C   UNL A   1      46.062  32.417  28.475  1.00  0.00     0.064 A 
ATOM     86  C   UNL A   1      46.636  32.830  29.687  1.00  0.00     0.173 A 
ATOM     87  C   UNL A   1      45.981  33.350  27.431  1.00  0.00     0.173 A 
ATOM     88  F   UNL A   1      46.719  31.976  30.719  1.00  0.00    -0.203 F 
ATOM     89  C   UNL A   1      47.098  34.132  29.850  1.00  0.00     0.198 A 
ATOM     90  C   UNL A   1      46.469  34.644  27.590  1.00  0.00     0.198 A 
ATOM     91  F   UNL A   1      45.445  33.002  26.253  1.00  0.00    -0.203 F 
ATOM     92  F   UNL A   1      47.608  34.516  31.029  1.00  0.00    -0.200 F 
ATOM     93  C   UNL A   1      47.023  35.035  28.800  1.00  0.00     0.200 A 
ATOM     94  F   UNL A   1      46.409  35.511  26.570  1.00  0.00    -0.200 F 
ATOM     95  F   UNL A   1      47.479  36.285  28.956  1.00  0.00    -0.200 F 
ENDBRANCH  62  85
ENDBRANCH  36  37
ENDBRANCH  28  31
ENDBRANCH  26  27
ENDBRANCH  25  26
ENDBRANCH   1  25
TORSDOF 16
ENDMDL
