MODEL 1
REMARK VINA RESULT:     -11.1      0.000      0.000
REMARK SMILES C[C@H]([NH3+])C(=O)N1CCC[C@H]1C(=O)NCCCNC(=O)c1ccc(-c2c3nc(c(-c4c(F)c(F)c(F)c(F)c4F)c4ccc([nH]4)c(-c4c(F)c(F)c(F)c(F)c4F)c4nc(c(-c5c(F)c(F)c(F)c(F)c5F)c5ccc2[nH]5)C=C4)C=C3)cc1
REMARK SMILES IDX 14 1 13 2 11 3 12 4 10 6 6 7 7 8 8 9 9 10 4 11 5 12 2 13
REMARK SMILES IDX 1 14 3 15 15 19 16 20 17 21 18 22 19 24 20 25 21 26 82 27
REMARK SMILES IDX 22 28 81 29 23 30 24 31 25 32 75 33 26 34 80 35 74 36 76 37
REMARK SMILES IDX 27 38 79 39 73 40 72 41 28 43 60 44 40 45 59 46 41 47 44 48
REMARK SMILES IDX 58 49 77 50 42 51 43 52 57 54 78 55 45 56 29 57 30 58 38 59
REMARK SMILES IDX 31 60 32 61 36 62 39 63 33 64 34 65 37 66 35 67 61 68 62 69
REMARK SMILES IDX 70 70 63 71 64 72 68 73 71 74 65 75 66 76 69 77 67 78 46 79
REMARK SMILES IDX 47 80 55 81 48 82 49 83 53 84 56 85 50 86 51 87 54 88 52 89
REMARK H PARENT 13 5 3 16 3 17 3 18 17 23 76 42 44 53
REMARK Flexibility Score: inf
ROOT
ATOM      1  C   UNL A   1      31.401  30.785  26.464  1.00  0.00     0.117 C 
ENDROOT
BRANCH   1   2
ATOM      2  N   UNL A   1      32.392  30.315  25.513  1.00  0.00    -0.354 N 
ATOM      3  C   UNL A   1      32.289  29.329  24.572  1.00  0.00     0.242 C 
ATOM      4  O   UNL A   1      33.255  29.133  23.830  1.00  0.00    -0.273 OA
ATOM      5  H   UNL A   1      33.263  30.772  25.551  1.00  0.00     0.163 HD
BRANCH   3   6
ATOM      6  C   UNL A   1      31.018  28.460  24.516  1.00  0.00     0.174 C 
ATOM      7  N   UNL A   1      30.436  28.372  23.175  1.00  0.00    -0.326 N 
ATOM      8  C   UNL A   1      30.493  27.013  22.675  1.00  0.00     0.120 C 
ATOM      9  C   UNL A   1      30.543  26.170  23.937  1.00  0.00     0.024 C 
ATOM     10  C   UNL A   1      31.373  27.016  24.892  1.00  0.00     0.037 C 
BRANCH   7  11
ATOM     11  C   UNL A   1      29.844  29.488  22.627  1.00  0.00     0.281 C 
ATOM     12  O   UNL A   1      30.097  29.804  21.455  1.00  0.00    -0.268 OA
BRANCH  11  13
ATOM     13  C   UNL A   1      29.035  30.475  23.493  1.00  0.00     0.268 C 
ATOM     14  C   UNL A   1      27.561  30.367  23.117  1.00  0.00     0.086 C 
BRANCH  13  15
ATOM     15  N   UNL A   1      29.521  31.866  23.464  1.00  0.00    -0.348 N 
ATOM     16  H   UNL A   1      30.529  31.877  23.624  1.00  0.00     0.345 HD
ATOM     17  H   UNL A   1      29.054  32.405  24.192  1.00  0.00     0.345 HD
ATOM     18  H   UNL A   1      29.318  32.278  22.552  1.00  0.00     0.345 HD
ENDBRANCH  13  15
ENDBRANCH  11  13
ENDBRANCH   7  11
ENDBRANCH   3   6
ENDBRANCH   1   2
BRANCH   1  19
ATOM     19  C   UNL A   1      31.356  32.309  26.540  1.00  0.00     0.042 C 
BRANCH  19  20
ATOM     20  C   UNL A   1      32.681  32.954  26.942  1.00  0.00     0.118 C 
BRANCH  20  21
ATOM     21  N   UNL A   1      32.501  34.189  27.693  1.00  0.00    -0.352 N 
ATOM     22  C   UNL A   1      33.144  34.678  28.797  1.00  0.00     0.251 C 
ATOM     23  H   UNL A   1      31.792  34.776  27.344  1.00  0.00     0.163 HD
ATOM     24  O   UNL A   1      32.692  35.681  29.352  1.00  0.00    -0.269 OA
BRANCH  22  25
ATOM     25  C   UNL A   1      34.355  34.032  29.349  1.00  0.00     0.039 A 
ATOM     26  C   UNL A   1      34.185  32.959  30.233  1.00  0.00     0.014 A 
ATOM     27  C   UNL A   1      35.641  34.508  29.080  1.00  0.00     0.014 A 
ATOM     28  C   UNL A   1      35.297  32.342  30.809  1.00  0.00     0.010 A 
ATOM     29  C   UNL A   1      36.755  33.848  29.602  1.00  0.00     0.010 A 
ATOM     30  C   UNL A   1      36.594  32.768  30.481  1.00  0.00    -0.014 A 
BRANCH  30  31
ATOM     31  C   UNL A   1      37.777  32.088  31.065  1.00  0.00     0.031 A 
ATOM     32  C   UNL A   1      38.257  32.434  32.446  1.00  0.00     0.074 A 
ATOM     33  C   UNL A   1      38.444  31.177  30.331  1.00  0.00     0.049 A 
ATOM     34  N   UNL A   1      39.261  31.933  33.123  1.00  0.00    -0.248 NA
ATOM     35  C   UNL A   1      37.531  33.500  33.152  1.00  0.00     0.031 C 
ATOM     36  C   UNL A   1      38.119  30.804  28.954  1.00  0.00     0.029 A 
ATOM     37  N   UNL A   1      39.533  30.402  30.639  1.00  0.00    -0.354 N 
ATOM     38  C   UNL A   1      39.291  32.627  34.324  1.00  0.00     0.074 A 
ATOM     39  C   UNL A   1      38.241  33.622  34.264  1.00  0.00     0.031 C 
ATOM     40  C   UNL A   1      38.974  29.855  28.544  1.00  0.00     0.029 A 
ATOM     41  C   UNL A   1      39.917  29.565  29.622  1.00  0.00     0.049 A 
ATOM     42  H   UNL A   1      39.995  30.442  31.508  1.00  0.00     0.167 HD
ATOM     43  C   UNL A   1      40.104  32.437  35.392  1.00  0.00     0.037 A 
ATOM     44  C   UNL A   1      40.909  28.659  29.566  1.00  0.00     0.037 A 
ATOM     45  C   UNL A   1      41.134  31.434  35.460  1.00  0.00     0.049 A 
ATOM     46  C   UNL A   1      41.767  28.430  30.778  1.00  0.00     0.074 A 
ATOM     47  C   UNL A   1      41.974  31.126  36.516  1.00  0.00     0.029 A 
ATOM     48  N   UNL A   1      41.462  30.571  34.424  1.00  0.00    -0.354 N 
ATOM     49  N   UNL A   1      41.737  29.039  31.938  1.00  0.00    -0.248 NA
ATOM     50  C   UNL A   1      42.784  27.373  30.681  1.00  0.00     0.031 C 
ATOM     51  C   UNL A   1      42.832  30.097  36.109  1.00  0.00     0.029 A 
ATOM     52  C   UNL A   1      42.499  29.737  34.812  1.00  0.00     0.049 A 
ATOM     53  H   UNL A   1      41.023  30.553  33.544  1.00  0.00     0.167 HD
ATOM     54  C   UNL A   1      42.711  28.430  32.715  1.00  0.00     0.074 A 
ATOM     55  C   UNL A   1      43.307  27.392  31.899  1.00  0.00     0.031 C 
ATOM     56  C   UNL A   1      43.079  28.707  33.990  1.00  0.00     0.037 A 
BRANCH  43  57
ATOM     57  C   UNL A   1      39.903  33.336  36.577  1.00  0.00     0.064 A 
ATOM     58  C   UNL A   1      39.002  33.008  37.601  1.00  0.00     0.173 A 
ATOM     59  C   UNL A   1      40.628  34.531  36.700  1.00  0.00     0.173 A 
ATOM     60  F   UNL A   1      38.276  31.882  37.526  1.00  0.00    -0.203 F 
ATOM     61  C   UNL A   1      38.808  33.858  38.687  1.00  0.00     0.198 A 
ATOM     62  C   UNL A   1      40.453  35.365  37.801  1.00  0.00     0.198 A 
ATOM     63  F   UNL A   1      41.507  34.890  35.753  1.00  0.00    -0.203 F 
ATOM     64  F   UNL A   1      37.903  33.548  39.625  1.00  0.00    -0.200 F 
ATOM     65  C   UNL A   1      39.537  35.033  38.789  1.00  0.00     0.200 A 
ATOM     66  F   UNL A   1      41.165  36.496  37.904  1.00  0.00    -0.200 F 
ATOM     67  F   UNL A   1      39.350  35.850  39.834  1.00  0.00    -0.200 F 
ENDBRANCH  43  57
BRANCH  44  68
ATOM     68  C   UNL A   1      41.100  27.863  28.328  1.00  0.00     0.064 A 
ATOM     69  C   UNL A   1      41.952  28.311  27.310  1.00  0.00     0.173 A 
ATOM     70  C   UNL A   1      40.469  26.624  28.156  1.00  0.00     0.173 A 
ATOM     71  F   UNL A   1      42.565  29.499  27.425  1.00  0.00    -0.203 F 
ATOM     72  C   UNL A   1      42.158  27.554  26.160  1.00  0.00     0.198 A 
ATOM     73  C   UNL A   1      40.693  25.856  27.015  1.00  0.00     0.198 A 
ATOM     74  F   UNL A   1      39.651  26.148  29.107  1.00  0.00    -0.203 F 
ATOM     75  F   UNL A   1      42.957  28.017  25.189  1.00  0.00    -0.200 F 
ATOM     76  C   UNL A   1      41.535  26.324  26.017  1.00  0.00     0.200 A 
ATOM     77  F   UNL A   1      40.100  24.661  26.887  1.00  0.00    -0.200 F 
ATOM     78  F   UNL A   1      41.743  25.588  24.916  1.00  0.00    -0.200 F 
ENDBRANCH  44  68
BRANCH  56  79
ATOM     79  C   UNL A   1      44.161  27.861  34.590  1.00  0.00     0.064 A 
ATOM     80  C   UNL A   1      45.507  28.251  34.547  1.00  0.00     0.173 A 
ATOM     81  C   UNL A   1      43.844  26.662  35.248  1.00  0.00     0.173 A 
ATOM     82  F   UNL A   1      45.863  29.381  33.916  1.00  0.00    -0.203 F 
ATOM     83  C   UNL A   1      46.499  27.461  35.121  1.00  0.00     0.198 A 
ATOM     84  C   UNL A   1      44.835  25.887  35.842  1.00  0.00     0.198 A 
ATOM     85  F   UNL A   1      42.569  26.249  35.320  1.00  0.00    -0.203 F 
ATOM     86  F   UNL A   1      47.784  27.832  35.032  1.00  0.00    -0.200 F 
ATOM     87  C   UNL A   1      46.162  26.284  35.773  1.00  0.00     0.200 A 
ATOM     88  F   UNL A   1      44.506  24.755  36.480  1.00  0.00    -0.200 F 
ATOM     89  F   UNL A   1      47.117  25.527  36.329  1.00  0.00    -0.200 F 
ENDBRANCH  56  79
ENDBRANCH  30  31
ENDBRANCH  22  25
ENDBRANCH  20  21
ENDBRANCH  19  20
ENDBRANCH   1  19
TORSDOF 13
ENDMDL
MODEL 2
REMARK VINA RESULT:     -11.0      0.182      1.670
REMARK SMILES C[C@H]([NH3+])C(=O)N1CCC[C@H]1C(=O)NCCCNC(=O)c1ccc(-c2c3nc(c(-c4c(F)c(F)c(F)c(F)c4F)c4ccc([nH]4)c(-c4c(F)c(F)c(F)c(F)c4F)c4nc(c(-c5c(F)c(F)c(F)c(F)c5F)c5ccc2[nH]5)C=C4)C=C3)cc1
REMARK SMILES IDX 14 1 13 2 11 3 12 4 10 6 6 7 7 8 8 9 9 10 4 11 5 12 2 13
REMARK SMILES IDX 1 14 3 15 15 19 16 20 17 21 18 22 19 24 20 25 21 26 82 27
REMARK SMILES IDX 22 28 81 29 23 30 24 31 25 32 75 33 26 34 80 35 74 36 76 37
REMARK SMILES IDX 27 38 79 39 73 40 72 41 28 43 60 44 40 45 59 46 41 47 44 48
REMARK SMILES IDX 58 49 77 50 42 51 43 52 57 54 78 55 45 56 29 57 30 58 38 59
REMARK SMILES IDX 31 60 32 61 36 62 39 63 33 64 34 65 37 66 35 67 61 68 62 69
REMARK SMILES IDX 70 70 63 71 64 72 68 73 71 74 65 75 66 76 69 77 67 78 46 79
REMARK SMILES IDX 47 80 55 81 48 82 49 83 53 84 56 85 50 86 51 87 54 88 52 89
REMARK H PARENT 13 5 3 16 3 17 3 18 17 23 76 42 44 53
REMARK Flexibility Score: inf
ROOT
ATOM      1  C   UNL A   1      31.688  30.494  26.797  1.00  0.00     0.117 C 
ENDROOT
BRANCH   1   2
ATOM      2  N   UNL A   1      32.574  30.165  25.695  1.00  0.00    -0.354 N 
ATOM      3  C   UNL A   1      32.379  29.297  24.657  1.00  0.00     0.242 C 
ATOM      4  O   UNL A   1      33.260  29.214  23.798  1.00  0.00    -0.273 OA
ATOM      5  H   UNL A   1      33.439  30.635  25.695  1.00  0.00     0.163 HD
BRANCH   3   6
ATOM      6  C   UNL A   1      31.119  28.410  24.634  1.00  0.00     0.174 C 
ATOM      7  N   UNL A   1      30.540  28.264  23.296  1.00  0.00    -0.326 N 
ATOM      8  C   UNL A   1      30.614  26.888  22.847  1.00  0.00     0.120 C 
ATOM      9  C   UNL A   1      30.674  26.094  24.140  1.00  0.00     0.024 C 
ATOM     10  C   UNL A   1      31.492  26.985  25.063  1.00  0.00     0.037 C 
BRANCH   7  11
ATOM     11  C   UNL A   1      29.935  29.352  22.707  1.00  0.00     0.281 C 
ATOM     12  O   UNL A   1      30.281  29.706  21.570  1.00  0.00    -0.268 OA
BRANCH  11  13
ATOM     13  C   UNL A   1      28.982  30.269  23.500  1.00  0.00     0.268 C 
ATOM     14  C   UNL A   1      27.648  30.350  22.764  1.00  0.00     0.086 C 
BRANCH  13  15
ATOM     15  N   UNL A   1      29.528  31.600  23.819  1.00  0.00    -0.348 N 
ATOM     16  H   UNL A   1      29.876  31.604  24.778  1.00  0.00     0.345 HD
ATOM     17  H   UNL A   1      28.793  32.301  23.721  1.00  0.00     0.345 HD
ATOM     18  H   UNL A   1      30.293  31.817  23.180  1.00  0.00     0.345 HD
ENDBRANCH  13  15
ENDBRANCH  11  13
ENDBRANCH   7  11
ENDBRANCH   3   6
ENDBRANCH   1   2
BRANCH   1  19
ATOM     19  C   UNL A   1      31.396  31.991  26.871  1.00  0.00     0.042 C 
BRANCH  19  20
ATOM     20  C   UNL A   1      32.645  32.871  26.876  1.00  0.00     0.118 C 
BRANCH  20  21
ATOM     21  N   UNL A   1      32.452  34.116  27.609  1.00  0.00    -0.352 N 
ATOM     22  C   UNL A   1      33.081  34.620  28.715  1.00  0.00     0.251 C 
ATOM     23  H   UNL A   1      31.747  34.697  27.244  1.00  0.00     0.163 HD
ATOM     24  O   UNL A   1      32.621  35.629  29.251  1.00  0.00    -0.269 OA
BRANCH  22  25
ATOM     25  C   UNL A   1      34.287  33.984  29.289  1.00  0.00     0.039 A 
ATOM     26  C   UNL A   1      34.110  32.900  30.159  1.00  0.00     0.014 A 
ATOM     27  C   UNL A   1      35.573  34.478  29.055  1.00  0.00     0.014 A 
ATOM     28  C   UNL A   1      35.216  32.292  30.756  1.00  0.00     0.010 A 
ATOM     29  C   UNL A   1      36.683  33.827  29.597  1.00  0.00     0.010 A 
ATOM     30  C   UNL A   1      36.514  32.738  30.462  1.00  0.00    -0.014 A 
BRANCH  30  31
ATOM     31  C   UNL A   1      37.692  32.067  31.067  1.00  0.00     0.031 A 
ATOM     32  C   UNL A   1      38.146  32.418  32.456  1.00  0.00     0.074 A 
ATOM     33  C   UNL A   1      38.378  31.159  30.347  1.00  0.00     0.049 A 
ATOM     34  N   UNL A   1      39.141  31.926  33.151  1.00  0.00    -0.248 NA
ATOM     35  C   UNL A   1      37.401  33.481  33.148  1.00  0.00     0.031 C 
ATOM     36  C   UNL A   1      38.079  30.781  28.965  1.00  0.00     0.029 A 
ATOM     37  N   UNL A   1      39.467  30.392  30.676  1.00  0.00    -0.354 N 
ATOM     38  C   UNL A   1      39.147  32.622  34.351  1.00  0.00     0.074 A 
ATOM     39  C   UNL A   1      38.091  33.609  34.271  1.00  0.00     0.031 C 
ATOM     40  C   UNL A   1      38.947  29.837  28.572  1.00  0.00     0.029 A 
ATOM     41  C   UNL A   1      39.874  29.555  29.667  1.00  0.00     0.049 A 
ATOM     42  H   UNL A   1      39.914  30.437  31.552  1.00  0.00     0.167 HD
ATOM     43  C   UNL A   1      39.943  32.440  35.433  1.00  0.00     0.037 A 
ATOM     44  C   UNL A   1      40.872  28.656  29.630  1.00  0.00     0.037 A 
ATOM     45  C   UNL A   1      40.978  31.444  35.521  1.00  0.00     0.049 A 
ATOM     46  C   UNL A   1      41.711  28.435  30.857  1.00  0.00     0.074 A 
ATOM     47  C   UNL A   1      41.802  31.144  36.592  1.00  0.00     0.029 A 
ATOM     48  N   UNL A   1      41.330  30.581  34.493  1.00  0.00    -0.354 N 
ATOM     49  N   UNL A   1      41.657  29.047  32.015  1.00  0.00    -0.248 NA
ATOM     50  C   UNL A   1      42.737  27.386  30.779  1.00  0.00     0.031 C 
ATOM     51  C   UNL A   1      42.673  30.120  36.202  1.00  0.00     0.029 A 
ATOM     52  C   UNL A   1      42.366  29.756  34.900  1.00  0.00     0.049 A 
ATOM     53  H   UNL A   1      40.905  30.559  33.605  1.00  0.00     0.167 HD
ATOM     54  C   UNL A   1      42.623  28.446  32.810  1.00  0.00     0.074 A 
ATOM     55  C   UNL A   1      43.239  27.410  32.006  1.00  0.00     0.031 C 
ATOM     56  C   UNL A   1      42.967  28.728  34.090  1.00  0.00     0.037 A 
BRANCH  43  57
ATOM     57  C   UNL A   1      39.715  33.340  36.613  1.00  0.00     0.064 A 
ATOM     58  C   UNL A   1      40.405  34.554  36.752  1.00  0.00     0.173 A 
ATOM     59  C   UNL A   1      38.788  32.994  37.607  1.00  0.00     0.173 A 
ATOM     60  F   UNL A   1      41.310  34.925  35.834  1.00  0.00    -0.203 F 
ATOM     61  C   UNL A   1      40.201  35.372  37.860  1.00  0.00     0.198 A 
ATOM     62  C   UNL A   1      38.565  33.829  38.700  1.00  0.00     0.198 A 
ATOM     63  F   UNL A   1      38.097  31.848  37.519  1.00  0.00    -0.203 F 
ATOM     64  F   UNL A   1      40.911  36.501  37.997  1.00  0.00    -0.200 F 
ATOM     65  C   UNL A   1      39.278  35.012  38.831  1.00  0.00     0.200 A 
ATOM     66  F   UNL A   1      37.666  33.485  39.632  1.00  0.00    -0.200 F 
ATOM     67  F   UNL A   1      39.082  35.799  39.896  1.00  0.00    -0.200 F 
ENDBRANCH  43  57
BRANCH  44  68
ATOM     68  C   UNL A   1      41.091  27.859  28.397  1.00  0.00     0.064 A 
ATOM     69  C   UNL A   1      41.972  28.301  27.402  1.00  0.00     0.173 A 
ATOM     70  C   UNL A   1      40.454  26.625  28.207  1.00  0.00     0.173 A 
ATOM     71  F   UNL A   1      42.591  29.484  27.534  1.00  0.00    -0.203 F 
ATOM     72  C   UNL A   1      42.203  27.542  26.258  1.00  0.00     0.198 A 
ATOM     73  C   UNL A   1      40.703  25.856  27.073  1.00  0.00     0.198 A 
ATOM     74  F   UNL A   1      39.608  26.155  29.136  1.00  0.00    -0.203 F 
ATOM     75  F   UNL A   1      43.031  28.000  25.308  1.00  0.00    -0.200 F 
ATOM     76  C   UNL A   1      41.574  26.317  26.097  1.00  0.00     0.200 A 
ATOM     77  F   UNL A   1      40.105  24.665  26.928  1.00  0.00    -0.200 F 
ATOM     78  F   UNL A   1      41.806  25.580  25.002  1.00  0.00    -0.200 F 
ENDBRANCH  44  68
BRANCH  56  79
ATOM     79  C   UNL A   1      44.044  27.890  34.710  1.00  0.00     0.064 A 
ATOM     80  C   UNL A   1      43.754  26.674  35.345  1.00  0.00     0.173 A 
ATOM     81  C   UNL A   1      45.387  28.291  34.636  1.00  0.00     0.173 A 
ATOM     82  F   UNL A   1      42.484  26.255  35.454  1.00  0.00    -0.203 F 
ATOM     83  C   UNL A   1      44.767  25.901  35.904  1.00  0.00     0.198 A 
ATOM     84  C   UNL A   1      46.400  27.503  35.175  1.00  0.00     0.198 A 
ATOM     85  F   UNL A   1      45.715  29.444  34.035  1.00  0.00    -0.203 F 
ATOM     86  F   UNL A   1      44.464  24.761  36.542  1.00  0.00    -0.200 F 
ATOM     87  C   UNL A   1      46.089  26.312  35.813  1.00  0.00     0.200 A 
ATOM     88  F   UNL A   1      47.677  27.898  35.078  1.00  0.00    -0.200 F 
ATOM     89  F   UNL A   1      47.063  25.564  36.348  1.00  0.00    -0.200 F 
ENDBRANCH  56  79
ENDBRANCH  30  31
ENDBRANCH  22  25
ENDBRANCH  20  21
ENDBRANCH  19  20
ENDBRANCH   1  19
TORSDOF 13
ENDMDL
MODEL 3
REMARK VINA RESULT:     -10.9      1.012      2.307
REMARK SMILES C[C@H]([NH3+])C(=O)N1CCC[C@H]1C(=O)NCCCNC(=O)c1ccc(-c2c3nc(c(-c4c(F)c(F)c(F)c(F)c4F)c4ccc([nH]4)c(-c4c(F)c(F)c(F)c(F)c4F)c4nc(c(-c5c(F)c(F)c(F)c(F)c5F)c5ccc2[nH]5)C=C4)C=C3)cc1
REMARK SMILES IDX 14 1 13 2 11 3 12 4 10 6 6 7 7 8 8 9 9 10 4 11 5 12 2 13
REMARK SMILES IDX 1 14 3 15 15 19 16 20 17 21 18 22 19 24 20 25 21 26 82 27
REMARK SMILES IDX 22 28 81 29 23 30 24 31 25 32 75 33 26 34 80 35 74 36 76 37
REMARK SMILES IDX 27 38 79 39 73 40 72 41 28 43 60 44 40 45 59 46 41 47 44 48
REMARK SMILES IDX 58 49 77 50 42 51 43 52 57 54 78 55 45 56 29 57 30 58 38 59
REMARK SMILES IDX 31 60 32 61 36 62 39 63 33 64 34 65 37 66 35 67 61 68 62 69
REMARK SMILES IDX 70 70 63 71 64 72 68 73 71 74 65 75 66 76 69 77 67 78 46 79
REMARK SMILES IDX 47 80 55 81 48 82 49 83 53 84 56 85 50 86 51 87 54 88 52 89
REMARK H PARENT 13 5 3 16 3 17 3 18 17 23 76 42 44 53
REMARK Flexibility Score: inf
ROOT
ATOM      1  C   UNL A   1      31.617  30.694  26.365  1.00  0.00     0.117 C 
ENDROOT
BRANCH   1   2
ATOM      2  N   UNL A   1      31.097  30.370  25.049  1.00  0.00    -0.354 N 
ATOM      3  C   UNL A   1      31.359  29.286  24.258  1.00  0.00     0.242 C 
ATOM      4  O   UNL A   1      30.757  29.193  23.185  1.00  0.00    -0.273 OA
ATOM      5  H   UNL A   1      30.464  31.024  24.673  1.00  0.00     0.163 HD
BRANCH   3   6
ATOM      6  C   UNL A   1      32.436  28.272  24.689  1.00  0.00     0.174 C 
ATOM      7  N   UNL A   1      31.949  26.891  24.720  1.00  0.00    -0.326 N 
ATOM      8  C   UNL A   1      32.635  26.078  23.734  1.00  0.00     0.120 C 
ATOM      9  C   UNL A   1      33.955  26.803  23.532  1.00  0.00     0.024 C 
ATOM     10  C   UNL A   1      33.574  28.270  23.661  1.00  0.00     0.037 C 
BRANCH   7  11
ATOM     11  C   UNL A   1      31.040  26.522  25.686  1.00  0.00     0.281 C 
ATOM     12  O   UNL A   1      31.278  26.764  26.879  1.00  0.00    -0.268 OA
BRANCH  11  13
ATOM     13  C   UNL A   1      29.828  25.630  25.349  1.00  0.00     0.268 C 
ATOM     14  C   UNL A   1      28.978  26.331  24.293  1.00  0.00     0.086 C 
BRANCH  13  15
ATOM     15  N   UNL A   1      29.033  25.200  26.513  1.00  0.00    -0.348 N 
ATOM     16  H   UNL A   1      29.637  25.137  27.333  1.00  0.00     0.345 HD
ATOM     17  H   UNL A   1      28.619  24.287  26.324  1.00  0.00     0.345 HD
ATOM     18  H   UNL A   1      28.292  25.879  26.689  1.00  0.00     0.345 HD
ENDBRANCH  13  15
ENDBRANCH  11  13
ENDBRANCH   7  11
ENDBRANCH   3   6
ENDBRANCH   1   2
BRANCH   1  19
ATOM     19  C   UNL A   1      31.391  32.161  26.726  1.00  0.00     0.042 C 
BRANCH  19  20
ATOM     20  C   UNL A   1      32.677  32.972  26.872  1.00  0.00     0.118 C 
BRANCH  20  21
ATOM     21  N   UNL A   1      32.477  34.217  27.603  1.00  0.00    -0.352 N 
ATOM     22  C   UNL A   1      33.100  34.725  28.710  1.00  0.00     0.251 C 
ATOM     23  H   UNL A   1      31.769  34.794  27.235  1.00  0.00     0.163 HD
ATOM     24  O   UNL A   1      32.633  35.732  29.244  1.00  0.00    -0.269 OA
BRANCH  22  25
ATOM     25  C   UNL A   1      34.308  34.096  29.288  1.00  0.00     0.039 A 
ATOM     26  C   UNL A   1      34.135  33.147  30.303  1.00  0.00     0.014 A 
ATOM     27  C   UNL A   1      35.599  34.476  28.910  1.00  0.00     0.014 A 
ATOM     28  C   UNL A   1      35.246  32.555  30.906  1.00  0.00     0.010 A 
ATOM     29  C   UNL A   1      36.707  33.834  29.464  1.00  0.00     0.010 A 
ATOM     30  C   UNL A   1      36.542  32.878  30.476  1.00  0.00    -0.014 A 
BRANCH  30  31
ATOM     31  C   UNL A   1      37.722  32.220  31.091  1.00  0.00     0.031 A 
ATOM     32  C   UNL A   1      38.185  32.604  32.468  1.00  0.00     0.074 A 
ATOM     33  C   UNL A   1      38.402  31.292  30.389  1.00  0.00     0.049 A 
ATOM     34  N   UNL A   1      39.183  32.127  33.170  1.00  0.00    -0.248 NA
ATOM     35  C   UNL A   1      37.445  33.685  33.137  1.00  0.00     0.031 C 
ATOM     36  C   UNL A   1      38.095  30.882  29.019  1.00  0.00     0.029 A 
ATOM     37  N   UNL A   1      39.491  30.532  30.731  1.00  0.00    -0.354 N 
ATOM     38  C   UNL A   1      39.196  32.853  34.352  1.00  0.00     0.074 A 
ATOM     39  C   UNL A   1      38.141  33.840  34.253  1.00  0.00     0.031 C 
ATOM     40  C   UNL A   1      38.959  29.926  28.644  1.00  0.00     0.029 A 
ATOM     41  C   UNL A   1      39.891  29.670  29.740  1.00  0.00     0.049 A 
ATOM     42  H   UNL A   1      39.944  30.597  31.603  1.00  0.00     0.167 HD
ATOM     43  C   UNL A   1      39.998  32.696  35.433  1.00  0.00     0.037 A 
ATOM     44  C   UNL A   1      40.888  28.768  29.720  1.00  0.00     0.037 A 
ATOM     45  C   UNL A   1      41.031  31.700  35.540  1.00  0.00     0.049 A 
ATOM     46  C   UNL A   1      41.733  28.576  30.948  1.00  0.00     0.074 A 
ATOM     47  C   UNL A   1      41.861  31.425  36.614  1.00  0.00     0.029 A 
ATOM     48  N   UNL A   1      41.376  30.812  34.532  1.00  0.00    -0.354 N 
ATOM     49  N   UNL A   1      41.687  29.216  32.091  1.00  0.00    -0.248 NA
ATOM     50  C   UNL A   1      42.757  27.523  30.890  1.00  0.00     0.031 C 
ATOM     51  C   UNL A   1      42.728  30.391  36.244  1.00  0.00     0.029 A 
ATOM     52  C   UNL A   1      42.413  29.994  34.954  1.00  0.00     0.049 A 
ATOM     53  H   UNL A   1      40.947  30.768  33.647  1.00  0.00     0.167 HD
ATOM     54  C   UNL A   1      42.656  28.633  32.894  1.00  0.00     0.074 A 
ATOM     55  C   UNL A   1      43.266  27.577  32.113  1.00  0.00     0.031 C 
ATOM     56  C   UNL A   1      43.008  28.946  34.165  1.00  0.00     0.037 A 
BRANCH  43  57
ATOM     57  C   UNL A   1      39.778  33.625  36.592  1.00  0.00     0.064 A 
ATOM     58  C   UNL A   1      38.916  33.290  37.647  1.00  0.00     0.173 A 
ATOM     59  C   UNL A   1      40.448  34.856  36.658  1.00  0.00     0.173 A 
ATOM     60  F   UNL A   1      38.243  32.129  37.625  1.00  0.00    -0.203 F 
ATOM     61  C   UNL A   1      38.704  34.167  38.707  1.00  0.00     0.198 A 
ATOM     62  C   UNL A   1      40.256  35.719  37.734  1.00  0.00     0.198 A 
ATOM     63  F   UNL A   1      41.288  35.223  35.680  1.00  0.00    -0.203 F 
ATOM     64  F   UNL A   1      37.834  33.847  39.675  1.00  0.00    -0.200 F 
ATOM     65  C   UNL A   1      39.378  35.379  38.753  1.00  0.00     0.200 A 
ATOM     66  F   UNL A   1      40.915  36.885  37.783  1.00  0.00    -0.200 F 
ATOM     67  F   UNL A   1      39.173  36.222  39.773  1.00  0.00    -0.200 F 
ENDBRANCH  43  57
BRANCH  44  68
ATOM     68  C   UNL A   1      41.098  27.941  28.506  1.00  0.00     0.064 A 
ATOM     69  C   UNL A   1      40.394  26.744  28.321  1.00  0.00     0.173 A 
ATOM     70  C   UNL A   1      41.975  28.349  27.491  1.00  0.00     0.173 A 
ATOM     71  F   UNL A   1      39.556  26.307  29.273  1.00  0.00    -0.203 F 
ATOM     72  C   UNL A   1      40.565  25.981  27.169  1.00  0.00     0.198 A 
ATOM     73  C   UNL A   1      42.129  27.596  26.330  1.00  0.00     0.198 A 
ATOM     74  F   UNL A   1      42.665  29.492  27.619  1.00  0.00    -0.203 F 
ATOM     75  F   UNL A   1      39.899  24.826  27.027  1.00  0.00    -0.200 F 
ATOM     76  C   UNL A   1      41.426  26.410  26.171  1.00  0.00     0.200 A 
ATOM     77  F   UNL A   1      42.951  28.023  25.361  1.00  0.00    -0.200 F 
ATOM     78  F   UNL A   1      41.581  25.683  25.057  1.00  0.00    -0.200 F 
ENDBRANCH  44  68
BRANCH  56  79
ATOM     79  C   UNL A   1      44.087  28.121  34.800  1.00  0.00     0.064 A 
ATOM     80  C   UNL A   1      43.796  26.934  35.487  1.00  0.00     0.173 A 
ATOM     81  C   UNL A   1      45.432  28.505  34.688  1.00  0.00     0.173 A 
ATOM     82  F   UNL A   1      42.523  26.534  35.633  1.00  0.00    -0.203 F 
ATOM     83  C   UNL A   1      44.811  26.173  36.059  1.00  0.00     0.198 A 
ATOM     84  C   UNL A   1      46.447  27.728  35.241  1.00  0.00     0.198 A 
ATOM     85  F   UNL A   1      45.762  29.630  34.036  1.00  0.00    -0.203 F 
ATOM     86  F   UNL A   1      44.506  25.063  36.747  1.00  0.00    -0.200 F 
ATOM     87  C   UNL A   1      46.134  26.566  35.930  1.00  0.00     0.200 A 
ATOM     88  F   UNL A   1      47.725  28.105  35.107  1.00  0.00    -0.200 F 
ATOM     89  F   UNL A   1      47.110  25.829  36.478  1.00  0.00    -0.200 F 
ENDBRANCH  56  79
ENDBRANCH  30  31
ENDBRANCH  22  25
ENDBRANCH  20  21
ENDBRANCH  19  20
ENDBRANCH   1  19
TORSDOF 13
ENDMDL
