MODEL 1
REMARK VINA RESULT:     -15.0      0.000      0.000
REMARK SMILES O=C(NCCCNC(=O)c1ccc(-c2c3nc(c(-c4c(F)c(F)c(F)c(F)c4F)c4ccc([nH]4)c(-c4c(F)c(F)c(F)c(F)c4F)c4nc(c(-c5c(F)c(F)c(F)c(F)c5F)c5ccc2[nH]5)C=C4)C=C3)cc1)C1=Cc2cc(Cl)cc(-c3ccc(O)cc3)c2O[C@@H]1C(F)(F)F
REMARK SMILES IDX 5 1 4 2 3 3 1 4 2 5 73 7 74 8 90 9 75 10 89 11 76 12 88 13
REMARK SMILES IDX 77 14 80 15 78 16 79 17 91 18 92 19 93 20 94 21 81 22 82 23
REMARK SMILES IDX 87 24 83 25 86 26 84 27 85 28 6 30 7 31 8 32 9 34 10 35
REMARK SMILES IDX 11 36 72 37 12 38 71 39 13 40 14 41 15 42 65 43 16 44 70 45
REMARK SMILES IDX 64 46 66 47 17 48 69 49 63 50 62 51 18 53 50 54 30 55 49 56
REMARK SMILES IDX 31 57 34 58 48 59 67 60 32 61 33 62 47 64 68 65 35 66 19 67
REMARK SMILES IDX 20 68 28 69 21 70 22 71 26 72 29 73 23 74 24 75 27 76 25 77
REMARK SMILES IDX 51 78 52 79 60 80 53 81 54 82 58 83 61 84 55 85 56 86 59 87
REMARK SMILES IDX 57 88 36 89 37 90 45 91 38 92 39 93 43 94 46 95 40 96 41 97
REMARK SMILES IDX 44 98 42 99
REMARK H PARENT 3 6 85 29 7 33 66 52 34 63
REMARK Flexibility Score: inf
ROOT
ATOM      1  C   UNL A   1      31.890  27.974  26.929  1.00  0.00     0.042 C 
ENDROOT
BRANCH   1   2
ATOM      2  C   UNL A   1      31.841  26.689  26.101  1.00  0.00     0.118 C 
BRANCH   2   3
ATOM      3  N   UNL A   1      31.365  25.539  26.877  1.00  0.00    -0.352 N 
ATOM      4  O   UNL A   1      31.373  23.404  27.644  1.00  0.00    -0.270 OA
ATOM      5  C   UNL A   1      31.702  24.213  26.788  1.00  0.00     0.251 C 
ATOM      6  H   UNL A   1      30.698  25.753  27.570  1.00  0.00     0.163 HD
BRANCH   5   7
ATOM      7  C   UNL A   1      32.535  23.821  25.644  1.00  0.00     0.067 C 
ATOM      8  C   UNL A   1      33.845  24.078  25.717  1.00  0.00     0.025 C 
ATOM      9  C   UNL A   1      31.951  22.863  24.657  1.00  0.00     0.314 C 
ATOM     10  C   UNL A   1      34.699  23.021  25.170  1.00  0.00     0.019 A 
ATOM     11  O   UNL A   1      32.758  21.664  24.557  1.00  0.00    -0.475 OA
ATOM     12  C   UNL A   1      36.070  23.102  25.421  1.00  0.00     0.032 A 
ATOM     13  C   UNL A   1      34.109  21.792  24.799  1.00  0.00     0.135 A 
ATOM     14  C   UNL A   1      36.832  21.939  25.414  1.00  0.00     0.042 A 
ATOM     15  C   UNL A   1      34.865  20.606  24.848  1.00  0.00     0.026 A 
ATOM     16  Cl  UNL A   1      38.484  22.011  25.887  1.00  0.00    -0.084 Cl
ATOM     17  C   UNL A   1      36.236  20.704  25.158  1.00  0.00     0.033 A 
BRANCH   9  18
ATOM     18  C   UNL A   1      31.714  23.523  23.287  1.00  0.00     0.429 C 
ATOM     19  F   UNL A   1      30.402  23.485  22.945  1.00  0.00    -0.167 F 
ATOM     20  F   UNL A   1      32.076  24.828  23.290  1.00  0.00    -0.167 F 
ATOM     21  F   UNL A   1      32.403  22.918  22.291  1.00  0.00    -0.167 F 
ENDBRANCH   9  18
BRANCH  15  22
ATOM     22  C   UNL A   1      34.243  19.272  24.788  1.00  0.00    -0.014 A 
ATOM     23  C   UNL A   1      32.973  19.072  25.359  1.00  0.00     0.012 A 
ATOM     24  C   UNL A   1      34.882  18.168  24.214  1.00  0.00     0.012 A 
ATOM     25  C   UNL A   1      32.380  17.813  25.412  1.00  0.00     0.047 A 
ATOM     26  C   UNL A   1      34.290  16.898  24.261  1.00  0.00     0.047 A 
ATOM     27  C   UNL A   1      33.053  16.730  24.877  1.00  0.00     0.115 A 
BRANCH  27  28
ATOM     28  O   UNL A   1      32.463  15.507  24.988  1.00  0.00    -0.508 OA
ATOM     29  H   UNL A   1      32.078  15.244  25.801  1.00  0.00     0.293 HD
ENDBRANCH  27  28
ENDBRANCH  15  22
ENDBRANCH   5   7
ENDBRANCH   2   3
ENDBRANCH   1   2
BRANCH   1  30
ATOM     30  C   UNL A   1      32.626  29.107  26.218  1.00  0.00     0.118 C 
BRANCH  30  31
ATOM     31  N   UNL A   1      32.391  30.435  26.759  1.00  0.00    -0.352 N 
ATOM     32  C   UNL A   1      33.286  31.328  27.318  1.00  0.00     0.251 C 
ATOM     33  H   UNL A   1      31.458  30.744  26.723  1.00  0.00     0.163 HD
ATOM     34  O   UNL A   1      32.885  32.418  27.721  1.00  0.00    -0.269 OA
BRANCH  32  35
ATOM     35  C   UNL A   1      34.697  30.943  27.561  1.00  0.00     0.039 A 
ATOM     36  C   UNL A   1      35.622  31.973  27.780  1.00  0.00     0.014 A 
ATOM     37  C   UNL A   1      35.099  29.618  27.699  1.00  0.00     0.014 A 
ATOM     38  C   UNL A   1      36.879  31.678  28.305  1.00  0.00     0.010 A 
ATOM     39  C   UNL A   1      36.305  29.330  28.324  1.00  0.00     0.010 A 
ATOM     40  C   UNL A   1      37.185  30.362  28.675  1.00  0.00    -0.014 A 
BRANCH  40  41
ATOM     41  C   UNL A   1      38.372  30.047  29.508  1.00  0.00     0.031 A 
ATOM     42  C   UNL A   1      39.415  29.095  29.004  1.00  0.00     0.074 A 
ATOM     43  C   UNL A   1      38.428  30.522  30.768  1.00  0.00     0.049 A 
ATOM     44  N   UNL A   1      40.439  28.579  29.634  1.00  0.00    -0.248 NA
ATOM     45  C   UNL A   1      39.257  28.619  27.621  1.00  0.00     0.031 C 
ATOM     46  C   UNL A   1      37.422  31.386  31.395  1.00  0.00     0.029 A 
ATOM     47  N   UNL A   1      39.361  30.339  31.756  1.00  0.00    -0.354 N 
ATOM     48  C   UNL A   1      41.022  27.693  28.738  1.00  0.00     0.074 A 
ATOM     49  C   UNL A   1      40.208  27.701  27.542  1.00  0.00     0.031 C 
ATOM     50  C   UNL A   1      37.811  31.687  32.643  1.00  0.00     0.029 A 
ATOM     51  C   UNL A   1      39.071  31.008  32.921  1.00  0.00     0.049 A 
ATOM     52  H   UNL A   1      40.164  29.781  31.642  1.00  0.00     0.167 HD
ATOM     53  C   UNL A   1      42.148  26.959  28.895  1.00  0.00     0.037 A 
ATOM     54  C   UNL A   1      39.748  31.067  34.082  1.00  0.00     0.037 A 
ATOM     55  C   UNL A   1      42.975  27.002  30.072  1.00  0.00     0.049 A 
ATOM     56  C   UNL A   1      41.034  30.299  34.204  1.00  0.00     0.074 A 
ATOM     57  C   UNL A   1      44.175  26.358  30.312  1.00  0.00     0.029 A 
ATOM     58  N   UNL A   1      42.686  27.749  31.205  1.00  0.00    -0.354 N 
ATOM     59  N   UNL A   1      41.610  29.511  33.328  1.00  0.00    -0.248 NA
ATOM     60  C   UNL A   1      41.768  30.432  35.469  1.00  0.00     0.031 C 
ATOM     61  C   UNL A   1      44.602  26.698  31.600  1.00  0.00     0.029 A 
ATOM     62  C   UNL A   1      43.684  27.581  32.150  1.00  0.00     0.049 A 
ATOM     63  H   UNL A   1      41.889  28.316  31.321  1.00  0.00     0.167 HD
ATOM     64  C   UNL A   1      42.781  29.070  33.926  1.00  0.00     0.074 A 
ATOM     65  C   UNL A   1      42.842  29.692  35.234  1.00  0.00     0.031 C 
ATOM     66  C   UNL A   1      43.720  28.222  33.439  1.00  0.00     0.037 A 
BRANCH  53  67
ATOM     67  C   UNL A   1      42.546  26.063  27.759  1.00  0.00     0.064 A 
ATOM     68  C   UNL A   1      43.497  26.462  26.807  1.00  0.00     0.173 A 
ATOM     69  C   UNL A   1      41.964  24.796  27.611  1.00  0.00     0.173 A 
ATOM     70  F   UNL A   1      44.073  27.672  26.894  1.00  0.00    -0.203 F 
ATOM     71  C   UNL A   1      43.817  25.646  25.725  1.00  0.00     0.198 A 
ATOM     72  C   UNL A   1      42.310  23.968  26.544  1.00  0.00     0.198 A 
ATOM     73  F   UNL A   1      41.052  24.362  28.493  1.00  0.00    -0.203 F 
ATOM     74  F   UNL A   1      44.677  26.079  24.793  1.00  0.00    -0.200 F 
ATOM     75  C   UNL A   1      43.226  24.399  25.596  1.00  0.00     0.200 A 
ATOM     76  F   UNL A   1      41.744  22.759  26.425  1.00  0.00    -0.200 F 
ATOM     77  F   UNL A   1      43.529  23.617  24.551  1.00  0.00    -0.200 F 
ENDBRANCH  53  67
BRANCH  54  78
ATOM     78  C   UNL A   1      39.250  31.918  35.193  1.00  0.00     0.064 A 
ATOM     79  C   UNL A   1      39.530  33.292  35.218  1.00  0.00     0.173 A 
ATOM     80  C   UNL A   1      38.474  31.392  36.235  1.00  0.00     0.173 A 
ATOM     81  F   UNL A   1      40.280  33.838  34.251  1.00  0.00    -0.203 F 
ATOM     82  C   UNL A   1      39.068  34.103  36.252  1.00  0.00     0.198 A 
ATOM     83  C   UNL A   1      37.992  32.209  37.257  1.00  0.00     0.198 A 
ATOM     84  F   UNL A   1      38.169  30.086  36.253  1.00  0.00    -0.203 F 
ATOM     85  F   UNL A   1      39.381  35.406  36.270  1.00  0.00    -0.200 F 
ATOM     86  C   UNL A   1      38.295  33.563  37.268  1.00  0.00     0.200 A 
ATOM     87  F   UNL A   1      37.234  31.685  38.230  1.00  0.00    -0.200 F 
ATOM     88  F   UNL A   1      37.845  34.343  38.260  1.00  0.00    -0.200 F 
ENDBRANCH  54  78
BRANCH  66  89
ATOM     89  C   UNL A   1      44.901  27.943  34.317  1.00  0.00     0.064 A 
ATOM     90  C   UNL A   1      46.042  28.758  34.288  1.00  0.00     0.173 A 
ATOM     91  C   UNL A   1      44.872  26.875  35.227  1.00  0.00     0.173 A 
ATOM     92  F   UNL A   1      46.119  29.779  33.421  1.00  0.00    -0.203 F 
ATOM     93  C   UNL A   1      47.120  28.503  35.129  1.00  0.00     0.198 A 
ATOM     94  C   UNL A   1      45.943  26.640  36.082  1.00  0.00     0.198 A 
ATOM     95  F   UNL A   1      43.800  26.072  35.292  1.00  0.00    -0.203 F 
ATOM     96  F   UNL A   1      48.216  29.272  35.061  1.00  0.00    -0.200 F 
ATOM     97  C   UNL A   1      47.067  27.450  36.030  1.00  0.00     0.200 A 
ATOM     98  F   UNL A   1      45.887  25.628  36.959  1.00  0.00    -0.200 F 
ATOM     99  F   UNL A   1      48.104  27.212  36.845  1.00  0.00    -0.200 F 
ENDBRANCH  66  89
ENDBRANCH  40  41
ENDBRANCH  32  35
ENDBRANCH  30  31
ENDBRANCH   1  30
TORSDOF 13
ENDMDL
MODEL 2
REMARK VINA RESULT:     -14.9      0.120      1.901
REMARK SMILES O=C(NCCCNC(=O)c1ccc(-c2c3nc(c(-c4c(F)c(F)c(F)c(F)c4F)c4ccc([nH]4)c(-c4c(F)c(F)c(F)c(F)c4F)c4nc(c(-c5c(F)c(F)c(F)c(F)c5F)c5ccc2[nH]5)C=C4)C=C3)cc1)C1=Cc2cc(Cl)cc(-c3ccc(O)cc3)c2O[C@@H]1C(F)(F)F
REMARK SMILES IDX 5 1 4 2 3 3 1 4 2 5 73 7 74 8 90 9 75 10 89 11 76 12 88 13
REMARK SMILES IDX 77 14 80 15 78 16 79 17 91 18 92 19 93 20 94 21 81 22 82 23
REMARK SMILES IDX 87 24 83 25 86 26 84 27 85 28 6 30 7 31 8 32 9 34 10 35
REMARK SMILES IDX 11 36 72 37 12 38 71 39 13 40 14 41 15 42 65 43 16 44 70 45
REMARK SMILES IDX 64 46 66 47 17 48 69 49 63 50 62 51 18 53 50 54 30 55 49 56
REMARK SMILES IDX 31 57 34 58 48 59 67 60 32 61 33 62 47 64 68 65 35 66 19 67
REMARK SMILES IDX 20 68 28 69 21 70 22 71 26 72 29 73 23 74 24 75 27 76 25 77
REMARK SMILES IDX 51 78 52 79 60 80 53 81 54 82 58 83 61 84 55 85 56 86 59 87
REMARK SMILES IDX 57 88 36 89 37 90 45 91 38 92 39 93 43 94 46 95 40 96 41 97
REMARK SMILES IDX 44 98 42 99
REMARK H PARENT 3 6 85 29 7 33 66 52 34 63
REMARK Flexibility Score: inf
ROOT
ATOM      1  C   UNL A   1      31.735  27.988  26.784  1.00  0.00     0.042 C 
ENDROOT
BRANCH   1   2
ATOM      2  C   UNL A   1      31.868  26.662  26.035  1.00  0.00     0.118 C 
BRANCH   2   3
ATOM      3  N   UNL A   1      31.405  25.519  26.829  1.00  0.00    -0.352 N 
ATOM      4  O   UNL A   1      31.434  23.395  27.626  1.00  0.00    -0.270 OA
ATOM      5  C   UNL A   1      31.752  24.194  26.757  1.00  0.00     0.251 C 
ATOM      6  H   UNL A   1      30.741  25.738  27.523  1.00  0.00     0.163 HD
BRANCH   5   7
ATOM      7  C   UNL A   1      32.581  23.792  25.613  1.00  0.00     0.067 C 
ATOM      8  C   UNL A   1      33.892  24.045  25.683  1.00  0.00     0.025 C 
ATOM      9  C   UNL A   1      31.991  22.832  24.632  1.00  0.00     0.314 C 
ATOM     10  C   UNL A   1      34.741  22.981  25.140  1.00  0.00     0.019 A 
ATOM     11  O   UNL A   1      32.793  21.628  24.538  1.00  0.00    -0.475 OA
ATOM     12  C   UNL A   1      36.113  23.058  25.388  1.00  0.00     0.032 A 
ATOM     13  C   UNL A   1      34.146  21.752  24.777  1.00  0.00     0.135 A 
ATOM     14  C   UNL A   1      36.870  21.892  25.386  1.00  0.00     0.042 A 
ATOM     15  C   UNL A   1      34.897  20.564  24.831  1.00  0.00     0.026 A 
ATOM     16  Cl  UNL A   1      38.523  21.960  25.855  1.00  0.00    -0.084 Cl
ATOM     17  C   UNL A   1      36.269  20.658  25.139  1.00  0.00     0.033 A 
BRANCH   9  18
ATOM     18  C   UNL A   1      31.754  23.484  23.260  1.00  0.00     0.429 C 
ATOM     19  F   UNL A   1      30.461  23.355  22.872  1.00  0.00    -0.167 F 
ATOM     20  F   UNL A   1      32.021  24.812  23.283  1.00  0.00    -0.167 F 
ATOM     21  F   UNL A   1      32.519  22.940  22.284  1.00  0.00    -0.167 F 
ENDBRANCH   9  18
BRANCH  15  22
ATOM     22  C   UNL A   1      34.269  19.232  24.780  1.00  0.00    -0.014 A 
ATOM     23  C   UNL A   1      32.982  19.050  25.316  1.00  0.00     0.012 A 
ATOM     24  C   UNL A   1      34.919  18.113  24.249  1.00  0.00     0.012 A 
ATOM     25  C   UNL A   1      32.380  17.795  25.377  1.00  0.00     0.047 A 
ATOM     26  C   UNL A   1      34.319  16.847  24.304  1.00  0.00     0.047 A 
ATOM     27  C   UNL A   1      33.063  16.698  24.885  1.00  0.00     0.115 A 
BRANCH  27  28
ATOM     28  O   UNL A   1      32.462  15.481  25.003  1.00  0.00    -0.508 OA
ATOM     29  H   UNL A   1      32.526  14.858  24.306  1.00  0.00     0.293 HD
ENDBRANCH  27  28
ENDBRANCH  15  22
ENDBRANCH   5   7
ENDBRANCH   2   3
ENDBRANCH   1   2
BRANCH   1  30
ATOM     30  C   UNL A   1      32.531  29.117  26.133  1.00  0.00     0.118 C 
BRANCH  30  31
ATOM     31  N   UNL A   1      32.295  30.440  26.685  1.00  0.00    -0.352 N 
ATOM     32  C   UNL A   1      33.189  31.329  27.251  1.00  0.00     0.251 C 
ATOM     33  H   UNL A   1      31.362  30.749  26.651  1.00  0.00     0.163 HD
ATOM     34  O   UNL A   1      32.788  32.415  27.663  1.00  0.00    -0.269 OA
BRANCH  32  35
ATOM     35  C   UNL A   1      34.601  30.943  27.492  1.00  0.00     0.039 A 
ATOM     36  C   UNL A   1      35.527  31.971  27.707  1.00  0.00     0.014 A 
ATOM     37  C   UNL A   1      35.001  29.617  27.631  1.00  0.00     0.014 A 
ATOM     38  C   UNL A   1      36.786  31.675  28.231  1.00  0.00     0.010 A 
ATOM     39  C   UNL A   1      36.208  29.328  28.254  1.00  0.00     0.010 A 
ATOM     40  C   UNL A   1      37.090  30.359  28.602  1.00  0.00    -0.014 A 
BRANCH  40  41
ATOM     41  C   UNL A   1      38.278  30.044  29.433  1.00  0.00     0.031 A 
ATOM     42  C   UNL A   1      39.316  29.085  28.931  1.00  0.00     0.074 A 
ATOM     43  C   UNL A   1      38.340  30.525  30.690  1.00  0.00     0.049 A 
ATOM     44  N   UNL A   1      40.340  28.568  29.560  1.00  0.00    -0.248 NA
ATOM     45  C   UNL A   1      39.153  28.604  27.550  1.00  0.00     0.031 C 
ATOM     46  C   UNL A   1      37.338  31.395  31.316  1.00  0.00     0.029 A 
ATOM     47  N   UNL A   1      39.275  30.343  31.677  1.00  0.00    -0.354 N 
ATOM     48  C   UNL A   1      40.917  27.677  28.667  1.00  0.00     0.074 A 
ATOM     49  C   UNL A   1      40.100  27.682  27.473  1.00  0.00     0.031 C 
ATOM     50  C   UNL A   1      37.733  31.701  32.561  1.00  0.00     0.029 A 
ATOM     51  C   UNL A   1      38.990  31.019  32.839  1.00  0.00     0.049 A 
ATOM     52  H   UNL A   1      40.075  29.781  31.563  1.00  0.00     0.167 HD
ATOM     53  C   UNL A   1      42.041  26.939  28.824  1.00  0.00     0.037 A 
ATOM     54  C   UNL A   1      39.672  31.080  33.999  1.00  0.00     0.037 A 
ATOM     55  C   UNL A   1      42.872  26.984  29.998  1.00  0.00     0.049 A 
ATOM     56  C   UNL A   1      40.955  30.309  34.120  1.00  0.00     0.074 A 
ATOM     57  C   UNL A   1      44.069  26.337  30.238  1.00  0.00     0.029 A 
ATOM     58  N   UNL A   1      42.589  27.738  31.129  1.00  0.00    -0.354 N 
ATOM     59  N   UNL A   1      41.526  29.514  33.247  1.00  0.00    -0.248 NA
ATOM     60  C   UNL A   1      41.693  30.445  35.383  1.00  0.00     0.031 C 
ATOM     61  C   UNL A   1      44.501  26.681  31.524  1.00  0.00     0.029 A 
ATOM     62  C   UNL A   1      43.589  27.570  32.072  1.00  0.00     0.049 A 
ATOM     63  H   UNL A   1      41.794  28.308  31.244  1.00  0.00     0.167 HD
ATOM     64  C   UNL A   1      42.697  29.071  33.843  1.00  0.00     0.074 A 
ATOM     65  C   UNL A   1      42.763  29.699  35.148  1.00  0.00     0.031 C 
ATOM     66  C   UNL A   1      43.631  28.217  33.358  1.00  0.00     0.037 A 
BRANCH  53  67
ATOM     67  C   UNL A   1      42.432  26.036  27.691  1.00  0.00     0.064 A 
ATOM     68  C   UNL A   1      41.846  24.772  27.522  1.00  0.00     0.173 A 
ATOM     69  C   UNL A   1      43.413  26.431  26.769  1.00  0.00     0.173 A 
ATOM     70  F   UNL A   1      40.914  24.340  28.387  1.00  0.00    -0.203 F 
ATOM     71  C   UNL A   1      42.257  23.919  26.501  1.00  0.00     0.198 A 
ATOM     72  C   UNL A   1      43.799  25.588  25.728  1.00  0.00     0.198 A 
ATOM     73  F   UNL A   1      44.004  27.630  26.880  1.00  0.00    -0.203 F 
ATOM     74  F   UNL A   1      41.730  22.691  26.404  1.00  0.00    -0.200 F 
ATOM     75  C   UNL A   1      43.231  24.329  25.603  1.00  0.00     0.200 A 
ATOM     76  F   UNL A   1      44.735  25.987  24.856  1.00  0.00    -0.200 F 
ATOM     77  F   UNL A   1      43.631  23.505  24.625  1.00  0.00    -0.200 F 
ENDBRANCH  53  67
BRANCH  54  78
ATOM     78  C   UNL A   1      39.180  31.939  35.106  1.00  0.00     0.064 A 
ATOM     79  C   UNL A   1      38.444  31.385  36.164  1.00  0.00     0.173 A 
ATOM     80  C   UNL A   1      39.445  33.315  35.146  1.00  0.00     0.173 A 
ATOM     81  F   UNL A   1      38.153  30.077  36.162  1.00  0.00    -0.203 F 
ATOM     82  C   UNL A   1      37.977  32.178  37.210  1.00  0.00     0.198 A 
ATOM     83  C   UNL A   1      38.997  34.104  36.206  1.00  0.00     0.198 A 
ATOM     84  F   UNL A   1      40.153  33.892  34.165  1.00  0.00    -0.203 F 
ATOM     85  F   UNL A   1      37.245  31.629  38.189  1.00  0.00    -0.200 F 
ATOM     86  C   UNL A   1      38.259  33.536  37.234  1.00  0.00     0.200 A 
ATOM     87  F   UNL A   1      39.283  35.412  36.232  1.00  0.00    -0.200 F 
ATOM     88  F   UNL A   1      37.814  34.297  38.242  1.00  0.00    -0.200 F 
ENDBRANCH  54  78
BRANCH  66  89
ATOM     89  C   UNL A   1      44.814  27.938  34.234  1.00  0.00     0.064 A 
ATOM     90  C   UNL A   1      44.825  26.853  35.121  1.00  0.00     0.173 A 
ATOM     91  C   UNL A   1      45.962  28.739  34.150  1.00  0.00     0.173 A 
ATOM     92  F   UNL A   1      43.742  26.072  35.246  1.00  0.00    -0.203 F 
ATOM     93  C   UNL A   1      45.942  26.589  35.908  1.00  0.00     0.198 A 
ATOM     94  C   UNL A   1      47.085  28.457  34.921  1.00  0.00     0.198 A 
ATOM     95  F   UNL A   1      45.997  29.786  33.312  1.00  0.00    -0.203 F 
ATOM     96  F   UNL A   1      45.920  25.569  36.777  1.00  0.00    -0.200 F 
ATOM     97  C   UNL A   1      47.072  27.386  35.802  1.00  0.00     0.200 A 
ATOM     98  F   UNL A   1      48.180  29.221  34.811  1.00  0.00    -0.200 F 
ATOM     99  F   UNL A   1      48.149  27.124  36.556  1.00  0.00    -0.200 F 
ENDBRANCH  66  89
ENDBRANCH  40  41
ENDBRANCH  32  35
ENDBRANCH  30  31
ENDBRANCH   1  30
TORSDOF 13
ENDMDL
MODEL 3
REMARK VINA RESULT:     -14.7      0.778      7.268
REMARK SMILES O=C(NCCCNC(=O)c1ccc(-c2c3nc(c(-c4c(F)c(F)c(F)c(F)c4F)c4ccc([nH]4)c(-c4c(F)c(F)c(F)c(F)c4F)c4nc(c(-c5c(F)c(F)c(F)c(F)c5F)c5ccc2[nH]5)C=C4)C=C3)cc1)C1=Cc2cc(Cl)cc(-c3ccc(O)cc3)c2O[C@@H]1C(F)(F)F
REMARK SMILES IDX 5 1 4 2 3 3 1 4 2 5 73 7 74 8 90 9 75 10 89 11 76 12 88 13
REMARK SMILES IDX 77 14 80 15 78 16 79 17 91 18 92 19 93 20 94 21 81 22 82 23
REMARK SMILES IDX 87 24 83 25 86 26 84 27 85 28 6 30 7 31 8 32 9 34 10 35
REMARK SMILES IDX 11 36 72 37 12 38 71 39 13 40 14 41 15 42 65 43 16 44 70 45
REMARK SMILES IDX 64 46 66 47 17 48 69 49 63 50 62 51 18 53 50 54 30 55 49 56
REMARK SMILES IDX 31 57 34 58 48 59 67 60 32 61 33 62 47 64 68 65 35 66 19 67
REMARK SMILES IDX 20 68 28 69 21 70 22 71 26 72 29 73 23 74 24 75 27 76 25 77
REMARK SMILES IDX 51 78 52 79 60 80 53 81 54 82 58 83 61 84 55 85 56 86 59 87
REMARK SMILES IDX 57 88 36 89 37 90 45 91 38 92 39 93 43 94 46 95 40 96 41 97
REMARK SMILES IDX 44 98 42 99
REMARK H PARENT 3 6 85 29 7 33 66 52 34 63
REMARK Flexibility Score: inf
ROOT
ATOM      1  C   UNL A   1      31.812  28.794  26.685  1.00  0.00     0.042 C 
ENDROOT
BRANCH   1   2
ATOM      2  C   UNL A   1      31.945  27.511  25.865  1.00  0.00     0.118 C 
BRANCH   2   3
ATOM      3  N   UNL A   1      31.399  26.340  26.561  1.00  0.00    -0.352 N 
ATOM      4  O   UNL A   1      31.357  24.195  27.299  1.00  0.00    -0.270 OA
ATOM      5  C   UNL A   1      31.774  25.022  26.501  1.00  0.00     0.251 C 
ATOM      6  H   UNL A   1      30.646  26.531  27.166  1.00  0.00     0.163 HD
BRANCH   5   7
ATOM      7  C   UNL A   1      32.754  24.663  25.467  1.00  0.00     0.067 C 
ATOM      8  C   UNL A   1      34.044  24.880  25.739  1.00  0.00     0.025 C 
ATOM      9  C   UNL A   1      32.297  23.772  24.359  1.00  0.00     0.314 C 
ATOM     10  C   UNL A   1      34.946  23.827  25.264  1.00  0.00     0.019 A 
ATOM     11  O   UNL A   1      33.084  22.556  24.312  1.00  0.00    -0.475 OA
ATOM     12  C   UNL A   1      36.269  23.856  25.710  1.00  0.00     0.032 A 
ATOM     13  C   UNL A   1      34.390  22.634  24.749  1.00  0.00     0.135 A 
ATOM     14  C   UNL A   1      36.999  22.674  25.750  1.00  0.00     0.042 A 
ATOM     15  C   UNL A   1      35.106  21.427  24.843  1.00  0.00     0.026 A 
ATOM     16  Cl  UNL A   1      38.567  22.677  26.455  1.00  0.00    -0.084 Cl
ATOM     17  C   UNL A   1      36.420  21.471  25.349  1.00  0.00     0.033 A 
BRANCH   9  18
ATOM     18  C   UNL A   1      32.271  24.503  23.006  1.00  0.00     0.429 C 
ATOM     19  F   UNL A   1      31.005  24.834  22.651  1.00  0.00    -0.167 F 
ATOM     20  F   UNL A   1      32.977  25.658  23.047  1.00  0.00    -0.167 F 
ATOM     21  F   UNL A   1      32.785  23.757  22.000  1.00  0.00    -0.167 F 
ENDBRANCH   9  18
BRANCH  15  22
ATOM     22  C   UNL A   1      34.471  20.115  24.626  1.00  0.00    -0.014 A 
ATOM     23  C   UNL A   1      35.262  18.952  24.626  1.00  0.00     0.012 A 
ATOM     24  C   UNL A   1      33.101  19.972  24.380  1.00  0.00     0.012 A 
ATOM     25  C   UNL A   1      34.729  17.699  24.336  1.00  0.00     0.047 A 
ATOM     26  C   UNL A   1      32.556  18.713  24.091  1.00  0.00     0.047 A 
ATOM     27  C   UNL A   1      33.380  17.592  24.052  1.00  0.00     0.115 A 
BRANCH  27  28
ATOM     28  O   UNL A   1      32.903  16.358  23.729  1.00  0.00    -0.508 OA
ATOM     29  H   UNL A   1      32.781  16.123  22.830  1.00  0.00     0.293 HD
ENDBRANCH  27  28
ENDBRANCH  15  22
ENDBRANCH   5   7
ENDBRANCH   2   3
ENDBRANCH   1   2
BRANCH   1  30
ATOM     30  C   UNL A   1      32.620  29.952  26.105  1.00  0.00     0.118 C 
BRANCH  30  31
ATOM     31  N   UNL A   1      32.553  31.193  26.857  1.00  0.00    -0.352 N 
ATOM     32  C   UNL A   1      33.537  31.836  27.584  1.00  0.00     0.251 C 
ATOM     33  H   UNL A   1      31.678  31.643  26.848  1.00  0.00     0.163 HD
ATOM     34  O   UNL A   1      33.279  32.894  28.155  1.00  0.00    -0.269 OA
BRANCH  32  35
ATOM     35  C   UNL A   1      34.862  31.206  27.798  1.00  0.00     0.039 A 
ATOM     36  C   UNL A   1      35.959  32.054  28.001  1.00  0.00     0.014 A 
ATOM     37  C   UNL A   1      35.026  29.829  27.923  1.00  0.00     0.014 A 
ATOM     38  C   UNL A   1      37.154  31.538  28.500  1.00  0.00     0.010 A 
ATOM     39  C   UNL A   1      36.173  29.328  28.523  1.00  0.00     0.010 A 
ATOM     40  C   UNL A   1      37.229  30.186  28.860  1.00  0.00    -0.014 A 
BRANCH  40  41
ATOM     41  C   UNL A   1      38.357  29.661  29.667  1.00  0.00     0.031 A 
ATOM     42  C   UNL A   1      38.587  30.167  31.060  1.00  0.00     0.074 A 
ATOM     43  C   UNL A   1      39.243  28.828  29.086  1.00  0.00     0.049 A 
ATOM     44  N   UNL A   1      39.594  29.948  31.866  1.00  0.00    -0.248 NA
ATOM     45  C   UNL A   1      37.572  31.084  31.601  1.00  0.00     0.031 C 
ATOM     46  C   UNL A   1      39.168  28.340  27.704  1.00  0.00     0.029 A 
ATOM     47  N   UNL A   1      40.389  28.253  29.572  1.00  0.00    -0.354 N 
ATOM     48  C   UNL A   1      39.351  30.726  32.989  1.00  0.00     0.074 A 
ATOM     49  C   UNL A   1      38.132  31.464  32.739  1.00  0.00     0.031 C 
ATOM     50  C   UNL A   1      40.197  27.512  27.470  1.00  0.00     0.029 A 
ATOM     51  C   UNL A   1      41.027  27.440  28.666  1.00  0.00     0.049 A 
ATOM     52  H   UNL A   1      40.723  28.407  30.485  1.00  0.00     0.167 HD
ATOM     53  C   UNL A   1      40.072  30.799  34.132  1.00  0.00     0.037 A 
ATOM     54  C   UNL A   1      42.156  26.718  28.790  1.00  0.00     0.037 A 
ATOM     55  C   UNL A   1      41.255  30.019  34.385  1.00  0.00     0.049 A 
ATOM     56  C   UNL A   1      42.897  26.760  30.096  1.00  0.00     0.074 A 
ATOM     57  C   UNL A   1      42.023  29.957  35.533  1.00  0.00     0.029 A 
ATOM     58  N   UNL A   1      41.831  29.151  33.469  1.00  0.00    -0.354 N 
ATOM     59  N   UNL A   1      42.626  27.453  31.176  1.00  0.00    -0.248 NA
ATOM     60  C   UNL A   1      44.094  25.916  30.206  1.00  0.00     0.031 C 
ATOM     61  C   UNL A   1      43.077  29.066  35.304  1.00  0.00     0.029 A 
ATOM     62  C   UNL A   1      42.947  28.549  34.024  1.00  0.00     0.049 A 
ATOM     63  H   UNL A   1      41.495  28.986  32.557  1.00  0.00     0.167 HD
ATOM     64  C   UNL A   1      43.605  27.118  32.099  1.00  0.00     0.074 A 
ATOM     65  C   UNL A   1      44.467  26.145  31.458  1.00  0.00     0.031 C 
ATOM     66  C   UNL A   1      43.779  27.577  33.362  1.00  0.00     0.037 A 
BRANCH  53  67
ATOM     67  C   UNL A   1      39.585  31.745  35.190  1.00  0.00     0.064 A 
ATOM     68  C   UNL A   1      38.675  31.338  36.178  1.00  0.00     0.173 A 
ATOM     69  C   UNL A   1      40.022  33.078  35.212  1.00  0.00     0.173 A 
ATOM     70  F   UNL A   1      38.213  30.078  36.192  1.00  0.00    -0.203 F 
ATOM     71  C   UNL A   1      38.186  32.239  37.120  1.00  0.00     0.198 A 
ATOM     72  C   UNL A   1      39.556  33.970  36.177  1.00  0.00     0.198 A 
ATOM     73  F   UNL A   1      40.895  33.520  34.295  1.00  0.00    -0.203 F 
ATOM     74  F   UNL A   1      37.266  31.843  38.010  1.00  0.00    -0.200 F 
ATOM     75  C   UNL A   1      38.629  33.553  37.121  1.00  0.00     0.200 A 
ATOM     76  F   UNL A   1      39.990  35.237  36.181  1.00  0.00    -0.200 F 
ATOM     77  F   UNL A   1      38.153  34.421  38.024  1.00  0.00    -0.200 F 
ENDBRANCH  53  67
BRANCH  54  78
ATOM     78  C   UNL A   1      42.618  25.861  27.668  1.00  0.00     0.064 A 
ATOM     79  C   UNL A   1      42.081  24.578  27.483  1.00  0.00     0.173 A 
ATOM     80  C   UNL A   1      43.581  26.303  26.751  1.00  0.00     0.173 A 
ATOM     81  F   UNL A   1      41.168  24.106  28.344  1.00  0.00    -0.203 F 
ATOM     82  C   UNL A   1      42.504  23.764  26.435  1.00  0.00     0.198 A 
ATOM     83  C   UNL A   1      43.987  25.496  25.688  1.00  0.00     0.198 A 
ATOM     84  F   UNL A   1      44.119  27.525  26.876  1.00  0.00    -0.203 F 
ATOM     85  F   UNL A   1      42.001  22.529  26.304  1.00  0.00    -0.200 F 
ATOM     86  C   UNL A   1      43.452  24.225  25.534  1.00  0.00     0.200 A 
ATOM     87  F   UNL A   1      44.893  25.951  24.812  1.00  0.00    -0.200 F 
ATOM     88  F   UNL A   1      43.855  23.444  24.523  1.00  0.00    -0.200 F 
ENDBRANCH  54  78
BRANCH  66  89
ATOM     89  C   UNL A   1      44.928  27.009  34.137  1.00  0.00     0.064 A 
ATOM     90  C   UNL A   1      46.184  27.634  34.145  1.00  0.00     0.173 A 
ATOM     91  C   UNL A   1      44.758  25.854  34.914  1.00  0.00     0.173 A 
ATOM     92  F   UNL A   1      46.395  28.731  33.403  1.00  0.00    -0.203 F 
ATOM     93  C   UNL A   1      47.234  27.111  34.892  1.00  0.00     0.198 A 
ATOM     94  C   UNL A   1      45.805  25.348  35.678  1.00  0.00     0.198 A 
ATOM     95  F   UNL A   1      43.574  25.225  34.940  1.00  0.00    -0.203 F 
ATOM     96  F   UNL A   1      48.437  27.702  34.858  1.00  0.00    -0.200 F 
ATOM     97  C   UNL A   1      47.042  25.974  35.663  1.00  0.00     0.200 A 
ATOM     98  F   UNL A   1      45.616  24.256  36.430  1.00  0.00    -0.200 F 
ATOM     99  F   UNL A   1      48.054  25.477  36.388  1.00  0.00    -0.200 F 
ENDBRANCH  66  89
ENDBRANCH  40  41
ENDBRANCH  32  35
ENDBRANCH  30  31
ENDBRANCH   1  30
TORSDOF 13
ENDMDL
