MODEL 1
REMARK VINA RESULT:     -12.7      0.000      0.000
REMARK SMILES CC[C@H](C)[C@H](NC(=O)N1CCc2cc(OC)c(OC)cc2[C@@H]1c1ccc(F)cc1)C(=O)NCCCNC(=O)c1ccc(-c2c3nc(c(-c4c(F)c(F)c(F)c(F)c4F)c4ccc([nH]4)c(-c4c(F)c(F)c(F)c(F)c4F)c4nc(c(-c5c(F)c(F)c(F)c(F)c5F)c5ccc2[nH]5)C=C4)C=C3)cc1
REMARK SMILES IDX 33 1 32 2 30 3 31 4 5 6 3 7 4 8 2 9 1 10 6 11 7 12 8 14 9 15
REMARK SMILES IDX 10 16 22 17 11 18 21 19 12 20 20 21 13 22 17 23 14 24 23 25
REMARK SMILES IDX 24 26 29 27 25 28 28 29 26 30 27 31 18 32 19 33 15 34 16 35
REMARK SMILES IDX 34 36 35 37 36 38 37 39 38 41 39 42 40 43 101 44 41 45
REMARK SMILES IDX 100 46 42 47 43 48 44 49 94 50 45 51 99 52 93 53 95 54 46 55
REMARK SMILES IDX 98 56 92 57 91 58 47 60 79 61 59 62 78 63 60 64 63 65 77 66
REMARK SMILES IDX 96 67 61 68 62 69 76 71 97 72 64 73 48 74 49 75 57 76 50 77
REMARK SMILES IDX 51 78 55 79 58 80 52 81 53 82 56 83 54 84 80 85 81 86 89 87
REMARK SMILES IDX 82 88 83 89 87 90 90 91 84 92 85 93 88 94 86 95 65 96 66 97
REMARK SMILES IDX 74 98 67 99 68 100 72 101 75 102 69 103 70 104 73 105 71 106
REMARK H PARENT 32 5 6 13 36 40 95 59 63 70
REMARK Flexibility Score: inf
ROOT
ATOM      1  C   UNL A   1      31.614  29.848  27.230  1.00  0.00     0.117 C 
ENDROOT
BRANCH   1   2
ATOM      2  N   UNL A   1      32.437  28.884  26.555  1.00  0.00    -0.354 N 
ATOM      3  C   UNL A   1      32.621  28.807  25.198  1.00  0.00     0.242 C 
ATOM      4  O   UNL A   1      33.595  29.310  24.655  1.00  0.00    -0.273 OA
ATOM      5  H   UNL A   1      32.908  28.225  27.112  1.00  0.00     0.163 HD
BRANCH   3   6
ATOM      6  C   UNL A   1      31.605  27.900  24.472  1.00  0.00     0.176 C 
BRANCH   6   7
ATOM      7  C   UNL A   1      30.493  28.750  23.750  1.00  0.00     0.018 C 
ATOM      8  C   UNL A   1      30.920  29.478  22.469  1.00  0.00     0.010 C 
BRANCH   7   9
ATOM      9  C   UNL A   1      29.198  27.936  23.486  1.00  0.00     0.002 C 
ATOM     10  C   UNL A   1      27.965  28.700  23.014  1.00  0.00     0.004 C 
ENDBRANCH   7   9
ENDBRANCH   6   7
BRANCH   6  11
ATOM     11  N   UNL A   1      31.052  26.901  25.428  1.00  0.00    -0.326 N 
ATOM     12  C   UNL A   1      31.355  25.625  25.785  1.00  0.00     0.318 C 
ATOM     13  H   UNL A   1      30.275  27.250  25.923  1.00  0.00     0.166 HD
ATOM     14  O   UNL A   1      30.569  25.117  26.591  1.00  0.00    -0.249 OA
BRANCH  12  15
ATOM     15  N   UNL A   1      32.508  24.974  25.390  1.00  0.00    -0.313 N 
ATOM     16  C   UNL A   1      33.909  25.262  25.788  1.00  0.00     0.127 C 
ATOM     17  C   UNL A   1      32.344  23.898  24.358  1.00  0.00     0.148 C 
ATOM     18  C   UNL A   1      35.019  24.479  25.086  1.00  0.00     0.057 C 
ATOM     19  C   UNL A   1      33.309  22.727  24.644  1.00  0.00    -0.014 A 
ATOM     20  C   UNL A   1      34.630  23.034  24.999  1.00  0.00    -0.037 A 
ATOM     21  C   UNL A   1      32.965  21.380  24.412  1.00  0.00     0.057 A 
ATOM     22  C   UNL A   1      35.570  22.019  25.170  1.00  0.00     0.054 A 
ATOM     23  C   UNL A   1      33.929  20.357  24.514  1.00  0.00     0.161 A 
ATOM     24  C   UNL A   1      35.226  20.685  24.945  1.00  0.00     0.161 A 
BRANCH  17  25
ATOM     25  C   UNL A   1      32.580  24.420  22.925  1.00  0.00    -0.021 A 
ATOM     26  C   UNL A   1      32.015  25.649  22.533  1.00  0.00     0.009 A 
ATOM     27  C   UNL A   1      33.216  23.641  21.940  1.00  0.00     0.009 A 
ATOM     28  C   UNL A   1      31.961  26.013  21.187  1.00  0.00     0.039 A 
ATOM     29  C   UNL A   1      33.152  23.998  20.594  1.00  0.00     0.039 A 
ATOM     30  C   UNL A   1      32.502  25.167  20.229  1.00  0.00     0.123 A 
ATOM     31  F   UNL A   1      32.385  25.478  18.931  1.00  0.00    -0.207 F 
ENDBRANCH  17  25
BRANCH  23  32
ATOM     32  O   UNL A   1      33.677  19.042  24.212  1.00  0.00    -0.493 OA
ATOM     33  C   UNL A   1      32.500  18.753  23.463  1.00  0.00     0.278 C 
ENDBRANCH  23  32
BRANCH  24  34
ATOM     34  O   UNL A   1      36.288  19.827  25.067  1.00  0.00    -0.493 OA
ATOM     35  C   UNL A   1      37.574  20.413  24.941  1.00  0.00     0.278 C 
ENDBRANCH  24  34
ENDBRANCH  12  15
ENDBRANCH   6  11
ENDBRANCH   3   6
ENDBRANCH   1   2
BRANCH   1  36
ATOM     36  C   UNL A   1      31.781  31.211  26.571  1.00  0.00     0.042 C 
BRANCH  36  37
ATOM     37  C   UNL A   1      32.926  32.059  27.121  1.00  0.00     0.118 C 
BRANCH  37  38
ATOM     38  N   UNL A   1      32.541  33.413  27.468  1.00  0.00    -0.352 N 
ATOM     39  C   UNL A   1      33.084  34.287  28.379  1.00  0.00     0.251 C 
ATOM     40  H   UNL A   1      31.766  33.763  26.972  1.00  0.00     0.163 HD
ATOM     41  O   UNL A   1      32.537  35.364  28.581  1.00  0.00    -0.269 OA
BRANCH  39  42
ATOM     42  C   UNL A   1      34.310  33.939  29.142  1.00  0.00     0.039 A 
ATOM     43  C   UNL A   1      34.180  33.281  30.369  1.00  0.00     0.014 A 
ATOM     44  C   UNL A   1      35.582  34.279  28.689  1.00  0.00     0.014 A 
ATOM     45  C   UNL A   1      35.318  32.911  31.100  1.00  0.00     0.010 A 
ATOM     46  C   UNL A   1      36.715  33.864  29.384  1.00  0.00     0.010 A 
ATOM     47  C   UNL A   1      36.601  33.181  30.595  1.00  0.00    -0.014 A 
BRANCH  47  48
ATOM     48  C   UNL A   1      37.818  32.581  31.195  1.00  0.00     0.031 A 
ATOM     49  C   UNL A   1      38.518  33.156  32.392  1.00  0.00     0.074 A 
ATOM     50  C   UNL A   1      38.396  31.573  30.519  1.00  0.00     0.049 A 
ATOM     51  N   UNL A   1      39.545  32.687  33.057  1.00  0.00    -0.248 NA
ATOM     52  C   UNL A   1      38.036  34.450  32.879  1.00  0.00     0.031 C 
ATOM     53  C   UNL A   1      37.921  31.046  29.240  1.00  0.00     0.029 A 
ATOM     54  N   UNL A   1      39.512  30.831  30.799  1.00  0.00    -0.354 N 
ATOM     55  C   UNL A   1      39.823  33.624  34.046  1.00  0.00     0.074 A 
ATOM     56  C   UNL A   1      38.895  34.718  33.856  1.00  0.00     0.031 C 
ATOM     57  C   UNL A   1      38.724  30.042  28.858  1.00  0.00     0.029 A 
ATOM     58  C   UNL A   1      39.753  29.849  29.875  1.00  0.00     0.049 A 
ATOM     59  H   UNL A   1      40.083  30.987  31.586  1.00  0.00     0.167 HD
ATOM     60  C   UNL A   1      40.753  33.557  35.031  1.00  0.00     0.037 A 
ATOM     61  C   UNL A   1      40.671  28.867  29.871  1.00  0.00     0.037 A 
ATOM     62  C   UNL A   1      41.664  32.451  35.203  1.00  0.00     0.049 A 
ATOM     63  C   UNL A   1      41.599  28.726  31.039  1.00  0.00     0.074 A 
ATOM     64  C   UNL A   1      42.549  32.210  36.242  1.00  0.00     0.029 A 
ATOM     65  N   UNL A   1      41.821  31.409  34.302  1.00  0.00    -0.354 N 
ATOM     66  N   UNL A   1      41.734  29.505  32.084  1.00  0.00    -0.248 NA
ATOM     67  C   UNL A   1      42.477  27.549  31.048  1.00  0.00     0.031 C 
ATOM     68  C   UNL A   1      43.275  31.052  35.943  1.00  0.00     0.029 A 
ATOM     69  C   UNL A   1      42.803  30.539  34.746  1.00  0.00     0.049 A 
ATOM     70  H   UNL A   1      41.308  31.303  33.467  1.00  0.00     0.167 HD
ATOM     71  C   UNL A   1      42.699  28.907  32.882  1.00  0.00     0.074 A 
ATOM     72  C   UNL A   1      43.095  27.686  32.212  1.00  0.00     0.031 C 
ATOM     73  C   UNL A   1      43.209  29.337  34.063  1.00  0.00     0.037 A 
BRANCH  60  74
ATOM     74  C   UNL A   1      40.823  34.672  36.039  1.00  0.00     0.064 A 
ATOM     75  C   UNL A   1      41.829  35.649  35.963  1.00  0.00     0.173 A 
ATOM     76  C   UNL A   1      39.980  34.693  37.162  1.00  0.00     0.173 A 
ATOM     77  F   UNL A   1      42.673  35.672  34.921  1.00  0.00    -0.203 F 
ATOM     78  C   UNL A   1      42.001  36.587  36.980  1.00  0.00     0.198 A 
ATOM     79  C   UNL A   1      40.136  35.651  38.163  1.00  0.00     0.198 A 
ATOM     80  F   UNL A   1      39.004  33.782  37.290  1.00  0.00    -0.203 F 
ATOM     81  F   UNL A   1      43.000  37.478  36.909  1.00  0.00    -0.200 F 
ATOM     82  C   UNL A   1      41.154  36.588  38.078  1.00  0.00     0.200 A 
ATOM     83  F   UNL A   1      39.307  35.657  39.215  1.00  0.00    -0.200 F 
ATOM     84  F   UNL A   1      41.325  37.485  39.059  1.00  0.00    -0.200 F 
ENDBRANCH  60  74
BRANCH  61  85
ATOM     85  C   UNL A   1      40.627  27.866  28.780  1.00  0.00     0.064 A 
ATOM     86  C   UNL A   1      41.329  28.052  27.583  1.00  0.00     0.173 A 
ATOM     87  C   UNL A   1      39.781  26.752  28.883  1.00  0.00     0.173 A 
ATOM     88  F   UNL A   1      42.126  29.120  27.430  1.00  0.00    -0.203 F 
ATOM     89  C   UNL A   1      41.173  27.168  26.518  1.00  0.00     0.198 A 
ATOM     90  C   UNL A   1      39.644  25.857  27.828  1.00  0.00     0.198 A 
ATOM     91  F   UNL A   1      39.091  26.541  30.013  1.00  0.00    -0.203 F 
ATOM     92  F   UNL A   1      41.816  27.390  25.365  1.00  0.00    -0.200 F 
ATOM     93  C   UNL A   1      40.332  26.071  26.643  1.00  0.00     0.200 A 
ATOM     94  F   UNL A   1      38.838  24.795  27.956  1.00  0.00    -0.200 F 
ATOM     95  F   UNL A   1      40.178  25.224  25.616  1.00  0.00    -0.200 F 
ENDBRANCH  61  85
BRANCH  73  96
ATOM     96  C   UNL A   1      44.267  28.487  34.702  1.00  0.00     0.064 A 
ATOM     97  C   UNL A   1      43.924  27.507  35.646  1.00  0.00     0.173 A 
ATOM     98  C   UNL A   1      45.627  28.667  34.407  1.00  0.00     0.173 A 
ATOM     99  F   UNL A   1      42.639  27.300  35.970  1.00  0.00    -0.203 F 
ATOM    100  C   UNL A   1      44.904  26.741  36.272  1.00  0.00     0.198 A 
ATOM    101  C   UNL A   1      46.602  27.879  35.013  1.00  0.00     0.198 A 
ATOM    102  F   UNL A   1      46.005  29.583  33.503  1.00  0.00    -0.203 F 
ATOM    103  F   UNL A   1      44.555  25.826  37.186  1.00  0.00    -0.200 F 
ATOM    104  C   UNL A   1      46.241  26.923  35.949  1.00  0.00     0.200 A 
ATOM    105  F   UNL A   1      47.890  28.037  34.678  1.00  0.00    -0.200 F 
ATOM    106  F   UNL A   1      47.181  26.169  36.535  1.00  0.00    -0.200 F 
ENDBRANCH  73  96
ENDBRANCH  47  48
ENDBRANCH  39  42
ENDBRANCH  37  38
ENDBRANCH  36  37
ENDBRANCH   1  36
TORSDOF 17
ENDMDL
MODEL 2
REMARK VINA RESULT:     -12.7      0.957      6.983
REMARK SMILES CC[C@H](C)[C@H](NC(=O)N1CCc2cc(OC)c(OC)cc2[C@@H]1c1ccc(F)cc1)C(=O)NCCCNC(=O)c1ccc(-c2c3nc(c(-c4c(F)c(F)c(F)c(F)c4F)c4ccc([nH]4)c(-c4c(F)c(F)c(F)c(F)c4F)c4nc(c(-c5c(F)c(F)c(F)c(F)c5F)c5ccc2[nH]5)C=C4)C=C3)cc1
REMARK SMILES IDX 33 1 32 2 30 3 31 4 5 6 3 7 4 8 2 9 1 10 6 11 7 12 8 14 9 15
REMARK SMILES IDX 10 16 22 17 11 18 21 19 12 20 20 21 13 22 17 23 14 24 23 25
REMARK SMILES IDX 24 26 29 27 25 28 28 29 26 30 27 31 18 32 19 33 15 34 16 35
REMARK SMILES IDX 34 36 35 37 36 38 37 39 38 41 39 42 40 43 101 44 41 45
REMARK SMILES IDX 100 46 42 47 43 48 44 49 94 50 45 51 99 52 93 53 95 54 46 55
REMARK SMILES IDX 98 56 92 57 91 58 47 60 79 61 59 62 78 63 60 64 63 65 77 66
REMARK SMILES IDX 96 67 61 68 62 69 76 71 97 72 64 73 48 74 49 75 57 76 50 77
REMARK SMILES IDX 51 78 55 79 58 80 52 81 53 82 56 83 54 84 80 85 81 86 89 87
REMARK SMILES IDX 82 88 83 89 87 90 90 91 84 92 85 93 88 94 86 95 65 96 66 97
REMARK SMILES IDX 74 98 67 99 68 100 72 101 75 102 69 103 70 104 73 105 71 106
REMARK H PARENT 32 5 6 13 36 40 95 59 63 70
REMARK Flexibility Score: inf
ROOT
ATOM      1  C   UNL A   1      31.658  30.785  25.807  1.00  0.00     0.117 C 
ENDROOT
BRANCH   1   2
ATOM      2  N   UNL A   1      31.609  29.597  26.613  1.00  0.00    -0.354 N 
ATOM      3  C   UNL A   1      32.395  28.486  26.440  1.00  0.00     0.242 C 
ATOM      4  O   UNL A   1      33.413  28.315  27.098  1.00  0.00    -0.273 OA
ATOM      5  H   UNL A   1      30.959  29.580  27.351  1.00  0.00     0.163 HD
BRANCH   3   6
ATOM      6  C   UNL A   1      31.792  27.425  25.496  1.00  0.00     0.176 C 
BRANCH   6   7
ATOM      7  C   UNL A   1      30.692  28.052  24.559  1.00  0.00     0.018 C 
ATOM      8  C   UNL A   1      31.188  28.645  23.234  1.00  0.00     0.010 C 
BRANCH   7   9
ATOM      9  C   UNL A   1      29.513  27.079  24.292  1.00  0.00     0.002 C 
ATOM     10  C   UNL A   1      28.365  27.581  23.422  1.00  0.00     0.004 C 
ENDBRANCH   7   9
ENDBRANCH   6   7
BRANCH   6  11
ATOM     11  N   UNL A   1      31.295  26.269  26.293  1.00  0.00    -0.326 N 
ATOM     12  C   UNL A   1      31.604  24.949  26.388  1.00  0.00     0.318 C 
ATOM     13  H   UNL A   1      30.562  26.523  26.899  1.00  0.00     0.166 HD
ATOM     14  O   UNL A   1      30.872  24.304  27.145  1.00  0.00    -0.249 OA
BRANCH  12  15
ATOM     15  N   UNL A   1      32.715  24.380  25.798  1.00  0.00    -0.313 N 
ATOM     16  C   UNL A   1      34.134  24.803  25.906  1.00  0.00     0.127 C 
ATOM     17  C   UNL A   1      32.457  23.245  24.851  1.00  0.00     0.148 C 
ATOM     18  C   UNL A   1      35.157  24.084  25.027  1.00  0.00     0.057 C 
ATOM     19  C   UNL A   1      33.563  22.175  24.979  1.00  0.00    -0.014 A 
ATOM     20  C   UNL A   1      34.893  22.609  25.061  1.00  0.00    -0.037 A 
ATOM     21  C   UNL A   1      33.306  20.794  24.861  1.00  0.00     0.057 A 
ATOM     22  C   UNL A   1      35.938  21.685  25.077  1.00  0.00     0.054 A 
ATOM     23  C   UNL A   1      34.362  19.861  24.805  1.00  0.00     0.161 A 
ATOM     24  C   UNL A   1      35.682  20.318  24.966  1.00  0.00     0.161 A 
BRANCH  17  25
ATOM     25  C   UNL A   1      32.367  23.715  23.384  1.00  0.00    -0.021 A 
ATOM     26  C   UNL A   1      32.995  22.961  22.373  1.00  0.00     0.009 A 
ATOM     27  C   UNL A   1      31.807  24.958  23.029  1.00  0.00     0.009 A 
ATOM     28  C   UNL A   1      33.182  23.493  21.097  1.00  0.00     0.039 A 
ATOM     29  C   UNL A   1      32.004  25.493  21.758  1.00  0.00     0.039 A 
ATOM     30  C   UNL A   1      32.713  24.767  20.813  1.00  0.00     0.123 A 
ATOM     31  F   UNL A   1      32.957  25.308  19.612  1.00  0.00    -0.207 F 
ENDBRANCH  17  25
BRANCH  23  32
ATOM     32  O   UNL A   1      34.179  18.517  24.599  1.00  0.00    -0.493 OA
ATOM     33  C   UNL A   1      33.057  18.118  23.816  1.00  0.00     0.278 C 
ENDBRANCH  23  32
BRANCH  24  34
ATOM     34  O   UNL A   1      36.822  19.560  24.906  1.00  0.00    -0.493 OA
ATOM     35  C   UNL A   1      38.044  20.275  24.981  1.00  0.00     0.278 C 
ENDBRANCH  24  34
ENDBRANCH  12  15
ENDBRANCH   6  11
ENDBRANCH   3   6
ENDBRANCH   1   2
BRANCH   1  36
ATOM     36  C   UNL A   1      31.351  32.000  26.671  1.00  0.00     0.042 C 
BRANCH  36  37
ATOM     37  C   UNL A   1      32.572  32.688  27.278  1.00  0.00     0.118 C 
BRANCH  37  38
ATOM     38  N   UNL A   1      32.336  34.062  27.675  1.00  0.00    -0.352 N 
ATOM     39  C   UNL A   1      32.974  34.841  28.611  1.00  0.00     0.251 C 
ATOM     40  H   UNL A   1      31.601  34.511  27.197  1.00  0.00     0.163 HD
ATOM     41  O   UNL A   1      32.547  35.962  28.855  1.00  0.00    -0.269 OA
BRANCH  39  42
ATOM     42  C   UNL A   1      34.158  34.336  29.351  1.00  0.00     0.039 A 
ATOM     43  C   UNL A   1      33.971  33.741  30.604  1.00  0.00     0.014 A 
ATOM     44  C   UNL A   1      35.451  34.468  28.853  1.00  0.00     0.014 A 
ATOM     45  C   UNL A   1      35.065  33.228  31.315  1.00  0.00     0.010 A 
ATOM     46  C   UNL A   1      36.532  33.910  29.531  1.00  0.00     0.010 A 
ATOM     47  C   UNL A   1      36.357  33.287  30.767  1.00  0.00    -0.014 A 
BRANCH  47  48
ATOM     48  C   UNL A   1      37.490  32.531  31.354  1.00  0.00     0.031 A 
ATOM     49  C   UNL A   1      38.126  31.348  30.686  1.00  0.00     0.074 A 
ATOM     50  C   UNL A   1      37.835  32.834  32.618  1.00  0.00     0.049 A 
ATOM     51  N   UNL A   1      39.169  30.646  31.058  1.00  0.00    -0.248 NA
ATOM     52  C   UNL A   1      37.483  30.853  29.467  1.00  0.00     0.031 C 
ATOM     53  C   UNL A   1      37.167  33.837  33.447  1.00  0.00     0.029 A 
ATOM     54  N   UNL A   1      38.813  32.321  33.426  1.00  0.00    -0.354 N 
ATOM     55  C   UNL A   1      39.311  29.637  30.112  1.00  0.00     0.074 A 
ATOM     56  C   UNL A   1      38.211  29.779  29.182  1.00  0.00     0.031 C 
ATOM     57  C   UNL A   1      37.774  33.888  34.641  1.00  0.00     0.029 A 
ATOM     58  C   UNL A   1      38.881  32.936  34.649  1.00  0.00     0.049 A 
ATOM     59  H   UNL A   1      39.408  31.584  33.157  1.00  0.00     0.167 HD
ATOM     60  C   UNL A   1      40.285  28.697  30.023  1.00  0.00     0.037 A 
ATOM     61  C   UNL A   1      39.767  32.787  35.648  1.00  0.00     0.037 A 
ATOM     62  C   UNL A   1      41.376  28.579  30.961  1.00  0.00     0.049 A 
ATOM     63  C   UNL A   1      40.919  31.844  35.471  1.00  0.00     0.074 A 
ATOM     64  C   UNL A   1      42.493  27.761  30.892  1.00  0.00     0.029 A 
ATOM     65  N   UNL A   1      41.478  29.289  32.147  1.00  0.00    -0.354 N 
ATOM     66  N   UNL A   1      41.168  31.022  34.482  1.00  0.00    -0.248 NA
ATOM     67  C   UNL A   1      41.934  31.835  36.532  1.00  0.00     0.031 C 
ATOM     68  C   UNL A   1      43.240  27.939  32.062  1.00  0.00     0.029 A 
ATOM     69  C   UNL A   1      42.622  28.909  32.832  1.00  0.00     0.049 A 
ATOM     70  H   UNL A   1      40.832  29.964  32.459  1.00  0.00     0.167 HD
ATOM     71  C   UNL A   1      42.373  30.409  34.791  1.00  0.00     0.074 A 
ATOM     72  C   UNL A   1      42.818  30.975  36.048  1.00  0.00     0.031 C 
ATOM     73  C   UNL A   1      43.046  29.460  34.094  1.00  0.00     0.037 A 
BRANCH  60  74
ATOM     74  C   UNL A   1      40.268  27.742  28.860  1.00  0.00     0.064 A 
ATOM     75  C   UNL A   1      39.603  26.508  28.952  1.00  0.00     0.173 A 
ATOM     76  C   UNL A   1      41.029  27.986  27.706  1.00  0.00     0.173 A 
ATOM     77  F   UNL A   1      38.871  26.213  30.036  1.00  0.00    -0.203 F 
ATOM     78  C   UNL A   1      39.718  25.551  27.944  1.00  0.00     0.198 A 
ATOM     79  C   UNL A   1      41.118  27.039  26.687  1.00  0.00     0.198 A 
ATOM     80  F   UNL A   1      41.690  29.145  27.566  1.00  0.00    -0.203 F 
ATOM     81  F   UNL A   1      39.114  24.362  28.078  1.00  0.00    -0.200 F 
ATOM     82  C   UNL A   1      40.474  25.817  26.813  1.00  0.00     0.200 A 
ATOM     83  F   UNL A   1      41.839  27.305  25.590  1.00  0.00    -0.200 F 
ATOM     84  F   UNL A   1      40.590  24.894  25.849  1.00  0.00    -0.200 F 
ENDBRANCH  60  74
BRANCH  61  85
ATOM     85  C   UNL A   1      39.657  33.678  36.826  1.00  0.00     0.064 A 
ATOM     86  C   UNL A   1      38.880  33.333  37.938  1.00  0.00     0.173 A 
ATOM     87  C   UNL A   1      40.248  34.949  36.802  1.00  0.00     0.173 A 
ATOM     88  F   UNL A   1      38.273  32.138  37.989  1.00  0.00    -0.203 F 
ATOM     89  C   UNL A   1      38.681  34.236  38.979  1.00  0.00     0.198 A 
ATOM     90  C   UNL A   1      40.068  35.843  37.852  1.00  0.00     0.198 A 
ATOM     91  F   UNL A   1      40.997  35.318  35.753  1.00  0.00    -0.203 F 
ATOM     92  F   UNL A   1      37.895  33.905  40.012  1.00  0.00    -0.200 F 
ATOM     93  C   UNL A   1      39.277  35.489  38.936  1.00  0.00     0.200 A 
ATOM     94  F   UNL A   1      40.651  37.047  37.810  1.00  0.00    -0.200 F 
ATOM     95  F   UNL A   1      39.081  36.361  39.934  1.00  0.00    -0.200 F 
ENDBRANCH  61  85
BRANCH  73  96
ATOM     96  C   UNL A   1      44.333  28.961  34.683  1.00  0.00     0.064 A 
ATOM     97  C   UNL A   1      44.343  27.863  35.556  1.00  0.00     0.173 A 
ATOM     98  C   UNL A   1      45.556  29.594  34.410  1.00  0.00     0.173 A 
ATOM     99  F   UNL A   1      43.200  27.227  35.856  1.00  0.00    -0.203 F 
ATOM    100  C   UNL A   1      45.528  27.419  36.136  1.00  0.00     0.198 A 
ATOM    101  C   UNL A   1      46.742  29.128  34.968  1.00  0.00     0.198 A 
ATOM    102  F   UNL A   1      45.601  30.640  33.571  1.00  0.00    -0.203 F 
ATOM    103  F   UNL A   1      45.510  26.382  36.984  1.00  0.00    -0.200 F 
ATOM    104  C   UNL A   1      46.727  28.047  35.835  1.00  0.00     0.200 A 
ATOM    105  F   UNL A   1      47.904  29.719  34.653  1.00  0.00    -0.200 F 
ATOM    106  F   UNL A   1      47.871  27.604  36.375  1.00  0.00    -0.200 F 
ENDBRANCH  73  96
ENDBRANCH  47  48
ENDBRANCH  39  42
ENDBRANCH  37  38
ENDBRANCH  36  37
ENDBRANCH   1  36
TORSDOF 17
ENDMDL
MODEL 3
REMARK VINA RESULT:     -12.5      2.373      4.019
REMARK SMILES CC[C@H](C)[C@H](NC(=O)N1CCc2cc(OC)c(OC)cc2[C@@H]1c1ccc(F)cc1)C(=O)NCCCNC(=O)c1ccc(-c2c3nc(c(-c4c(F)c(F)c(F)c(F)c4F)c4ccc([nH]4)c(-c4c(F)c(F)c(F)c(F)c4F)c4nc(c(-c5c(F)c(F)c(F)c(F)c5F)c5ccc2[nH]5)C=C4)C=C3)cc1
REMARK SMILES IDX 33 1 32 2 30 3 31 4 5 6 3 7 4 8 2 9 1 10 6 11 7 12 8 14 9 15
REMARK SMILES IDX 10 16 22 17 11 18 21 19 12 20 20 21 13 22 17 23 14 24 23 25
REMARK SMILES IDX 24 26 29 27 25 28 28 29 26 30 27 31 18 32 19 33 15 34 16 35
REMARK SMILES IDX 34 36 35 37 36 38 37 39 38 41 39 42 40 43 101 44 41 45
REMARK SMILES IDX 100 46 42 47 43 48 44 49 94 50 45 51 99 52 93 53 95 54 46 55
REMARK SMILES IDX 98 56 92 57 91 58 47 60 79 61 59 62 78 63 60 64 63 65 77 66
REMARK SMILES IDX 96 67 61 68 62 69 76 71 97 72 64 73 48 74 49 75 57 76 50 77
REMARK SMILES IDX 51 78 55 79 58 80 52 81 53 82 56 83 54 84 80 85 81 86 89 87
REMARK SMILES IDX 82 88 83 89 87 90 90 91 84 92 85 93 88 94 86 95 65 96 66 97
REMARK SMILES IDX 74 98 67 99 68 100 72 101 75 102 69 103 70 104 73 105 71 106
REMARK H PARENT 32 5 6 13 36 40 95 59 63 70
REMARK Flexibility Score: inf
ROOT
ATOM      1  C   UNL A   1      31.654  27.689  27.189  1.00  0.00     0.117 C 
ENDROOT
BRANCH   1   2
ATOM      2  N   UNL A   1      30.986  26.653  26.453  1.00  0.00    -0.354 N 
ATOM      3  C   UNL A   1      31.531  25.439  26.117  1.00  0.00     0.242 C 
ATOM      4  O   UNL A   1      31.324  24.438  26.788  1.00  0.00    -0.273 OA
ATOM      5  H   UNL A   1      30.061  26.827  26.168  1.00  0.00     0.163 HD
BRANCH   3   6
ATOM      6  C   UNL A   1      32.257  25.428  24.755  1.00  0.00     0.176 C 
BRANCH   6   7
ATOM      7  C   UNL A   1      31.908  24.131  23.932  1.00  0.00     0.018 C 
ATOM      8  C   UNL A   1      30.415  23.839  23.727  1.00  0.00     0.010 C 
BRANCH   7   9
ATOM      9  C   UNL A   1      32.647  24.075  22.568  1.00  0.00     0.002 C 
ATOM     10  C   UNL A   1      32.604  25.320  21.688  1.00  0.00     0.004 C 
ENDBRANCH   7   9
ENDBRANCH   6   7
BRANCH   6  11
ATOM     11  N   UNL A   1      33.720  25.613  24.966  1.00  0.00    -0.326 N 
ATOM     12  C   UNL A   1      34.725  24.877  25.510  1.00  0.00     0.318 C 
ATOM     13  H   UNL A   1      34.037  26.482  24.629  1.00  0.00     0.166 HD
ATOM     14  O   UNL A   1      35.816  25.453  25.553  1.00  0.00    -0.249 OA
BRANCH  12  15
ATOM     15  N   UNL A   1      34.592  23.552  25.873  1.00  0.00    -0.313 N 
ATOM     16  C   UNL A   1      34.211  22.994  27.195  1.00  0.00     0.127 C 
ATOM     17  C   UNL A   1      34.965  22.536  24.834  1.00  0.00     0.148 C 
ATOM     18  C   UNL A   1      34.281  21.477  27.371  1.00  0.00     0.057 C 
ATOM     19  C   UNL A   1      34.014  21.322  24.902  1.00  0.00    -0.014 A 
ATOM     20  C   UNL A   1      33.690  20.809  26.166  1.00  0.00    -0.037 A 
ATOM     21  C   UNL A   1      33.589  20.620  23.756  1.00  0.00     0.057 A 
ATOM     22  C   UNL A   1      32.918  19.654  26.283  1.00  0.00     0.054 A 
ATOM     23  C   UNL A   1      32.869  19.413  23.869  1.00  0.00     0.161 A 
ATOM     24  C   UNL A   1      32.493  18.963  25.147  1.00  0.00     0.161 A 
BRANCH  17  25
ATOM     25  C   UNL A   1      36.424  22.054  24.984  1.00  0.00    -0.021 A 
ATOM     26  C   UNL A   1      36.756  20.730  24.636  1.00  0.00     0.009 A 
ATOM     27  C   UNL A   1      37.413  22.843  25.602  1.00  0.00     0.009 A 
ATOM     28  C   UNL A   1      37.977  20.176  25.021  1.00  0.00     0.039 A 
ATOM     29  C   UNL A   1      38.628  22.286  25.996  1.00  0.00     0.039 A 
ATOM     30  C   UNL A   1      38.887  20.951  25.726  1.00  0.00     0.123 A 
ATOM     31  F   UNL A   1      40.027  20.399  26.162  1.00  0.00    -0.207 F 
ENDBRANCH  17  25
BRANCH  23  32
ATOM     32  O   UNL A   1      32.509  18.639  22.795  1.00  0.00    -0.493 OA
ATOM     33  C   UNL A   1      33.348  17.535  22.469  1.00  0.00     0.278 C 
ENDBRANCH  23  32
BRANCH  24  34
ATOM     34  O   UNL A   1      31.825  17.803  25.441  1.00  0.00    -0.493 OA
ATOM     35  C   UNL A   1      32.634  16.705  25.832  1.00  0.00     0.278 C 
ENDBRANCH  24  34
ENDBRANCH  12  15
ENDBRANCH   6  11
ENDBRANCH   3   6
ENDBRANCH   1   2
BRANCH   1  36
ATOM     36  C   UNL A   1      31.451  29.025  26.486  1.00  0.00     0.042 C 
BRANCH  36  37
ATOM     37  C   UNL A   1      32.724  29.838  26.261  1.00  0.00     0.118 C 
BRANCH  37  38
ATOM     38  N   UNL A   1      32.611  31.228  26.658  1.00  0.00    -0.352 N 
ATOM     39  C   UNL A   1      33.440  32.002  27.435  1.00  0.00     0.251 C 
ATOM     40  H   UNL A   1      31.813  31.693  26.316  1.00  0.00     0.163 HD
ATOM     41  O   UNL A   1      33.103  33.143  27.725  1.00  0.00    -0.269 OA
BRANCH  39  42
ATOM     42  C   UNL A   1      34.727  31.469  27.951  1.00  0.00     0.039 A 
ATOM     43  C   UNL A   1      35.824  32.331  28.057  1.00  0.00     0.014 A 
ATOM     44  C   UNL A   1      34.885  30.130  28.299  1.00  0.00     0.014 A 
ATOM     45  C   UNL A   1      37.044  31.867  28.567  1.00  0.00     0.010 A 
ATOM     46  C   UNL A   1      36.078  29.680  28.858  1.00  0.00     0.010 A 
ATOM     47  C   UNL A   1      37.171  30.536  28.997  1.00  0.00    -0.014 A 
BRANCH  47  48
ATOM     48  C   UNL A   1      38.344  30.077  29.780  1.00  0.00     0.031 A 
ATOM     49  C   UNL A   1      38.650  30.558  31.168  1.00  0.00     0.074 A 
ATOM     50  C   UNL A   1      39.250  29.322  29.133  1.00  0.00     0.049 A 
ATOM     51  N   UNL A   1      39.601  30.179  31.986  1.00  0.00    -0.248 NA
ATOM     52  C   UNL A   1      37.813  31.640  31.691  1.00  0.00     0.031 C 
ATOM     53  C   UNL A   1      39.165  28.943  27.723  1.00  0.00     0.029 A 
ATOM     54  N   UNL A   1      40.420  28.761  29.566  1.00  0.00    -0.354 N 
ATOM     55  C   UNL A   1      39.467  30.969  33.123  1.00  0.00     0.074 A 
ATOM     56  C   UNL A   1      38.381  31.890  32.865  1.00  0.00     0.031 C 
ATOM     57  C   UNL A   1      40.225  28.183  27.413  1.00  0.00     0.029 A 
ATOM     58  C   UNL A   1      41.048  28.012  28.606  1.00  0.00     0.049 A 
ATOM     59  H   UNL A   1      40.776  28.883  30.476  1.00  0.00     0.167 HD
ATOM     60  C   UNL A   1      40.175  30.907  34.279  1.00  0.00     0.037 A 
ATOM     61  C   UNL A   1      42.139  27.230  28.689  1.00  0.00     0.037 A 
ATOM     62  C   UNL A   1      41.250  29.974  34.515  1.00  0.00     0.049 A 
ATOM     63  C   UNL A   1      42.823  27.065  30.012  1.00  0.00     0.074 A 
ATOM     64  C   UNL A   1      41.940  29.727  35.691  1.00  0.00     0.029 A 
ATOM     65  N   UNL A   1      41.804  29.148  33.550  1.00  0.00    -0.354 N 
ATOM     66  N   UNL A   1      42.575  27.667  31.150  1.00  0.00    -0.248 NA
ATOM     67  C   UNL A   1      43.915  26.086  30.073  1.00  0.00     0.031 C 
ATOM     68  C   UNL A   1      42.944  28.790  35.422  1.00  0.00     0.029 A 
ATOM     69  C   UNL A   1      42.843  28.410  34.094  1.00  0.00     0.049 A 
ATOM     70  H   UNL A   1      41.504  29.093  32.613  1.00  0.00     0.167 HD
ATOM     71  C   UNL A   1      43.467  27.129  32.066  1.00  0.00     0.074 A 
ATOM     72  C   UNL A   1      44.244  26.133  31.356  1.00  0.00     0.031 C 
ATOM     73  C   UNL A   1      43.627  27.437  33.376  1.00  0.00     0.037 A 
BRANCH  60  74
ATOM     74  C   UNL A   1      39.799  31.828  35.408  1.00  0.00     0.064 A 
ATOM     75  C   UNL A   1      38.779  31.483  36.310  1.00  0.00     0.173 A 
ATOM     76  C   UNL A   1      40.350  33.116  35.512  1.00  0.00     0.173 A 
ATOM     77  F   UNL A   1      38.205  30.272  36.251  1.00  0.00    -0.203 F 
ATOM     78  C   UNL A   1      38.314  32.396  37.256  1.00  0.00     0.198 A 
ATOM     79  C   UNL A   1      39.903  34.016  36.478  1.00  0.00     0.198 A 
ATOM     80  F   UNL A   1      41.324  33.503  34.674  1.00  0.00    -0.203 F 
ATOM     81  F   UNL A   1      37.305  32.060  38.072  1.00  0.00    -0.200 F 
ATOM     82  C   UNL A   1      38.876  33.660  37.339  1.00  0.00     0.200 A 
ATOM     83  F   UNL A   1      40.458  35.232  36.565  1.00  0.00    -0.200 F 
ATOM     84  F   UNL A   1      38.423  34.540  38.243  1.00  0.00    -0.200 F 
ENDBRANCH  60  74
BRANCH  61  85
ATOM     85  C   UNL A   1      42.530  26.439  27.499  1.00  0.00     0.064 A 
ATOM     86  C   UNL A   1      41.974  25.181  27.238  1.00  0.00     0.173 A 
ATOM     87  C   UNL A   1      43.559  26.893  26.662  1.00  0.00     0.173 A 
ATOM     88  F   UNL A   1      41.008  24.695  28.032  1.00  0.00    -0.203 F 
ATOM     89  C   UNL A   1      42.447  24.394  26.190  1.00  0.00     0.198 A 
ATOM     90  C   UNL A   1      44.015  26.117  25.602  1.00  0.00     0.198 A 
ATOM     91  F   UNL A   1      44.118  28.092  26.881  1.00  0.00    -0.203 F 
ATOM     92  F   UNL A   1      41.935  23.173  25.987  1.00  0.00    -0.200 F 
ATOM     93  C   UNL A   1      43.465  24.864  25.373  1.00  0.00     0.200 A 
ATOM     94  F   UNL A   1      44.992  26.578  24.810  1.00  0.00    -0.200 F 
ATOM     95  F   UNL A   1      43.924  24.105  24.369  1.00  0.00    -0.200 F 
ENDBRANCH  61  85
BRANCH  73  96
ATOM     96  C   UNL A   1      44.695  26.699  34.129  1.00  0.00     0.064 A 
ATOM     97  C   UNL A   1      44.406  25.490  34.780  1.00  0.00     0.173 A 
ATOM     98  C   UNL A   1      45.998  27.209  34.237  1.00  0.00     0.173 A 
ATOM     99  F   UNL A   1      43.174  24.964  34.715  1.00  0.00    -0.203 F 
ATOM    100  C   UNL A   1      45.382  24.820  35.513  1.00  0.00     0.198 A 
ATOM    101  C   UNL A   1      46.979  26.521  34.946  1.00  0.00     0.198 A 
ATOM    102  F   UNL A   1      46.327  28.355  33.623  1.00  0.00    -0.203 F 
ATOM    103  F   UNL A   1      45.078  23.678  36.144  1.00  0.00    -0.200 F 
ATOM    104  C   UNL A   1      46.669  25.332  35.588  1.00  0.00     0.200 A 
ATOM    105  F   UNL A   1      48.229  27.003  34.994  1.00  0.00    -0.200 F 
ATOM    106  F   UNL A   1      47.614  24.674  36.274  1.00  0.00    -0.200 F 
ENDBRANCH  73  96
ENDBRANCH  47  48
ENDBRANCH  39  42
ENDBRANCH  37  38
ENDBRANCH  36  37
ENDBRANCH   1  36
TORSDOF 17
ENDMDL
