MODEL 1
REMARK VINA RESULT:     -13.3      0.000      0.000
REMARK SMILES CN(CCc1ccccn1)C(=O)NC1(CC(=O)NCCCNC(=O)c2ccc(-c3c4nc(c(-c5c(F)c(F)c(F)c(F)c5F)c5ccc([nH]5)c(-c5c(F)c(F)c(F)c(F)c5F)c5nc(c(-c6c(F)c(F)c(F)c(F)c6F)c6ccc3[nH]6)C=C5)C=C4)cc2)CCC1
REMARK SMILES IDX 16 1 17 2 18 3 15 5 14 6 88 7 90 8 89 9 13 10 11 11 12 12
REMARK SMILES IDX 2 14 1 15 3 16 4 17 5 18 6 19 10 20 7 21 9 22 8 23 19 24
REMARK SMILES IDX 20 25 21 26 22 27 23 28 24 30 25 31 26 32 87 33 27 34 86 35
REMARK SMILES IDX 28 36 29 37 30 38 80 39 31 40 85 41 79 42 81 43 32 44 84 45
REMARK SMILES IDX 78 46 77 47 33 49 65 50 45 51 64 52 46 53 49 54 63 55 82 56
REMARK SMILES IDX 47 57 48 58 62 60 83 61 50 62 34 63 35 64 43 65 36 66 37 67
REMARK SMILES IDX 41 68 44 69 38 70 39 71 42 72 40 73 66 74 67 75 75 76 68 77
REMARK SMILES IDX 69 78 73 79 76 80 70 81 71 82 74 83 72 84 51 85 52 86 60 87
REMARK SMILES IDX 53 88 54 89 58 90 61 91 55 92 56 93 59 94 57 95
REMARK H PARENT 18 4 13 13 22 29 81 48 49 59
REMARK Flexibility Score: inf
ROOT
ATOM      1  C   UNL A   1      36.358  23.242  24.540  1.00  0.00     0.222 C 
ATOM      2  O   UNL A   1      36.161  23.443  23.327  1.00  0.00    -0.275 OA
ATOM      3  N   UNL A   1      37.305  22.265  24.814  1.00  0.00    -0.356 N 
ATOM      4  H   UNL A   1      37.080  21.365  24.487  1.00  0.00     0.163 HD
ENDROOT
BRANCH   1   5
ATOM      5  C   UNL A   1      35.429  24.188  25.694  1.00  0.00     0.128 C 
BRANCH   5   6
ATOM      6  C   UNL A   1      33.917  25.746  25.337  1.00  0.00     0.051 C 
ATOM      7  C   UNL A   1      33.452  26.734  23.830  1.00  0.00     0.029 C 
ATOM      8  C   UNL A   1      33.760  27.554  25.824  1.00  0.00     0.029 C 
ATOM      9  C   UNL A   1      34.057  28.014  24.422  1.00  0.00     0.005 C 
BRANCH   6  10
ATOM     10  N   UNL A   1      32.241  25.562  25.933  1.00  0.00    -0.332 N 
ATOM     11  C   UNL A   1      31.206  24.692  25.764  1.00  0.00     0.317 C 
ATOM     12  O   UNL A   1      30.202  25.032  26.417  1.00  0.00    -0.249 OA
ATOM     13  H   UNL A   1      32.000  26.289  26.551  1.00  0.00     0.165 HD
BRANCH  11  14
ATOM     14  N   UNL A   1      31.146  23.586  24.935  1.00  0.00    -0.327 N 
ATOM     15  C   UNL A   1      30.658  23.938  23.603  1.00  0.00     0.148 C 
BRANCH  14  16
ATOM     16  C   UNL A   1      31.768  22.236  24.877  1.00  0.00     0.127 C 
BRANCH  16  17
ATOM     17  C   UNL A   1      32.947  21.844  24.027  1.00  0.00     0.078 C 
BRANCH  17  18
ATOM     18  C   UNL A   1      33.103  20.386  24.092  1.00  0.00     0.042 A 
ATOM     19  C   UNL A   1      34.509  19.614  24.864  1.00  0.00     0.024 A 
ATOM     20  N   UNL A   1      32.108  19.467  22.933  1.00  0.00    -0.261 NA
ATOM     21  C   UNL A   1      34.899  17.938  24.385  1.00  0.00     0.003 A 
ATOM     22  C   UNL A   1      32.577  17.839  22.443  1.00  0.00     0.111 A 
ATOM     23  C   UNL A   1      33.978  17.079  23.128  1.00  0.00     0.020 A 
ENDBRANCH  17  18
ENDBRANCH  16  17
ENDBRANCH  14  16
ENDBRANCH  11  14
ENDBRANCH   6  10
ENDBRANCH   5   6
ENDBRANCH   1   5
BRANCH   3  24
ATOM     24  C   UNL A   1      38.582  22.364  25.514  1.00  0.00     0.117 C 
BRANCH  24  25
ATOM     25  C   UNL A   1      39.197  21.093  26.177  1.00  0.00     0.042 C 
BRANCH  25  26
ATOM     26  C   UNL A   1      39.330  19.780  25.387  1.00  0.00     0.118 C 
BRANCH  26  27
ATOM     27  N   UNL A   1      40.341  18.937  26.022  1.00  0.00    -0.352 N 
ATOM     28  C   UNL A   1      41.704  19.102  26.091  1.00  0.00     0.251 C 
ATOM     29  H   UNL A   1      39.993  18.130  26.466  1.00  0.00     0.163 HD
ATOM     30  O   UNL A   1      42.414  18.100  25.996  1.00  0.00    -0.269 OA
BRANCH  28  31
ATOM     31  C   UNL A   1      42.348  20.416  26.365  1.00  0.00     0.039 A 
ATOM     32  C   UNL A   1      42.373  20.880  27.691  1.00  0.00     0.014 A 
ATOM     33  C   UNL A   1      42.740  21.283  25.342  1.00  0.00     0.014 A 
ATOM     34  C   UNL A   1      42.758  22.195  27.985  1.00  0.00     0.010 A 
ATOM     35  C   UNL A   1      43.176  22.584  25.643  1.00  0.00     0.010 A 
ATOM     36  C   UNL A   1      43.157  23.067  26.962  1.00  0.00    -0.014 A 
BRANCH  36  37
ATOM     37  C   UNL A   1      43.488  24.493  27.260  1.00  0.00     0.031 A 
ATOM     38  C   UNL A   1      44.887  25.016  27.032  1.00  0.00     0.074 A 
ATOM     39  C   UNL A   1      42.541  25.323  27.744  1.00  0.00     0.049 A 
ATOM     40  N   UNL A   1      45.379  26.210  27.263  1.00  0.00    -0.248 NA
ATOM     41  C   UNL A   1      45.869  24.065  26.492  1.00  0.00     0.031 C 
ATOM     42  C   UNL A   1      41.158  24.943  28.030  1.00  0.00     0.029 A 
ATOM     43  N   UNL A   1      42.596  26.652  28.089  1.00  0.00    -0.354 N 
ATOM     44  C   UNL A   1      46.724  26.144  26.915  1.00  0.00     0.074 A 
ATOM     45  C   UNL A   1      46.984  24.782  26.504  1.00  0.00     0.031 C 
ATOM     46  C   UNL A   1      40.492  26.015  28.489  1.00  0.00     0.029 A 
ATOM     47  C   UNL A   1      41.407  27.150  28.568  1.00  0.00     0.049 A 
ATOM     48  H   UNL A   1      43.412  27.197  28.003  1.00  0.00     0.167 HD
ATOM     49  C   UNL A   1      47.654  27.132  26.918  1.00  0.00     0.037 A 
ATOM     50  C   UNL A   1      41.093  28.378  29.026  1.00  0.00     0.037 A 
ATOM     51  C   UNL A   1      47.386  28.494  27.300  1.00  0.00     0.049 A 
ATOM     52  C   UNL A   1      42.149  29.452  29.034  1.00  0.00     0.074 A 
ATOM     53  C   UNL A   1      48.244  29.581  27.285  1.00  0.00     0.029 A 
ATOM     54  N   UNL A   1      46.167  28.957  27.772  1.00  0.00    -0.354 N 
ATOM     55  N   UNL A   1      43.398  29.390  28.639  1.00  0.00    -0.248 NA
ATOM     56  C   UNL A   1      41.748  30.773  29.541  1.00  0.00     0.031 C 
ATOM     57  C   UNL A   1      47.561  30.687  27.798  1.00  0.00     0.029 A 
ATOM     58  C   UNL A   1      46.258  30.307  28.074  1.00  0.00     0.049 A 
ATOM     59  H   UNL A   1      45.356  28.408  27.877  1.00  0.00     0.167 HD
ATOM     60  C   UNL A   1      43.921  30.665  28.819  1.00  0.00     0.074 A 
ATOM     61  C   UNL A   1      42.848  31.485  29.340  1.00  0.00     0.031 C 
ATOM     62  C   UNL A   1      45.176  31.115  28.576  1.00  0.00     0.037 A 
BRANCH  49  63
ATOM     63  C   UNL A   1      49.054  26.783  26.493  1.00  0.00     0.064 A 
ATOM     64  C   UNL A   1      49.482  26.930  25.164  1.00  0.00     0.173 A 
ATOM     65  C   UNL A   1      49.999  26.352  27.438  1.00  0.00     0.173 A 
ATOM     66  F   UNL A   1      48.620  27.333  24.218  1.00  0.00    -0.203 F 
ATOM     67  C   UNL A   1      50.792  26.631  24.793  1.00  0.00     0.198 A 
ATOM     68  C   UNL A   1      51.316  26.085  27.070  1.00  0.00     0.198 A 
ATOM     69  F   UNL A   1      49.651  26.204  28.725  1.00  0.00    -0.203 F 
ATOM     70  F   UNL A   1      51.161  26.734  23.510  1.00  0.00    -0.200 F 
ATOM     71  C   UNL A   1      51.709  26.218  25.747  1.00  0.00     0.200 A 
ATOM     72  F   UNL A   1      52.206  25.704  27.996  1.00  0.00    -0.200 F 
ATOM     73  F   UNL A   1      52.971  25.943  25.390  1.00  0.00    -0.200 F 
ENDBRANCH  49  63
BRANCH  50  74
ATOM     74  C   UNL A   1      39.715  28.668  29.511  1.00  0.00     0.064 A 
ATOM     75  C   UNL A   1      38.734  29.176  28.646  1.00  0.00     0.173 A 
ATOM     76  C   UNL A   1      39.354  28.469  30.852  1.00  0.00     0.173 A 
ATOM     77  F   UNL A   1      39.032  29.405  27.358  1.00  0.00    -0.203 F 
ATOM     78  C   UNL A   1      37.461  29.503  29.108  1.00  0.00     0.198 A 
ATOM     79  C   UNL A   1      38.070  28.762  31.307  1.00  0.00     0.198 A 
ATOM     80  F   UNL A   1      40.249  27.981  31.723  1.00  0.00    -0.203 F 
ATOM     81  F   UNL A   1      36.564  30.042  28.272  1.00  0.00    -0.200 F 
ATOM     82  C   UNL A   1      37.128  29.290  30.437  1.00  0.00     0.200 A 
ATOM     83  F   UNL A   1      37.747  28.538  32.587  1.00  0.00    -0.200 F 
ATOM     84  F   UNL A   1      35.903  29.603  30.882  1.00  0.00    -0.200 F 
ENDBRANCH  50  74
BRANCH  62  85
ATOM     85  C   UNL A   1      45.450  32.571  28.826  1.00  0.00     0.064 A 
ATOM     86  C   UNL A   1      45.957  33.031  30.049  1.00  0.00     0.173 A 
ATOM     87  C   UNL A   1      45.236  33.515  27.808  1.00  0.00     0.173 A 
ATOM     88  F   UNL A   1      46.165  32.172  31.059  1.00  0.00    -0.203 F 
ATOM     89  C   UNL A   1      46.215  34.384  30.254  1.00  0.00     0.198 A 
ATOM     90  C   UNL A   1      45.529  34.861  28.005  1.00  0.00     0.198 A 
ATOM     91  F   UNL A   1      44.759  33.128  26.616  1.00  0.00    -0.203 F 
ATOM     92  F   UNL A   1      46.650  34.807  31.450  1.00  0.00    -0.200 F 
ATOM     93  C   UNL A   1      46.009  35.296  29.230  1.00  0.00     0.200 A 
ATOM     94  F   UNL A   1      45.345  35.738  27.008  1.00  0.00    -0.200 F 
ATOM     95  F   UNL A   1      46.266  36.597  29.427  1.00  0.00    -0.200 F 
ENDBRANCH  62  85
ENDBRANCH  36  37
ENDBRANCH  28  31
ENDBRANCH  26  27
ENDBRANCH  25  26
ENDBRANCH  24  25
ENDBRANCH   3  24
TORSDOF 16
ENDMDL
MODEL 2
REMARK VINA RESULT:     -13.2      5.701     10.261
REMARK SMILES CN(CCc1ccccn1)C(=O)NC1(CC(=O)NCCCNC(=O)c2ccc(-c3c4nc(c(-c5c(F)c(F)c(F)c(F)c5F)c5ccc([nH]5)c(-c5c(F)c(F)c(F)c(F)c5F)c5nc(c(-c6c(F)c(F)c(F)c(F)c6F)c6ccc3[nH]6)C=C5)C=C4)cc2)CCC1
REMARK SMILES IDX 16 1 17 2 18 3 15 5 14 6 88 7 90 8 89 9 13 10 11 11 12 12
REMARK SMILES IDX 2 14 1 15 3 16 4 17 5 18 6 19 10 20 7 21 9 22 8 23 19 24
REMARK SMILES IDX 20 25 21 26 22 27 23 28 24 30 25 31 26 32 87 33 27 34 86 35
REMARK SMILES IDX 28 36 29 37 30 38 80 39 31 40 85 41 79 42 81 43 32 44 84 45
REMARK SMILES IDX 78 46 77 47 33 49 65 50 45 51 64 52 46 53 49 54 63 55 82 56
REMARK SMILES IDX 47 57 48 58 62 60 83 61 50 62 34 63 35 64 43 65 36 66 37 67
REMARK SMILES IDX 41 68 44 69 38 70 39 71 42 72 40 73 66 74 67 75 75 76 68 77
REMARK SMILES IDX 69 78 73 79 76 80 70 81 71 82 74 83 72 84 51 85 52 86 60 87
REMARK SMILES IDX 53 88 54 89 58 90 61 91 55 92 56 93 59 94 57 95
REMARK H PARENT 18 4 13 13 22 29 81 48 49 59
REMARK Flexibility Score: inf
ROOT
ATOM      1  C   UNL A   1      32.815  28.375  27.171  1.00  0.00     0.222 C 
ATOM      2  O   UNL A   1      32.013  27.749  27.889  1.00  0.00    -0.275 OA
ATOM      3  N   UNL A   1      32.827  29.746  27.380  1.00  0.00    -0.356 N 
ATOM      4  H   UNL A   1      31.976  30.203  27.188  1.00  0.00     0.163 HD
ENDROOT
BRANCH   1   5
ATOM      5  C   UNL A   1      33.782  27.457  26.023  1.00  0.00     0.128 C 
BRANCH   5   6
ATOM      6  C   UNL A   1      33.766  25.302  25.583  1.00  0.00     0.051 C 
ATOM      7  C   UNL A   1      32.720  23.893  26.204  1.00  0.00     0.029 C 
ATOM      8  C   UNL A   1      34.892  23.867  26.033  1.00  0.00     0.029 C 
ATOM      9  C   UNL A   1      33.890  23.316  27.013  1.00  0.00     0.005 C 
BRANCH   6  10
ATOM     10  N   UNL A   1      33.866  24.700  23.902  1.00  0.00    -0.332 N 
ATOM     11  C   UNL A   1      33.168  24.846  22.741  1.00  0.00     0.317 C 
ATOM     12  O   UNL A   1      33.659  24.173  21.816  1.00  0.00    -0.249 OA
ATOM     13  H   UNL A   1      34.636  24.097  23.783  1.00  0.00     0.165 HD
BRANCH  11  14
ATOM     14  N   UNL A   1      32.003  25.563  22.528  1.00  0.00    -0.327 N 
ATOM     15  C   UNL A   1      31.855  25.944  21.125  1.00  0.00     0.148 C 
BRANCH  14  16
ATOM     16  C   UNL A   1      30.696  25.740  23.215  1.00  0.00     0.127 C 
BRANCH  16  17
ATOM     17  C   UNL A   1      30.416  26.696  24.344  1.00  0.00     0.078 C 
BRANCH  17  18
ATOM     18  C   UNL A   1      29.870  27.935  23.778  1.00  0.00     0.042 A 
ATOM     19  C   UNL A   1      30.603  29.527  24.092  1.00  0.00     0.024 A 
ATOM     20  N   UNL A   1      28.182  27.829  23.213  1.00  0.00    -0.261 NA
ATOM     21  C   UNL A   1      29.572  30.970  23.877  1.00  0.00     0.003 A 
ATOM     22  C   UNL A   1      27.188  29.279  23.083  1.00  0.00     0.111 A 
ATOM     23  C   UNL A   1      27.852  30.841  23.442  1.00  0.00     0.020 A 
ENDBRANCH  17  18
ENDBRANCH  16  17
ENDBRANCH  14  16
ENDBRANCH  11  14
ENDBRANCH   6  10
ENDBRANCH   5   6
ENDBRANCH   1   5
BRANCH   3  24
ATOM     24  C   UNL A   1      33.904  30.619  27.837  1.00  0.00     0.117 C 
BRANCH  24  25
ATOM     25  C   UNL A   1      33.820  32.153  27.564  1.00  0.00     0.042 C 
BRANCH  25  26
ATOM     26  C   UNL A   1      32.457  32.857  27.445  1.00  0.00     0.118 C 
BRANCH  26  27
ATOM     27  N   UNL A   1      32.642  34.294  27.634  1.00  0.00    -0.352 N 
ATOM     28  C   UNL A   1      33.060  34.987  28.746  1.00  0.00     0.251 C 
ATOM     29  H   UNL A   1      32.435  34.849  26.848  1.00  0.00     0.163 HD
ATOM     30  O   UNL A   1      32.523  36.068  28.990  1.00  0.00    -0.269 OA
BRANCH  28  31
ATOM     31  C   UNL A   1      34.186  34.533  29.608  1.00  0.00     0.039 A 
ATOM     32  C   UNL A   1      35.495  34.666  29.115  1.00  0.00     0.014 A 
ATOM     33  C   UNL A   1      33.981  33.805  30.782  1.00  0.00     0.014 A 
ATOM     34  C   UNL A   1      36.575  34.060  29.770  1.00  0.00     0.010 A 
ATOM     35  C   UNL A   1      35.071  33.243  31.467  1.00  0.00     0.010 A 
ATOM     36  C   UNL A   1      36.375  33.333  30.952  1.00  0.00    -0.014 A 
BRANCH  36  37
ATOM     37  C   UNL A   1      37.508  32.615  31.609  1.00  0.00     0.031 A 
ATOM     38  C   UNL A   1      38.181  31.454  30.916  1.00  0.00     0.074 A 
ATOM     39  C   UNL A   1      37.932  32.992  32.833  1.00  0.00     0.049 A 
ATOM     40  N   UNL A   1      39.155  30.682  31.336  1.00  0.00    -0.248 NA
ATOM     41  C   UNL A   1      37.679  31.101  29.580  1.00  0.00     0.031 C 
ATOM     42  C   UNL A   1      37.358  34.081  33.623  1.00  0.00     0.029 A 
ATOM     43  N   UNL A   1      38.937  32.500  33.631  1.00  0.00    -0.354 N 
ATOM     44  C   UNL A   1      39.366  29.747  30.328  1.00  0.00     0.074 A 
ATOM     45  C   UNL A   1      38.387  30.016  29.297  1.00  0.00     0.031 C 
ATOM     46  C   UNL A   1      38.029  34.187  34.781  1.00  0.00     0.029 A 
ATOM     47  C   UNL A   1      39.055  33.151  34.837  1.00  0.00     0.049 A 
ATOM     48  H   UNL A   1      39.519  31.751  33.365  1.00  0.00     0.167 HD
ATOM     49  C   UNL A   1      40.300  28.767  30.257  1.00  0.00     0.037 A 
ATOM     50  C   UNL A   1      39.889  32.931  35.873  1.00  0.00     0.037 A 
ATOM     51  C   UNL A   1      41.292  28.520  31.272  1.00  0.00     0.049 A 
ATOM     52  C   UNL A   1      40.908  31.825  35.774  1.00  0.00     0.074 A 
ATOM     53  C   UNL A   1      42.317  27.588  31.269  1.00  0.00     0.029 A 
ATOM     54  N   UNL A   1      41.380  29.206  32.474  1.00  0.00    -0.354 N 
ATOM     55  N   UNL A   1      41.136  30.993  34.787  1.00  0.00    -0.248 NA
ATOM     56  C   UNL A   1      41.794  31.634  36.933  1.00  0.00     0.031 C 
ATOM     57  C   UNL A   1      42.990  27.674  32.492  1.00  0.00     0.029 A 
ATOM     58  C   UNL A   1      42.426  28.701  33.230  1.00  0.00     0.049 A 
ATOM     59  H   UNL A   1      40.788  29.942  32.749  1.00  0.00     0.167 HD
ATOM     60  C   UNL A   1      42.208  30.205  35.189  1.00  0.00     0.074 A 
ATOM     61  C   UNL A   1      42.597  30.671  36.503  1.00  0.00     0.031 C 
ATOM     62  C   UNL A   1      42.813  29.187  34.531  1.00  0.00     0.037 A 
BRANCH  49  63
ATOM     63  C   UNL A   1      40.303  27.882  29.040  1.00  0.00     0.064 A 
ATOM     64  C   UNL A   1      41.036  28.211  27.889  1.00  0.00     0.173 A 
ATOM     65  C   UNL A   1      39.613  26.660  29.046  1.00  0.00     0.173 A 
ATOM     66  F   UNL A   1      41.710  29.370  27.826  1.00  0.00    -0.203 F 
ATOM     67  C   UNL A   1      41.052  27.366  26.781  1.00  0.00     0.198 A 
ATOM     68  C   UNL A   1      39.658  25.802  27.950  1.00  0.00     0.198 A 
ATOM     69  F   UNL A   1      38.905  26.287  30.123  1.00  0.00    -0.203 F 
ATOM     70  F   UNL A   1      41.720  27.725  25.677  1.00  0.00    -0.200 F 
ATOM     71  C   UNL A   1      40.371  26.159  26.815  1.00  0.00     0.200 A 
ATOM     72  F   UNL A   1      39.015  24.627  27.991  1.00  0.00    -0.200 F 
ATOM     73  F   UNL A   1      40.399  25.341  25.754  1.00  0.00    -0.200 F 
ENDBRANCH  49  63
BRANCH  50  74
ATOM     74  C   UNL A   1      39.808  33.778  37.095  1.00  0.00     0.064 A 
ATOM     75  C   UNL A   1      40.603  34.925  37.235  1.00  0.00     0.173 A 
ATOM     76  C   UNL A   1      38.955  33.448  38.159  1.00  0.00     0.173 A 
ATOM     77  F   UNL A   1      41.451  35.275  36.256  1.00  0.00    -0.203 F 
ATOM     78  C   UNL A   1      40.572  35.689  38.401  1.00  0.00     0.198 A 
ATOM     79  C   UNL A   1      38.897  34.231  39.310  1.00  0.00     0.198 A 
ATOM     80  F   UNL A   1      38.169  32.365  38.078  1.00  0.00    -0.203 F 
ATOM     81  F   UNL A   1      41.386  36.745  38.530  1.00  0.00    -0.200 F 
ATOM     82  C   UNL A   1      39.715  35.344  39.435  1.00  0.00     0.200 A 
ATOM     83  F   UNL A   1      38.055  33.905  40.299  1.00  0.00    -0.200 F 
ATOM     84  F   UNL A   1      39.684  36.080  40.555  1.00  0.00    -0.200 F 
ENDBRANCH  50  74
BRANCH  62  85
ATOM     85  C   UNL A   1      43.991  28.535  35.198  1.00  0.00     0.064 A 
ATOM     86  C   UNL A   1      45.296  29.023  35.039  1.00  0.00     0.173 A 
ATOM     87  C   UNL A   1      43.803  27.428  36.041  1.00  0.00     0.173 A 
ATOM     88  F   UNL A   1      45.532  30.069  34.233  1.00  0.00    -0.203 F 
ATOM     89  C   UNL A   1      46.372  28.411  35.677  1.00  0.00     0.198 A 
ATOM     90  C   UNL A   1      44.875  26.841  36.705  1.00  0.00     0.198 A 
ATOM     91  F   UNL A   1      42.574  26.926  36.234  1.00  0.00    -0.203 F 
ATOM     92  F   UNL A   1      47.617  28.862  35.468  1.00  0.00    -0.200 F 
ATOM     93  C   UNL A   1      46.160  27.326  36.515  1.00  0.00     0.200 A 
ATOM     94  F   UNL A   1      44.666  25.805  37.528  1.00  0.00    -0.200 F 
ATOM     95  F   UNL A   1      47.196  26.744  37.136  1.00  0.00    -0.200 F 
ENDBRANCH  62  85
ENDBRANCH  36  37
ENDBRANCH  28  31
ENDBRANCH  26  27
ENDBRANCH  25  26
ENDBRANCH  24  25
ENDBRANCH   3  24
TORSDOF 16
ENDMDL
MODEL 3
REMARK VINA RESULT:     -13.1      5.449     11.122
REMARK SMILES CN(CCc1ccccn1)C(=O)NC1(CC(=O)NCCCNC(=O)c2ccc(-c3c4nc(c(-c5c(F)c(F)c(F)c(F)c5F)c5ccc([nH]5)c(-c5c(F)c(F)c(F)c(F)c5F)c5nc(c(-c6c(F)c(F)c(F)c(F)c6F)c6ccc3[nH]6)C=C5)C=C4)cc2)CCC1
REMARK SMILES IDX 16 1 17 2 18 3 15 5 14 6 88 7 90 8 89 9 13 10 11 11 12 12
REMARK SMILES IDX 2 14 1 15 3 16 4 17 5 18 6 19 10 20 7 21 9 22 8 23 19 24
REMARK SMILES IDX 20 25 21 26 22 27 23 28 24 30 25 31 26 32 87 33 27 34 86 35
REMARK SMILES IDX 28 36 29 37 30 38 80 39 31 40 85 41 79 42 81 43 32 44 84 45
REMARK SMILES IDX 78 46 77 47 33 49 65 50 45 51 64 52 46 53 49 54 63 55 82 56
REMARK SMILES IDX 47 57 48 58 62 60 83 61 50 62 34 63 35 64 43 65 36 66 37 67
REMARK SMILES IDX 41 68 44 69 38 70 39 71 42 72 40 73 66 74 67 75 75 76 68 77
REMARK SMILES IDX 69 78 73 79 76 80 70 81 71 82 74 83 72 84 51 85 52 86 60 87
REMARK SMILES IDX 53 88 54 89 58 90 61 91 55 92 56 93 59 94 57 95
REMARK H PARENT 18 4 13 13 22 29 81 48 49 59
REMARK Flexibility Score: inf
ROOT
ATOM      1  C   UNL A   1      32.529  28.206  27.091  1.00  0.00     0.222 C 
ATOM      2  O   UNL A   1      31.685  27.648  27.816  1.00  0.00    -0.275 OA
ATOM      3  N   UNL A   1      32.541  29.591  27.182  1.00  0.00    -0.356 N 
ATOM      4  H   UNL A   1      31.704  30.032  26.907  1.00  0.00     0.163 HD
ENDROOT
BRANCH   1   5
ATOM      5  C   UNL A   1      33.547  27.190  26.078  1.00  0.00     0.128 C 
BRANCH   5   6
ATOM      6  C   UNL A   1      33.488  25.013  25.767  1.00  0.00     0.051 C 
ATOM      7  C   UNL A   1      32.240  23.706  26.213  1.00  0.00     0.029 C 
ATOM      8  C   UNL A   1      34.388  23.557  26.540  1.00  0.00     0.029 C 
ATOM      9  C   UNL A   1      33.159  23.128  27.297  1.00  0.00     0.005 C 
BRANCH   6  10
ATOM     10  N   UNL A   1      33.921  24.292  24.189  1.00  0.00    -0.332 N 
ATOM     11  C   UNL A   1      33.529  24.414  22.890  1.00  0.00     0.317 C 
ATOM     12  O   UNL A   1      34.157  23.643  22.141  1.00  0.00    -0.249 OA
ATOM     13  H   UNL A   1      34.638  23.625  24.286  1.00  0.00     0.165 HD
BRANCH  11  14
ATOM     14  N   UNL A   1      32.517  25.203  22.372  1.00  0.00    -0.327 N 
ATOM     15  C   UNL A   1      32.746  25.516  20.963  1.00  0.00     0.148 C 
BRANCH  14  16
ATOM     16  C   UNL A   1      31.103  25.517  22.710  1.00  0.00     0.127 C 
BRANCH  16  17
ATOM     17  C   UNL A   1      30.643  26.506  23.747  1.00  0.00     0.078 C 
BRANCH  17  18
ATOM     18  C   UNL A   1      29.804  27.514  23.089  1.00  0.00     0.042 A 
ATOM     19  C   UNL A   1      30.481  29.006  22.392  1.00  0.00     0.024 A 
ATOM     20  N   UNL A   1      28.066  27.422  23.476  1.00  0.00    -0.261 NA
ATOM     21  C   UNL A   1      29.375  30.390  22.165  1.00  0.00     0.003 A 
ATOM     22  C   UNL A   1      27.033  28.839  23.297  1.00  0.00     0.111 A 
ATOM     23  C   UNL A   1      27.673  30.329  22.680  1.00  0.00     0.020 A 
ENDBRANCH  17  18
ENDBRANCH  16  17
ENDBRANCH  14  16
ENDBRANCH  11  14
ENDBRANCH   6  10
ENDBRANCH   5   6
ENDBRANCH   1   5
BRANCH   3  24
ATOM     24  C   UNL A   1      33.599  30.495  27.620  1.00  0.00     0.117 C 
BRANCH  24  25
ATOM     25  C   UNL A   1      33.506  32.014  27.273  1.00  0.00     0.042 C 
BRANCH  25  26
ATOM     26  C   UNL A   1      32.180  32.777  27.433  1.00  0.00     0.118 C 
BRANCH  26  27
ATOM     27  N   UNL A   1      32.460  34.207  27.548  1.00  0.00    -0.352 N 
ATOM     28  C   UNL A   1      32.998  34.914  28.598  1.00  0.00     0.251 C 
ATOM     29  H   UNL A   1      32.229  34.744  26.756  1.00  0.00     0.163 HD
ATOM     30  O   UNL A   1      32.543  36.034  28.834  1.00  0.00    -0.269 OA
BRANCH  28  31
ATOM     31  C   UNL A   1      34.156  34.425  29.396  1.00  0.00     0.039 A 
ATOM     32  C   UNL A   1      35.445  34.575  28.856  1.00  0.00     0.014 A 
ATOM     33  C   UNL A   1      33.996  33.652  30.548  1.00  0.00     0.014 A 
ATOM     34  C   UNL A   1      36.548  33.942  29.444  1.00  0.00     0.010 A 
ATOM     35  C   UNL A   1      35.110  33.062  31.167  1.00  0.00     0.010 A 
ATOM     36  C   UNL A   1      36.393  33.170  30.604  1.00  0.00    -0.014 A 
BRANCH  36  37
ATOM     37  C   UNL A   1      37.549  32.425  31.187  1.00  0.00     0.031 A 
ATOM     38  C   UNL A   1      38.072  32.779  32.559  1.00  0.00     0.074 A 
ATOM     39  C   UNL A   1      38.143  31.437  30.486  1.00  0.00     0.049 A 
ATOM     40  N   UNL A   1      39.086  32.275  33.222  1.00  0.00    -0.248 NA
ATOM     41  C   UNL A   1      37.374  33.857  33.275  1.00  0.00     0.031 C 
ATOM     42  C   UNL A   1      37.754  31.008  29.143  1.00  0.00     0.029 A 
ATOM     43  N   UNL A   1      39.202  30.619  30.800  1.00  0.00    -0.354 N 
ATOM     44  C   UNL A   1      39.155  32.985  34.416  1.00  0.00     0.074 A 
ATOM     45  C   UNL A   1      38.114  33.988  34.368  1.00  0.00     0.031 C 
ATOM     46  C   UNL A   1      38.548  29.998  28.755  1.00  0.00     0.029 A 
ATOM     47  C   UNL A   1      39.529  29.730  29.803  1.00  0.00     0.049 A 
ATOM     48  H   UNL A   1      39.683  30.666  31.658  1.00  0.00     0.167 HD
ATOM     49  C   UNL A   1      39.996  32.807  35.464  1.00  0.00     0.037 A 
ATOM     50  C   UNL A   1      40.513  28.811  29.736  1.00  0.00     0.037 A 
ATOM     51  C   UNL A   1      41.014  31.790  35.522  1.00  0.00     0.049 A 
ATOM     52  C   UNL A   1      41.443  28.645  30.910  1.00  0.00     0.074 A 
ATOM     53  C   UNL A   1      41.879  31.491  36.562  1.00  0.00     0.029 A 
ATOM     54  N   UNL A   1      41.307  30.906  34.494  1.00  0.00    -0.354 N 
ATOM     55  N   UNL A   1      41.453  29.280  32.057  1.00  0.00    -0.248 NA
ATOM     56  C   UNL A   1      42.495  27.624  30.784  1.00  0.00     0.031 C 
ATOM     57  C   UNL A   1      42.731  30.465  36.142  1.00  0.00     0.029 A 
ATOM     58  C   UNL A   1      42.355  30.080  34.865  1.00  0.00     0.049 A 
ATOM     59  H   UNL A   1      40.839  30.871  33.629  1.00  0.00     0.167 HD
ATOM     60  C   UNL A   1      42.485  28.717  32.799  1.00  0.00     0.074 A 
ATOM     61  C   UNL A   1      43.066  27.675  31.979  1.00  0.00     0.031 C 
ATOM     62  C   UNL A   1      42.913  29.035  34.045  1.00  0.00     0.037 A 
BRANCH  49  63
ATOM     63  C   UNL A   1      39.856  33.729  36.645  1.00  0.00     0.064 A 
ATOM     64  C   UNL A   1      38.991  33.440  37.711  1.00  0.00     0.173 A 
ATOM     65  C   UNL A   1      40.642  34.889  36.740  1.00  0.00     0.173 A 
ATOM     66  F   UNL A   1      38.212  32.348  37.671  1.00  0.00    -0.203 F 
ATOM     67  C   UNL A   1      38.895  34.290  38.811  1.00  0.00     0.198 A 
ATOM     68  C   UNL A   1      40.568  35.719  37.856  1.00  0.00     0.198 A 
ATOM     69  F   UNL A   1      41.496  35.211  35.757  1.00  0.00    -0.203 F 
ATOM     70  F   UNL A   1      38.026  34.015  39.793  1.00  0.00    -0.200 F 
ATOM     71  C   UNL A   1      39.690  35.423  38.887  1.00  0.00     0.200 A 
ATOM     72  F   UNL A   1      41.350  36.805  37.936  1.00  0.00    -0.200 F 
ATOM     73  F   UNL A   1      39.605  36.233  39.952  1.00  0.00    -0.200 F 
ENDBRANCH  49  63
BRANCH  50  74
ATOM     74  C   UNL A   1      40.670  27.966  28.521  1.00  0.00     0.064 A 
ATOM     75  C   UNL A   1      40.078  26.697  28.439  1.00  0.00     0.173 A 
ATOM     76  C   UNL A   1      41.434  28.395  27.425  1.00  0.00     0.173 A 
ATOM     77  F   UNL A   1      39.354  26.229  29.467  1.00  0.00    -0.203 F 
ATOM     78  C   UNL A   1      40.270  25.879  27.327  1.00  0.00     0.198 A 
ATOM     79  C   UNL A   1      41.597  27.592  26.298  1.00  0.00     0.198 A 
ATOM     80  F   UNL A   1      42.020  29.601  27.446  1.00  0.00    -0.203 F 
ATOM     81  F   UNL A   1      39.742  24.648  27.302  1.00  0.00    -0.200 F 
ATOM     82  C   UNL A   1      41.025  26.330  26.255  1.00  0.00     0.200 A 
ATOM     83  F   UNL A   1      42.312  28.038  25.257  1.00  0.00    -0.200 F 
ATOM     84  F   UNL A   1      41.208  25.545  25.184  1.00  0.00    -0.200 F 
ENDBRANCH  50  74
BRANCH  62  85
ATOM     85  C   UNL A   1      44.035  28.218  34.620  1.00  0.00     0.064 A 
ATOM     86  C   UNL A   1      45.375  28.614  34.505  1.00  0.00     0.173 A 
ATOM     87  C   UNL A   1      43.758  27.040  35.333  1.00  0.00     0.173 A 
ATOM     88  F   UNL A   1      45.694  29.723  33.821  1.00  0.00    -0.203 F 
ATOM     89  C   UNL A   1      46.398  27.848  35.057  1.00  0.00     0.198 A 
ATOM     90  C   UNL A   1      44.780  26.296  35.915  1.00  0.00     0.198 A 
ATOM     91  F   UNL A   1      42.493  26.619  35.480  1.00  0.00    -0.203 F 
ATOM     92  F   UNL A   1      47.675  28.218  34.888  1.00  0.00    -0.200 F 
ATOM     93  C   UNL A   1      46.100  26.694  35.768  1.00  0.00     0.200 A 
ATOM     94  F   UNL A   1      44.488  25.192  36.616  1.00  0.00    -0.200 F 
ATOM     95  F   UNL A   1      47.086  25.963  36.307  1.00  0.00    -0.200 F 
ENDBRANCH  62  85
ENDBRANCH  36  37
ENDBRANCH  28  31
ENDBRANCH  26  27
ENDBRANCH  25  26
ENDBRANCH  24  25
ENDBRANCH   3  24
TORSDOF 16
ENDMDL
