MODEL 1
REMARK VINA RESULT:     -13.8      0.000      0.000
REMARK SMILES Cc1ccc(C(=O)NCCCNC(=O)c2ccc(-c3c4nc(c(-c5c(F)c(F)c(F)c(F)c5F)c5ccc([nH]5)c(-c5c(F)c(F)c(F)c(F)c5F)c5nc(c(-c6c(F)c(F)c(F)c(F)c6F)c6ccc3[nH]6)C=C5)C=C4)cc2)cc1NC(=O)c1ccc(Br)o1
REMARK SMILES IDX 10 1 9 2 8 3 6 4 7 5 5 7 1 8 2 9 3 10 79 11 4 12 78 13 80 14
REMARK SMILES IDX 81 15 82 17 83 18 84 19 88 20 85 21 86 22 87 23 11 24 12 25
REMARK SMILES IDX 13 26 14 28 15 29 16 30 77 31 17 32 76 33 18 34 19 35 20 36
REMARK SMILES IDX 70 37 21 38 75 39 69 40 71 41 22 42 74 43 68 44 67 45 23 47
REMARK SMILES IDX 55 48 35 49 54 50 36 51 39 52 53 53 72 54 37 55 38 56 52 58
REMARK SMILES IDX 73 59 40 60 24 61 25 62 33 63 26 64 27 65 31 66 34 67 28 68
REMARK SMILES IDX 29 69 32 70 30 71 56 72 57 73 65 74 58 75 59 76 63 77 66 78
REMARK SMILES IDX 60 79 61 80 64 81 62 82 41 83 42 84 50 85 43 86 44 87 48 88
REMARK SMILES IDX 51 89 45 90 46 91 49 92 47 93
REMARK H PARENT 8 6 80 16 12 27 71 46 39 57
REMARK Flexibility Score: inf
ROOT
ATOM      1  C   UNL A   1      33.205  31.832  27.757  1.00  0.00     0.042 C 
ENDROOT
BRANCH   1   2
ATOM      2  C   UNL A   1      32.805  30.469  27.246  1.00  0.00     0.118 C 
BRANCH   2   3
ATOM      3  N   UNL A   1      31.904  30.481  26.107  1.00  0.00    -0.352 N 
ATOM      4  C   UNL A   1      31.525  29.452  25.270  1.00  0.00     0.251 C 
ATOM      5  O   UNL A   1      30.730  29.698  24.361  1.00  0.00    -0.269 OA
ATOM      6  H   UNL A   1      31.502  31.356  25.901  1.00  0.00     0.163 HD
BRANCH   4   7
ATOM      7  C   UNL A   1      32.107  28.086  25.385  1.00  0.00     0.041 A 
ATOM      8  C   UNL A   1      34.174  24.380  26.144  1.00  0.00     0.046 C 
ATOM      9  C   UNL A   1      33.364  25.627  25.881  1.00  0.00    -0.027 A 
ATOM     10  C   UNL A   1      34.076  26.703  25.313  1.00  0.00     0.006 A 
ATOM     11  C   UNL A   1      31.984  25.773  26.160  1.00  0.00     0.045 A 
ATOM     12  C   UNL A   1      33.462  27.933  25.099  1.00  0.00     0.014 A 
ATOM     13  C   UNL A   1      31.367  26.969  25.804  1.00  0.00     0.040 A 
BRANCH  11  14
ATOM     14  N   UNL A   1      31.325  24.742  26.854  1.00  0.00    -0.319 N 
ATOM     15  C   UNL A   1      30.864  23.473  26.594  1.00  0.00     0.291 C 
ATOM     16  H   UNL A   1      31.143  25.001  27.785  1.00  0.00     0.170 HD
ATOM     17  O   UNL A   1      30.082  23.045  27.451  1.00  0.00    -0.265 OA
BRANCH  15  18
ATOM     18  C   UNL A   1      31.186  22.666  25.442  1.00  0.00     0.193 A 
ATOM     19  C   UNL A   1      31.437  22.939  24.107  1.00  0.00     0.057 A 
ATOM     20  O   UNL A   1      31.562  21.374  25.704  1.00  0.00    -0.444 OA
ATOM     21  C   UNL A   1      32.023  21.767  23.549  1.00  0.00     0.059 A 
ATOM     22  C   UNL A   1      32.114  20.860  24.580  1.00  0.00     0.170 A 
ATOM     23  Br  UNL A   1      32.934  19.189  24.516  1.00  0.00    -0.008 Br
ENDBRANCH  15  18
ENDBRANCH  11  14
ENDBRANCH   4   7
ENDBRANCH   2   3
ENDBRANCH   1   2
BRANCH   1  24
ATOM     24  C   UNL A   1      34.702  32.071  27.752  1.00  0.00     0.118 C 
BRANCH  24  25
ATOM     25  N   UNL A   1      35.275  32.342  29.076  1.00  0.00    -0.352 N 
ATOM     26  C   UNL A   1      36.036  31.537  29.912  1.00  0.00     0.251 C 
ATOM     27  H   UNL A   1      35.088  33.242  29.429  1.00  0.00     0.163 HD
ATOM     28  O   UNL A   1      36.579  31.990  30.912  1.00  0.00    -0.269 OA
BRANCH  26  29
ATOM     29  C   UNL A   1      36.325  30.154  29.488  1.00  0.00     0.039 A 
ATOM     30  C   UNL A   1      36.824  29.335  30.504  1.00  0.00     0.014 A 
ATOM     31  C   UNL A   1      36.655  29.946  28.158  1.00  0.00     0.014 A 
ATOM     32  C   UNL A   1      37.967  28.597  30.245  1.00  0.00     0.010 A 
ATOM     33  C   UNL A   1      37.853  29.301  27.924  1.00  0.00     0.010 A 
ATOM     34  C   UNL A   1      38.559  28.723  28.990  1.00  0.00    -0.014 A 
BRANCH  34  35
ATOM     35  C   UNL A   1      39.944  28.349  28.744  1.00  0.00     0.031 A 
ATOM     36  C   UNL A   1      40.228  26.941  28.419  1.00  0.00     0.074 A 
ATOM     37  C   UNL A   1      40.967  29.231  28.845  1.00  0.00     0.049 A 
ATOM     38  N   UNL A   1      41.284  26.316  28.813  1.00  0.00    -0.248 NA
ATOM     39  C   UNL A   1      39.298  26.102  27.676  1.00  0.00     0.031 C 
ATOM     40  C   UNL A   1      42.357  28.996  28.454  1.00  0.00     0.029 A 
ATOM     41  N   UNL A   1      40.996  30.485  29.478  1.00  0.00    -0.354 N 
ATOM     42  C   UNL A   1      41.297  25.092  28.187  1.00  0.00     0.074 A 
ATOM     43  C   UNL A   1      40.011  24.984  27.540  1.00  0.00     0.031 C 
ATOM     44  C   UNL A   1      43.146  29.891  29.064  1.00  0.00     0.029 A 
ATOM     45  C   UNL A   1      42.316  30.675  29.957  1.00  0.00     0.049 A 
ATOM     46  H   UNL A   1      40.242  31.112  29.570  1.00  0.00     0.167 HD
ATOM     47  C   UNL A   1      42.447  24.361  28.176  1.00  0.00     0.037 A 
ATOM     48  C   UNL A   1      42.590  30.937  31.269  1.00  0.00     0.037 A 
ATOM     49  C   UNL A   1      43.519  25.057  28.883  1.00  0.00     0.049 A 
ATOM     50  C   UNL A   1      43.426  29.871  31.933  1.00  0.00     0.074 A 
ATOM     51  C   UNL A   1      44.535  25.884  28.430  1.00  0.00     0.029 A 
ATOM     52  N   UNL A   1      43.450  25.238  30.261  1.00  0.00    -0.354 N 
ATOM     53  N   UNL A   1      43.664  28.708  31.397  1.00  0.00    -0.248 NA
ATOM     54  C   UNL A   1      43.979  29.991  33.280  1.00  0.00     0.031 C 
ATOM     55  C   UNL A   1      45.056  26.589  29.540  1.00  0.00     0.029 A 
ATOM     56  C   UNL A   1      44.371  26.186  30.673  1.00  0.00     0.049 A 
ATOM     57  H   UNL A   1      42.832  24.759  30.860  1.00  0.00     0.167 HD
ATOM     58  C   UNL A   1      44.276  27.902  32.318  1.00  0.00     0.074 A 
ATOM     59  C   UNL A   1      44.499  28.765  33.462  1.00  0.00     0.031 C 
ATOM     60  C   UNL A   1      44.491  26.576  32.071  1.00  0.00     0.037 A 
BRANCH  47  61
ATOM     61  C   UNL A   1      42.674  23.196  27.239  1.00  0.00     0.064 A 
ATOM     62  C   UNL A   1      42.105  21.934  27.506  1.00  0.00     0.173 A 
ATOM     63  C   UNL A   1      43.497  23.239  26.098  1.00  0.00     0.173 A 
ATOM     64  F   UNL A   1      41.195  21.766  28.474  1.00  0.00    -0.203 F 
ATOM     65  C   UNL A   1      42.448  20.788  26.784  1.00  0.00     0.198 A 
ATOM     66  C   UNL A   1      43.894  22.084  25.416  1.00  0.00     0.198 A 
ATOM     67  F   UNL A   1      43.895  24.404  25.571  1.00  0.00    -0.203 F 
ATOM     68  F   UNL A   1      41.880  19.614  27.091  1.00  0.00    -0.200 F 
ATOM     69  C   UNL A   1      43.380  20.855  25.769  1.00  0.00     0.200 A 
ATOM     70  F   UNL A   1      44.779  22.176  24.412  1.00  0.00    -0.200 F 
ATOM     71  F   UNL A   1      43.754  19.748  25.115  1.00  0.00    -0.200 F 
ENDBRANCH  47  61
BRANCH  48  72
ATOM     72  C   UNL A   1      41.492  31.687  31.933  1.00  0.00     0.064 A 
ATOM     73  C   UNL A   1      40.598  30.944  32.727  1.00  0.00     0.173 A 
ATOM     74  C   UNL A   1      41.627  33.055  32.196  1.00  0.00     0.173 A 
ATOM     75  F   UNL A   1      40.413  29.637  32.485  1.00  0.00    -0.203 F 
ATOM     76  C   UNL A   1      40.039  31.496  33.874  1.00  0.00     0.198 A 
ATOM     77  C   UNL A   1      41.035  33.611  33.327  1.00  0.00     0.198 A 
ATOM     78  F   UNL A   1      42.443  33.814  31.452  1.00  0.00    -0.203 F 
ATOM     79  F   UNL A   1      39.350  30.720  34.723  1.00  0.00    -0.200 F 
ATOM     80  C   UNL A   1      40.295  32.818  34.196  1.00  0.00     0.200 A 
ATOM     81  F   UNL A   1      41.278  34.892  33.640  1.00  0.00    -0.200 F 
ATOM     82  F   UNL A   1      39.874  33.311  35.368  1.00  0.00    -0.200 F 
ENDBRANCH  48  72
BRANCH  60  83
ATOM     83  C   UNL A   1      44.929  25.564  33.098  1.00  0.00     0.064 A 
ATOM     84  C   UNL A   1      46.223  25.017  33.159  1.00  0.00     0.173 A 
ATOM     85  C   UNL A   1      44.059  25.191  34.149  1.00  0.00     0.173 A 
ATOM     86  F   UNL A   1      47.184  25.403  32.309  1.00  0.00    -0.203 F 
ATOM     87  C   UNL A   1      46.587  24.090  34.139  1.00  0.00     0.198 A 
ATOM     88  C   UNL A   1      44.447  24.314  35.161  1.00  0.00     0.198 A 
ATOM     89  F   UNL A   1      42.816  25.685  34.237  1.00  0.00    -0.203 F 
ATOM     90  F   UNL A   1      47.814  23.550  34.115  1.00  0.00    -0.200 F 
ATOM     91  C   UNL A   1      45.703  23.742  35.142  1.00  0.00     0.200 A 
ATOM     92  F   UNL A   1      43.600  24.037  36.163  1.00  0.00    -0.200 F 
ATOM     93  F   UNL A   1      46.067  22.878  36.097  1.00  0.00    -0.200 F 
ENDBRANCH  60  83
ENDBRANCH  34  35
ENDBRANCH  26  29
ENDBRANCH  24  25
ENDBRANCH   1  24
TORSDOF 12
ENDMDL
MODEL 2
REMARK VINA RESULT:     -13.5      1.411      2.032
REMARK SMILES Cc1ccc(C(=O)NCCCNC(=O)c2ccc(-c3c4nc(c(-c5c(F)c(F)c(F)c(F)c5F)c5ccc([nH]5)c(-c5c(F)c(F)c(F)c(F)c5F)c5nc(c(-c6c(F)c(F)c(F)c(F)c6F)c6ccc3[nH]6)C=C5)C=C4)cc2)cc1NC(=O)c1ccc(Br)o1
REMARK SMILES IDX 10 1 9 2 8 3 6 4 7 5 5 7 1 8 2 9 3 10 79 11 4 12 78 13 80 14
REMARK SMILES IDX 81 15 82 17 83 18 84 19 88 20 85 21 86 22 87 23 11 24 12 25
REMARK SMILES IDX 13 26 14 28 15 29 16 30 77 31 17 32 76 33 18 34 19 35 20 36
REMARK SMILES IDX 70 37 21 38 75 39 69 40 71 41 22 42 74 43 68 44 67 45 23 47
REMARK SMILES IDX 55 48 35 49 54 50 36 51 39 52 53 53 72 54 37 55 38 56 52 58
REMARK SMILES IDX 73 59 40 60 24 61 25 62 33 63 26 64 27 65 31 66 34 67 28 68
REMARK SMILES IDX 29 69 32 70 30 71 56 72 57 73 65 74 58 75 59 76 63 77 66 78
REMARK SMILES IDX 60 79 61 80 64 81 62 82 41 83 42 84 50 85 43 86 44 87 48 88
REMARK SMILES IDX 51 89 45 90 46 91 49 92 47 93
REMARK H PARENT 8 6 80 16 12 27 71 46 39 57
REMARK Flexibility Score: inf
ROOT
ATOM      1  C   UNL A   1      33.760  31.565  27.248  1.00  0.00     0.042 C 
ENDROOT
BRANCH   1   2
ATOM      2  C   UNL A   1      33.675  30.088  26.949  1.00  0.00     0.118 C 
BRANCH   2   3
ATOM      3  N   UNL A   1      32.602  29.384  27.629  1.00  0.00    -0.352 N 
ATOM      4  C   UNL A   1      31.905  28.257  27.249  1.00  0.00     0.251 C 
ATOM      5  O   UNL A   1      31.028  27.828  28.001  1.00  0.00    -0.269 OA
ATOM      6  H   UNL A   1      32.331  29.771  28.493  1.00  0.00     0.163 HD
BRANCH   4   7
ATOM      7  C   UNL A   1      32.126  27.599  25.931  1.00  0.00     0.041 A 
ATOM      8  C   UNL A   1      32.968  26.253  21.923  1.00  0.00     0.046 C 
ATOM      9  C   UNL A   1      32.717  26.641  23.360  1.00  0.00    -0.027 A 
ATOM     10  C   UNL A   1      31.708  27.606  23.561  1.00  0.00     0.006 A 
ATOM     11  C   UNL A   1      33.408  26.113  24.477  1.00  0.00     0.045 A 
ATOM     12  C   UNL A   1      31.439  28.106  24.831  1.00  0.00     0.014 A 
ATOM     13  C   UNL A   1      33.018  26.531  25.746  1.00  0.00     0.040 A 
BRANCH  11  14
ATOM     14  N   UNL A   1      34.502  25.260  24.248  1.00  0.00    -0.319 N 
ATOM     15  C   UNL A   1      34.730  23.911  24.107  1.00  0.00     0.291 C 
ATOM     16  H   UNL A   1      35.339  25.771  24.166  1.00  0.00     0.170 HD
ATOM     17  O   UNL A   1      35.923  23.598  24.202  1.00  0.00    -0.265 OA
BRANCH  15  18
ATOM     18  C   UNL A   1      33.730  22.893  23.900  1.00  0.00     0.193 A 
ATOM     19  C   UNL A   1      32.841  22.602  22.878  1.00  0.00     0.057 A 
ATOM     20  O   UNL A   1      33.780  21.824  24.756  1.00  0.00    -0.444 OA
ATOM     21  C   UNL A   1      32.358  21.282  23.113  1.00  0.00     0.059 A 
ATOM     22  C   UNL A   1      32.999  20.841  24.249  1.00  0.00     0.170 A 
ATOM     23  Br  UNL A   1      32.903  19.131  24.980  1.00  0.00    -0.008 Br
ENDBRANCH  15  18
ENDBRANCH  11  14
ENDBRANCH   4   7
ENDBRANCH   2   3
ENDBRANCH   1   2
BRANCH   1  24
ATOM     24  C   UNL A   1      34.143  31.877  28.681  1.00  0.00     0.118 C 
BRANCH  24  25
ATOM     25  N   UNL A   1      35.425  32.576  28.825  1.00  0.00    -0.352 N 
ATOM     26  C   UNL A   1      36.721  32.082  28.885  1.00  0.00     0.251 C 
ATOM     27  H   UNL A   1      35.355  33.556  28.890  1.00  0.00     0.163 HD
ATOM     28  O   UNL A   1      37.691  32.827  28.832  1.00  0.00    -0.269 OA
BRANCH  26  29
ATOM     29  C   UNL A   1      36.921  30.621  28.844  1.00  0.00     0.039 A 
ATOM     30  C   UNL A   1      37.379  30.070  30.043  1.00  0.00     0.014 A 
ATOM     31  C   UNL A   1      37.226  30.049  27.618  1.00  0.00     0.014 A 
ATOM     32  C   UNL A   1      38.473  29.222  29.997  1.00  0.00     0.010 A 
ATOM     33  C   UNL A   1      38.381  29.293  27.572  1.00  0.00     0.010 A 
ATOM     34  C   UNL A   1      39.060  28.976  28.758  1.00  0.00    -0.014 A 
BRANCH  34  35
ATOM     35  C   UNL A   1      40.417  28.466  28.629  1.00  0.00     0.031 A 
ATOM     36  C   UNL A   1      40.588  27.040  28.303  1.00  0.00     0.074 A 
ATOM     37  C   UNL A   1      41.510  29.239  28.839  1.00  0.00     0.049 A 
ATOM     38  N   UNL A   1      41.536  26.307  28.778  1.00  0.00    -0.248 NA
ATOM     39  C   UNL A   1      39.650  26.308  27.463  1.00  0.00     0.031 C 
ATOM     40  C   UNL A   1      42.899  28.869  28.569  1.00  0.00     0.029 A 
ATOM     41  N   UNL A   1      41.606  30.477  29.496  1.00  0.00    -0.354 N 
ATOM     42  C   UNL A   1      41.484  25.095  28.131  1.00  0.00     0.074 A 
ATOM     43  C   UNL A   1      40.258  25.125  27.370  1.00  0.00     0.031 C 
ATOM     44  C   UNL A   1      43.715  29.673  29.265  1.00  0.00     0.029 A 
ATOM     45  C   UNL A   1      42.889  30.527  30.096  1.00  0.00     0.049 A 
ATOM     46  H   UNL A   1      40.913  31.176  29.534  1.00  0.00     0.167 HD
ATOM     47  C   UNL A   1      42.551  24.252  28.208  1.00  0.00     0.037 A 
ATOM     48  C   UNL A   1      43.067  30.746  31.432  1.00  0.00     0.037 A 
ATOM     49  C   UNL A   1      43.619  24.828  29.023  1.00  0.00     0.049 A 
ATOM     50  C   UNL A   1      43.729  29.594  32.147  1.00  0.00     0.074 A 
ATOM     51  C   UNL A   1      44.749  25.553  28.679  1.00  0.00     0.029 A 
ATOM     52  N   UNL A   1      43.443  25.001  30.392  1.00  0.00    -0.354 N 
ATOM     53  N   UNL A   1      43.897  28.419  31.611  1.00  0.00    -0.248 NA
ATOM     54  C   UNL A   1      44.166  29.643  33.540  1.00  0.00     0.031 C 
ATOM     55  C   UNL A   1      45.235  26.190  29.844  1.00  0.00     0.029 A 
ATOM     56  C   UNL A   1      44.412  25.846  30.903  1.00  0.00     0.049 A 
ATOM     57  H   UNL A   1      42.728  24.580  30.924  1.00  0.00     0.167 HD
ATOM     58  C   UNL A   1      44.339  27.545  32.567  1.00  0.00     0.074 A 
ATOM     59  C   UNL A   1      44.543  28.369  33.743  1.00  0.00     0.031 C 
ATOM     60  C   UNL A   1      44.443  26.207  32.314  1.00  0.00     0.037 A 
BRANCH  47  61
ATOM     61  C   UNL A   1      42.746  23.079  27.273  1.00  0.00     0.064 A 
ATOM     62  C   UNL A   1      42.052  21.869  27.480  1.00  0.00     0.173 A 
ATOM     63  C   UNL A   1      43.649  23.062  26.194  1.00  0.00     0.173 A 
ATOM     64  F   UNL A   1      41.064  21.772  28.378  1.00  0.00    -0.203 F 
ATOM     65  C   UNL A   1      42.348  20.704  26.766  1.00  0.00     0.198 A 
ATOM     66  C   UNL A   1      43.995  21.883  25.525  1.00  0.00     0.198 A 
ATOM     67  F   UNL A   1      44.183  24.193  25.715  1.00  0.00    -0.203 F 
ATOM     68  F   UNL A   1      41.662  19.581  27.015  1.00  0.00    -0.200 F 
ATOM     69  C   UNL A   1      43.354  20.700  25.822  1.00  0.00     0.200 A 
ATOM     70  F   UNL A   1      44.955  21.908  24.589  1.00  0.00    -0.200 F 
ATOM     71  F   UNL A   1      43.678  19.571  25.179  1.00  0.00    -0.200 F 
ENDBRANCH  47  61
BRANCH  48  72
ATOM     72  C   UNL A   1      41.994  31.596  32.009  1.00  0.00     0.064 A 
ATOM     73  C   UNL A   1      41.895  32.916  31.529  1.00  0.00     0.173 A 
ATOM     74  C   UNL A   1      40.854  31.013  32.572  1.00  0.00     0.173 A 
ATOM     75  F   UNL A   1      42.975  33.525  31.014  1.00  0.00    -0.203 F 
ATOM     76  C   UNL A   1      40.657  33.539  31.412  1.00  0.00     0.198 A 
ATOM     77  C   UNL A   1      39.622  31.657  32.484  1.00  0.00     0.198 A 
ATOM     78  F   UNL A   1      40.900  29.769  33.069  1.00  0.00    -0.203 F 
ATOM     79  F   UNL A   1      40.558  34.714  30.773  1.00  0.00    -0.200 F 
ATOM     80  C   UNL A   1      39.516  32.889  31.849  1.00  0.00     0.200 A 
ATOM     81  F   UNL A   1      38.515  31.032  32.909  1.00  0.00    -0.200 F 
ATOM     82  F   UNL A   1      38.312  33.424  31.611  1.00  0.00    -0.200 F 
ENDBRANCH  48  72
BRANCH  60  83
ATOM     83  C   UNL A   1      44.683  25.145  33.356  1.00  0.00     0.064 A 
ATOM     84  C   UNL A   1      45.909  24.481  33.533  1.00  0.00     0.173 A 
ATOM     85  C   UNL A   1      43.681  24.839  34.307  1.00  0.00     0.173 A 
ATOM     86  F   UNL A   1      46.982  24.789  32.791  1.00  0.00    -0.203 F 
ATOM     87  C   UNL A   1      46.088  23.511  34.522  1.00  0.00     0.198 A 
ATOM     88  C   UNL A   1      43.885  23.915  35.332  1.00  0.00     0.198 A 
ATOM     89  F   UNL A   1      42.484  25.443  34.282  1.00  0.00    -0.203 F 
ATOM     90  F   UNL A   1      47.257  22.861  34.608  1.00  0.00    -0.200 F 
ATOM     91  C   UNL A   1      45.079  23.232  35.424  1.00  0.00     0.200 A 
ATOM     92  F   UNL A   1      42.919  23.704  36.238  1.00  0.00    -0.200 F 
ATOM     93  F   UNL A   1      45.266  22.324  36.390  1.00  0.00    -0.200 F 
ENDBRANCH  60  83
ENDBRANCH  34  35
ENDBRANCH  26  29
ENDBRANCH  24  25
ENDBRANCH   1  24
TORSDOF 12
ENDMDL
MODEL 3
REMARK VINA RESULT:     -13.5      3.769      9.598
REMARK SMILES Cc1ccc(C(=O)NCCCNC(=O)c2ccc(-c3c4nc(c(-c5c(F)c(F)c(F)c(F)c5F)c5ccc([nH]5)c(-c5c(F)c(F)c(F)c(F)c5F)c5nc(c(-c6c(F)c(F)c(F)c(F)c6F)c6ccc3[nH]6)C=C5)C=C4)cc2)cc1NC(=O)c1ccc(Br)o1
REMARK SMILES IDX 10 1 9 2 8 3 6 4 7 5 5 7 1 8 2 9 3 10 79 11 4 12 78 13 80 14
REMARK SMILES IDX 81 15 82 17 83 18 84 19 88 20 85 21 86 22 87 23 11 24 12 25
REMARK SMILES IDX 13 26 14 28 15 29 16 30 77 31 17 32 76 33 18 34 19 35 20 36
REMARK SMILES IDX 70 37 21 38 75 39 69 40 71 41 22 42 74 43 68 44 67 45 23 47
REMARK SMILES IDX 55 48 35 49 54 50 36 51 39 52 53 53 72 54 37 55 38 56 52 58
REMARK SMILES IDX 73 59 40 60 24 61 25 62 33 63 26 64 27 65 31 66 34 67 28 68
REMARK SMILES IDX 29 69 32 70 30 71 56 72 57 73 65 74 58 75 59 76 63 77 66 78
REMARK SMILES IDX 60 79 61 80 64 81 62 82 41 83 42 84 50 85 43 86 44 87 48 88
REMARK SMILES IDX 51 89 45 90 46 91 49 92 47 93
REMARK H PARENT 8 6 80 16 12 27 71 46 39 57
REMARK Flexibility Score: inf
ROOT
ATOM      1  C   UNL A   1      39.207  21.262  25.737  1.00  0.00     0.042 C 
ENDROOT
BRANCH   1   2
ATOM      2  C   UNL A   1      37.857  21.868  25.441  1.00  0.00     0.118 C 
BRANCH   2   3
ATOM      3  N   UNL A   1      36.771  20.913  25.308  1.00  0.00    -0.352 N 
ATOM      4  C   UNL A   1      35.433  21.127  25.054  1.00  0.00     0.251 C 
ATOM      5  O   UNL A   1      34.686  20.150  24.976  1.00  0.00    -0.269 OA
ATOM      6  H   UNL A   1      37.029  19.969  25.417  1.00  0.00     0.163 HD
BRANCH   4   7
ATOM      7  C   UNL A   1      34.858  22.498  24.953  1.00  0.00     0.041 A 
ATOM      8  C   UNL A   1      33.762  26.665  24.828  1.00  0.00     0.046 C 
ATOM      9  C   UNL A   1      34.098  25.194  24.785  1.00  0.00    -0.027 A 
ATOM     10  C   UNL A   1      34.463  24.619  26.020  1.00  0.00     0.006 A 
ATOM     11  C   UNL A   1      34.066  24.387  23.623  1.00  0.00     0.045 A 
ATOM     12  C   UNL A   1      34.874  23.292  26.098  1.00  0.00     0.014 A 
ATOM     13  C   UNL A   1      34.346  23.030  23.760  1.00  0.00     0.040 A 
BRANCH  11  14
ATOM     14  N   UNL A   1      33.837  25.006  22.381  1.00  0.00    -0.319 N 
ATOM     15  C   UNL A   1      32.782  25.573  21.706  1.00  0.00     0.291 C 
ATOM     16  H   UNL A   1      34.661  25.043  21.845  1.00  0.00     0.170 HD
ATOM     17  O   UNL A   1      32.997  25.738  20.499  1.00  0.00    -0.265 OA
BRANCH  15  18
ATOM     18  C   UNL A   1      31.505  25.939  22.268  1.00  0.00     0.193 A 
ATOM     19  C   UNL A   1      30.688  25.401  23.250  1.00  0.00     0.057 A 
ATOM     20  O   UNL A   1      31.063  27.203  21.973  1.00  0.00    -0.444 OA
ATOM     21  C   UNL A   1      29.730  26.401  23.584  1.00  0.00     0.059 A 
ATOM     22  C   UNL A   1      30.034  27.494  22.804  1.00  0.00     0.170 A 
ATOM     23  Br  UNL A   1      29.234  29.173  22.891  1.00  0.00    -0.008 Br
ENDBRANCH  15  18
ENDBRANCH  11  14
ENDBRANCH   4   7
ENDBRANCH   2   3
ENDBRANCH   1   2
BRANCH   1  24
ATOM     24  C   UNL A   1      39.881  21.842  26.964  1.00  0.00     0.118 C 
BRANCH  24  25
ATOM     25  N   UNL A   1      41.173  22.485  26.696  1.00  0.00    -0.352 N 
ATOM     26  C   UNL A   1      41.500  23.826  26.543  1.00  0.00     0.251 C 
ATOM     27  H   UNL A   1      41.933  21.864  26.611  1.00  0.00     0.163 HD
ATOM     28  O   UNL A   1      42.666  24.197  26.497  1.00  0.00    -0.269 OA
BRANCH  26  29
ATOM     29  C   UNL A   1      40.418  24.827  26.607  1.00  0.00     0.039 A 
ATOM     30  C   UNL A   1      40.767  26.081  26.101  1.00  0.00     0.014 A 
ATOM     31  C   UNL A   1      39.470  24.685  27.608  1.00  0.00     0.014 A 
ATOM     32  C   UNL A   1      40.494  27.196  26.875  1.00  0.00     0.010 A 
ATOM     33  C   UNL A   1      39.292  25.775  28.434  1.00  0.00     0.010 A 
ATOM     34  C   UNL A   1      39.898  27.001  28.119  1.00  0.00    -0.014 A 
BRANCH  34  35
ATOM     35  C   UNL A   1      39.946  28.007  29.170  1.00  0.00     0.031 A 
ATOM     36  C   UNL A   1      38.955  29.095  29.126  1.00  0.00     0.074 A 
ATOM     37  C   UNL A   1      40.885  27.998  30.146  1.00  0.00     0.049 A 
ATOM     38  N   UNL A   1      39.210  30.309  29.473  1.00  0.00    -0.248 NA
ATOM     39  C   UNL A   1      37.604  28.908  28.614  1.00  0.00     0.031 C 
ATOM     40  C   UNL A   1      40.913  28.856  31.331  1.00  0.00     0.029 A 
ATOM     41  N   UNL A   1      42.110  27.313  30.190  1.00  0.00    -0.354 N 
ATOM     42  C   UNL A   1      38.022  31.000  29.466  1.00  0.00     0.074 A 
ATOM     43  C   UNL A   1      37.065  30.101  28.865  1.00  0.00     0.031 C 
ATOM     44  C   UNL A   1      42.155  28.873  31.836  1.00  0.00     0.029 A 
ATOM     45  C   UNL A   1      43.006  28.115  30.941  1.00  0.00     0.049 A 
ATOM     46  H   UNL A   1      42.309  26.441  29.778  1.00  0.00     0.167 HD
ATOM     47  C   UNL A   1      37.949  32.209  30.090  1.00  0.00     0.037 A 
ATOM     48  C   UNL A   1      44.208  28.531  30.447  1.00  0.00     0.037 A 
ATOM     49  C   UNL A   1      39.234  32.572  30.683  1.00  0.00     0.049 A 
ATOM     50  C   UNL A   1      44.324  30.031  30.332  1.00  0.00     0.074 A 
ATOM     51  C   UNL A   1      39.734  32.411  31.966  1.00  0.00     0.029 A 
ATOM     52  N   UNL A   1      40.324  32.869  29.871  1.00  0.00    -0.354 N 
ATOM     53  N   UNL A   1      43.311  30.841  30.457  1.00  0.00    -0.248 NA
ATOM     54  C   UNL A   1      45.558  30.728  29.978  1.00  0.00     0.031 C 
ATOM     55  C   UNL A   1      41.137  32.580  31.916  1.00  0.00     0.029 A 
ATOM     56  C   UNL A   1      41.496  32.858  30.608  1.00  0.00     0.049 A 
ATOM     57  H   UNL A   1      40.270  33.060  28.906  1.00  0.00     0.167 HD
ATOM     58  C   UNL A   1      43.697  32.106  30.105  1.00  0.00     0.074 A 
ATOM     59  C   UNL A   1      45.123  31.995  29.865  1.00  0.00     0.031 C 
ATOM     60  C   UNL A   1      42.789  33.119  29.990  1.00  0.00     0.037 A 
BRANCH  47  61
ATOM     61  C   UNL A   1      36.640  32.878  30.444  1.00  0.00     0.064 A 
ATOM     62  C   UNL A   1      35.919  33.611  29.478  1.00  0.00     0.173 A 
ATOM     63  C   UNL A   1      36.074  32.890  31.733  1.00  0.00     0.173 A 
ATOM     64  F   UNL A   1      36.255  33.582  28.183  1.00  0.00    -0.203 F 
ATOM     65  C   UNL A   1      34.817  34.404  29.808  1.00  0.00     0.198 A 
ATOM     66  C   UNL A   1      35.014  33.735  32.078  1.00  0.00     0.198 A 
ATOM     67  F   UNL A   1      36.489  32.042  32.683  1.00  0.00    -0.203 F 
ATOM     68  F   UNL A   1      34.180  35.087  28.847  1.00  0.00    -0.200 F 
ATOM     69  C   UNL A   1      34.395  34.504  31.117  1.00  0.00     0.200 A 
ATOM     70  F   UNL A   1      34.599  33.793  33.352  1.00  0.00    -0.200 F 
ATOM     71  F   UNL A   1      33.376  35.310  31.443  1.00  0.00    -0.200 F 
ENDBRANCH  47  61
BRANCH  48  72
ATOM     72  C   UNL A   1      44.785  27.561  29.480  1.00  0.00     0.064 A 
ATOM     73  C   UNL A   1      44.608  27.840  28.112  1.00  0.00     0.173 A 
ATOM     74  C   UNL A   1      45.856  26.742  29.853  1.00  0.00     0.173 A 
ATOM     75  F   UNL A   1      43.571  28.593  27.710  1.00  0.00    -0.203 F 
ATOM     76  C   UNL A   1      45.587  27.501  27.184  1.00  0.00     0.198 A 
ATOM     77  C   UNL A   1      46.816  26.376  28.912  1.00  0.00     0.198 A 
ATOM     78  F   UNL A   1      46.054  26.423  31.139  1.00  0.00    -0.203 F 
ATOM     79  F   UNL A   1      45.495  27.946  25.923  1.00  0.00    -0.200 F 
ATOM     80  C   UNL A   1      46.712  26.807  27.596  1.00  0.00     0.200 A 
ATOM     81  F   UNL A   1      47.905  25.700  29.306  1.00  0.00    -0.200 F 
ATOM     82  F   UNL A   1      47.718  26.603  26.736  1.00  0.00    -0.200 F 
ENDBRANCH  48  72
BRANCH  60  83
ATOM     83  C   UNL A   1      43.070  34.469  29.382  1.00  0.00     0.064 A 
ATOM     84  C   UNL A   1      43.146  35.663  30.120  1.00  0.00     0.173 A 
ATOM     85  C   UNL A   1      43.392  34.580  28.009  1.00  0.00     0.173 A 
ATOM     86  F   UNL A   1      43.009  35.668  31.454  1.00  0.00    -0.203 F 
ATOM     87  C   UNL A   1      43.424  36.891  29.514  1.00  0.00     0.198 A 
ATOM     88  C   UNL A   1      43.730  35.798  27.420  1.00  0.00     0.198 A 
ATOM     89  F   UNL A   1      43.410  33.507  27.205  1.00  0.00    -0.203 F 
ATOM     90  F   UNL A   1      43.421  38.009  30.253  1.00  0.00    -0.200 F 
ATOM     91  C   UNL A   1      43.720  36.958  28.166  1.00  0.00     0.200 A 
ATOM     92  F   UNL A   1      44.079  35.837  26.125  1.00  0.00    -0.200 F 
ATOM     93  F   UNL A   1      44.017  38.133  27.596  1.00  0.00    -0.200 F 
ENDBRANCH  60  83
ENDBRANCH  34  35
ENDBRANCH  26  29
ENDBRANCH  24  25
ENDBRANCH   1  24
TORSDOF 12
ENDMDL
