MODEL 1
REMARK VINA RESULT:     -13.4      0.000      0.000
REMARK SMILES Cc1ccc(NC(=O)N[C@@H](C(=O)NCCCNC(=O)c2ccc(-c3c4nc(c(-c5c(F)c(F)c(F)c(F)c5F)c5ccc([nH]5)c(-c5c(F)c(F)c(F)c(F)c5F)c5nc(c(-c6c(F)c(F)c(F)c(F)c6F)c6ccc3[nH]6)C=C5)C=C4)cc2)C(C)C)cc1
REMARK SMILES IDX 15 1 14 2 13 3 11 4 12 5 10 7 9 8 6 9 7 10 8 12 5 14 1 15
REMARK SMILES IDX 2 16 3 17 87 18 4 19 86 20 83 21 84 22 85 23 16 24 17 25
REMARK SMILES IDX 18 26 19 28 20 29 21 30 82 31 22 32 81 33 23 34 24 35 25 36
REMARK SMILES IDX 75 37 26 38 80 39 74 40 76 41 27 42 79 43 73 44 72 45 28 47
REMARK SMILES IDX 60 48 40 49 59 50 41 51 44 52 58 53 77 54 42 55 43 56 57 58
REMARK SMILES IDX 78 59 45 60 29 61 30 62 38 63 31 64 32 65 36 66 39 67 33 68
REMARK SMILES IDX 34 69 37 70 35 71 61 72 62 73 70 74 63 75 64 76 68 77 71 78
REMARK SMILES IDX 65 79 66 80 69 81 67 82 46 83 47 84 55 85 48 86 49 87 53 88
REMARK SMILES IDX 56 89 50 90 51 91 54 92 52 93
REMARK H PARENT 13 6 6 11 9 13 17 27 76 46 44 57
REMARK Flexibility Score: inf
ROOT
ATOM      1  C   UNL A   1      32.350  30.852  26.688  1.00  0.00     0.042 C 
ENDROOT
BRANCH   1   2
ATOM      2  C   UNL A   1      32.034  29.830  25.604  1.00  0.00     0.117 C 
BRANCH   2   3
ATOM      3  N   UNL A   1      33.065  29.726  24.574  1.00  0.00    -0.354 N 
ATOM      4  C   UNL A   1      33.264  28.822  23.558  1.00  0.00     0.242 C 
ATOM      5  O   UNL A   1      34.189  29.079  22.782  1.00  0.00    -0.273 OA
ATOM      6  H   UNL A   1      33.746  30.436  24.616  1.00  0.00     0.163 HD
BRANCH   4   7
ATOM      7  C   UNL A   1      32.288  27.633  23.304  1.00  0.00     0.175 C 
BRANCH   7   8
ATOM      8  N   UNL A   1      32.581  27.056  22.006  1.00  0.00    -0.326 N 
ATOM      9  N   UNL A   1      33.079  24.731  22.306  1.00  0.00    -0.308 N 
ATOM     10  C   UNL A   1      32.917  25.842  21.574  1.00  0.00     0.319 C 
ATOM     11  H   UNL A   1      33.139  23.950  21.710  1.00  0.00     0.171 HD
ATOM     12  O   UNL A   1      33.046  25.725  20.348  1.00  0.00    -0.248 OA
ATOM     13  H   UNL A   1      32.516  27.714  21.276  1.00  0.00     0.166 HD
BRANCH   9  14
ATOM     14  C   UNL A   1      33.194  24.310  23.646  1.00  0.00     0.042 A 
ATOM     15  C   UNL A   1      34.083  22.739  27.578  1.00  0.00     0.044 C 
ATOM     16  C   UNL A   1      33.759  23.384  26.267  1.00  0.00    -0.051 A 
ATOM     17  C   UNL A   1      32.487  23.250  25.726  1.00  0.00     0.005 A 
ATOM     18  C   UNL A   1      34.729  24.065  25.529  1.00  0.00     0.005 A 
ATOM     19  C   UNL A   1      32.208  23.746  24.452  1.00  0.00     0.026 A 
ATOM     20  C   UNL A   1      34.442  24.532  24.241  1.00  0.00     0.026 A 
ENDBRANCH   9  14
ENDBRANCH   7   8
BRANCH   7  21
ATOM     21  C   UNL A   1      30.792  28.005  23.497  1.00  0.00     0.015 C 
ATOM     22  C   UNL A   1      30.207  28.765  22.299  1.00  0.00     0.010 C 
ATOM     23  C   UNL A   1      29.966  26.718  23.689  1.00  0.00     0.010 C 
ENDBRANCH   7  21
ENDBRANCH   4   7
ENDBRANCH   2   3
ENDBRANCH   1   2
BRANCH   1  24
ATOM     24  C   UNL A   1      33.440  30.363  27.622  1.00  0.00     0.118 C 
BRANCH  24  25
ATOM     25  N   UNL A   1      34.159  31.416  28.337  1.00  0.00    -0.352 N 
ATOM     26  C   UNL A   1      35.374  31.350  28.997  1.00  0.00     0.251 C 
ATOM     27  H   UNL A   1      33.716  32.295  28.352  1.00  0.00     0.163 HD
ATOM     28  O   UNL A   1      35.790  32.315  29.632  1.00  0.00    -0.269 OA
BRANCH  26  29
ATOM     29  C   UNL A   1      36.240  30.161  28.806  1.00  0.00     0.039 A 
ATOM     30  C   UNL A   1      36.623  29.439  29.942  1.00  0.00     0.014 A 
ATOM     31  C   UNL A   1      36.881  29.947  27.591  1.00  0.00     0.014 A 
ATOM     32  C   UNL A   1      37.822  28.732  29.922  1.00  0.00     0.010 A 
ATOM     33  C   UNL A   1      38.134  29.376  27.609  1.00  0.00     0.010 A 
ATOM     34  C   UNL A   1      38.632  28.825  28.792  1.00  0.00    -0.014 A 
BRANCH  34  35
ATOM     35  C   UNL A   1      40.045  28.471  28.790  1.00  0.00     0.031 A 
ATOM     36  C   UNL A   1      40.467  27.118  28.381  1.00  0.00     0.074 A 
ATOM     37  C   UNL A   1      40.970  29.417  29.066  1.00  0.00     0.049 A 
ATOM     38  N   UNL A   1      41.553  26.545  28.779  1.00  0.00    -0.248 NA
ATOM     39  C   UNL A   1      39.666  26.281  27.498  1.00  0.00     0.031 C 
ATOM     40  C   UNL A   1      42.415  29.327  28.865  1.00  0.00     0.029 A 
ATOM     41  N   UNL A   1      40.792  30.618  29.773  1.00  0.00    -0.354 N 
ATOM     42  C   UNL A   1      41.737  25.420  28.008  1.00  0.00     0.074 A 
ATOM     43  C   UNL A   1      40.503  25.264  27.274  1.00  0.00     0.031 C 
ATOM     44  C   UNL A   1      43.019  30.220  29.667  1.00  0.00     0.029 A 
ATOM     45  C   UNL A   1      41.988  30.811  30.503  1.00  0.00     0.049 A 
ATOM     46  H   UNL A   1      39.999  31.203  29.763  1.00  0.00     0.167 HD
ATOM     47  C   UNL A   1      42.970  24.833  27.969  1.00  0.00     0.037 A 
ATOM     48  C   UNL A   1      41.995  30.818  31.867  1.00  0.00     0.037 A 
ATOM     49  C   UNL A   1      43.905  25.521  28.855  1.00  0.00     0.049 A 
ATOM     50  C   UNL A   1      42.864  29.745  32.479  1.00  0.00     0.074 A 
ATOM     51  C   UNL A   1      44.874  26.483  28.618  1.00  0.00     0.029 A 
ATOM     52  N   UNL A   1      43.705  25.497  30.232  1.00  0.00    -0.354 N 
ATOM     53  N   UNL A   1      43.268  28.686  31.836  1.00  0.00    -0.248 NA
ATOM     54  C   UNL A   1      43.301  29.755  33.872  1.00  0.00     0.031 C 
ATOM     55  C   UNL A   1      45.223  27.073  29.854  1.00  0.00     0.029 A 
ATOM     56  C   UNL A   1      44.480  26.461  30.849  1.00  0.00     0.049 A 
ATOM     57  H   UNL A   1      43.096  24.882  30.701  1.00  0.00     0.167 HD
ATOM     58  C   UNL A   1      43.959  27.869  32.691  1.00  0.00     0.074 A 
ATOM     59  C   UNL A   1      43.975  28.594  33.949  1.00  0.00     0.031 C 
ATOM     60  C   UNL A   1      44.441  26.655  32.290  1.00  0.00     0.037 A 
BRANCH  47  61
ATOM     61  C   UNL A   1      43.402  23.863  26.886  1.00  0.00     0.064 A 
ATOM     62  C   UNL A   1      43.002  22.509  26.924  1.00  0.00     0.173 A 
ATOM     63  C   UNL A   1      44.263  24.186  25.822  1.00  0.00     0.173 A 
ATOM     64  F   UNL A   1      42.075  22.075  27.786  1.00  0.00    -0.203 F 
ATOM     65  C   UNL A   1      43.538  21.541  26.070  1.00  0.00     0.198 A 
ATOM     66  C   UNL A   1      44.846  23.210  25.004  1.00  0.00     0.198 A 
ATOM     67  F   UNL A   1      44.523  25.459  25.500  1.00  0.00    -0.203 F 
ATOM     68  F   UNL A   1      43.128  20.268  26.169  1.00  0.00    -0.200 F 
ATOM     69  C   UNL A   1      44.495  21.884  25.140  1.00  0.00     0.200 A 
ATOM     70  F   UNL A   1      45.749  23.570  24.081  1.00  0.00    -0.200 F 
ATOM     71  F   UNL A   1      45.050  20.949  24.358  1.00  0.00    -0.200 F 
ENDBRANCH  47  61
BRANCH  48  72
ATOM     72  C   UNL A   1      40.721  31.314  32.454  1.00  0.00     0.064 A 
ATOM     73  C   UNL A   1      40.433  32.690  32.358  1.00  0.00     0.173 A 
ATOM     74  C   UNL A   1      39.660  30.450  32.741  1.00  0.00     0.173 A 
ATOM     75  F   UNL A   1      41.416  33.563  32.082  1.00  0.00    -0.203 F 
ATOM     76  C   UNL A   1      39.125  33.163  32.420  1.00  0.00     0.198 A 
ATOM     77  C   UNL A   1      38.351  30.929  32.820  1.00  0.00     0.198 A 
ATOM     78  F   UNL A   1      39.866  29.127  32.826  1.00  0.00    -0.203 F 
ATOM     79  F   UNL A   1      38.872  34.461  32.204  1.00  0.00    -0.200 F 
ATOM     80  C   UNL A   1      38.081  32.276  32.624  1.00  0.00     0.200 A 
ATOM     81  F   UNL A   1      37.336  30.069  32.989  1.00  0.00    -0.200 F 
ATOM     82  F   UNL A   1      36.814  32.711  32.589  1.00  0.00    -0.200 F 
ENDBRANCH  48  72
BRANCH  60  83
ATOM     83  C   UNL A   1      45.006  25.582  33.188  1.00  0.00     0.064 A 
ATOM     84  C   UNL A   1      46.366  25.232  33.233  1.00  0.00     0.173 A 
ATOM     85  C   UNL A   1      44.184  24.957  34.158  1.00  0.00     0.173 A 
ATOM     86  F   UNL A   1      47.268  25.839  32.451  1.00  0.00    -0.203 F 
ATOM     87  C   UNL A   1      46.855  24.282  34.135  1.00  0.00     0.198 A 
ATOM     88  C   UNL A   1      44.686  24.055  35.095  1.00  0.00     0.198 A 
ATOM     89  F   UNL A   1      42.873  25.225  34.243  1.00  0.00    -0.203 F 
ATOM     90  F   UNL A   1      48.153  23.951  34.109  1.00  0.00    -0.200 F 
ATOM     91  C   UNL A   1      46.019  23.704  35.072  1.00  0.00     0.200 A 
ATOM     92  F   UNL A   1      43.874  23.545  36.031  1.00  0.00    -0.200 F 
ATOM     93  F   UNL A   1      46.502  22.828  35.963  1.00  0.00    -0.200 F 
ENDBRANCH  60  83
ENDBRANCH  34  35
ENDBRANCH  26  29
ENDBRANCH  24  25
ENDBRANCH   1  24
TORSDOF 13
ENDMDL
MODEL 2
REMARK VINA RESULT:     -13.3      1.780      3.251
REMARK SMILES Cc1ccc(NC(=O)N[C@@H](C(=O)NCCCNC(=O)c2ccc(-c3c4nc(c(-c5c(F)c(F)c(F)c(F)c5F)c5ccc([nH]5)c(-c5c(F)c(F)c(F)c(F)c5F)c5nc(c(-c6c(F)c(F)c(F)c(F)c6F)c6ccc3[nH]6)C=C5)C=C4)cc2)C(C)C)cc1
REMARK SMILES IDX 15 1 14 2 13 3 11 4 12 5 10 7 9 8 6 9 7 10 8 12 5 14 1 15
REMARK SMILES IDX 2 16 3 17 87 18 4 19 86 20 83 21 84 22 85 23 16 24 17 25
REMARK SMILES IDX 18 26 19 28 20 29 21 30 82 31 22 32 81 33 23 34 24 35 25 36
REMARK SMILES IDX 75 37 26 38 80 39 74 40 76 41 27 42 79 43 73 44 72 45 28 47
REMARK SMILES IDX 60 48 40 49 59 50 41 51 44 52 58 53 77 54 42 55 43 56 57 58
REMARK SMILES IDX 78 59 45 60 29 61 30 62 38 63 31 64 32 65 36 66 39 67 33 68
REMARK SMILES IDX 34 69 37 70 35 71 61 72 62 73 70 74 63 75 64 76 68 77 71 78
REMARK SMILES IDX 65 79 66 80 69 81 67 82 46 83 47 84 55 85 48 86 49 87 53 88
REMARK SMILES IDX 56 89 50 90 51 91 54 92 52 93
REMARK H PARENT 13 6 6 11 9 13 17 27 76 46 44 57
REMARK Flexibility Score: inf
ROOT
ATOM      1  C   UNL A   1      33.125  31.529  27.260  1.00  0.00     0.042 C 
ENDROOT
BRANCH   1   2
ATOM      2  C   UNL A   1      32.278  30.586  26.416  1.00  0.00     0.117 C 
BRANCH   2   3
ATOM      3  N   UNL A   1      31.748  29.445  27.160  1.00  0.00    -0.354 N 
ATOM      4  C   UNL A   1      31.596  28.121  26.828  1.00  0.00     0.242 C 
ATOM      5  O   UNL A   1      31.204  27.380  27.735  1.00  0.00    -0.273 OA
ATOM      6  H   UNL A   1      31.442  29.668  28.069  1.00  0.00     0.163 HD
BRANCH   4   7
ATOM      7  C   UNL A   1      32.038  27.557  25.444  1.00  0.00     0.175 C 
BRANCH   7   8
ATOM      8  N   UNL A   1      31.439  26.250  25.256  1.00  0.00    -0.326 N 
ATOM      9  N   UNL A   1      29.815  26.405  23.500  1.00  0.00    -0.308 N 
ATOM     10  C   UNL A   1      30.504  25.753  24.448  1.00  0.00     0.319 C 
ATOM     11  H   UNL A   1      29.336  25.755  22.938  1.00  0.00     0.171 HD
ATOM     12  O   UNL A   1      30.287  24.539  24.560  1.00  0.00    -0.248 OA
ATOM     13  H   UNL A   1      31.809  25.573  25.869  1.00  0.00     0.166 HD
BRANCH   9  14
ATOM     14  C   UNL A   1      29.549  27.711  23.044  1.00  0.00     0.042 A 
ATOM     15  C   UNL A   1      28.236  31.465  21.341  1.00  0.00     0.044 C 
ATOM     16  C   UNL A   1      28.696  30.220  22.031  1.00  0.00    -0.051 A 
ATOM     17  C   UNL A   1      30.031  29.845  21.966  1.00  0.00     0.005 A 
ATOM     18  C   UNL A   1      27.798  29.375  22.687  1.00  0.00     0.005 A 
ATOM     19  C   UNL A   1      30.448  28.627  22.504  1.00  0.00     0.026 A 
ATOM     20  C   UNL A   1      28.226  28.143  23.196  1.00  0.00     0.026 A 
ENDBRANCH   9  14
ENDBRANCH   7   8
BRANCH   7  21
ATOM     21  C   UNL A   1      33.576  27.573  25.229  1.00  0.00     0.015 C 
ATOM     22  C   UNL A   1      34.234  26.218  25.524  1.00  0.00     0.010 C 
ATOM     23  C   UNL A   1      33.885  27.939  23.764  1.00  0.00     0.010 C 
ENDBRANCH   7  21
ENDBRANCH   4   7
ENDBRANCH   2   3
ENDBRANCH   1   2
BRANCH   1  24
ATOM     24  C   UNL A   1      34.346  30.832  27.828  1.00  0.00     0.118 C 
BRANCH  24  25
ATOM     25  N   UNL A   1      35.238  31.688  28.609  1.00  0.00    -0.352 N 
ATOM     26  C   UNL A   1      36.433  31.365  29.231  1.00  0.00     0.251 C 
ATOM     27  H   UNL A   1      34.949  32.623  28.707  1.00  0.00     0.163 HD
ATOM     28  O   UNL A   1      37.011  32.191  29.933  1.00  0.00    -0.269 OA
BRANCH  26  29
ATOM     29  C   UNL A   1      37.086  30.070  28.922  1.00  0.00     0.039 A 
ATOM     30  C   UNL A   1      37.333  29.191  29.982  1.00  0.00     0.014 A 
ATOM     31  C   UNL A   1      37.690  29.866  27.687  1.00  0.00     0.014 A 
ATOM     32  C   UNL A   1      38.395  28.296  29.885  1.00  0.00     0.010 A 
ATOM     33  C   UNL A   1      38.828  29.092  27.639  1.00  0.00     0.010 A 
ATOM     34  C   UNL A   1      39.217  28.356  28.761  1.00  0.00    -0.014 A 
BRANCH  34  35
ATOM     35  C   UNL A   1      40.549  27.770  28.713  1.00  0.00     0.031 A 
ATOM     36  C   UNL A   1      40.715  26.334  28.419  1.00  0.00     0.074 A 
ATOM     37  C   UNL A   1      41.634  28.567  28.839  1.00  0.00     0.049 A 
ATOM     38  N   UNL A   1      41.719  25.624  28.810  1.00  0.00    -0.248 NA
ATOM     39  C   UNL A   1      39.726  25.568  27.673  1.00  0.00     0.031 C 
ATOM     40  C   UNL A   1      43.027  28.217  28.565  1.00  0.00     0.029 A 
ATOM     41  N   UNL A   1      41.706  29.840  29.430  1.00  0.00    -0.354 N 
ATOM     42  C   UNL A   1      41.661  24.419  28.148  1.00  0.00     0.074 A 
ATOM     43  C   UNL A   1      40.367  24.408  27.505  1.00  0.00     0.031 C 
ATOM     44  C   UNL A   1      43.825  29.063  29.236  1.00  0.00     0.029 A 
ATOM     45  C   UNL A   1      42.968  29.893  30.066  1.00  0.00     0.049 A 
ATOM     46  H   UNL A   1      41.021  30.546  29.406  1.00  0.00     0.167 HD
ATOM     47  C   UNL A   1      42.775  23.631  28.097  1.00  0.00     0.037 A 
ATOM     48  C   UNL A   1      43.076  30.021  31.420  1.00  0.00     0.037 A 
ATOM     49  C   UNL A   1      43.873  24.228  28.854  1.00  0.00     0.049 A 
ATOM     50  C   UNL A   1      43.802  28.876  32.086  1.00  0.00     0.074 A 
ATOM     51  C   UNL A   1      44.965  24.987  28.465  1.00  0.00     0.029 A 
ATOM     52  N   UNL A   1      43.773  24.363  30.235  1.00  0.00    -0.354 N 
ATOM     53  N   UNL A   1      43.980  27.711  31.531  1.00  0.00    -0.248 NA
ATOM     54  C   UNL A   1      44.337  28.937  33.443  1.00  0.00     0.031 C 
ATOM     55  C   UNL A   1      45.496  25.618  29.613  1.00  0.00     0.029 A 
ATOM     56  C   UNL A   1      44.738  25.234  30.706  1.00  0.00     0.049 A 
ATOM     57  H   UNL A   1      43.109  23.904  30.798  1.00  0.00     0.167 HD
ATOM     58  C   UNL A   1      44.590  26.869  32.423  1.00  0.00     0.074 A 
ATOM     59  C   UNL A   1      44.816  27.691  33.598  1.00  0.00     0.031 C 
ATOM     60  C   UNL A   1      44.837  25.560  32.119  1.00  0.00     0.037 A 
BRANCH  47  61
ATOM     61  C   UNL A   1      42.964  22.508  27.094  1.00  0.00     0.064 A 
ATOM     62  C   UNL A   1      42.255  21.293  27.226  1.00  0.00     0.173 A 
ATOM     63  C   UNL A   1      43.873  22.539  26.022  1.00  0.00     0.173 A 
ATOM     64  F   UNL A   1      41.255  21.155  28.104  1.00  0.00    -0.203 F 
ATOM     65  C   UNL A   1      42.545  20.165  26.453  1.00  0.00     0.198 A 
ATOM     66  C   UNL A   1      44.206  21.395  25.286  1.00  0.00     0.198 A 
ATOM     67  F   UNL A   1      44.424  23.688  25.611  1.00  0.00    -0.203 F 
ATOM     68  F   UNL A   1      41.847  19.036  26.639  1.00  0.00    -0.200 F 
ATOM     69  C   UNL A   1      43.553  20.203  25.514  1.00  0.00     0.200 A 
ATOM     70  F   UNL A   1      45.165  21.463  24.352  1.00  0.00    -0.200 F 
ATOM     71  F   UNL A   1      43.869  19.108  24.811  1.00  0.00    -0.200 F 
ENDBRANCH  47  61
BRANCH  48  72
ATOM     72  C   UNL A   1      41.947  30.776  32.026  1.00  0.00     0.064 A 
ATOM     73  C   UNL A   1      41.964  32.183  31.945  1.00  0.00     0.173 A 
ATOM     74  C   UNL A   1      40.727  30.160  32.319  1.00  0.00     0.173 A 
ATOM     75  F   UNL A   1      43.111  32.824  31.664  1.00  0.00    -0.203 F 
ATOM     76  C   UNL A   1      40.791  32.928  32.027  1.00  0.00     0.198 A 
ATOM     77  C   UNL A   1      39.554  30.911  32.418  1.00  0.00     0.198 A 
ATOM     78  F   UNL A   1      40.641  28.823  32.391  1.00  0.00    -0.203 F 
ATOM     79  F   UNL A   1      40.824  34.252  31.824  1.00  0.00    -0.200 F 
ATOM     80  C   UNL A   1      39.582  32.287  32.236  1.00  0.00     0.200 A 
ATOM     81  F   UNL A   1      38.378  30.291  32.591  1.00  0.00    -0.200 F 
ATOM     82  F   UNL A   1      38.439  32.988  32.220  1.00  0.00    -0.200 F 
ENDBRANCH  48  72
BRANCH  60  83
ATOM     83  C   UNL A   1      45.286  24.492  33.087  1.00  0.00     0.064 A 
ATOM     84  C   UNL A   1      44.510  23.375  33.438  1.00  0.00     0.173 A 
ATOM     85  C   UNL A   1      46.610  24.497  33.591  1.00  0.00     0.173 A 
ATOM     86  F   UNL A   1      43.285  23.190  32.930  1.00  0.00    -0.203 F 
ATOM     87  C   UNL A   1      44.998  22.373  34.283  1.00  0.00     0.198 A 
ATOM     88  C   UNL A   1      47.112  23.466  34.384  1.00  0.00     0.198 A 
ATOM     89  F   UNL A   1      47.464  25.491  33.307  1.00  0.00    -0.203 F 
ATOM     90  F   UNL A   1      44.202  21.349  34.623  1.00  0.00    -0.200 F 
ATOM     91  C   UNL A   1      46.300  22.412  34.745  1.00  0.00     0.200 A 
ATOM     92  F   UNL A   1      48.392  23.492  34.778  1.00  0.00    -0.200 F 
ATOM     93  F   UNL A   1      46.776  21.426  35.517  1.00  0.00    -0.200 F 
ENDBRANCH  60  83
ENDBRANCH  34  35
ENDBRANCH  26  29
ENDBRANCH  24  25
ENDBRANCH   1  24
TORSDOF 13
ENDMDL
MODEL 3
REMARK VINA RESULT:     -13.2      0.551      1.699
REMARK SMILES Cc1ccc(NC(=O)N[C@@H](C(=O)NCCCNC(=O)c2ccc(-c3c4nc(c(-c5c(F)c(F)c(F)c(F)c5F)c5ccc([nH]5)c(-c5c(F)c(F)c(F)c(F)c5F)c5nc(c(-c6c(F)c(F)c(F)c(F)c6F)c6ccc3[nH]6)C=C5)C=C4)cc2)C(C)C)cc1
REMARK SMILES IDX 15 1 14 2 13 3 11 4 12 5 10 7 9 8 6 9 7 10 8 12 5 14 1 15
REMARK SMILES IDX 2 16 3 17 87 18 4 19 86 20 83 21 84 22 85 23 16 24 17 25
REMARK SMILES IDX 18 26 19 28 20 29 21 30 82 31 22 32 81 33 23 34 24 35 25 36
REMARK SMILES IDX 75 37 26 38 80 39 74 40 76 41 27 42 79 43 73 44 72 45 28 47
REMARK SMILES IDX 60 48 40 49 59 50 41 51 44 52 58 53 77 54 42 55 43 56 57 58
REMARK SMILES IDX 78 59 45 60 29 61 30 62 38 63 31 64 32 65 36 66 39 67 33 68
REMARK SMILES IDX 34 69 37 70 35 71 61 72 62 73 70 74 63 75 64 76 68 77 71 78
REMARK SMILES IDX 65 79 66 80 69 81 67 82 46 83 47 84 55 85 48 86 49 87 53 88
REMARK SMILES IDX 56 89 50 90 51 91 54 92 52 93
REMARK H PARENT 13 6 6 11 9 13 17 27 76 46 44 57
REMARK Flexibility Score: inf
ROOT
ATOM      1  C   UNL A   1      32.344  30.919  26.562  1.00  0.00     0.042 C 
ENDROOT
BRANCH   1   2
ATOM      2  C   UNL A   1      32.074  29.808  25.556  1.00  0.00     0.117 C 
BRANCH   2   3
ATOM      3  N   UNL A   1      33.128  29.647  24.558  1.00  0.00    -0.354 N 
ATOM      4  C   UNL A   1      33.299  28.744  23.537  1.00  0.00     0.242 C 
ATOM      5  O   UNL A   1      34.264  28.947  22.794  1.00  0.00    -0.273 OA
ATOM      6  H   UNL A   1      33.853  30.310  24.631  1.00  0.00     0.163 HD
BRANCH   4   7
ATOM      7  C   UNL A   1      32.256  27.626  23.236  1.00  0.00     0.175 C 
BRANCH   7   8
ATOM      8  N   UNL A   1      32.545  27.053  21.935  1.00  0.00    -0.326 N 
ATOM      9  N   UNL A   1      33.084  24.737  22.229  1.00  0.00    -0.308 N 
ATOM     10  C   UNL A   1      32.896  25.845  21.499  1.00  0.00     0.319 C 
ATOM     11  H   UNL A   1      33.151  23.957  21.632  1.00  0.00     0.171 HD
ATOM     12  O   UNL A   1      33.014  25.730  20.271  1.00  0.00    -0.248 OA
ATOM     13  H   UNL A   1      32.462  27.710  21.206  1.00  0.00     0.166 HD
BRANCH   9  14
ATOM     14  C   UNL A   1      33.221  24.318  23.568  1.00  0.00     0.042 A 
ATOM     15  C   UNL A   1      34.190  22.782  27.495  1.00  0.00     0.044 C 
ATOM     16  C   UNL A   1      33.832  23.414  26.186  1.00  0.00    -0.051 A 
ATOM     17  C   UNL A   1      32.570  23.214  25.643  1.00  0.00     0.005 A 
ATOM     18  C   UNL A   1      34.765  24.149  25.451  1.00  0.00     0.005 A 
ATOM     19  C   UNL A   1      32.266  23.698  24.370  1.00  0.00     0.026 A 
ATOM     20  C   UNL A   1      34.455  24.604  24.165  1.00  0.00     0.026 A 
ENDBRANCH   9  14
ENDBRANCH   7   8
BRANCH   7  21
ATOM     21  C   UNL A   1      30.783  28.090  23.399  1.00  0.00     0.015 C 
ATOM     22  C   UNL A   1      30.305  28.975  22.240  1.00  0.00     0.010 C 
ATOM     23  C   UNL A   1      29.862  26.856  23.462  1.00  0.00     0.010 C 
ENDBRANCH   7  21
ENDBRANCH   4   7
ENDBRANCH   2   3
ENDBRANCH   1   2
BRANCH   1  24
ATOM     24  C   UNL A   1      33.294  30.469  27.655  1.00  0.00     0.118 C 
BRANCH  24  25
ATOM     25  N   UNL A   1      34.027  31.547  28.318  1.00  0.00    -0.352 N 
ATOM     26  C   UNL A   1      35.246  31.499  28.973  1.00  0.00     0.251 C 
ATOM     27  H   UNL A   1      33.593  32.430  28.296  1.00  0.00     0.163 HD
ATOM     28  O   UNL A   1      35.675  32.488  29.561  1.00  0.00    -0.269 OA
BRANCH  26  29
ATOM     29  C   UNL A   1      36.100  30.295  28.830  1.00  0.00     0.039 A 
ATOM     30  C   UNL A   1      36.508  29.638  29.996  1.00  0.00     0.014 A 
ATOM     31  C   UNL A   1      36.708  30.006  27.614  1.00  0.00     0.014 A 
ATOM     32  C   UNL A   1      37.702  28.922  29.987  1.00  0.00     0.010 A 
ATOM     33  C   UNL A   1      37.958  29.428  27.633  1.00  0.00     0.010 A 
ATOM     34  C   UNL A   1      38.483  28.944  28.832  1.00  0.00    -0.014 A 
BRANCH  34  35
ATOM     35  C   UNL A   1      39.894  28.580  28.815  1.00  0.00     0.031 A 
ATOM     36  C   UNL A   1      40.299  27.207  28.457  1.00  0.00     0.074 A 
ATOM     37  C   UNL A   1      40.831  29.531  29.029  1.00  0.00     0.049 A 
ATOM     38  N   UNL A   1      41.389  26.645  28.857  1.00  0.00    -0.248 NA
ATOM     39  C   UNL A   1      39.474  26.338  27.630  1.00  0.00     0.031 C 
ATOM     40  C   UNL A   1      42.270  29.422  28.801  1.00  0.00     0.029 A 
ATOM     41  N   UNL A   1      40.675  30.763  29.687  1.00  0.00    -0.354 N 
ATOM     42  C   UNL A   1      41.550  25.486  28.132  1.00  0.00     0.074 A 
ATOM     43  C   UNL A   1      40.299  25.306  27.432  1.00  0.00     0.031 C 
ATOM     44  C   UNL A   1      42.897  30.345  29.550  1.00  0.00     0.029 A 
ATOM     45  C   UNL A   1      41.888  30.979  30.381  1.00  0.00     0.049 A 
ATOM     46  H   UNL A   1      39.886  31.352  29.668  1.00  0.00     0.167 HD
ATOM     47  C   UNL A   1      42.778  24.889  28.091  1.00  0.00     0.037 A 
ATOM     48  C   UNL A   1      41.925  31.046  31.743  1.00  0.00     0.037 A 
ATOM     49  C   UNL A   1      43.737  25.608  28.926  1.00  0.00     0.049 A 
ATOM     50  C   UNL A   1      42.801  29.995  32.383  1.00  0.00     0.074 A 
ATOM     51  C   UNL A   1      44.706  26.553  28.626  1.00  0.00     0.029 A 
ATOM     52  N   UNL A   1      43.567  25.647  30.307  1.00  0.00    -0.354 N 
ATOM     53  N   UNL A   1      43.185  28.906  31.778  1.00  0.00    -0.248 NA
ATOM     54  C   UNL A   1      43.269  30.063  33.764  1.00  0.00     0.031 C 
ATOM     55  C   UNL A   1      45.086  27.194  29.827  1.00  0.00     0.029 A 
ATOM     56  C   UNL A   1      44.361  26.632  30.864  1.00  0.00     0.049 A 
ATOM     57  H   UNL A   1      42.965  25.057  30.815  1.00  0.00     0.167 HD
ATOM     58  C   UNL A   1      43.890  28.122  32.653  1.00  0.00     0.074 A 
ATOM     59  C   UNL A   1      43.937  28.901  33.877  1.00  0.00     0.031 C 
ATOM     60  C   UNL A   1      44.355  26.889  32.295  1.00  0.00     0.037 A 
BRANCH  47  61
ATOM     61  C   UNL A   1      43.181  23.869  27.043  1.00  0.00     0.064 A 
ATOM     62  C   UNL A   1      42.794  22.516  27.163  1.00  0.00     0.173 A 
ATOM     63  C   UNL A   1      44.000  24.145  25.934  1.00  0.00     0.173 A 
ATOM     64  F   UNL A   1      41.902  22.119  28.078  1.00  0.00    -0.203 F 
ATOM     65  C   UNL A   1      43.308  21.511  26.339  1.00  0.00     0.198 A 
ATOM     66  C   UNL A   1      44.562  23.134  25.145  1.00  0.00     0.198 A 
ATOM     67  F   UNL A   1      44.237  25.402  25.540  1.00  0.00    -0.203 F 
ATOM     68  F   UNL A   1      42.914  20.241  26.516  1.00  0.00    -0.200 F 
ATOM     69  C   UNL A   1      44.229  21.814  25.359  1.00  0.00     0.200 A 
ATOM     70  F   UNL A   1      45.429  23.454  24.174  1.00  0.00    -0.200 F 
ATOM     71  F   UNL A   1      44.764  20.845  24.605  1.00  0.00    -0.200 F 
ENDBRANCH  47  61
BRANCH  48  72
ATOM     72  C   UNL A   1      40.668  31.576  32.335  1.00  0.00     0.064 A 
ATOM     73  C   UNL A   1      39.738  30.658  32.861  1.00  0.00     0.173 A 
ATOM     74  C   UNL A   1      40.550  32.913  32.728  1.00  0.00     0.173 A 
ATOM     75  F   UNL A   1      39.808  29.361  32.517  1.00  0.00    -0.203 F 
ATOM     76  C   UNL A   1      38.814  31.038  33.832  1.00  0.00     0.198 A 
ATOM     77  C   UNL A   1      39.611  33.294  33.689  1.00  0.00     0.198 A 
ATOM     78  F   UNL A   1      41.417  33.833  32.278  1.00  0.00    -0.203 F 
ATOM     79  F   UNL A   1      38.025  30.115  34.400  1.00  0.00    -0.200 F 
ATOM     80  C   UNL A   1      38.771  32.351  34.264  1.00  0.00     0.200 A 
ATOM     81  F   UNL A   1      39.587  34.560  34.131  1.00  0.00    -0.200 F 
ATOM     82  F   UNL A   1      37.951  32.702  35.265  1.00  0.00    -0.200 F 
ENDBRANCH  48  72
BRANCH  60  83
ATOM     83  C   UNL A   1      44.934  25.852  33.227  1.00  0.00     0.064 A 
ATOM     84  C   UNL A   1      44.170  25.093  34.129  1.00  0.00     0.173 A 
ATOM     85  C   UNL A   1      46.300  25.487  33.128  1.00  0.00     0.173 A 
ATOM     86  F   UNL A   1      42.845  25.256  34.229  1.00  0.00    -0.203 F 
ATOM     87  C   UNL A   1      44.742  24.091  34.920  1.00  0.00     0.198 A 
ATOM     88  C   UNL A   1      46.852  24.448  33.875  1.00  0.00     0.198 A 
ATOM     89  F   UNL A   1      47.132  26.113  32.283  1.00  0.00    -0.203 F 
ATOM     90  F   UNL A   1      43.978  23.425  35.798  1.00  0.00    -0.200 F 
ATOM     91  C   UNL A   1      46.077  23.761  34.785  1.00  0.00     0.200 A 
ATOM     92  F   UNL A   1      48.135  24.105  33.692  1.00  0.00    -0.200 F 
ATOM     93  F   UNL A   1      46.608  22.771  35.513  1.00  0.00    -0.200 F 
ENDBRANCH  60  83
ENDBRANCH  34  35
ENDBRANCH  26  29
ENDBRANCH  24  25
ENDBRANCH   1  24
TORSDOF 13
ENDMDL
