MODEL 1
REMARK VINA RESULT:     -13.0      0.000      0.000
REMARK SMILES O=C(CC[N@@H+]1CCC[C@@]2(CCC(=O)N(CCc3ccccc3)C2)C1)NCCCNC(=O)c1ccc(-c2c3nc(c(-c4c(F)c(F)c(F)c(F)c4F)c4ccc([nH]4)c(-c4c(F)c(F)c(F)c(F)c4F)c4nc(c(-c5c(F)c(F)c(F)c(F)c5F)c5ccc2[nH]5)C=C4)C=C3)cc1
REMARK SMILES IDX 1 1 2 2 25 3 3 5 4 6 5 7 6 8 24 9 7 11 9 12 8 13 10 14 23 15
REMARK SMILES IDX 11 16 14 17 12 18 13 19 15 20 16 21 17 22 18 23 22 24 19 25
REMARK SMILES IDX 21 26 20 27 26 28 27 29 28 30 29 31 30 32 31 34 32 35 33 36
REMARK SMILES IDX 94 37 34 38 93 39 35 40 36 41 37 42 87 43 38 44 92 45 86 46
REMARK SMILES IDX 88 47 39 48 91 49 85 50 84 51 40 53 72 54 52 55 71 56 53 57
REMARK SMILES IDX 56 58 70 59 89 60 54 61 55 62 69 64 90 65 57 66 41 67 42 68
REMARK SMILES IDX 50 69 43 70 44 71 48 72 51 73 45 74 46 75 49 76 47 77 73 78
REMARK SMILES IDX 74 79 82 80 75 81 76 82 80 83 83 84 77 85 78 86 81 87 79 88
REMARK SMILES IDX 58 89 59 90 67 91 60 92 61 93 65 94 68 95 62 96 63 97 66 98
REMARK SMILES IDX 64 99
REMARK H PARENT 25 4 5 10 29 33 88 52 56 63
REMARK Flexibility Score: inf
ROOT
ATOM      1  O   UNL A   1      34.329  21.307  26.523  1.00  0.00    -0.275 OA
ATOM      2  C   UNL A   1      34.207  20.426  25.677  1.00  0.00     0.225 C 
ATOM      3  N   UNL A   1      35.279  19.885  25.000  1.00  0.00    -0.356 N 
ATOM      4  H   UNL A   1      35.175  19.035  24.515  1.00  0.00     0.163 HD
ENDROOT
BRANCH   2   5
ATOM      5  C   UNL A   1      32.851  19.941  25.205  1.00  0.00     0.161 C 
BRANCH   5   6
ATOM      6  C   UNL A   1      32.154  21.079  24.434  1.00  0.00     0.272 C 
BRANCH   6   7
ATOM      7  N   UNL A   1      32.108  22.420  25.072  1.00  0.00    -0.334 N 
ATOM      8  C   UNL A   1      31.044  22.560  26.071  1.00  0.00     0.262 C 
ATOM      9  C   UNL A   1      31.963  23.452  24.016  1.00  0.00     0.271 C 
ATOM     10  H   UNL A   1      32.984  22.546  25.580  1.00  0.00     0.348 HD
ATOM     11  C   UNL A   1      30.955  23.949  26.691  1.00  0.00     0.062 C 
ATOM     12  C   UNL A   1      31.978  24.892  24.588  1.00  0.00     0.038 C 
ATOM     13  C   UNL A   1      30.835  25.011  25.621  1.00  0.00     0.020 C 
ATOM     14  C   UNL A   1      33.373  25.216  25.156  1.00  0.00     0.024 C 
ATOM     15  C   UNL A   1      31.732  25.907  23.468  1.00  0.00     0.132 C 
ATOM     16  C   UNL A   1      33.491  26.655  25.627  1.00  0.00     0.101 C 
ATOM     17  N   UNL A   1      31.786  27.283  23.958  1.00  0.00    -0.342 N 
ATOM     18  C   UNL A   1      32.858  27.709  24.730  1.00  0.00     0.222 C 
ATOM     19  O   UNL A   1      33.160  28.895  24.863  1.00  0.00    -0.275 OA
BRANCH  17  20
ATOM     20  C   UNL A   1      30.615  28.166  23.853  1.00  0.00     0.124 C 
BRANCH  20  21
ATOM     21  C   UNL A   1      30.193  28.635  22.453  1.00  0.00     0.057 C 
BRANCH  21  22
ATOM     22  C   UNL A   1      29.366  29.900  22.418  1.00  0.00    -0.046 A 
ATOM     23  C   UNL A   1      29.306  30.722  23.551  1.00  0.00     0.004 A 
ATOM     24  C   UNL A   1      28.692  30.300  21.252  1.00  0.00     0.004 A 
ATOM     25  C   UNL A   1      28.643  31.947  23.500  1.00  0.00     0.000 A 
ATOM     26  C   UNL A   1      28.044  31.536  21.199  1.00  0.00     0.000 A 
ATOM     27  C   UNL A   1      28.029  32.362  22.320  1.00  0.00     0.000 A 
ENDBRANCH  21  22
ENDBRANCH  20  21
ENDBRANCH  17  20
ENDBRANCH   6   7
ENDBRANCH   5   6
ENDBRANCH   2   5
BRANCH   3  28
ATOM     28  C   UNL A   1      36.559  20.564  25.001  1.00  0.00     0.117 C 
BRANCH  28  29
ATOM     29  C   UNL A   1      37.752  19.618  25.001  1.00  0.00     0.042 C 
BRANCH  29  30
ATOM     30  C   UNL A   1      38.987  20.115  25.751  1.00  0.00     0.118 C 
BRANCH  30  31
ATOM     31  N   UNL A   1      40.095  19.175  25.761  1.00  0.00    -0.352 N 
ATOM     32  C   UNL A   1      41.430  19.389  26.024  1.00  0.00     0.251 C 
ATOM     33  H   UNL A   1      39.855  18.244  25.548  1.00  0.00     0.163 HD
ATOM     34  O   UNL A   1      42.223  18.460  25.925  1.00  0.00    -0.269 OA
BRANCH  32  35
ATOM     35  C   UNL A   1      41.929  20.738  26.391  1.00  0.00     0.039 A 
ATOM     36  C   UNL A   1      42.077  21.691  25.376  1.00  0.00     0.014 A 
ATOM     37  C   UNL A   1      42.273  21.073  27.703  1.00  0.00     0.014 A 
ATOM     38  C   UNL A   1      42.508  22.984  25.685  1.00  0.00     0.010 A 
ATOM     39  C   UNL A   1      42.629  22.386  28.022  1.00  0.00     0.010 A 
ATOM     40  C   UNL A   1      42.759  23.357  27.016  1.00  0.00    -0.014 A 
BRANCH  40  41
ATOM     41  C   UNL A   1      43.167  24.751  27.350  1.00  0.00     0.031 A 
ATOM     42  C   UNL A   1      44.568  25.230  27.073  1.00  0.00     0.074 A 
ATOM     43  C   UNL A   1      42.280  25.590  27.923  1.00  0.00     0.049 A 
ATOM     44  N   UNL A   1      45.095  26.412  27.274  1.00  0.00    -0.248 NA
ATOM     45  C   UNL A   1      45.508  24.244  26.519  1.00  0.00     0.031 C 
ATOM     46  C   UNL A   1      40.908  25.243  28.296  1.00  0.00     0.029 A 
ATOM     47  N   UNL A   1      42.399  26.908  28.290  1.00  0.00    -0.354 N 
ATOM     48  C   UNL A   1      46.423  26.310  26.876  1.00  0.00     0.074 A 
ATOM     49  C   UNL A   1      46.638  24.935  26.484  1.00  0.00     0.031 C 
ATOM     50  C   UNL A   1      40.302  26.329  28.804  1.00  0.00     0.029 A 
ATOM     51  C   UNL A   1      41.249  27.439  28.824  1.00  0.00     0.049 A 
ATOM     52  H   UNL A   1      43.231  27.425  28.181  1.00  0.00     0.167 HD
ATOM     53  C   UNL A   1      47.370  27.279  26.813  1.00  0.00     0.037 A 
ATOM     54  C   UNL A   1      40.985  28.681  29.275  1.00  0.00     0.037 A 
ATOM     55  C   UNL A   1      47.155  28.653  27.190  1.00  0.00     0.049 A 
ATOM     56  C   UNL A   1      42.054  29.739  29.194  1.00  0.00     0.074 A 
ATOM     57  C   UNL A   1      48.039  29.716  27.121  1.00  0.00     0.029 A 
ATOM     58  N   UNL A   1      45.971  29.154  27.715  1.00  0.00    -0.354 N 
ATOM     59  N   UNL A   1      43.282  29.646  28.745  1.00  0.00    -0.248 NA
ATOM     60  C   UNL A   1      41.691  31.081  29.670  1.00  0.00     0.031 C 
ATOM     61  C   UNL A   1      47.410  30.846  27.653  1.00  0.00     0.029 A 
ATOM     62  C   UNL A   1      46.111  30.506  27.990  1.00  0.00     0.049 A 
ATOM     63  H   UNL A   1      45.154  28.627  27.868  1.00  0.00     0.167 HD
ATOM     64  C   UNL A   1      43.822  30.923  28.844  1.00  0.00     0.074 A 
ATOM     65  C   UNL A   1      42.783  31.774  29.382  1.00  0.00     0.031 C 
ATOM     66  C   UNL A   1      45.067  31.350  28.516  1.00  0.00     0.037 A 
BRANCH  53  67
ATOM     67  C   UNL A   1      48.733  26.885  26.313  1.00  0.00     0.064 A 
ATOM     68  C   UNL A   1      49.093  27.024  24.964  1.00  0.00     0.173 A 
ATOM     69  C   UNL A   1      49.704  26.394  27.200  1.00  0.00     0.173 A 
ATOM     70  F   UNL A   1      48.201  27.480  24.071  1.00  0.00    -0.203 F 
ATOM     71  C   UNL A   1      50.358  26.654  24.515  1.00  0.00     0.198 A 
ATOM     72  C   UNL A   1      50.980  26.058  26.754  1.00  0.00     0.198 A 
ATOM     73  F   UNL A   1      49.418  26.247  28.502  1.00  0.00    -0.203 F 
ATOM     74  F   UNL A   1      50.657  26.743  23.212  1.00  0.00    -0.200 F 
ATOM     75  C   UNL A   1      51.303  26.179  25.411  1.00  0.00     0.200 A 
ATOM     76  F   UNL A   1      51.896  25.615  27.625  1.00  0.00    -0.200 F 
ATOM     77  F   UNL A   1      52.522  25.830  24.980  1.00  0.00    -0.200 F 
ENDBRANCH  53  67
BRANCH  54  78
ATOM     78  C   UNL A   1      39.635  29.010  29.809  1.00  0.00     0.064 A 
ATOM     79  C   UNL A   1      38.638  29.541  28.979  1.00  0.00     0.173 A 
ATOM     80  C   UNL A   1      39.321  28.820  31.162  1.00  0.00     0.173 A 
ATOM     81  F   UNL A   1      38.895  29.762  27.681  1.00  0.00    -0.203 F 
ATOM     82  C   UNL A   1      37.391  29.900  29.488  1.00  0.00     0.198 A 
ATOM     83  C   UNL A   1      38.063  29.148  31.664  1.00  0.00     0.198 A 
ATOM     84  F   UNL A   1      40.236  28.310  31.999  1.00  0.00    -0.203 F 
ATOM     85  F   UNL A   1      36.478  30.461  28.683  1.00  0.00    -0.200 F 
ATOM     86  C   UNL A   1      37.103  29.698  30.828  1.00  0.00     0.200 A 
ATOM     87  F   UNL A   1      37.784  28.935  32.956  1.00  0.00    -0.200 F 
ATOM     88  F   UNL A   1      35.903  30.042  31.317  1.00  0.00    -0.200 F 
ENDBRANCH  54  78
BRANCH  66  89
ATOM     89  C   UNL A   1      45.355  32.819  28.672  1.00  0.00     0.064 A 
ATOM     90  C   UNL A   1      45.898  33.351  29.852  1.00  0.00     0.173 A 
ATOM     91  C   UNL A   1      45.085  33.706  27.618  1.00  0.00     0.173 A 
ATOM     92  F   UNL A   1      46.165  32.549  30.894  1.00  0.00    -0.203 F 
ATOM     93  C   UNL A   1      46.114  34.720  29.987  1.00  0.00     0.198 A 
ATOM     94  C   UNL A   1      45.339  35.069  27.743  1.00  0.00     0.198 A 
ATOM     95  F   UNL A   1      44.576  33.252  26.463  1.00  0.00    -0.203 F 
ATOM     96  F   UNL A   1      46.565  35.213  31.149  1.00  0.00    -0.200 F 
ATOM     97  C   UNL A   1      45.839  35.578  28.932  1.00  0.00     0.200 A 
ATOM     98  F   UNL A   1      45.090  35.892  26.716  1.00  0.00    -0.200 F 
ATOM     99  F   UNL A   1      46.046  36.894  29.065  1.00  0.00    -0.200 F 
ENDBRANCH  66  89
ENDBRANCH  40  41
ENDBRANCH  32  35
ENDBRANCH  30  31
ENDBRANCH  29  30
ENDBRANCH  28  29
ENDBRANCH   3  28
TORSDOF 15
ENDMDL
MODEL 2
REMARK VINA RESULT:     -12.8      1.909      3.519
REMARK SMILES O=C(CC[N@@H+]1CCC[C@@]2(CCC(=O)N(CCc3ccccc3)C2)C1)NCCCNC(=O)c1ccc(-c2c3nc(c(-c4c(F)c(F)c(F)c(F)c4F)c4ccc([nH]4)c(-c4c(F)c(F)c(F)c(F)c4F)c4nc(c(-c5c(F)c(F)c(F)c(F)c5F)c5ccc2[nH]5)C=C4)C=C3)cc1
REMARK SMILES IDX 1 1 2 2 25 3 3 5 4 6 5 7 6 8 24 9 7 11 9 12 8 13 10 14 23 15
REMARK SMILES IDX 11 16 14 17 12 18 13 19 15 20 16 21 17 22 18 23 22 24 19 25
REMARK SMILES IDX 21 26 20 27 26 28 27 29 28 30 29 31 30 32 31 34 32 35 33 36
REMARK SMILES IDX 94 37 34 38 93 39 35 40 36 41 37 42 87 43 38 44 92 45 86 46
REMARK SMILES IDX 88 47 39 48 91 49 85 50 84 51 40 53 72 54 52 55 71 56 53 57
REMARK SMILES IDX 56 58 70 59 89 60 54 61 55 62 69 64 90 65 57 66 41 67 42 68
REMARK SMILES IDX 50 69 43 70 44 71 48 72 51 73 45 74 46 75 49 76 47 77 73 78
REMARK SMILES IDX 74 79 82 80 75 81 76 82 80 83 83 84 77 85 78 86 81 87 79 88
REMARK SMILES IDX 58 89 59 90 67 91 60 92 61 93 65 94 68 95 62 96 63 97 66 98
REMARK SMILES IDX 64 99
REMARK H PARENT 25 4 5 10 29 33 88 52 56 63
REMARK Flexibility Score: inf
ROOT
ATOM      1  O   UNL A   1      40.992  22.731  28.076  1.00  0.00    -0.275 OA
ATOM      2  C   UNL A   1      40.263  22.268  27.204  1.00  0.00     0.225 C 
ATOM      3  N   UNL A   1      40.588  21.143  26.476  1.00  0.00    -0.356 N 
ATOM      4  H   UNL A   1      39.892  20.671  25.964  1.00  0.00     0.163 HD
ENDROOT
BRANCH   2   5
ATOM      5  C   UNL A   1      38.994  22.966  26.756  1.00  0.00     0.161 C 
BRANCH   5   6
ATOM      6  C   UNL A   1      38.302  22.106  25.682  1.00  0.00     0.272 C 
BRANCH   6   7
ATOM      7  N   UNL A   1      36.849  21.835  25.843  1.00  0.00    -0.334 N 
ATOM      8  C   UNL A   1      36.353  20.758  24.982  1.00  0.00     0.262 C 
ATOM      9  C   UNL A   1      36.095  23.088  25.589  1.00  0.00     0.271 C 
ATOM     10  H   UNL A   1      36.703  21.516  26.801  1.00  0.00     0.348 HD
ATOM     11  C   UNL A   1      34.854  20.510  25.100  1.00  0.00     0.062 C 
ATOM     12  C   UNL A   1      34.570  22.915  25.804  1.00  0.00     0.038 C 
ATOM     13  C   UNL A   1      34.077  21.787  24.871  1.00  0.00     0.020 C 
ATOM     14  C   UNL A   1      34.277  22.667  27.297  1.00  0.00     0.024 C 
ATOM     15  C   UNL A   1      33.836  24.209  25.439  1.00  0.00     0.132 C 
ATOM     16  C   UNL A   1      32.789  22.607  27.596  1.00  0.00     0.101 C 
ATOM     17  N   UNL A   1      32.397  24.104  25.674  1.00  0.00    -0.342 N 
ATOM     18  C   UNL A   1      31.919  23.638  26.892  1.00  0.00     0.222 C 
ATOM     19  O   UNL A   1      30.778  23.863  27.296  1.00  0.00    -0.275 OA
BRANCH  17  20
ATOM     20  C   UNL A   1      31.440  24.255  24.568  1.00  0.00     0.124 C 
BRANCH  20  21
ATOM     21  C   UNL A   1      31.835  25.164  23.396  1.00  0.00     0.057 C 
BRANCH  21  22
ATOM     22  C   UNL A   1      31.356  26.594  23.499  1.00  0.00    -0.046 A 
ATOM     23  C   UNL A   1      31.467  27.278  24.717  1.00  0.00     0.004 A 
ATOM     24  C   UNL A   1      30.843  27.275  22.382  1.00  0.00     0.004 A 
ATOM     25  C   UNL A   1      31.138  28.630  24.800  1.00  0.00     0.000 A 
ATOM     26  C   UNL A   1      30.530  28.634  22.465  1.00  0.00     0.000 A 
ATOM     27  C   UNL A   1      30.687  29.312  23.670  1.00  0.00     0.000 A 
ENDBRANCH  21  22
ENDBRANCH  20  21
ENDBRANCH  17  20
ENDBRANCH   6   7
ENDBRANCH   5   6
ENDBRANCH   2   5
BRANCH   3  28
ATOM     28  C   UNL A   1      41.952  20.655  26.461  1.00  0.00     0.117 C 
BRANCH  28  29
ATOM     29  C   UNL A   1      42.113  19.313  25.758  1.00  0.00     0.042 C 
BRANCH  29  30
ATOM     30  C   UNL A   1      43.472  18.638  25.931  1.00  0.00     0.118 C 
BRANCH  30  31
ATOM     31  N   UNL A   1      44.247  18.539  24.705  1.00  0.00    -0.352 N 
ATOM     32  C   UNL A   1      44.949  19.510  24.025  1.00  0.00     0.251 C 
ATOM     33  H   UNL A   1      44.276  17.642  24.300  1.00  0.00     0.163 HD
ATOM     34  O   UNL A   1      45.498  19.230  22.966  1.00  0.00    -0.269 OA
BRANCH  32  35
ATOM     35  C   UNL A   1      45.018  20.902  24.537  1.00  0.00     0.039 A 
ATOM     36  C   UNL A   1      45.563  21.115  25.808  1.00  0.00     0.014 A 
ATOM     37  C   UNL A   1      44.539  21.989  23.803  1.00  0.00     0.014 A 
ATOM     38  C   UNL A   1      45.680  22.415  26.311  1.00  0.00     0.010 A 
ATOM     39  C   UNL A   1      44.729  23.292  24.273  1.00  0.00     0.010 A 
ATOM     40  C   UNL A   1      45.294  23.521  25.537  1.00  0.00    -0.014 A 
BRANCH  40  41
ATOM     41  C   UNL A   1      45.469  24.908  26.053  1.00  0.00     0.031 A 
ATOM     42  C   UNL A   1      46.816  25.581  26.007  1.00  0.00     0.074 A 
ATOM     43  C   UNL A   1      44.417  25.564  26.584  1.00  0.00     0.049 A 
ATOM     44  N   UNL A   1      47.152  26.790  26.387  1.00  0.00    -0.248 NA
ATOM     45  C   UNL A   1      47.937  24.786  25.487  1.00  0.00     0.031 C 
ATOM     46  C   UNL A   1      43.070  25.013  26.741  1.00  0.00     0.029 A 
ATOM     47  N   UNL A   1      44.314  26.838  27.088  1.00  0.00    -0.354 N 
ATOM     48  C   UNL A   1      48.518  26.895  26.156  1.00  0.00     0.074 A 
ATOM     49  C   UNL A   1      48.961  25.608  25.665  1.00  0.00     0.031 C 
ATOM     50  C   UNL A   1      42.269  25.954  27.268  1.00  0.00     0.029 A 
ATOM     51  C   UNL A   1      43.049  27.162  27.516  1.00  0.00     0.049 A 
ATOM     52  H   UNL A   1      45.076  27.461  27.137  1.00  0.00     0.167 HD
ATOM     53  C   UNL A   1      49.328  27.972  26.309  1.00  0.00     0.037 A 
ATOM     54  C   UNL A   1      42.570  28.305  28.046  1.00  0.00     0.037 A 
ATOM     55  C   UNL A   1      48.888  29.259  26.785  1.00  0.00     0.049 A 
ATOM     56  C   UNL A   1      43.489  29.487  28.206  1.00  0.00     0.074 A 
ATOM     57  C   UNL A   1      49.623  30.423  26.934  1.00  0.00     0.029 A 
ATOM     58  N   UNL A   1      47.595  29.551  27.197  1.00  0.00    -0.354 N 
ATOM     59  N   UNL A   1      44.762  29.595  27.913  1.00  0.00    -0.248 NA
ATOM     60  C   UNL A   1      42.896  30.714  28.757  1.00  0.00     0.031 C 
ATOM     61  C   UNL A   1      48.790  31.402  27.485  1.00  0.00     0.029 A 
ATOM     62  C   UNL A   1      47.518  30.870  27.616  1.00  0.00     0.049 A 
ATOM     63  H   UNL A   1      46.844  28.915  27.192  1.00  0.00     0.167 HD
ATOM     64  C   UNL A   1      45.111  30.909  28.203  1.00  0.00     0.074 A 
ATOM     65  C   UNL A   1      43.911  31.562  28.680  1.00  0.00     0.031 C 
ATOM     66  C   UNL A   1      46.316  31.518  28.081  1.00  0.00     0.037 A 
BRANCH  53  67
ATOM     67  C   UNL A   1      50.780  27.805  25.955  1.00  0.00     0.064 A 
ATOM     68  C   UNL A   1      51.745  27.495  26.926  1.00  0.00     0.173 A 
ATOM     69  C   UNL A   1      51.209  27.924  24.624  1.00  0.00     0.173 A 
ATOM     70  F   UNL A   1      51.392  27.379  28.216  1.00  0.00    -0.203 F 
ATOM     71  C   UNL A   1      53.087  27.345  26.585  1.00  0.00     0.198 A 
ATOM     72  C   UNL A   1      52.546  27.738  24.280  1.00  0.00     0.198 A 
ATOM     73  F   UNL A   1      50.330  28.212  23.653  1.00  0.00    -0.203 F 
ATOM     74  F   UNL A   1      53.997  27.106  27.539  1.00  0.00    -0.200 F 
ATOM     75  C   UNL A   1      53.485  27.459  25.261  1.00  0.00     0.200 A 
ATOM     76  F   UNL A   1      52.926  27.833  22.999  1.00  0.00    -0.200 F 
ATOM     77  F   UNL A   1      54.775  27.307  24.933  1.00  0.00    -0.200 F 
ENDBRANCH  53  67
BRANCH  54  78
ATOM     78  C   UNL A   1      41.136  28.405  28.430  1.00  0.00     0.064 A 
ATOM     79  C   UNL A   1      40.183  28.925  27.542  1.00  0.00     0.173 A 
ATOM     80  C   UNL A   1      40.691  28.004  29.698  1.00  0.00     0.173 A 
ATOM     81  F   UNL A   1      40.561  29.343  26.324  1.00  0.00    -0.203 F 
ATOM     82  C   UNL A   1      38.849  29.071  27.917  1.00  0.00     0.198 A 
ATOM     83  C   UNL A   1      39.350  28.119  30.061  1.00  0.00     0.198 A 
ATOM     84  F   UNL A   1      41.559  27.495  30.584  1.00  0.00    -0.203 F 
ATOM     85  F   UNL A   1      37.973  29.626  27.069  1.00  0.00    -0.200 F 
ATOM     86  C   UNL A   1      38.433  28.662  29.174  1.00  0.00     0.200 A 
ATOM     87  F   UNL A   1      38.950  27.707  31.271  1.00  0.00    -0.200 F 
ATOM     88  F   UNL A   1      37.150  28.800  29.536  1.00  0.00    -0.200 F 
ENDBRANCH  54  78
BRANCH  66  89
ATOM     89  C   UNL A   1      46.384  32.984  28.413  1.00  0.00     0.064 A 
ATOM     90  C   UNL A   1      46.689  33.443  29.704  1.00  0.00     0.173 A 
ATOM     91  C   UNL A   1      46.144  33.944  27.418  1.00  0.00     0.173 A 
ATOM     92  F   UNL A   1      46.917  32.568  30.695  1.00  0.00    -0.203 F 
ATOM     93  C   UNL A   1      46.702  34.805  29.995  1.00  0.00     0.198 A 
ATOM     94  C   UNL A   1      46.197  35.305  27.703  1.00  0.00     0.198 A 
ATOM     95  F   UNL A   1      45.859  33.563  26.163  1.00  0.00    -0.203 F 
ATOM     96  F   UNL A   1      46.924  35.216  31.251  1.00  0.00    -0.200 F 
ATOM     97  C   UNL A   1      46.461  35.735  28.995  1.00  0.00     0.200 A 
ATOM     98  F   UNL A   1      45.981  36.202  26.732  1.00  0.00    -0.200 F 
ATOM     99  F   UNL A   1      46.472  37.044  29.278  1.00  0.00    -0.200 F 
ENDBRANCH  66  89
ENDBRANCH  40  41
ENDBRANCH  32  35
ENDBRANCH  30  31
ENDBRANCH  29  30
ENDBRANCH  28  29
ENDBRANCH   3  28
TORSDOF 15
ENDMDL
MODEL 3
REMARK VINA RESULT:     -12.7      2.018      3.736
REMARK SMILES O=C(CC[N@@H+]1CCC[C@@]2(CCC(=O)N(CCc3ccccc3)C2)C1)NCCCNC(=O)c1ccc(-c2c3nc(c(-c4c(F)c(F)c(F)c(F)c4F)c4ccc([nH]4)c(-c4c(F)c(F)c(F)c(F)c4F)c4nc(c(-c5c(F)c(F)c(F)c(F)c5F)c5ccc2[nH]5)C=C4)C=C3)cc1
REMARK SMILES IDX 1 1 2 2 25 3 3 5 4 6 5 7 6 8 24 9 7 11 9 12 8 13 10 14 23 15
REMARK SMILES IDX 11 16 14 17 12 18 13 19 15 20 16 21 17 22 18 23 22 24 19 25
REMARK SMILES IDX 21 26 20 27 26 28 27 29 28 30 29 31 30 32 31 34 32 35 33 36
REMARK SMILES IDX 94 37 34 38 93 39 35 40 36 41 37 42 87 43 38 44 92 45 86 46
REMARK SMILES IDX 88 47 39 48 91 49 85 50 84 51 40 53 72 54 52 55 71 56 53 57
REMARK SMILES IDX 56 58 70 59 89 60 54 61 55 62 69 64 90 65 57 66 41 67 42 68
REMARK SMILES IDX 50 69 43 70 44 71 48 72 51 73 45 74 46 75 49 76 47 77 73 78
REMARK SMILES IDX 74 79 82 80 75 81 76 82 80 83 83 84 77 85 78 86 81 87 79 88
REMARK SMILES IDX 58 89 59 90 67 91 60 92 61 93 65 94 68 95 62 96 63 97 66 98
REMARK SMILES IDX 64 99
REMARK H PARENT 25 4 5 10 29 33 88 52 56 63
REMARK Flexibility Score: inf
ROOT
ATOM      1  O   UNL A   1      40.788  22.674  28.262  1.00  0.00    -0.275 OA
ATOM      2  C   UNL A   1      40.166  22.660  27.204  1.00  0.00     0.225 C 
ATOM      3  N   UNL A   1      40.515  21.856  26.140  1.00  0.00    -0.356 N 
ATOM      4  H   UNL A   1      39.872  21.697  25.412  1.00  0.00     0.163 HD
ENDROOT
BRANCH   2   5
ATOM      5  C   UNL A   1      39.030  23.624  26.922  1.00  0.00     0.161 C 
BRANCH   5   6
ATOM      6  C   UNL A   1      38.239  23.121  25.700  1.00  0.00     0.272 C 
BRANCH   6   7
ATOM      7  N   UNL A   1      36.891  22.542  25.939  1.00  0.00    -0.334 N 
ATOM      8  C   UNL A   1      36.651  21.291  25.212  1.00  0.00     0.262 C 
ATOM      9  C   UNL A   1      35.863  23.551  25.584  1.00  0.00     0.271 C 
ATOM     10  H   UNL A   1      36.833  22.303  26.930  1.00  0.00     0.348 HD
ATOM     11  C   UNL A   1      35.252  20.719  25.409  1.00  0.00     0.062 C 
ATOM     12  C   UNL A   1      34.423  23.056  25.870  1.00  0.00     0.038 C 
ATOM     13  C   UNL A   1      34.196  21.749  25.076  1.00  0.00     0.020 C 
ATOM     14  C   UNL A   1      34.210  22.911  27.389  1.00  0.00     0.024 C 
ATOM     15  C   UNL A   1      33.403  24.097  25.399  1.00  0.00     0.132 C 
ATOM     16  C   UNL A   1      32.780  22.542  27.746  1.00  0.00     0.101 C 
ATOM     17  N   UNL A   1      32.031  23.689  25.694  1.00  0.00    -0.342 N 
ATOM     18  C   UNL A   1      31.688  23.262  26.970  1.00  0.00     0.222 C 
ATOM     19  O   UNL A   1      30.530  23.259  27.388  1.00  0.00    -0.275 OA
BRANCH  17  20
ATOM     20  C   UNL A   1      31.054  23.494  24.613  1.00  0.00     0.124 C 
BRANCH  20  21
ATOM     21  C   UNL A   1      31.271  24.262  23.302  1.00  0.00     0.057 C 
BRANCH  21  22
ATOM     22  C   UNL A   1      30.788  25.694  23.304  1.00  0.00    -0.046 A 
ATOM     23  C   UNL A   1      31.638  26.714  22.855  1.00  0.00     0.004 A 
ATOM     24  C   UNL A   1      29.482  26.025  23.703  1.00  0.00     0.004 A 
ATOM     25  C   UNL A   1      31.171  28.023  22.743  1.00  0.00     0.000 A 
ATOM     26  C   UNL A   1      29.013  27.333  23.572  1.00  0.00     0.000 A 
ATOM     27  C   UNL A   1      29.855  28.329  23.083  1.00  0.00     0.000 A 
ENDBRANCH  21  22
ENDBRANCH  20  21
ENDBRANCH  17  20
ENDBRANCH   6   7
ENDBRANCH   5   6
ENDBRANCH   2   5
BRANCH   3  28
ATOM     28  C   UNL A   1      41.829  21.246  26.089  1.00  0.00     0.117 C 
BRANCH  28  29
ATOM     29  C   UNL A   1      41.793  19.740  25.864  1.00  0.00     0.042 C 
BRANCH  29  30
ATOM     30  C   UNL A   1      43.129  19.018  26.031  1.00  0.00     0.118 C 
BRANCH  30  31
ATOM     31  N   UNL A   1      43.860  18.826  24.789  1.00  0.00    -0.352 N 
ATOM     32  C   UNL A   1      44.681  19.695  24.106  1.00  0.00     0.251 C 
ATOM     33  H   UNL A   1      43.752  17.939  24.374  1.00  0.00     0.163 HD
ATOM     34  O   UNL A   1      45.165  19.354  23.034  1.00  0.00    -0.269 OA
BRANCH  32  35
ATOM     35  C   UNL A   1      44.959  21.055  24.632  1.00  0.00     0.039 A 
ATOM     36  C   UNL A   1      44.622  22.157  23.838  1.00  0.00     0.014 A 
ATOM     37  C   UNL A   1      45.562  21.263  25.875  1.00  0.00     0.014 A 
ATOM     38  C   UNL A   1      44.833  23.455  24.313  1.00  0.00     0.010 A 
ATOM     39  C   UNL A   1      45.701  22.558  26.380  1.00  0.00     0.010 A 
ATOM     40  C   UNL A   1      45.345  23.671  25.603  1.00  0.00    -0.014 A 
BRANCH  40  41
ATOM     41  C   UNL A   1      45.520  25.055  26.128  1.00  0.00     0.031 A 
ATOM     42  C   UNL A   1      46.863  25.734  26.076  1.00  0.00     0.074 A 
ATOM     43  C   UNL A   1      44.469  25.703  26.673  1.00  0.00     0.049 A 
ATOM     44  N   UNL A   1      47.198  26.941  26.463  1.00  0.00    -0.248 NA
ATOM     45  C   UNL A   1      47.983  24.947  25.540  1.00  0.00     0.031 C 
ATOM     46  C   UNL A   1      43.126  25.145  26.837  1.00  0.00     0.029 A 
ATOM     47  N   UNL A   1      44.366  26.972  27.188  1.00  0.00    -0.354 N 
ATOM     48  C   UNL A   1      48.562  27.053  26.221  1.00  0.00     0.074 A 
ATOM     49  C   UNL A   1      49.005  25.772  25.716  1.00  0.00     0.031 C 
ATOM     50  C   UNL A   1      42.326  26.079  27.378  1.00  0.00     0.029 A 
ATOM     51  C   UNL A   1      43.104  27.288  27.630  1.00  0.00     0.049 A 
ATOM     52  H   UNL A   1      45.126  27.598  27.235  1.00  0.00     0.167 HD
ATOM     53  C   UNL A   1      49.369  28.132  26.375  1.00  0.00     0.037 A 
ATOM     54  C   UNL A   1      42.624  28.424  28.172  1.00  0.00     0.037 A 
ATOM     55  C   UNL A   1      48.928  29.413  26.865  1.00  0.00     0.049 A 
ATOM     56  C   UNL A   1      43.540  29.609  28.334  1.00  0.00     0.074 A 
ATOM     57  C   UNL A   1      49.660  30.579  27.017  1.00  0.00     0.029 A 
ATOM     58  N   UNL A   1      47.637  29.697  27.291  1.00  0.00    -0.354 N 
ATOM     59  N   UNL A   1      44.811  29.724  28.031  1.00  0.00    -0.248 NA
ATOM     60  C   UNL A   1      42.947  30.829  28.900  1.00  0.00     0.031 C 
ATOM     61  C   UNL A   1      48.828  31.551  27.583  1.00  0.00     0.029 A 
ATOM     62  C   UNL A   1      47.559  31.013  27.721  1.00  0.00     0.049 A 
ATOM     63  H   UNL A   1      46.889  29.058  27.287  1.00  0.00     0.167 HD
ATOM     64  C   UNL A   1      45.157  31.037  28.328  1.00  0.00     0.074 A 
ATOM     65  C   UNL A   1      43.958  31.682  28.821  1.00  0.00     0.031 C 
ATOM     66  C   UNL A   1      46.359  31.652  28.201  1.00  0.00     0.037 A 
BRANCH  53  67
ATOM     67  C   UNL A   1      50.818  27.974  26.008  1.00  0.00     0.064 A 
ATOM     68  C   UNL A   1      51.259  28.084  24.680  1.00  0.00     0.173 A 
ATOM     69  C   UNL A   1      51.785  27.742  26.999  1.00  0.00     0.173 A 
ATOM     70  F   UNL A   1      50.377  28.296  23.691  1.00  0.00    -0.203 F 
ATOM     71  C   UNL A   1      52.605  27.934  24.354  1.00  0.00     0.198 A 
ATOM     72  C   UNL A   1      53.135  27.627  26.674  1.00  0.00     0.198 A 
ATOM     73  F   UNL A   1      51.422  27.635  28.286  1.00  0.00    -0.203 F 
ATOM     74  F   UNL A   1      52.992  27.986  23.072  1.00  0.00    -0.200 F 
ATOM     75  C   UNL A   1      53.542  27.713  25.351  1.00  0.00     0.200 A 
ATOM     76  F   UNL A   1      54.040  27.431  27.641  1.00  0.00    -0.200 F 
ATOM     77  F   UNL A   1      54.837  27.576  25.037  1.00  0.00    -0.200 F 
ENDBRANCH  53  67
BRANCH  54  78
ATOM     78  C   UNL A   1      41.193  28.516  28.569  1.00  0.00     0.064 A 
ATOM     79  C   UNL A   1      40.769  28.112  29.843  1.00  0.00     0.173 A 
ATOM     80  C   UNL A   1      40.219  28.990  27.680  1.00  0.00     0.173 A 
ATOM     81  F   UNL A   1      41.659  27.631  30.724  1.00  0.00    -0.203 F 
ATOM     82  C   UNL A   1      39.422  28.147  30.200  1.00  0.00     0.198 A 
ATOM     83  C   UNL A   1      38.876  29.056  28.049  1.00  0.00     0.198 A 
ATOM     84  F   UNL A   1      40.571  29.396  26.451  1.00  0.00    -0.203 F 
ATOM     85  F   UNL A   1      39.038  27.697  31.403  1.00  0.00    -0.200 F 
ATOM     86  C   UNL A   1      38.478  28.624  29.305  1.00  0.00     0.200 A 
ATOM     87  F   UNL A   1      37.970  29.534  27.186  1.00  0.00    -0.200 F 
ATOM     88  F   UNL A   1      37.183  28.659  29.648  1.00  0.00    -0.200 F 
ENDBRANCH  54  78
BRANCH  66  89
ATOM     89  C   UNL A   1      46.424  33.116  28.544  1.00  0.00     0.064 A 
ATOM     90  C   UNL A   1      46.191  34.116  27.587  1.00  0.00     0.173 A 
ATOM     91  C   UNL A   1      46.721  33.521  29.854  1.00  0.00     0.173 A 
ATOM     92  F   UNL A   1      45.913  33.785  26.317  1.00  0.00    -0.203 F 
ATOM     93  C   UNL A   1      46.301  35.464  27.919  1.00  0.00     0.198 A 
ATOM     94  C   UNL A   1      46.791  34.870  30.192  1.00  0.00     0.198 A 
ATOM     95  F   UNL A   1      46.942  32.608  30.812  1.00  0.00    -0.203 F 
ATOM     96  F   UNL A   1      46.145  36.399  26.972  1.00  0.00    -0.200 F 
ATOM     97  C   UNL A   1      46.596  35.840  29.221  1.00  0.00     0.200 A 
ATOM     98  F   UNL A   1      47.059  35.230  31.453  1.00  0.00    -0.200 F 
ATOM     99  F   UNL A   1      46.703  37.137  29.537  1.00  0.00    -0.200 F 
ENDBRANCH  66  89
ENDBRANCH  40  41
ENDBRANCH  32  35
ENDBRANCH  30  31
ENDBRANCH  29  30
ENDBRANCH  28  29
ENDBRANCH   3  28
TORSDOF 15
ENDMDL
