MODEL 1
REMARK VINA RESULT:     -10.5      0.000      0.000
REMARK SMILES Cc1cc([C@H]([NH3+])CCCC(=O)NCCCNC(=O)c2ccc(-c3c4nc(c(-c5c(F)c(F)c(F)c(F)c5F)c5ccc([nH]5)c(-c5c(F)c(F)c(F)c(F)c5F)c5nc(c(-c6c(F)c(F)c(F)c(F)c6F)c6ccc3[nH]6)C=C5)C=C4)cc2)c(F)cc1F
REMARK SMILES IDX 13 1 12 2 10 3 11 4 9 6 8 7 7 8 5 9 4 10 1 11 2 12 3 13
REMARK SMILES IDX 85 14 84 15 86 16 82 17 83 18 6 19 14 23 15 24 16 25 17 26
REMARK SMILES IDX 18 28 19 29 20 30 81 31 21 32 80 33 22 34 23 35 24 36 74 37
REMARK SMILES IDX 25 38 79 39 73 40 75 41 26 42 78 43 72 44 71 45 27 47 59 48
REMARK SMILES IDX 39 49 58 50 40 51 43 52 57 53 76 54 41 55 42 56 56 58 77 59
REMARK SMILES IDX 44 60 28 61 29 62 37 63 30 64 31 65 35 66 38 67 32 68 33 69
REMARK SMILES IDX 36 70 34 71 60 72 61 73 69 74 62 75 63 76 67 77 70 78 64 79
REMARK SMILES IDX 65 80 68 81 66 82 45 83 46 84 54 85 47 86 48 87 52 88 55 89
REMARK SMILES IDX 49 90 50 91 53 92 51 93
REMARK H PARENT 12 5 6 20 6 21 6 22 16 27 75 46 43 57
REMARK Flexibility Score: inf
ROOT
ATOM      1  C   UNL A   1      33.900  34.476  29.881  1.00  0.00     0.117 C 
ENDROOT
BRANCH   1   2
ATOM      2  N   UNL A   1      33.641  35.895  30.038  1.00  0.00    -0.356 N 
ATOM      3  C   UNL A   1      33.263  36.596  31.143  1.00  0.00     0.219 C 
ATOM      4  O   UNL A   1      32.936  37.775  30.995  1.00  0.00    -0.275 OA
ATOM      5  H   UNL A   1      33.758  36.433  29.222  1.00  0.00     0.163 HD
BRANCH   3   6
ATOM      6  C   UNL A   1      33.282  35.952  32.518  1.00  0.00     0.100 C 
BRANCH   6   7
ATOM      7  C   UNL A   1      34.667  35.874  33.169  1.00  0.00     0.016 C 
BRANCH   7   8
ATOM      8  C   UNL A   1      34.901  34.708  34.141  1.00  0.00     0.071 C 
BRANCH   8   9
ATOM      9  C   UNL A   1      35.701  33.510  33.576  1.00  0.00     0.214 C 
BRANCH   9  10
ATOM     10  C   UNL A   1      36.963  33.875  32.809  1.00  0.00     0.045 A 
ATOM     11  C   UNL A   1      38.203  33.649  29.190  1.00  0.00     0.047 C 
ATOM     12  C   UNL A   1      38.156  33.916  30.665  1.00  0.00    -0.015 A 
ATOM     13  C   UNL A   1      37.001  33.650  31.416  1.00  0.00     0.019 A 
ATOM     14  C   UNL A   1      39.286  34.405  31.324  1.00  0.00     0.129 A 
ATOM     15  C   UNL A   1      39.267  34.660  32.687  1.00  0.00     0.079 A 
ATOM     16  F   UNL A   1      40.413  34.637  30.636  1.00  0.00    -0.207 F 
ATOM     17  C   UNL A   1      38.108  34.410  33.414  1.00  0.00     0.135 A 
ATOM     18  F   UNL A   1      38.127  34.663  34.729  1.00  0.00    -0.206 F 
ENDBRANCH   9  10
BRANCH   9  19
ATOM     19  N   UNL A   1      34.828  32.654  32.776  1.00  0.00    -0.351 N 
ATOM     20  H   UNL A   1      34.742  33.042  31.836  1.00  0.00     0.345 HD
ATOM     21  H   UNL A   1      33.906  32.606  33.210  1.00  0.00     0.345 HD
ATOM     22  H   UNL A   1      35.228  31.717  32.721  1.00  0.00     0.345 HD
ENDBRANCH   9  19
ENDBRANCH   8   9
ENDBRANCH   7   8
ENDBRANCH   6   7
ENDBRANCH   3   6
ENDBRANCH   1   2
BRANCH   1  23
ATOM     23  C   UNL A   1      33.916  34.099  28.403  1.00  0.00     0.042 C 
BRANCH  23  24
ATOM     24  C   UNL A   1      34.887  32.984  28.066  1.00  0.00     0.118 C 
BRANCH  24  25
ATOM     25  N   UNL A   1      34.204  31.728  27.793  1.00  0.00    -0.352 N 
ATOM     26  C   UNL A   1      34.652  30.428  27.740  1.00  0.00     0.251 C 
ATOM     27  H   UNL A   1      33.241  31.827  27.615  1.00  0.00     0.163 HD
ATOM     28  O   UNL A   1      33.904  29.574  27.266  1.00  0.00    -0.269 OA
BRANCH  26  29
ATOM     29  C   UNL A   1      36.001  30.027  28.218  1.00  0.00     0.039 A 
ATOM     30  C   UNL A   1      37.143  30.188  27.440  1.00  0.00     0.014 A 
ATOM     31  C   UNL A   1      36.143  29.540  29.526  1.00  0.00     0.014 A 
ATOM     32  C   UNL A   1      38.368  29.689  27.873  1.00  0.00     0.010 A 
ATOM     33  C   UNL A   1      37.406  29.175  30.018  1.00  0.00     0.010 A 
ATOM     34  C   UNL A   1      38.530  29.205  29.181  1.00  0.00    -0.014 A 
BRANCH  34  35
ATOM     35  C   UNL A   1      39.891  28.793  29.629  1.00  0.00     0.031 A 
ATOM     36  C   UNL A   1      40.565  27.570  29.068  1.00  0.00     0.074 A 
ATOM     37  C   UNL A   1      40.562  29.588  30.489  1.00  0.00     0.049 A 
ATOM     38  N   UNL A   1      41.788  27.140  29.267  1.00  0.00    -0.248 NA
ATOM     39  C   UNL A   1      39.772  26.710  28.177  1.00  0.00     0.031 C 
ATOM     40  C   UNL A   1      40.013  30.792  31.121  1.00  0.00     0.029 A 
ATOM     41  N   UNL A   1      41.859  29.546  30.942  1.00  0.00    -0.354 N 
ATOM     42  C   UNL A   1      41.904  25.963  28.539  1.00  0.00     0.074 A 
ATOM     43  C   UNL A   1      40.617  25.719  27.925  1.00  0.00     0.031 C 
ATOM     44  C   UNL A   1      40.987  31.425  31.789  1.00  0.00     0.029 A 
ATOM     45  C   UNL A   1      42.210  30.636  31.704  1.00  0.00     0.049 A 
ATOM     46  H   UNL A   1      42.476  28.806  30.740  1.00  0.00     0.167 HD
ATOM     47  C   UNL A   1      42.990  25.169  28.379  1.00  0.00     0.037 A 
ATOM     48  C   UNL A   1      43.385  30.970  32.272  1.00  0.00     0.037 A 
ATOM     49  C   UNL A   1      44.278  25.426  28.971  1.00  0.00     0.049 A 
ATOM     50  C   UNL A   1      44.565  30.057  32.102  1.00  0.00     0.074 A 
ATOM     51  C   UNL A   1      45.441  24.686  28.852  1.00  0.00     0.029 A 
ATOM     52  N   UNL A   1      44.572  26.506  29.790  1.00  0.00    -0.354 N 
ATOM     53  N   UNL A   1      44.662  28.961  31.392  1.00  0.00    -0.248 NA
ATOM     54  C   UNL A   1      45.794  30.417  32.823  1.00  0.00     0.031 C 
ATOM     55  C   UNL A   1      46.427  25.293  29.634  1.00  0.00     0.029 A 
ATOM     56  C   UNL A   1      45.894  26.440  30.199  1.00  0.00     0.049 A 
ATOM     57  H   UNL A   1      43.937  27.214  30.043  1.00  0.00     0.167 HD
ATOM     58  C   UNL A   1      45.961  28.508  31.567  1.00  0.00     0.074 A 
ATOM     59  C   UNL A   1      46.623  29.456  32.437  1.00  0.00     0.031 C 
ATOM     60  C   UNL A   1      46.547  27.399  31.054  1.00  0.00     0.037 A 
BRANCH  47  61
ATOM     61  C   UNL A   1      42.847  23.943  27.524  1.00  0.00     0.064 A 
ATOM     62  C   UNL A   1      43.132  23.969  26.151  1.00  0.00     0.173 A 
ATOM     63  C   UNL A   1      42.499  22.710  28.097  1.00  0.00     0.173 A 
ATOM     64  F   UNL A   1      43.461  25.124  25.552  1.00  0.00    -0.203 F 
ATOM     65  C   UNL A   1      43.060  22.812  25.382  1.00  0.00     0.198 A 
ATOM     66  C   UNL A   1      42.455  21.549  27.331  1.00  0.00     0.198 A 
ATOM     67  F   UNL A   1      42.226  22.627  29.409  1.00  0.00    -0.203 F 
ATOM     68  F   UNL A   1      43.305  22.867  24.065  1.00  0.00    -0.200 F 
ATOM     69  C   UNL A   1      42.731  21.601  25.973  1.00  0.00     0.200 A 
ATOM     70  F   UNL A   1      42.153  20.378  27.907  1.00  0.00    -0.200 F 
ATOM     71  F   UNL A   1      42.679  20.484  25.234  1.00  0.00    -0.200 F 
ENDBRANCH  47  61
BRANCH  48  72
ATOM     72  C   UNL A   1      43.499  32.243  33.033  1.00  0.00     0.064 A 
ATOM     73  C   UNL A   1      43.803  33.447  32.381  1.00  0.00     0.173 A 
ATOM     74  C   UNL A   1      43.267  32.292  34.416  1.00  0.00     0.173 A 
ATOM     75  F   UNL A   1      44.053  33.451  31.063  1.00  0.00    -0.203 F 
ATOM     76  C   UNL A   1      43.872  34.648  33.084  1.00  0.00     0.198 A 
ATOM     77  C   UNL A   1      43.305  33.499  35.111  1.00  0.00     0.198 A 
ATOM     78  F   UNL A   1      42.969  31.170  35.086  1.00  0.00    -0.203 F 
ATOM     79  F   UNL A   1      44.193  35.780  32.442  1.00  0.00    -0.200 F 
ATOM     80  C   UNL A   1      43.612  34.675  34.446  1.00  0.00     0.200 A 
ATOM     81  F   UNL A   1      43.034  33.521  36.423  1.00  0.00    -0.200 F 
ATOM     82  F   UNL A   1      43.659  35.834  35.117  1.00  0.00    -0.200 F 
ENDBRANCH  48  72
BRANCH  60  83
ATOM     83  C   UNL A   1      47.985  27.146  31.395  1.00  0.00     0.064 A 
ATOM     84  C   UNL A   1      48.347  26.305  32.455  1.00  0.00     0.173 A 
ATOM     85  C   UNL A   1      49.006  27.668  30.586  1.00  0.00     0.173 A 
ATOM     86  F   UNL A   1      47.406  25.793  33.263  1.00  0.00    -0.203 F 
ATOM     87  C   UNL A   1      49.682  25.994  32.695  1.00  0.00     0.198 A 
ATOM     88  C   UNL A   1      50.338  27.334  30.814  1.00  0.00     0.198 A 
ATOM     89  F   UNL A   1      48.708  28.472  29.554  1.00  0.00    -0.203 F 
ATOM     90  F   UNL A   1      50.009  25.203  33.726  1.00  0.00    -0.200 F 
ATOM     91  C   UNL A   1      50.675  26.498  31.867  1.00  0.00     0.200 A 
ATOM     92  F   UNL A   1      51.294  27.809  30.003  1.00  0.00    -0.200 F 
ATOM     93  F   UNL A   1      51.957  26.176  32.084  1.00  0.00    -0.200 F 
ENDBRANCH  60  83
ENDBRANCH  34  35
ENDBRANCH  26  29
ENDBRANCH  24  25
ENDBRANCH  23  24
ENDBRANCH   1  23
TORSDOF 15
ENDMDL
MODEL 2
REMARK VINA RESULT:     -10.5      3.969      9.642
REMARK SMILES Cc1cc([C@H]([NH3+])CCCC(=O)NCCCNC(=O)c2ccc(-c3c4nc(c(-c5c(F)c(F)c(F)c(F)c5F)c5ccc([nH]5)c(-c5c(F)c(F)c(F)c(F)c5F)c5nc(c(-c6c(F)c(F)c(F)c(F)c6F)c6ccc3[nH]6)C=C5)C=C4)cc2)c(F)cc1F
REMARK SMILES IDX 13 1 12 2 10 3 11 4 9 6 8 7 7 8 5 9 4 10 1 11 2 12 3 13
REMARK SMILES IDX 85 14 84 15 86 16 82 17 83 18 6 19 14 23 15 24 16 25 17 26
REMARK SMILES IDX 18 28 19 29 20 30 81 31 21 32 80 33 22 34 23 35 24 36 74 37
REMARK SMILES IDX 25 38 79 39 73 40 75 41 26 42 78 43 72 44 71 45 27 47 59 48
REMARK SMILES IDX 39 49 58 50 40 51 43 52 57 53 76 54 41 55 42 56 56 58 77 59
REMARK SMILES IDX 44 60 28 61 29 62 37 63 30 64 31 65 35 66 38 67 32 68 33 69
REMARK SMILES IDX 36 70 34 71 60 72 61 73 69 74 62 75 63 76 67 77 70 78 64 79
REMARK SMILES IDX 65 80 68 81 66 82 45 83 46 84 54 85 47 86 48 87 52 88 55 89
REMARK SMILES IDX 49 90 50 91 53 92 51 93
REMARK H PARENT 12 5 6 20 6 21 6 22 16 27 75 46 43 57
REMARK Flexibility Score: inf
ROOT
ATOM      1  C   UNL A   1      33.053  28.258  23.059  1.00  0.00     0.117 C 
ENDROOT
BRANCH   1   2
ATOM      2  N   UNL A   1      31.956  28.930  22.389  1.00  0.00    -0.356 N 
ATOM      3  C   UNL A   1      30.613  28.723  22.490  1.00  0.00     0.219 C 
ATOM      4  O   UNL A   1      29.877  29.305  21.691  1.00  0.00    -0.275 OA
ATOM      5  H   UNL A   1      32.221  29.646  21.768  1.00  0.00     0.163 HD
BRANCH   3   6
ATOM      6  C   UNL A   1      30.042  27.832  23.578  1.00  0.00     0.100 C 
BRANCH   6   7
ATOM      7  C   UNL A   1      30.308  26.334  23.385  1.00  0.00     0.016 C 
BRANCH   7   8
ATOM      8  C   UNL A   1      30.364  25.480  24.660  1.00  0.00     0.071 C 
BRANCH   8   9
ATOM      9  C   UNL A   1      31.445  25.878  25.693  1.00  0.00     0.214 C 
BRANCH   9  10
ATOM     10  C   UNL A   1      32.410  24.769  26.083  1.00  0.00     0.045 A 
ATOM     11  C   UNL A   1      36.118  23.966  25.542  1.00  0.00     0.047 C 
ATOM     12  C   UNL A   1      34.687  23.861  25.979  1.00  0.00    -0.015 A 
ATOM     13  C   UNL A   1      33.763  24.877  25.696  1.00  0.00     0.019 A 
ATOM     14  C   UNL A   1      34.243  22.719  26.650  1.00  0.00     0.129 A 
ATOM     15  C   UNL A   1      32.925  22.598  27.064  1.00  0.00     0.079 A 
ATOM     16  F   UNL A   1      35.097  21.718  26.904  1.00  0.00    -0.207 F 
ATOM     17  C   UNL A   1      32.026  23.624  26.794  1.00  0.00     0.135 A 
ATOM     18  F   UNL A   1      30.760  23.472  27.204  1.00  0.00    -0.206 F 
ENDBRANCH   9  10
BRANCH   9  19
ATOM     19  N   UNL A   1      30.820  26.471  26.873  1.00  0.00    -0.351 N 
ATOM     20  H   UNL A   1      30.039  27.059  26.584  1.00  0.00     0.345 HD
ATOM     21  H   UNL A   1      31.506  27.038  27.373  1.00  0.00     0.345 HD
ATOM     22  H   UNL A   1      30.480  25.730  27.485  1.00  0.00     0.345 HD
ENDBRANCH   9  19
ENDBRANCH   8   9
ENDBRANCH   7   8
ENDBRANCH   6   7
ENDBRANCH   3   6
ENDBRANCH   1   2
BRANCH   1  23
ATOM     23  C   UNL A   1      33.671  29.170  24.113  1.00  0.00     0.042 C 
BRANCH  23  24
ATOM     24  C   UNL A   1      32.983  29.100  25.463  1.00  0.00     0.118 C 
BRANCH  24  25
ATOM     25  N   UNL A   1      32.581  30.416  25.940  1.00  0.00    -0.352 N 
ATOM     26  C   UNL A   1      33.072  31.222  26.942  1.00  0.00     0.251 C 
ATOM     27  H   UNL A   1      31.816  30.800  25.455  1.00  0.00     0.163 HD
ATOM     28  O   UNL A   1      32.403  32.195  27.285  1.00  0.00    -0.269 OA
BRANCH  26  29
ATOM     29  C   UNL A   1      34.364  30.951  27.625  1.00  0.00     0.039 A 
ATOM     30  C   UNL A   1      34.746  29.671  28.010  1.00  0.00     0.014 A 
ATOM     31  C   UNL A   1      35.265  32.008  27.821  1.00  0.00     0.014 A 
ATOM     32  C   UNL A   1      35.905  29.475  28.756  1.00  0.00     0.010 A 
ATOM     33  C   UNL A   1      36.505  31.784  28.441  1.00  0.00     0.010 A 
ATOM     34  C   UNL A   1      36.822  30.519  28.955  1.00  0.00    -0.014 A 
BRANCH  34  35
ATOM     35  C   UNL A   1      38.103  30.223  29.659  1.00  0.00     0.031 A 
ATOM     36  C   UNL A   1      38.359  30.711  31.060  1.00  0.00     0.074 A 
ATOM     37  C   UNL A   1      39.009  29.425  29.055  1.00  0.00     0.049 A 
ATOM     38  N   UNL A   1      39.370  30.445  31.852  1.00  0.00    -0.248 NA
ATOM     39  C   UNL A   1      37.366  31.620  31.651  1.00  0.00     0.031 C 
ATOM     40  C   UNL A   1      38.888  28.902  27.691  1.00  0.00     0.029 A 
ATOM     41  N   UNL A   1      40.177  28.867  29.516  1.00  0.00    -0.354 N 
ATOM     42  C   UNL A   1      39.138  31.157  33.021  1.00  0.00     0.074 A 
ATOM     43  C   UNL A   1      37.915  31.903  32.825  1.00  0.00     0.031 C 
ATOM     44  C   UNL A   1      39.875  28.025  27.464  1.00  0.00     0.029 A 
ATOM     45  C   UNL A   1      40.748  27.980  28.632  1.00  0.00     0.049 A 
ATOM     46  H   UNL A   1      40.567  29.082  30.393  1.00  0.00     0.167 HD
ATOM     47  C   UNL A   1      39.869  31.173  34.162  1.00  0.00     0.037 A 
ATOM     48  C   UNL A   1      41.848  27.212  28.744  1.00  0.00     0.037 A 
ATOM     49  C   UNL A   1      41.075  30.412  34.364  1.00  0.00     0.049 A 
ATOM     50  C   UNL A   1      42.654  27.271  30.010  1.00  0.00     0.074 A 
ATOM     51  C   UNL A   1      41.873  30.352  35.493  1.00  0.00     0.029 A 
ATOM     52  N   UNL A   1      41.654  29.578  33.420  1.00  0.00    -0.354 N 
ATOM     53  N   UNL A   1      42.408  27.933  31.112  1.00  0.00    -0.248 NA
ATOM     54  C   UNL A   1      43.899  26.489  30.042  1.00  0.00     0.031 C 
ATOM     55  C   UNL A   1      42.959  29.517  35.217  1.00  0.00     0.029 A 
ATOM     56  C   UNL A   1      42.811  29.015  33.934  1.00  0.00     0.049 A 
ATOM     57  H   UNL A   1      41.296  29.410  32.518  1.00  0.00     0.167 HD
ATOM     58  C   UNL A   1      43.454  27.638  31.974  1.00  0.00     0.074 A 
ATOM     59  C   UNL A   1      44.331  26.724  31.274  1.00  0.00     0.031 C 
ATOM     60  C   UNL A   1      43.668  28.094  33.232  1.00  0.00     0.037 A 
BRANCH  47  61
ATOM     61  C   UNL A   1      39.389  32.035  35.294  1.00  0.00     0.064 A 
ATOM     62  C   UNL A   1      39.684  33.406  35.347  1.00  0.00     0.173 A 
ATOM     63  C   UNL A   1      38.561  31.504  36.294  1.00  0.00     0.173 A 
ATOM     64  F   UNL A   1      40.480  33.961  34.420  1.00  0.00    -0.203 F 
ATOM     65  C   UNL A   1      39.180  34.208  36.366  1.00  0.00     0.198 A 
ATOM     66  C   UNL A   1      38.034  32.315  37.296  1.00  0.00     0.198 A 
ATOM     67  F   UNL A   1      38.240  30.201  36.286  1.00  0.00    -0.203 F 
ATOM     68  F   UNL A   1      39.501  35.509  36.414  1.00  0.00    -0.200 F 
ATOM     69  C   UNL A   1      38.348  33.666  37.333  1.00  0.00     0.200 A 
ATOM     70  F   UNL A   1      37.218  31.792  38.221  1.00  0.00    -0.200 F 
ATOM     71  F   UNL A   1      37.848  34.444  38.304  1.00  0.00    -0.200 F 
ENDBRANCH  47  61
BRANCH  48  72
ATOM     72  C   UNL A   1      42.230  26.306  27.627  1.00  0.00     0.064 A 
ATOM     73  C   UNL A   1      43.171  26.705  26.667  1.00  0.00     0.173 A 
ATOM     74  C   UNL A   1      41.696  25.014  27.518  1.00  0.00     0.173 A 
ATOM     75  F   UNL A   1      43.697  27.938  26.715  1.00  0.00    -0.203 F 
ATOM     76  C   UNL A   1      43.561  25.845  25.642  1.00  0.00     0.198 A 
ATOM     77  C   UNL A   1      42.110  24.145  26.512  1.00  0.00     0.198 A 
ATOM     78  F   UNL A   1      40.795  24.583  28.413  1.00  0.00    -0.203 F 
ATOM     79  F   UNL A   1      44.441  26.260  24.720  1.00  0.00    -0.200 F 
ATOM     80  C   UNL A   1      43.038  24.562  25.572  1.00  0.00     0.200 A 
ATOM     81  F   UNL A   1      41.616  22.900  26.460  1.00  0.00    -0.200 F 
ATOM     82  F   UNL A   1      43.429  23.730  24.597  1.00  0.00    -0.200 F 
ENDBRANCH  48  72
BRANCH  60  83
ATOM     83  C   UNL A   1      44.885  27.602  33.957  1.00  0.00     0.064 A 
ATOM     84  C   UNL A   1      44.865  26.406  34.688  1.00  0.00     0.173 A 
ATOM     85  C   UNL A   1      46.106  28.279  33.830  1.00  0.00     0.173 A 
ATOM     86  F   UNL A   1      43.717  25.731  34.847  1.00  0.00    -0.203 F 
ATOM     87  C   UNL A   1      46.027  25.906  35.269  1.00  0.00     0.198 A 
ATOM     88  C   UNL A   1      47.271  27.762  34.390  1.00  0.00     0.198 A 
ATOM     89  F   UNL A   1      46.177  29.423  33.133  1.00  0.00    -0.203 F 
ATOM     90  F   UNL A   1      45.983  24.772  35.980  1.00  0.00    -0.200 F 
ATOM     91  C   UNL A   1      47.231  26.577  35.108  1.00  0.00     0.200 A 
ATOM     92  F   UNL A   1      48.437  28.403  34.220  1.00  0.00    -0.200 F 
ATOM     93  F   UNL A   1      48.353  26.079  35.645  1.00  0.00    -0.200 F 
ENDBRANCH  60  83
ENDBRANCH  34  35
ENDBRANCH  26  29
ENDBRANCH  24  25
ENDBRANCH  23  24
ENDBRANCH   1  23
TORSDOF 15
ENDMDL
MODEL 3
REMARK VINA RESULT:     -10.5      3.522     10.908
REMARK SMILES Cc1cc([C@H]([NH3+])CCCC(=O)NCCCNC(=O)c2ccc(-c3c4nc(c(-c5c(F)c(F)c(F)c(F)c5F)c5ccc([nH]5)c(-c5c(F)c(F)c(F)c(F)c5F)c5nc(c(-c6c(F)c(F)c(F)c(F)c6F)c6ccc3[nH]6)C=C5)C=C4)cc2)c(F)cc1F
REMARK SMILES IDX 13 1 12 2 10 3 11 4 9 6 8 7 7 8 5 9 4 10 1 11 2 12 3 13
REMARK SMILES IDX 85 14 84 15 86 16 82 17 83 18 6 19 14 23 15 24 16 25 17 26
REMARK SMILES IDX 18 28 19 29 20 30 81 31 21 32 80 33 22 34 23 35 24 36 74 37
REMARK SMILES IDX 25 38 79 39 73 40 75 41 26 42 78 43 72 44 71 45 27 47 59 48
REMARK SMILES IDX 39 49 58 50 40 51 43 52 57 53 76 54 41 55 42 56 56 58 77 59
REMARK SMILES IDX 44 60 28 61 29 62 37 63 30 64 31 65 35 66 38 67 32 68 33 69
REMARK SMILES IDX 36 70 34 71 60 72 61 73 69 74 62 75 63 76 67 77 70 78 64 79
REMARK SMILES IDX 65 80 68 81 66 82 45 83 46 84 54 85 47 86 48 87 52 88 55 89
REMARK SMILES IDX 49 90 50 91 53 92 51 93
REMARK H PARENT 12 5 6 20 6 21 6 22 16 27 75 46 43 57
REMARK Flexibility Score: inf
ROOT
ATOM      1  C   UNL A   1      42.587  19.585  26.393  1.00  0.00     0.117 C 
ENDROOT
BRANCH   1   2
ATOM      2  N   UNL A   1      42.938  19.221  25.033  1.00  0.00    -0.356 N 
ATOM      3  C   UNL A   1      44.165  19.053  24.464  1.00  0.00     0.219 C 
ATOM      4  O   UNL A   1      44.219  18.908  23.242  1.00  0.00    -0.275 OA
ATOM      5  H   UNL A   1      42.175  19.071  24.431  1.00  0.00     0.163 HD
BRANCH   3   6
ATOM      6  C   UNL A   1      45.420  19.007  25.317  1.00  0.00     0.100 C 
BRANCH   6   7
ATOM      7  C   UNL A   1      46.349  20.216  25.154  1.00  0.00     0.016 C 
BRANCH   7   8
ATOM      8  C   UNL A   1      45.734  21.594  25.439  1.00  0.00     0.071 C 
BRANCH   8   9
ATOM      9  C   UNL A   1      45.746  22.596  24.260  1.00  0.00     0.214 C 
BRANCH   9  10
ATOM     10  C   UNL A   1      45.393  24.030  24.624  1.00  0.00     0.045 A 
ATOM     11  C   UNL A   1      47.259  27.352  25.041  1.00  0.00     0.047 C 
ATOM     12  C   UNL A   1      46.163  26.328  25.009  1.00  0.00    -0.015 A 
ATOM     13  C   UNL A   1      46.417  25.002  24.630  1.00  0.00     0.019 A 
ATOM     14  C   UNL A   1      44.868  26.678  25.397  1.00  0.00     0.129 A 
ATOM     15  C   UNL A   1      43.838  25.750  25.377  1.00  0.00     0.079 A 
ATOM     16  F   UNL A   1      44.605  27.930  25.797  1.00  0.00    -0.207 F 
ATOM     17  C   UNL A   1      44.102  24.443  24.978  1.00  0.00     0.135 A 
ATOM     18  F   UNL A   1      43.084  23.572  24.974  1.00  0.00    -0.206 F 
ENDBRANCH   9  10
BRANCH   9  19
ATOM     19  N   UNL A   1      44.900  22.107  23.174  1.00  0.00    -0.351 N 
ATOM     20  H   UNL A   1      44.000  21.811  23.551  1.00  0.00     0.345 HD
ATOM     21  H   UNL A   1      45.355  21.314  22.719  1.00  0.00     0.345 HD
ATOM     22  H   UNL A   1      44.756  22.852  22.493  1.00  0.00     0.345 HD
ENDBRANCH   9  19
ENDBRANCH   8   9
ENDBRANCH   7   8
ENDBRANCH   6   7
ENDBRANCH   3   6
ENDBRANCH   1   2
BRANCH   1  23
ATOM     23  C   UNL A   1      41.118  19.986  26.474  1.00  0.00     0.042 C 
BRANCH  23  24
ATOM     24  C   UNL A   1      40.891  21.485  26.472  1.00  0.00     0.118 C 
BRANCH  24  25
ATOM     25  N   UNL A   1      39.583  21.838  25.940  1.00  0.00    -0.352 N 
ATOM     26  C   UNL A   1      38.779  22.940  26.126  1.00  0.00     0.251 C 
ATOM     27  H   UNL A   1      39.203  21.163  25.333  1.00  0.00     0.163 HD
ATOM     28  O   UNL A   1      37.617  22.885  25.730  1.00  0.00    -0.269 OA
BRANCH  26  29
ATOM     29  C   UNL A   1      39.261  24.176  26.795  1.00  0.00     0.039 A 
ATOM     30  C   UNL A   1      39.101  24.394  28.159  1.00  0.00     0.014 A 
ATOM     31  C   UNL A   1      39.970  25.126  26.043  1.00  0.00     0.014 A 
ATOM     32  C   UNL A   1      39.455  25.615  28.726  1.00  0.00     0.010 A 
ATOM     33  C   UNL A   1      40.460  26.293  26.648  1.00  0.00     0.010 A 
ATOM     34  C   UNL A   1      40.170  26.573  27.990  1.00  0.00    -0.014 A 
BRANCH  34  35
ATOM     35  C   UNL A   1      40.626  27.813  28.682  1.00  0.00     0.031 A 
ATOM     36  C   UNL A   1      42.085  28.077  28.940  1.00  0.00     0.074 A 
ATOM     37  C   UNL A   1      39.712  28.754  29.000  1.00  0.00     0.049 A 
ATOM     38  N   UNL A   1      42.653  29.155  29.425  1.00  0.00    -0.248 NA
ATOM     39  C   UNL A   1      43.034  26.998  28.624  1.00  0.00     0.031 C 
ATOM     40  C   UNL A   1      38.264  28.612  28.820  1.00  0.00     0.029 A 
ATOM     41  N   UNL A   1      39.856  30.031  29.487  1.00  0.00    -0.354 N 
ATOM     42  C   UNL A   1      44.013  28.879  29.481  1.00  0.00     0.074 A 
ATOM     43  C   UNL A   1      44.186  27.519  29.021  1.00  0.00     0.031 C 
ATOM     44  C   UNL A   1      37.667  29.781  29.089  1.00  0.00     0.029 A 
ATOM     45  C   UNL A   1      38.675  30.735  29.538  1.00  0.00     0.049 A 
ATOM     46  H   UNL A   1      40.721  30.405  29.770  1.00  0.00     0.167 HD
ATOM     47  C   UNL A   1      45.027  29.692  29.862  1.00  0.00     0.037 A 
ATOM     48  C   UNL A   1      38.424  32.008  29.903  1.00  0.00     0.037 A 
ATOM     49  C   UNL A   1      44.856  31.055  30.297  1.00  0.00     0.049 A 
ATOM     50  C   UNL A   1      39.565  32.878  30.348  1.00  0.00     0.074 A 
ATOM     51  C   UNL A   1      45.827  31.960  30.687  1.00  0.00     0.029 A 
ATOM     52  N   UNL A   1      43.636  31.707  30.398  1.00  0.00    -0.354 N 
ATOM     53  N   UNL A   1      40.846  32.607  30.373  1.00  0.00    -0.248 NA
ATOM     54  C   UNL A   1      39.224  34.225  30.830  1.00  0.00     0.031 C 
ATOM     55  C   UNL A   1      45.192  33.146  31.066  1.00  0.00     0.029 A 
ATOM     56  C   UNL A   1      43.830  32.998  30.864  1.00  0.00     0.049 A 
ATOM     57  H   UNL A   1      42.763  31.312  30.173  1.00  0.00     0.167 HD
ATOM     58  C   UNL A   1      41.466  33.750  30.856  1.00  0.00     0.074 A 
ATOM     59  C   UNL A   1      40.423  34.724  31.097  1.00  0.00     0.031 C 
ATOM     60  C   UNL A   1      42.784  33.964  31.086  1.00  0.00     0.037 A 
BRANCH  47  61
ATOM     61  C   UNL A   1      46.425  29.143  29.823  1.00  0.00     0.064 A 
ATOM     62  C   UNL A   1      46.985  28.488  30.930  1.00  0.00     0.173 A 
ATOM     63  C   UNL A   1      47.181  29.200  28.643  1.00  0.00     0.173 A 
ATOM     64  F   UNL A   1      46.306  28.413  32.085  1.00  0.00    -0.203 F 
ATOM     65  C   UNL A   1      48.256  27.924  30.861  1.00  0.00     0.198 A 
ATOM     66  C   UNL A   1      48.441  28.610  28.569  1.00  0.00     0.198 A 
ATOM     67  F   UNL A   1      46.689  29.806  27.552  1.00  0.00    -0.203 F 
ATOM     68  F   UNL A   1      48.784  27.332  31.942  1.00  0.00    -0.200 F 
ATOM     69  C   UNL A   1      48.978  27.977  29.679  1.00  0.00     0.200 A 
ATOM     70  F   UNL A   1      49.131  28.648  27.421  1.00  0.00    -0.200 F 
ATOM     71  F   UNL A   1      50.195  27.419  29.609  1.00  0.00    -0.200 F 
ENDBRANCH  47  61
BRANCH  48  72
ATOM     72  C   UNL A   1      37.034  32.532  29.837  1.00  0.00     0.064 A 
ATOM     73  C   UNL A   1      36.151  32.369  30.914  1.00  0.00     0.173 A 
ATOM     74  C   UNL A   1      36.571  33.239  28.717  1.00  0.00     0.173 A 
ATOM     75  F   UNL A   1      36.539  31.684  32.001  1.00  0.00    -0.203 F 
ATOM     76  C   UNL A   1      34.861  32.892  30.873  1.00  0.00     0.198 A 
ATOM     77  C   UNL A   1      35.291  33.788  28.690  1.00  0.00     0.198 A 
ATOM     78  F   UNL A   1      37.377  33.425  27.662  1.00  0.00    -0.203 F 
ATOM     79  F   UNL A   1      34.027  32.699  31.905  1.00  0.00    -0.200 F 
ATOM     80  C   UNL A   1      34.436  33.611  29.765  1.00  0.00     0.200 A 
ATOM     81  F   UNL A   1      34.893  34.498  27.625  1.00  0.00    -0.200 F 
ATOM     82  F   UNL A   1      33.201  34.131  29.734  1.00  0.00    -0.200 F 
ENDBRANCH  48  72
BRANCH  60  83
ATOM     83  C   UNL A   1      43.194  35.310  31.605  1.00  0.00     0.064 A 
ATOM     84  C   UNL A   1      43.239  35.579  32.979  1.00  0.00     0.173 A 
ATOM     85  C   UNL A   1      43.646  36.301  30.721  1.00  0.00     0.173 A 
ATOM     86  F   UNL A   1      42.805  34.665  33.860  1.00  0.00    -0.203 F 
ATOM     87  C   UNL A   1      43.722  36.795  33.453  1.00  0.00     0.198 A 
ATOM     88  C   UNL A   1      44.152  37.507  31.200  1.00  0.00     0.198 A 
ATOM     89  F   UNL A   1      43.630  36.088  29.397  1.00  0.00    -0.203 F 
ATOM     90  F   UNL A   1      43.739  37.041  34.769  1.00  0.00    -0.200 F 
ATOM     91  C   UNL A   1      44.190  37.753  32.564  1.00  0.00     0.200 A 
ATOM     92  F   UNL A   1      44.619  38.424  30.340  1.00  0.00    -0.200 F 
ATOM     93  F   UNL A   1      44.679  38.913  33.023  1.00  0.00    -0.200 F 
ENDBRANCH  60  83
ENDBRANCH  34  35
ENDBRANCH  26  29
ENDBRANCH  24  25
ENDBRANCH  23  24
ENDBRANCH   1  23
TORSDOF 15
ENDMDL
