MODEL 1
REMARK VINA RESULT:     -12.0      0.000      0.000
REMARK SMILES Cc1cc2[nH]ccc2nc1C(=O)NCCCNC(=O)c1ccc(-c2c3nc(c(-c4c(F)c(F)c(F)c(F)c4F)c4ccc([nH]4)c(-c4c(F)c(F)c(F)c(F)c4F)c4nc(c(-c5c(F)c(F)c(F)c(F)c5F)c5ccc2[nH]5)C=C4)C=C3)cc1
REMARK SMILES IDX 16 1 15 2 14 3 13 4 11 5 12 6 10 8 1 9 2 10 3 11 4 12 9 13
REMARK SMILES IDX 5 14 8 15 6 16 7 18 17 19 18 20 19 22 20 23 21 24 82 25
REMARK SMILES IDX 22 26 81 27 23 28 24 29 25 30 75 31 26 32 80 33 74 34 76 35
REMARK SMILES IDX 27 36 79 37 73 38 72 39 28 41 60 42 40 43 59 44 41 45 44 46
REMARK SMILES IDX 58 47 77 48 42 49 43 50 57 52 78 53 45 54 29 55 30 56 38 57
REMARK SMILES IDX 31 58 32 59 36 60 39 61 33 62 34 63 37 64 35 65 61 66 62 67
REMARK SMILES IDX 70 68 63 69 64 70 68 71 71 72 65 73 66 74 69 75 67 76 46 77
REMARK SMILES IDX 47 78 55 79 48 80 49 81 53 82 56 83 50 84 51 85 54 86 52 87
REMARK H PARENT 13 7 5 17 17 21 76 40 44 51
REMARK Flexibility Score: inf
ROOT
ATOM      1  C   UNL A   1      34.837  33.005  31.080  1.00  0.00     0.118 C 
ENDROOT
BRANCH   1   2
ATOM      2  C   UNL A   1      34.167  34.060  31.913  1.00  0.00     0.042 C 
BRANCH   2   3
ATOM      3  C   UNL A   1      35.121  34.825  32.842  1.00  0.00     0.118 C 
BRANCH   3   4
ATOM      4  N   UNL A   1      36.464  34.830  32.299  1.00  0.00    -0.351 N 
ATOM      5  C   UNL A   1      37.664  34.273  32.679  1.00  0.00     0.270 C 
ATOM      6  O   UNL A   1      38.604  34.571  31.932  1.00  0.00    -0.268 OA
ATOM      7  H   UNL A   1      36.535  35.351  31.466  1.00  0.00     0.163 HD
BRANCH   5   8
ATOM      8  C   UNL A   1      37.919  33.311  33.837  1.00  0.00     0.131 A 
ATOM      9  C   UNL A   1      37.390  31.009  32.752  1.00  0.00     0.047 C 
ATOM     10  C   UNL A   1      37.866  31.902  33.845  1.00  0.00    -0.018 A 
ATOM     11  C   UNL A   1      38.151  31.205  35.032  1.00  0.00     0.034 A 
ATOM     12  C   UNL A   1      38.227  31.961  36.184  1.00  0.00     0.064 A 
ATOM     13  N   UNL A   1      38.098  34.032  34.980  1.00  0.00    -0.241 NA
ATOM     14  N   UNL A   1      38.288  31.591  37.502  1.00  0.00    -0.360 N 
ATOM     15  C   UNL A   1      38.169  33.342  36.135  1.00  0.00     0.089 A 
ATOM     16  C   UNL A   1      38.182  32.703  38.296  1.00  0.00     0.085 A 
ATOM     17  H   UNL A   1      38.392  30.668  37.829  1.00  0.00     0.166 HD
ATOM     18  C   UNL A   1      38.144  33.807  37.470  1.00  0.00     0.048 A 
ENDBRANCH   5   8
ENDBRANCH   3   4
ENDBRANCH   2   3
ENDBRANCH   1   2
BRANCH   1  19
ATOM     19  N   UNL A   1      34.729  33.233  29.641  1.00  0.00    -0.352 N 
ATOM     20  C   UNL A   1      35.633  32.836  28.663  1.00  0.00     0.251 C 
ATOM     21  H   UNL A   1      33.932  33.719  29.331  1.00  0.00     0.163 HD
ATOM     22  O   UNL A   1      35.658  33.374  27.570  1.00  0.00    -0.269 OA
BRANCH  20  23
ATOM     23  C   UNL A   1      36.583  31.756  29.003  1.00  0.00     0.039 A 
ATOM     24  C   UNL A   1      36.284  30.405  28.847  1.00  0.00     0.014 A 
ATOM     25  C   UNL A   1      37.848  32.147  29.416  1.00  0.00     0.014 A 
ATOM     26  C   UNL A   1      37.308  29.485  29.062  1.00  0.00     0.010 A 
ATOM     27  C   UNL A   1      38.897  31.299  29.246  1.00  0.00     0.010 A 
ATOM     28  C   UNL A   1      38.626  29.953  29.240  1.00  0.00    -0.014 A 
BRANCH  28  29
ATOM     29  C   UNL A   1      39.760  29.061  29.399  1.00  0.00     0.031 A 
ATOM     30  C   UNL A   1      40.102  28.795  30.808  1.00  0.00     0.074 A 
ATOM     31  C   UNL A   1      40.386  28.433  28.378  1.00  0.00     0.049 A 
ATOM     32  N   UNL A   1      41.077  29.324  31.460  1.00  0.00    -0.248 NA
ATOM     33  C   UNL A   1      39.164  28.028  31.637  1.00  0.00     0.031 C 
ATOM     34  C   UNL A   1      40.022  28.345  26.957  1.00  0.00     0.029 A 
ATOM     35  N   UNL A   1      41.510  27.670  28.436  1.00  0.00    -0.354 N 
ATOM     36  C   UNL A   1      41.005  28.806  32.744  1.00  0.00     0.074 A 
ATOM     37  C   UNL A   1      39.717  28.171  32.844  1.00  0.00     0.031 C 
ATOM     38  C   UNL A   1      40.777  27.403  26.347  1.00  0.00     0.029 A 
ATOM     39  C   UNL A   1      41.794  26.958  27.278  1.00  0.00     0.049 A 
ATOM     40  H   UNL A   1      42.080  27.626  29.238  1.00  0.00     0.167 HD
ATOM     41  C   UNL A   1      42.127  28.752  33.512  1.00  0.00     0.037 A 
ATOM     42  C   UNL A   1      42.800  26.064  27.109  1.00  0.00     0.037 A 
ATOM     43  C   UNL A   1      43.160  29.604  32.965  1.00  0.00     0.049 A 
ATOM     44  C   UNL A   1      43.831  26.383  28.132  1.00  0.00     0.074 A 
ATOM     45  C   UNL A   1      43.255  30.959  32.707  1.00  0.00     0.029 A 
ATOM     46  N   UNL A   1      44.145  29.012  32.208  1.00  0.00    -0.354 N 
ATOM     47  N   UNL A   1      44.533  27.485  28.124  1.00  0.00    -0.248 NA
ATOM     48  C   UNL A   1      43.718  25.722  29.424  1.00  0.00     0.031 C 
ATOM     49  C   UNL A   1      43.944  31.050  31.462  1.00  0.00     0.029 A 
ATOM     50  C   UNL A   1      44.302  29.760  31.070  1.00  0.00     0.049 A 
ATOM     51  H   UNL A   1      44.646  28.198  32.443  1.00  0.00     0.167 HD
ATOM     52  C   UNL A   1      44.572  27.886  29.452  1.00  0.00     0.074 A 
ATOM     53  C   UNL A   1      44.113  26.725  30.214  1.00  0.00     0.031 C 
ATOM     54  C   UNL A   1      44.686  29.203  29.791  1.00  0.00     0.037 A 
BRANCH  41  55
ATOM     55  C   UNL A   1      42.436  27.652  34.493  1.00  0.00     0.064 A 
ATOM     56  C   UNL A   1      43.018  26.464  34.006  1.00  0.00     0.173 A 
ATOM     57  C   UNL A   1      41.907  27.580  35.799  1.00  0.00     0.173 A 
ATOM     58  F   UNL A   1      43.554  26.418  32.778  1.00  0.00    -0.203 F 
ATOM     59  C   UNL A   1      42.966  25.270  34.727  1.00  0.00     0.198 A 
ATOM     60  C   UNL A   1      41.904  26.397  36.536  1.00  0.00     0.198 A 
ATOM     61  F   UNL A   1      41.273  28.605  36.378  1.00  0.00    -0.203 F 
ATOM     62  F   UNL A   1      43.401  24.135  34.162  1.00  0.00    -0.200 F 
ATOM     63  C   UNL A   1      42.397  25.234  35.985  1.00  0.00     0.200 A 
ATOM     64  F   UNL A   1      41.336  26.381  37.750  1.00  0.00    -0.200 F 
ATOM     65  F   UNL A   1      42.280  24.078  36.648  1.00  0.00    -0.200 F 
ENDBRANCH  41  55
BRANCH  42  66
ATOM     66  C   UNL A   1      42.742  24.760  26.400  1.00  0.00     0.064 A 
ATOM     67  C   UNL A   1      43.595  24.483  25.318  1.00  0.00     0.173 A 
ATOM     68  C   UNL A   1      42.057  23.657  26.949  1.00  0.00     0.173 A 
ATOM     69  F   UNL A   1      44.322  25.465  24.765  1.00  0.00    -0.203 F 
ATOM     70  C   UNL A   1      43.774  23.180  24.836  1.00  0.00     0.198 A 
ATOM     71  C   UNL A   1      42.234  22.360  26.466  1.00  0.00     0.198 A 
ATOM     72  F   UNL A   1      41.277  23.801  28.030  1.00  0.00    -0.203 F 
ATOM     73  F   UNL A   1      44.647  22.947  23.846  1.00  0.00    -0.200 F 
ATOM     74  C   UNL A   1      43.103  22.118  25.419  1.00  0.00     0.200 A 
ATOM     75  F   UNL A   1      41.609  21.336  27.065  1.00  0.00    -0.200 F 
ATOM     76  F   UNL A   1      43.324  20.863  25.002  1.00  0.00    -0.200 F 
ENDBRANCH  42  66
BRANCH  54  77
ATOM     77  C   UNL A   1      45.016  30.197  28.709  1.00  0.00     0.064 A 
ATOM     78  C   UNL A   1      44.059  30.808  27.880  1.00  0.00     0.173 A 
ATOM     79  C   UNL A   1      46.327  30.689  28.648  1.00  0.00     0.173 A 
ATOM     80  F   UNL A   1      42.770  30.456  27.937  1.00  0.00    -0.203 F 
ATOM     81  C   UNL A   1      44.406  31.853  27.022  1.00  0.00     0.198 A 
ATOM     82  C   UNL A   1      46.663  31.755  27.817  1.00  0.00     0.198 A 
ATOM     83  F   UNL A   1      47.273  30.177  29.450  1.00  0.00    -0.203 F 
ATOM     84  F   UNL A   1      43.473  32.426  26.247  1.00  0.00    -0.200 F 
ATOM     85  C   UNL A   1      45.704  32.333  27.002  1.00  0.00     0.200 A 
ATOM     86  F   UNL A   1      47.910  32.246  27.839  1.00  0.00    -0.200 F 
ATOM     87  F   UNL A   1      46.027  33.374  26.222  1.00  0.00    -0.200 F 
ENDBRANCH  54  77
ENDBRANCH  28  29
ENDBRANCH  20  23
ENDBRANCH   1  19
TORSDOF 10
ENDMDL
MODEL 2
REMARK VINA RESULT:     -11.9      3.776     10.694
REMARK SMILES Cc1cc2[nH]ccc2nc1C(=O)NCCCNC(=O)c1ccc(-c2c3nc(c(-c4c(F)c(F)c(F)c(F)c4F)c4ccc([nH]4)c(-c4c(F)c(F)c(F)c(F)c4F)c4nc(c(-c5c(F)c(F)c(F)c(F)c5F)c5ccc2[nH]5)C=C4)C=C3)cc1
REMARK SMILES IDX 16 1 15 2 14 3 13 4 11 5 12 6 10 8 1 9 2 10 3 11 4 12 9 13
REMARK SMILES IDX 5 14 8 15 6 16 7 18 17 19 18 20 19 22 20 23 21 24 82 25
REMARK SMILES IDX 22 26 81 27 23 28 24 29 25 30 75 31 26 32 80 33 74 34 76 35
REMARK SMILES IDX 27 36 79 37 73 38 72 39 28 41 60 42 40 43 59 44 41 45 44 46
REMARK SMILES IDX 58 47 77 48 42 49 43 50 57 52 78 53 45 54 29 55 30 56 38 57
REMARK SMILES IDX 31 58 32 59 36 60 39 61 33 62 34 63 37 64 35 65 61 66 62 67
REMARK SMILES IDX 70 68 63 69 64 70 68 71 71 72 65 73 66 74 69 75 67 76 46 77
REMARK SMILES IDX 47 78 55 79 48 80 49 81 53 82 56 83 50 84 51 85 54 86 52 87
REMARK H PARENT 13 7 5 17 17 21 76 40 44 51
REMARK Flexibility Score: inf
ROOT
ATOM      1  C   UNL A   1      43.262  22.405  25.665  1.00  0.00     0.118 C 
ENDROOT
BRANCH   1   2
ATOM      2  C   UNL A   1      44.114  21.504  24.817  1.00  0.00     0.042 C 
BRANCH   2   3
ATOM      3  C   UNL A   1      45.605  21.528  25.178  1.00  0.00     0.118 C 
BRANCH   3   4
ATOM      4  N   UNL A   1      46.279  22.608  24.486  1.00  0.00    -0.351 N 
ATOM      5  C   UNL A   1      46.598  23.909  24.801  1.00  0.00     0.270 C 
ATOM      6  O   UNL A   1      47.153  24.517  23.876  1.00  0.00    -0.268 OA
ATOM      7  H   UNL A   1      46.578  22.352  23.583  1.00  0.00     0.163 HD
BRANCH   5   8
ATOM      8  C   UNL A   1      46.407  24.617  26.139  1.00  0.00     0.131 A 
ATOM      9  C   UNL A   1      44.205  25.940  25.740  1.00  0.00     0.047 C 
ATOM     10  C   UNL A   1      45.340  25.436  26.562  1.00  0.00    -0.018 A 
ATOM     11  C   UNL A   1      45.359  25.985  27.857  1.00  0.00     0.034 A 
ATOM     12  C   UNL A   1      46.549  25.883  28.548  1.00  0.00     0.064 A 
ATOM     13  N   UNL A   1      47.531  24.453  26.892  1.00  0.00    -0.241 NA
ATOM     14  N   UNL A   1      46.965  26.467  29.716  1.00  0.00    -0.360 N 
ATOM     15  C   UNL A   1      47.608  25.152  28.041  1.00  0.00     0.089 A 
ATOM     16  C   UNL A   1      48.293  26.194  29.918  1.00  0.00     0.085 A 
ATOM     17  H   UNL A   1      46.397  27.001  30.318  1.00  0.00     0.166 HD
ATOM     18  C   UNL A   1      48.706  25.347  28.910  1.00  0.00     0.048 A 
ENDBRANCH   5   8
ENDBRANCH   3   4
ENDBRANCH   2   3
ENDBRANCH   1   2
BRANCH   1  19
ATOM     19  N   UNL A   1      42.157  21.719  26.330  1.00  0.00    -0.352 N 
ATOM     20  C   UNL A   1      41.321  22.240  27.309  1.00  0.00     0.251 C 
ATOM     21  H   UNL A   1      41.987  20.790  26.055  1.00  0.00     0.163 HD
ATOM     22  O   UNL A   1      40.690  21.510  28.054  1.00  0.00    -0.269 OA
BRANCH  20  23
ATOM     23  C   UNL A   1      41.242  23.709  27.436  1.00  0.00     0.039 A 
ATOM     24  C   UNL A   1      40.321  24.484  26.735  1.00  0.00     0.014 A 
ATOM     25  C   UNL A   1      42.086  24.301  28.365  1.00  0.00     0.014 A 
ATOM     26  C   UNL A   1      40.245  25.840  27.045  1.00  0.00     0.010 A 
ATOM     27  C   UNL A   1      41.742  25.496  28.913  1.00  0.00     0.010 A 
ATOM     28  C   UNL A   1      40.952  26.331  28.162  1.00  0.00    -0.014 A 
BRANCH  28  29
ATOM     29  C   UNL A   1      40.871  27.714  28.595  1.00  0.00     0.031 A 
ATOM     30  C   UNL A   1      41.952  28.559  28.058  1.00  0.00     0.074 A 
ATOM     31  C   UNL A   1      39.854  28.227  29.325  1.00  0.00     0.049 A 
ATOM     32  N   UNL A   1      42.995  28.951  28.703  1.00  0.00    -0.248 NA
ATOM     33  C   UNL A   1      41.993  28.835  26.617  1.00  0.00     0.031 C 
ATOM     34  C   UNL A   1      38.569  27.627  29.708  1.00  0.00     0.029 A 
ATOM     35  N   UNL A   1      39.759  29.476  29.853  1.00  0.00    -0.354 N 
ATOM     36  C   UNL A   1      43.741  29.699  27.806  1.00  0.00     0.074 A 
ATOM     37  C   UNL A   1      43.179  29.439  26.506  1.00  0.00     0.031 C 
ATOM     38  C   UNL A   1      37.748  28.578  30.208  1.00  0.00     0.029 A 
ATOM     39  C   UNL A   1      38.505  29.806  30.353  1.00  0.00     0.049 A 
ATOM     40  H   UNL A   1      40.520  30.100  29.880  1.00  0.00     0.167 HD
ATOM     41  C   UNL A   1      44.600  30.646  28.270  1.00  0.00     0.037 A 
ATOM     42  C   UNL A   1      38.127  31.010  30.849  1.00  0.00     0.037 A 
ATOM     43  C   UNL A   1      44.857  30.454  29.681  1.00  0.00     0.049 A 
ATOM     44  C   UNL A   1      39.371  31.708  31.269  1.00  0.00     0.074 A 
ATOM     45  C   UNL A   1      45.395  29.425  30.431  1.00  0.00     0.029 A 
ATOM     46  N   UNL A   1      44.159  31.236  30.571  1.00  0.00    -0.354 N 
ATOM     47  N   UNL A   1      40.121  31.304  32.260  1.00  0.00    -0.248 NA
ATOM     48  C   UNL A   1      40.039  32.540  30.278  1.00  0.00     0.031 C 
ATOM     49  C   UNL A   1      44.596  29.371  31.611  1.00  0.00     0.029 A 
ATOM     50  C   UNL A   1      43.672  30.415  31.556  1.00  0.00     0.049 A 
ATOM     51  H   UNL A   1      44.031  32.211  30.512  1.00  0.00     0.167 HD
ATOM     52  C   UNL A   1      41.421  31.451  31.800  1.00  0.00     0.074 A 
ATOM     53  C   UNL A   1      41.310  32.280  30.601  1.00  0.00     0.031 C 
ATOM     54  C   UNL A   1      42.428  30.650  32.255  1.00  0.00     0.037 A 
BRANCH  41  55
ATOM     55  C   UNL A   1      44.880  31.955  27.579  1.00  0.00     0.064 A 
ATOM     56  C   UNL A   1      46.117  32.113  26.921  1.00  0.00     0.173 A 
ATOM     57  C   UNL A   1      44.153  33.143  27.800  1.00  0.00     0.173 A 
ATOM     58  F   UNL A   1      46.893  31.051  26.657  1.00  0.00    -0.203 F 
ATOM     59  C   UNL A   1      46.633  33.373  26.617  1.00  0.00     0.198 A 
ATOM     60  C   UNL A   1      44.649  34.396  27.447  1.00  0.00     0.198 A 
ATOM     61  F   UNL A   1      42.990  33.165  28.461  1.00  0.00    -0.203 F 
ATOM     62  F   UNL A   1      47.876  33.480  26.126  1.00  0.00    -0.200 F 
ATOM     63  C   UNL A   1      45.905  34.515  26.892  1.00  0.00     0.200 A 
ATOM     64  F   UNL A   1      43.932  35.492  27.734  1.00  0.00    -0.200 F 
ATOM     65  F   UNL A   1      46.427  35.726  26.669  1.00  0.00    -0.200 F 
ENDBRANCH  41  55
BRANCH  42  66
ATOM     66  C   UNL A   1      36.841  31.718  30.624  1.00  0.00     0.064 A 
ATOM     67  C   UNL A   1      35.955  31.969  31.686  1.00  0.00     0.173 A 
ATOM     68  C   UNL A   1      36.588  32.414  29.425  1.00  0.00     0.173 A 
ATOM     69  F   UNL A   1      36.149  31.386  32.877  1.00  0.00    -0.203 F 
ATOM     70  C   UNL A   1      34.901  32.884  31.564  1.00  0.00     0.198 A 
ATOM     71  C   UNL A   1      35.535  33.323  29.304  1.00  0.00     0.198 A 
ATOM     72  F   UNL A   1      37.415  32.302  28.376  1.00  0.00    -0.203 F 
ATOM     73  F   UNL A   1      34.118  33.146  32.620  1.00  0.00    -0.200 F 
ATOM     74  C   UNL A   1      34.700  33.569  30.378  1.00  0.00     0.200 A 
ATOM     75  F   UNL A   1      35.376  34.009  28.163  1.00  0.00    -0.200 F 
ATOM     76  F   UNL A   1      33.733  34.493  30.282  1.00  0.00    -0.200 F 
ENDBRANCH  42  66
BRANCH  54  77
ATOM     77  C   UNL A   1      42.160  29.767  33.445  1.00  0.00     0.064 A 
ATOM     78  C   UNL A   1      41.696  28.442  33.357  1.00  0.00     0.173 A 
ATOM     79  C   UNL A   1      42.578  30.218  34.705  1.00  0.00     0.173 A 
ATOM     80  F   UNL A   1      41.358  27.906  32.178  1.00  0.00    -0.203 F 
ATOM     81  C   UNL A   1      41.642  27.618  34.481  1.00  0.00     0.198 A 
ATOM     82  C   UNL A   1      42.556  29.382  35.818  1.00  0.00     0.198 A 
ATOM     83  F   UNL A   1      43.075  31.457  34.841  1.00  0.00    -0.203 F 
ATOM     84  F   UNL A   1      41.204  26.354  34.369  1.00  0.00    -0.200 F 
ATOM     85  C   UNL A   1      42.084  28.084  35.707  1.00  0.00     0.200 A 
ATOM     86  F   UNL A   1      43.031  29.825  36.990  1.00  0.00    -0.200 F 
ATOM     87  F   UNL A   1      42.087  27.276  36.776  1.00  0.00    -0.200 F 
ENDBRANCH  54  77
ENDBRANCH  28  29
ENDBRANCH  20  23
ENDBRANCH   1  19
TORSDOF 10
ENDMDL
MODEL 3
REMARK VINA RESULT:     -11.9      3.711     10.855
REMARK SMILES Cc1cc2[nH]ccc2nc1C(=O)NCCCNC(=O)c1ccc(-c2c3nc(c(-c4c(F)c(F)c(F)c(F)c4F)c4ccc([nH]4)c(-c4c(F)c(F)c(F)c(F)c4F)c4nc(c(-c5c(F)c(F)c(F)c(F)c5F)c5ccc2[nH]5)C=C4)C=C3)cc1
REMARK SMILES IDX 16 1 15 2 14 3 13 4 11 5 12 6 10 8 1 9 2 10 3 11 4 12 9 13
REMARK SMILES IDX 5 14 8 15 6 16 7 18 17 19 18 20 19 22 20 23 21 24 82 25
REMARK SMILES IDX 22 26 81 27 23 28 24 29 25 30 75 31 26 32 80 33 74 34 76 35
REMARK SMILES IDX 27 36 79 37 73 38 72 39 28 41 60 42 40 43 59 44 41 45 44 46
REMARK SMILES IDX 58 47 77 48 42 49 43 50 57 52 78 53 45 54 29 55 30 56 38 57
REMARK SMILES IDX 31 58 32 59 36 60 39 61 33 62 34 63 37 64 35 65 61 66 62 67
REMARK SMILES IDX 70 68 63 69 64 70 68 71 71 72 65 73 66 74 69 75 67 76 46 77
REMARK SMILES IDX 47 78 55 79 48 80 49 81 53 82 56 83 50 84 51 85 54 86 52 87
REMARK H PARENT 13 7 5 17 17 21 76 40 44 51
REMARK Flexibility Score: inf
ROOT
ATOM      1  C   UNL A   1      42.905  22.373  25.526  1.00  0.00     0.118 C 
ENDROOT
BRANCH   1   2
ATOM      2  C   UNL A   1      44.005  21.442  25.101  1.00  0.00     0.042 C 
BRANCH   2   3
ATOM      3  C   UNL A   1      45.395  21.833  25.623  1.00  0.00     0.118 C 
BRANCH   3   4
ATOM      4  N   UNL A   1      45.284  22.541  26.882  1.00  0.00    -0.351 N 
ATOM      5  C   UNL A   1      45.529  23.831  27.292  1.00  0.00     0.270 C 
ATOM      6  O   UNL A   1      45.339  24.008  28.502  1.00  0.00    -0.268 OA
ATOM      7  H   UNL A   1      44.958  21.966  27.613  1.00  0.00     0.163 HD
BRANCH   5   8
ATOM      8  C   UNL A   1      45.925  25.024  26.426  1.00  0.00     0.131 A 
ATOM      9  C   UNL A   1      43.617  25.856  25.566  1.00  0.00     0.047 C 
ATOM     10  C   UNL A   1      45.094  25.934  25.740  1.00  0.00    -0.018 A 
ATOM     11  C   UNL A   1      45.674  26.980  25.000  1.00  0.00     0.034 A 
ATOM     12  C   UNL A   1      47.037  26.902  24.794  1.00  0.00     0.064 A 
ATOM     13  N   UNL A   1      47.280  25.037  26.282  1.00  0.00    -0.241 NA
ATOM     14  N   UNL A   1      47.865  27.623  23.974  1.00  0.00    -0.360 N 
ATOM     15  C   UNL A   1      47.796  25.924  25.409  1.00  0.00     0.089 A 
ATOM     16  C   UNL A   1      49.118  27.068  23.988  1.00  0.00     0.085 A 
ATOM     17  H   UNL A   1      47.601  28.416  23.454  1.00  0.00     0.166 HD
ATOM     18  C   UNL A   1      49.111  26.034  24.901  1.00  0.00     0.048 A 
ENDBRANCH   5   8
ENDBRANCH   3   4
ENDBRANCH   2   3
ENDBRANCH   1   2
BRANCH   1  19
ATOM     19  N   UNL A   1      41.806  21.709  26.223  1.00  0.00    -0.352 N 
ATOM     20  C   UNL A   1      41.027  22.236  27.245  1.00  0.00     0.251 C 
ATOM     21  H   UNL A   1      41.596  20.791  25.938  1.00  0.00     0.163 HD
ATOM     22  O   UNL A   1      40.404  21.512  28.001  1.00  0.00    -0.269 OA
BRANCH  20  23
ATOM     23  C   UNL A   1      41.001  23.705  27.402  1.00  0.00     0.039 A 
ATOM     24  C   UNL A   1      40.096  24.524  26.731  1.00  0.00     0.014 A 
ATOM     25  C   UNL A   1      41.878  24.248  28.328  1.00  0.00     0.014 A 
ATOM     26  C   UNL A   1      40.072  25.875  27.069  1.00  0.00     0.010 A 
ATOM     27  C   UNL A   1      41.584  25.443  28.905  1.00  0.00     0.010 A 
ATOM     28  C   UNL A   1      40.811  26.319  28.183  1.00  0.00    -0.014 A 
BRANCH  28  29
ATOM     29  C   UNL A   1      40.785  27.695  28.645  1.00  0.00     0.031 A 
ATOM     30  C   UNL A   1      41.865  28.524  28.078  1.00  0.00     0.074 A 
ATOM     31  C   UNL A   1      39.813  28.219  29.426  1.00  0.00     0.049 A 
ATOM     32  N   UNL A   1      42.943  28.876  28.687  1.00  0.00    -0.248 NA
ATOM     33  C   UNL A   1      41.853  28.825  26.642  1.00  0.00     0.031 C 
ATOM     34  C   UNL A   1      38.530  27.645  29.852  1.00  0.00     0.029 A 
ATOM     35  N   UNL A   1      39.772  29.461  29.981  1.00  0.00    -0.354 N 
ATOM     36  C   UNL A   1      43.671  29.622  27.773  1.00  0.00     0.074 A 
ATOM     37  C   UNL A   1      43.048  29.401  26.493  1.00  0.00     0.031 C 
ATOM     38  C   UNL A   1      37.755  28.607  30.403  1.00  0.00     0.029 A 
ATOM     39  C   UNL A   1      38.549  29.812  30.538  1.00  0.00     0.049 A 
ATOM     40  H   UNL A   1      40.549  30.064  29.986  1.00  0.00     0.167 HD
ATOM     41  C   UNL A   1      44.572  30.539  28.218  1.00  0.00     0.037 A 
ATOM     42  C   UNL A   1      38.223  31.016  31.071  1.00  0.00     0.037 A 
ATOM     43  C   UNL A   1      44.882  30.313  29.612  1.00  0.00     0.049 A 
ATOM     44  C   UNL A   1      39.501  31.673  31.452  1.00  0.00     0.074 A 
ATOM     45  C   UNL A   1      45.424  29.256  30.320  1.00  0.00     0.029 A 
ATOM     46  N   UNL A   1      44.242  31.095  30.546  1.00  0.00    -0.354 N 
ATOM     47  N   UNL A   1      40.281  31.232  32.403  1.00  0.00    -0.248 NA
ATOM     48  C   UNL A   1      40.149  32.507  30.449  1.00  0.00     0.031 C 
ATOM     49  C   UNL A   1      44.673  29.199  31.532  1.00  0.00     0.029 A 
ATOM     50  C   UNL A   1      43.775  30.267  31.535  1.00  0.00     0.049 A 
ATOM     51  H   UNL A   1      44.137  32.073  30.510  1.00  0.00     0.167 HD
ATOM     52  C   UNL A   1      41.564  31.355  31.892  1.00  0.00     0.074 A 
ATOM     53  C   UNL A   1      41.425  32.210  30.713  1.00  0.00     0.031 C 
ATOM     54  C   UNL A   1      42.568  30.520  32.290  1.00  0.00     0.037 A 
BRANCH  41  55
ATOM     55  C   UNL A   1      44.858  31.852  27.540  1.00  0.00     0.064 A 
ATOM     56  C   UNL A   1      46.099  32.016  26.890  1.00  0.00     0.173 A 
ATOM     57  C   UNL A   1      44.130  33.040  27.767  1.00  0.00     0.173 A 
ATOM     58  F   UNL A   1      46.874  30.955  26.621  1.00  0.00    -0.203 F 
ATOM     59  C   UNL A   1      46.617  33.278  26.600  1.00  0.00     0.198 A 
ATOM     60  C   UNL A   1      44.629  34.295  27.427  1.00  0.00     0.198 A 
ATOM     61  F   UNL A   1      42.964  33.057  28.421  1.00  0.00    -0.203 F 
ATOM     62  F   UNL A   1      47.862  33.387  26.116  1.00  0.00    -0.200 F 
ATOM     63  C   UNL A   1      45.889  34.417  26.880  1.00  0.00     0.200 A 
ATOM     64  F   UNL A   1      43.912  35.389  27.720  1.00  0.00    -0.200 F 
ATOM     65  F   UNL A   1      46.413  35.630  26.671  1.00  0.00    -0.200 F 
ENDBRANCH  41  55
BRANCH  42  66
ATOM     66  C   UNL A   1      36.948  31.759  30.913  1.00  0.00     0.064 A 
ATOM     67  C   UNL A   1      36.080  31.952  32.002  1.00  0.00     0.173 A 
ATOM     68  C   UNL A   1      36.692  32.542  29.769  1.00  0.00     0.173 A 
ATOM     69  F   UNL A   1      36.277  31.284  33.147  1.00  0.00    -0.203 F 
ATOM     70  C   UNL A   1      35.042  32.891  31.958  1.00  0.00     0.198 A 
ATOM     71  C   UNL A   1      35.655  33.475  29.726  1.00  0.00     0.198 A 
ATOM     72  F   UNL A   1      37.505  32.488  28.704  1.00  0.00    -0.203 F 
ATOM     73  F   UNL A   1      34.276  33.094  33.040  1.00  0.00    -0.200 F 
ATOM     74  C   UNL A   1      34.839  33.661  30.825  1.00  0.00     0.200 A 
ATOM     75  F   UNL A   1      35.495  34.242  28.637  1.00  0.00    -0.200 F 
ATOM     76  F   UNL A   1      33.887  34.606  30.806  1.00  0.00    -0.200 F 
ENDBRANCH  42  66
BRANCH  54  77
ATOM     77  C   UNL A   1      42.326  29.621  33.473  1.00  0.00     0.064 A 
ATOM     78  C   UNL A   1      41.797  28.321  33.383  1.00  0.00     0.173 A 
ATOM     79  C   UNL A   1      42.834  30.022  34.717  1.00  0.00     0.173 A 
ATOM     80  F   UNL A   1      41.369  27.830  32.214  1.00  0.00    -0.203 F 
ATOM     81  C   UNL A   1      41.768  27.473  34.490  1.00  0.00     0.198 A 
ATOM     82  C   UNL A   1      42.837  29.161  35.811  1.00  0.00     0.198 A 
ATOM     83  F   UNL A   1      43.396  31.234  34.851  1.00  0.00    -0.203 F 
ATOM     84  F   UNL A   1      41.266  26.234  34.376  1.00  0.00    -0.200 F 
ATOM     85  C   UNL A   1      42.300  27.889  35.698  1.00  0.00     0.200 A 
ATOM     86  F   UNL A   1      43.396  29.553  36.963  1.00  0.00    -0.200 F 
ATOM     87  F   UNL A   1      42.325  27.055  36.748  1.00  0.00    -0.200 F 
ENDBRANCH  54  77
ENDBRANCH  28  29
ENDBRANCH  20  23
ENDBRANCH   1  19
TORSDOF 10
ENDMDL
