MODEL 1
REMARK VINA RESULT:     -12.2      0.000      0.000
REMARK SMILES NC(=O)C[C@H](NC(=O)[C@@H]1CCC[NH2+]1)C(=O)NCCCNC(=O)c1ccc(-c2c3nc(c(-c4c(F)c(F)c(F)c(F)c4F)c4ccc([nH]4)c(-c4c(F)c(F)c(F)c(F)c4F)c4nc(c(-c5c(F)c(F)c(F)c(F)c5F)c5ccc2[nH]5)C=C4)C=C3)cc1
REMARK SMILES IDX 18 1 17 2 16 3 14 4 15 5 5 7 4 8 2 9 1 10 3 13 6 14 7 15
REMARK SMILES IDX 8 17 9 18 10 19 13 20 11 21 12 22 19 25 20 26 21 27 22 29
REMARK SMILES IDX 23 30 24 31 85 32 25 33 84 34 26 35 27 36 28 37 78 38 29 39
REMARK SMILES IDX 83 40 77 41 79 42 30 43 82 44 76 45 75 46 31 48 63 49 43 50
REMARK SMILES IDX 62 51 44 52 47 53 61 54 80 55 45 56 46 57 60 59 81 60 48 61
REMARK SMILES IDX 32 62 33 63 41 64 34 65 35 66 39 67 42 68 36 69 37 70 40 71
REMARK SMILES IDX 38 72 64 73 65 74 73 75 66 76 67 77 71 78 74 79 68 80 69 81
REMARK SMILES IDX 72 82 70 83 49 84 50 85 58 86 51 87 52 88 56 89 59 90 53 91
REMARK SMILES IDX 54 92 57 93 55 94
REMARK H PARENT 16 6 1 11 1 12 6 16 13 23 13 24 20 28 79 47 47 58
REMARK Flexibility Score: inf
ROOT
ATOM      1  C   UNL A   1      31.574  32.078  26.585  1.00  0.00     0.042 C 
ENDROOT
BRANCH   1   2
ATOM      2  C   UNL A   1      31.536  30.573  26.754  1.00  0.00     0.117 C 
BRANCH   2   3
ATOM      3  N   UNL A   1      32.626  29.879  26.105  1.00  0.00    -0.354 N 
ATOM      4  C   UNL A   1      32.612  28.770  25.315  1.00  0.00     0.243 C 
ATOM      5  O   UNL A   1      33.622  28.545  24.641  1.00  0.00    -0.273 OA
ATOM      6  H   UNL A   1      33.517  30.269  26.257  1.00  0.00     0.163 HD
BRANCH   4   7
ATOM      7  C   UNL A   1      31.389  27.832  25.208  1.00  0.00     0.180 C 
BRANCH   7   8
ATOM      8  C   UNL A   1      31.286  26.781  26.316  1.00  0.00     0.134 C 
BRANCH   8   9
ATOM      9  C   UNL A   1      30.729  25.438  25.931  1.00  0.00     0.220 C 
ATOM     10  N   UNL A   1      29.471  25.157  26.374  1.00  0.00    -0.370 N 
ATOM     11  H   UNL A   1      29.052  24.295  26.154  1.00  0.00     0.159 HD
ATOM     12  H   UNL A   1      28.980  25.819  26.913  1.00  0.00     0.159 HD
ATOM     13  O   UNL A   1      31.340  24.636  25.236  1.00  0.00    -0.275 OA
ENDBRANCH   8   9
ENDBRANCH   7   8
BRANCH   7  14
ATOM     14  N   UNL A   1      31.192  27.328  23.845  1.00  0.00    -0.339 N 
ATOM     15  C   UNL A   1      30.725  27.951  22.722  1.00  0.00     0.278 C 
ATOM     16  H   UNL A   1      31.438  26.383  23.717  1.00  0.00     0.164 HD
ATOM     17  O   UNL A   1      30.933  27.374  21.650  1.00  0.00    -0.268 OA
BRANCH  15  18
ATOM     18  C   UNL A   1      29.947  29.279  22.772  1.00  0.00     0.272 C 
ATOM     19  C   UNL A   1      28.436  29.142  22.768  1.00  0.00     0.081 C 
ATOM     20  N   UNL A   1      30.317  30.153  21.639  1.00  0.00    -0.336 N 
ATOM     21  C   UNL A   1      27.933  30.335  21.976  1.00  0.00     0.068 C 
ATOM     22  C   UNL A   1      29.151  30.978  21.335  1.00  0.00     0.261 C 
ATOM     23  H   UNL A   1      30.567  29.588  20.829  1.00  0.00     0.346 HD
ATOM     24  H   UNL A   1      31.121  30.734  21.877  1.00  0.00     0.346 HD
ENDBRANCH  15  18
ENDBRANCH   7  14
ENDBRANCH   4   7
ENDBRANCH   2   3
ENDBRANCH   1   2
BRANCH   1  25
ATOM     25  C   UNL A   1      32.730  32.743  27.309  1.00  0.00     0.118 C 
BRANCH  25  26
ATOM     26  N   UNL A   1      32.464  34.139  27.643  1.00  0.00    -0.352 N 
ATOM     27  C   UNL A   1      33.008  34.960  28.602  1.00  0.00     0.251 C 
ATOM     28  H   UNL A   1      31.775  34.566  27.084  1.00  0.00     0.163 HD
ATOM     29  O   UNL A   1      32.501  36.052  28.828  1.00  0.00    -0.269 OA
BRANCH  27  30
ATOM     30  C   UNL A   1      34.182  34.521  29.387  1.00  0.00     0.039 A 
ATOM     31  C   UNL A   1      33.986  34.028  30.680  1.00  0.00     0.014 A 
ATOM     32  C   UNL A   1      35.469  34.591  28.856  1.00  0.00     0.014 A 
ATOM     33  C   UNL A   1      35.069  33.516  31.395  1.00  0.00     0.010 A 
ATOM     34  C   UNL A   1      36.522  33.972  29.516  1.00  0.00     0.010 A 
ATOM     35  C   UNL A   1      36.336  33.430  30.795  1.00  0.00    -0.014 A 
BRANCH  35  36
ATOM     36  C   UNL A   1      37.474  32.766  31.476  1.00  0.00     0.031 A 
ATOM     37  C   UNL A   1      38.165  31.597  30.835  1.00  0.00     0.074 A 
ATOM     38  C   UNL A   1      37.821  33.159  32.717  1.00  0.00     0.049 A 
ATOM     39  N   UNL A   1      39.122  30.838  31.307  1.00  0.00    -0.248 NA
ATOM     40  C   UNL A   1      37.690  31.200  29.499  1.00  0.00     0.031 C 
ATOM     41  C   UNL A   1      37.174  34.233  33.474  1.00  0.00     0.029 A 
ATOM     42  N   UNL A   1      38.791  32.692  33.567  1.00  0.00    -0.354 N 
ATOM     43  C   UNL A   1      39.345  29.867  30.340  1.00  0.00     0.074 A 
ATOM     44  C   UNL A   1      38.382  30.091  29.285  1.00  0.00     0.031 C 
ATOM     45  C   UNL A   1      37.780  34.358  34.664  1.00  0.00     0.029 A 
ATOM     46  C   UNL A   1      38.825  33.345  34.774  1.00  0.00     0.049 A 
ATOM     47  H   UNL A   1      39.403  31.957  33.334  1.00  0.00     0.167 HD
ATOM     48  C   UNL A   1      40.285  28.892  30.323  1.00  0.00     0.037 A 
ATOM     49  C   UNL A   1      39.602  33.145  35.855  1.00  0.00     0.037 A 
ATOM     50  C   UNL A   1      41.253  28.691  31.370  1.00  0.00     0.049 A 
ATOM     51  C   UNL A   1      40.645  32.063  35.812  1.00  0.00     0.074 A 
ATOM     52  C   UNL A   1      42.307  27.797  31.411  1.00  0.00     0.029 A 
ATOM     53  N   UNL A   1      41.274  29.390  32.570  1.00  0.00    -0.354 N 
ATOM     54  N   UNL A   1      40.917  31.214  34.851  1.00  0.00    -0.248 NA
ATOM     55  C   UNL A   1      41.493  31.915  37.002  1.00  0.00     0.031 C 
ATOM     56  C   UNL A   1      42.923  27.906  32.663  1.00  0.00     0.029 A 
ATOM     57  C   UNL A   1      42.295  28.915  33.377  1.00  0.00     0.049 A 
ATOM     58  H   UNL A   1      40.654  30.115  32.812  1.00  0.00     0.167 HD
ATOM     59  C   UNL A   1      41.972  30.439  35.310  1.00  0.00     0.074 A 
ATOM     60  C   UNL A   1      42.307  30.938  36.630  1.00  0.00     0.031 C 
ATOM     61  C   UNL A   1      42.604  29.408  34.697  1.00  0.00     0.037 A 
BRANCH  48  62
ATOM     62  C   UNL A   1      40.297  27.963  29.141  1.00  0.00     0.064 A 
ATOM     63  C   UNL A   1      41.023  28.252  27.974  1.00  0.00     0.173 A 
ATOM     64  C   UNL A   1      39.571  26.762  29.176  1.00  0.00     0.173 A 
ATOM     65  F   UNL A   1      41.728  29.389  27.881  1.00  0.00    -0.203 F 
ATOM     66  C   UNL A   1      40.982  27.401  26.873  1.00  0.00     0.198 A 
ATOM     67  C   UNL A   1      39.563  25.894  28.086  1.00  0.00     0.198 A 
ATOM     68  F   UNL A   1      38.864  26.430  30.267  1.00  0.00    -0.203 F 
ATOM     69  F   UNL A   1      41.624  27.736  25.745  1.00  0.00    -0.200 F 
ATOM     70  C   UNL A   1      40.257  26.221  26.931  1.00  0.00     0.200 A 
ATOM     71  F   UNL A   1      38.874  24.747  28.151  1.00  0.00    -0.200 F 
ATOM     72  F   UNL A   1      40.216  25.403  25.870  1.00  0.00    -0.200 F 
ENDBRANCH  48  62
BRANCH  49  73
ATOM     73  C   UNL A   1      39.423  34.006  37.052  1.00  0.00     0.064 A 
ATOM     74  C   UNL A   1      38.659  33.572  38.145  1.00  0.00     0.173 A 
ATOM     75  C   UNL A   1      40.048  35.258  37.148  1.00  0.00     0.173 A 
ATOM     76  F   UNL A   1      38.027  32.391  38.094  1.00  0.00    -0.203 F 
ATOM     77  C   UNL A   1      38.524  34.362  39.286  1.00  0.00     0.198 A 
ATOM     78  C   UNL A   1      39.936  36.033  38.300  1.00  0.00     0.198 A 
ATOM     79  F   UNL A   1      40.797  35.713  36.133  1.00  0.00    -0.203 F 
ATOM     80  F   UNL A   1      37.765  33.938  40.305  1.00  0.00    -0.200 F 
ATOM     81  C   UNL A   1      39.170  35.586  39.366  1.00  0.00     0.200 A 
ATOM     82  F   UNL A   1      40.579  37.206  38.381  1.00  0.00    -0.200 F 
ATOM     83  F   UNL A   1      39.055  36.336  40.470  1.00  0.00    -0.200 F 
ENDBRANCH  49  73
BRANCH  61  84
ATOM     84  C   UNL A   1      43.729  28.750  35.446  1.00  0.00     0.064 A 
ATOM     85  C   UNL A   1      45.061  29.152  35.272  1.00  0.00     0.173 A 
ATOM     86  C   UNL A   1      43.466  27.733  36.376  1.00  0.00     0.173 A 
ATOM     87  F   UNL A   1      45.368  30.110  34.383  1.00  0.00    -0.203 F 
ATOM     88  C   UNL A   1      46.092  28.542  35.982  1.00  0.00     0.198 A 
ATOM     89  C   UNL A   1      44.495  27.149  37.109  1.00  0.00     0.198 A 
ATOM     90  F   UNL A   1      42.208  27.315  36.586  1.00  0.00    -0.203 F 
ATOM     91  F   UNL A   1      47.362  28.905  35.762  1.00  0.00    -0.200 F 
ATOM     92  C   UNL A   1      45.807  27.547  36.907  1.00  0.00     0.200 A 
ATOM     93  F   UNL A   1      44.215  26.200  38.014  1.00  0.00    -0.200 F 
ATOM     94  F   UNL A   1      46.799  26.967  37.596  1.00  0.00    -0.200 F 
ENDBRANCH  61  84
ENDBRANCH  35  36
ENDBRANCH  27  30
ENDBRANCH  25  26
ENDBRANCH   1  25
TORSDOF 14
ENDMDL
MODEL 2
REMARK VINA RESULT:     -12.1      0.534      2.068
REMARK SMILES NC(=O)C[C@H](NC(=O)[C@@H]1CCC[NH2+]1)C(=O)NCCCNC(=O)c1ccc(-c2c3nc(c(-c4c(F)c(F)c(F)c(F)c4F)c4ccc([nH]4)c(-c4c(F)c(F)c(F)c(F)c4F)c4nc(c(-c5c(F)c(F)c(F)c(F)c5F)c5ccc2[nH]5)C=C4)C=C3)cc1
REMARK SMILES IDX 18 1 17 2 16 3 14 4 15 5 5 7 4 8 2 9 1 10 3 13 6 14 7 15
REMARK SMILES IDX 8 17 9 18 10 19 13 20 11 21 12 22 19 25 20 26 21 27 22 29
REMARK SMILES IDX 23 30 24 31 85 32 25 33 84 34 26 35 27 36 28 37 78 38 29 39
REMARK SMILES IDX 83 40 77 41 79 42 30 43 82 44 76 45 75 46 31 48 63 49 43 50
REMARK SMILES IDX 62 51 44 52 47 53 61 54 80 55 45 56 46 57 60 59 81 60 48 61
REMARK SMILES IDX 32 62 33 63 41 64 34 65 35 66 39 67 42 68 36 69 37 70 40 71
REMARK SMILES IDX 38 72 64 73 65 74 73 75 66 76 67 77 71 78 74 79 68 80 69 81
REMARK SMILES IDX 72 82 70 83 49 84 50 85 58 86 51 87 52 88 56 89 59 90 53 91
REMARK SMILES IDX 54 92 57 93 55 94
REMARK H PARENT 16 6 1 11 1 12 6 16 13 23 13 24 20 28 79 47 47 58
REMARK Flexibility Score: inf
ROOT
ATOM      1  C   UNL A   1      31.585  32.063  26.700  1.00  0.00     0.042 C 
ENDROOT
BRANCH   1   2
ATOM      2  C   UNL A   1      31.639  30.566  26.917  1.00  0.00     0.117 C 
BRANCH   2   3
ATOM      3  N   UNL A   1      32.664  29.895  26.147  1.00  0.00    -0.354 N 
ATOM      4  C   UNL A   1      32.561  28.870  25.257  1.00  0.00     0.243 C 
ATOM      5  O   UNL A   1      33.527  28.672  24.512  1.00  0.00    -0.273 OA
ATOM      6  H   UNL A   1      33.578  30.233  26.288  1.00  0.00     0.163 HD
BRANCH   4   7
ATOM      7  C   UNL A   1      31.294  27.995  25.127  1.00  0.00     0.180 C 
BRANCH   7   8
ATOM      8  C   UNL A   1      31.309  26.714  25.964  1.00  0.00     0.134 C 
BRANCH   8   9
ATOM      9  C   UNL A   1      30.362  25.621  25.552  1.00  0.00     0.220 C 
ATOM     10  N   UNL A   1      29.497  25.180  26.509  1.00  0.00    -0.370 N 
ATOM     11  H   UNL A   1      28.852  24.467  26.299  1.00  0.00     0.159 HD
ATOM     12  H   UNL A   1      29.516  25.577  27.410  1.00  0.00     0.159 HD
ATOM     13  O   UNL A   1      30.330  25.156  24.419  1.00  0.00    -0.275 OA
ENDBRANCH   8   9
ENDBRANCH   7   8
BRANCH   7  14
ATOM     14  N   UNL A   1      30.874  27.829  23.732  1.00  0.00    -0.339 N 
ATOM     15  C   UNL A   1      30.067  28.600  22.945  1.00  0.00     0.278 C 
ATOM     16  H   UNL A   1      31.236  27.027  23.288  1.00  0.00     0.164 HD
ATOM     17  O   UNL A   1      30.115  28.380  21.731  1.00  0.00    -0.268 OA
BRANCH  15  18
ATOM     18  C   UNL A   1      29.115  29.664  23.523  1.00  0.00     0.272 C 
ATOM     19  C   UNL A   1      27.888  29.958  22.681  1.00  0.00     0.081 C 
ATOM     20  N   UNL A   1      29.821  30.944  23.742  1.00  0.00    -0.336 N 
ATOM     21  C   UNL A   1      27.625  31.441  22.869  1.00  0.00     0.068 C 
ATOM     22  C   UNL A   1      28.833  32.009  23.594  1.00  0.00     0.261 C 
ATOM     23  H   UNL A   1      30.563  31.056  23.052  1.00  0.00     0.346 HD
ATOM     24  H   UNL A   1      30.247  30.969  24.668  1.00  0.00     0.346 HD
ENDBRANCH  15  18
ENDBRANCH   7  14
ENDBRANCH   4   7
ENDBRANCH   2   3
ENDBRANCH   1   2
BRANCH   1  25
ATOM     25  C   UNL A   1      32.799  32.801  27.233  1.00  0.00     0.118 C 
BRANCH  25  26
ATOM     26  N   UNL A   1      32.502  34.174  27.629  1.00  0.00    -0.352 N 
ATOM     27  C   UNL A   1      33.026  34.963  28.626  1.00  0.00     0.251 C 
ATOM     28  H   UNL A   1      31.805  34.611  27.089  1.00  0.00     0.163 HD
ATOM     29  O   UNL A   1      32.494  36.031  28.900  1.00  0.00    -0.269 OA
BRANCH  27  30
ATOM     30  C   UNL A   1      34.208  34.514  29.394  1.00  0.00     0.039 A 
ATOM     31  C   UNL A   1      34.020  33.954  30.661  1.00  0.00     0.014 A 
ATOM     32  C   UNL A   1      35.495  34.640  28.873  1.00  0.00     0.014 A 
ATOM     33  C   UNL A   1      35.113  33.434  31.355  1.00  0.00     0.010 A 
ATOM     34  C   UNL A   1      36.560  34.015  29.506  1.00  0.00     0.010 A 
ATOM     35  C   UNL A   1      36.383  33.408  30.755  1.00  0.00    -0.014 A 
BRANCH  35  36
ATOM     36  C   UNL A   1      37.535  32.739  31.408  1.00  0.00     0.031 A 
ATOM     37  C   UNL A   1      38.211  31.573  30.745  1.00  0.00     0.074 A 
ATOM     38  C   UNL A   1      37.909  33.123  32.644  1.00  0.00     0.049 A 
ATOM     39  N   UNL A   1      39.178  30.810  31.192  1.00  0.00    -0.248 NA
ATOM     40  C   UNL A   1      37.709  31.185  29.417  1.00  0.00     0.031 C 
ATOM     41  C   UNL A   1      37.279  34.192  33.421  1.00  0.00     0.029 A 
ATOM     42  N   UNL A   1      38.896  32.650  33.470  1.00  0.00    -0.354 N 
ATOM     43  C   UNL A   1      39.380  29.846  30.215  1.00  0.00     0.074 A 
ATOM     44  C   UNL A   1      38.395  30.077  29.182  1.00  0.00     0.031 C 
ATOM     45  C   UNL A   1      37.910  34.310  34.599  1.00  0.00     0.029 A 
ATOM     46  C   UNL A   1      38.957  33.296  34.680  1.00  0.00     0.049 A 
ATOM     47  H   UNL A   1      39.503  31.916  33.220  1.00  0.00     0.167 HD
ATOM     48  C   UNL A   1      40.319  28.870  30.171  1.00  0.00     0.037 A 
ATOM     49  C   UNL A   1      39.756  33.088  35.744  1.00  0.00     0.037 A 
ATOM     50  C   UNL A   1      41.308  28.662  31.196  1.00  0.00     0.049 A 
ATOM     51  C   UNL A   1      40.797  32.006  35.672  1.00  0.00     0.074 A 
ATOM     52  C   UNL A   1      42.362  27.767  31.209  1.00  0.00     0.029 A 
ATOM     53  N   UNL A   1      41.355  29.354  32.400  1.00  0.00    -0.354 N 
ATOM     54  N   UNL A   1      41.048  31.163  34.700  1.00  0.00    -0.248 NA
ATOM     55  C   UNL A   1      41.670  31.850  36.843  1.00  0.00     0.031 C 
ATOM     56  C   UNL A   1      43.005  27.868  32.449  1.00  0.00     0.029 A 
ATOM     57  C   UNL A   1      42.393  28.872  33.182  1.00  0.00     0.049 A 
ATOM     58  H   UNL A   1      40.741  30.077  32.660  1.00  0.00     0.167 HD
ATOM     59  C   UNL A   1      42.112  30.385  35.132  1.00  0.00     0.074 A 
ATOM     60  C   UNL A   1      42.475  30.875  36.447  1.00  0.00     0.031 C 
ATOM     61  C   UNL A   1      42.730  29.357  34.499  1.00  0.00     0.037 A 
BRANCH  48  62
ATOM     62  C   UNL A   1      40.305  27.948  28.983  1.00  0.00     0.064 A 
ATOM     63  C   UNL A   1      39.579  26.746  28.983  1.00  0.00     0.173 A 
ATOM     64  C   UNL A   1      41.027  28.274  27.825  1.00  0.00     0.173 A 
ATOM     65  F   UNL A   1      38.877  26.380  30.067  1.00  0.00    -0.203 F 
ATOM     66  C   UNL A   1      39.617  25.884  27.891  1.00  0.00     0.198 A 
ATOM     67  C   UNL A   1      41.031  27.427  26.719  1.00  0.00     0.198 A 
ATOM     68  F   UNL A   1      41.733  29.414  27.764  1.00  0.00    -0.203 F 
ATOM     69  F   UNL A   1      38.976  24.708  27.944  1.00  0.00    -0.200 F 
ATOM     70  C   UNL A   1      40.339  26.227  26.757  1.00  0.00     0.200 A 
ATOM     71  F   UNL A   1      41.717  27.768  25.619  1.00  0.00    -0.200 F 
ATOM     72  F   UNL A   1      40.377  25.396  25.707  1.00  0.00    -0.200 F 
ENDBRANCH  48  62
BRANCH  49  73
ATOM     73  C   UNL A   1      39.603  33.941  36.950  1.00  0.00     0.064 A 
ATOM     74  C   UNL A   1      40.203  35.206  37.021  1.00  0.00     0.173 A 
ATOM     75  C   UNL A   1      38.818  33.529  38.037  1.00  0.00     0.173 A 
ATOM     76  F   UNL A   1      40.978  35.636  36.015  1.00  0.00    -0.203 F 
ATOM     77  C   UNL A   1      40.027  36.024  38.135  1.00  0.00     0.198 A 
ATOM     78  C   UNL A   1      38.618  34.360  39.137  1.00  0.00     0.198 A 
ATOM     79  F   UNL A   1      38.214  32.332  38.014  1.00  0.00    -0.203 F 
ATOM     80  F   UNL A   1      40.635  37.216  38.191  1.00  0.00    -0.200 F 
ATOM     81  C   UNL A   1      39.227  35.604  39.188  1.00  0.00     0.200 A 
ATOM     82  F   UNL A   1      37.828  33.958  40.142  1.00  0.00    -0.200 F 
ATOM     83  F   UNL A   1      39.042  36.399  40.250  1.00  0.00    -0.200 F 
ENDBRANCH  49  73
BRANCH  61  84
ATOM     84  C   UNL A   1      43.870  28.693  35.219  1.00  0.00     0.064 A 
ATOM     85  C   UNL A   1      43.662  27.596  36.068  1.00  0.00     0.173 A 
ATOM     86  C   UNL A   1      45.188  29.134  35.027  1.00  0.00     0.173 A 
ATOM     87  F   UNL A   1      42.419  27.144  36.298  1.00  0.00    -0.203 F 
ATOM     88  C   UNL A   1      44.729  26.982  36.719  1.00  0.00     0.198 A 
ATOM     89  C   UNL A   1      46.255  28.496  35.652  1.00  0.00     0.198 A 
ATOM     90  F   UNL A   1      45.443  30.175  34.221  1.00  0.00    -0.203 F 
ATOM     91  F   UNL A   1      44.502  25.969  37.566  1.00  0.00    -0.200 F 
ATOM     92  C   UNL A   1      46.025  27.426  36.504  1.00  0.00     0.200 A 
ATOM     93  F   UNL A   1      47.508  28.917  35.429  1.00  0.00    -0.200 F 
ATOM     94  F   UNL A   1      47.052  26.828  37.124  1.00  0.00    -0.200 F 
ENDBRANCH  61  84
ENDBRANCH  35  36
ENDBRANCH  27  30
ENDBRANCH  25  26
ENDBRANCH   1  25
TORSDOF 14
ENDMDL
MODEL 3
REMARK VINA RESULT:     -11.9      6.255     11.473
REMARK SMILES NC(=O)C[C@H](NC(=O)[C@@H]1CCC[NH2+]1)C(=O)NCCCNC(=O)c1ccc(-c2c3nc(c(-c4c(F)c(F)c(F)c(F)c4F)c4ccc([nH]4)c(-c4c(F)c(F)c(F)c(F)c4F)c4nc(c(-c5c(F)c(F)c(F)c(F)c5F)c5ccc2[nH]5)C=C4)C=C3)cc1
REMARK SMILES IDX 18 1 17 2 16 3 14 4 15 5 5 7 4 8 2 9 1 10 3 13 6 14 7 15
REMARK SMILES IDX 8 17 9 18 10 19 13 20 11 21 12 22 19 25 20 26 21 27 22 29
REMARK SMILES IDX 23 30 24 31 85 32 25 33 84 34 26 35 27 36 28 37 78 38 29 39
REMARK SMILES IDX 83 40 77 41 79 42 30 43 82 44 76 45 75 46 31 48 63 49 43 50
REMARK SMILES IDX 62 51 44 52 47 53 61 54 80 55 45 56 46 57 60 59 81 60 48 61
REMARK SMILES IDX 32 62 33 63 41 64 34 65 35 66 39 67 42 68 36 69 37 70 40 71
REMARK SMILES IDX 38 72 64 73 65 74 73 75 66 76 67 77 71 78 74 79 68 80 69 81
REMARK SMILES IDX 72 82 70 83 49 84 50 85 58 86 51 87 52 88 56 89 59 90 53 91
REMARK SMILES IDX 54 92 57 93 55 94
REMARK H PARENT 16 6 1 11 1 12 6 16 13 23 13 24 20 28 79 47 47 58
REMARK Flexibility Score: inf
ROOT
ATOM      1  C   UNL A   1      37.929  19.930  25.013  1.00  0.00     0.042 C 
ENDROOT
BRANCH   1   2
ATOM      2  C   UNL A   1      37.000  21.094  24.742  1.00  0.00     0.117 C 
BRANCH   2   3
ATOM      3  N   UNL A   1      36.208  21.496  25.884  1.00  0.00    -0.354 N 
ATOM      4  C   UNL A   1      34.875  21.358  26.118  1.00  0.00     0.243 C 
ATOM      5  O   UNL A   1      34.487  21.508  27.281  1.00  0.00    -0.273 OA
ATOM      6  H   UNL A   1      36.713  21.937  26.605  1.00  0.00     0.163 HD
BRANCH   4   7
ATOM      7  C   UNL A   1      33.862  20.991  25.009  1.00  0.00     0.180 C 
BRANCH   7   8
ATOM      8  C   UNL A   1      33.833  19.509  24.630  1.00  0.00     0.134 C 
BRANCH   8   9
ATOM      9  C   UNL A   1      32.829  18.643  25.341  1.00  0.00     0.220 C 
ATOM     10  N   UNL A   1      32.865  18.672  26.703  1.00  0.00    -0.370 N 
ATOM     11  H   UNL A   1      32.231  18.128  27.224  1.00  0.00     0.159 HD
ATOM     12  H   UNL A   1      33.523  19.240  27.166  1.00  0.00     0.159 HD
ATOM     13  O   UNL A   1      31.996  17.964  24.752  1.00  0.00    -0.275 OA
ENDBRANCH   8   9
ENDBRANCH   7   8
BRANCH   7  14
ATOM     14  N   UNL A   1      33.910  21.927  23.881  1.00  0.00    -0.339 N 
ATOM     15  C   UNL A   1      33.266  23.115  23.680  1.00  0.00     0.278 C 
ATOM     16  H   UNL A   1      34.506  21.653  23.146  1.00  0.00     0.164 HD
ATOM     17  O   UNL A   1      33.708  23.829  22.775  1.00  0.00    -0.268 OA
BRANCH  15  18
ATOM     18  C   UNL A   1      32.033  23.540  24.498  1.00  0.00     0.272 C 
ATOM     19  C   UNL A   1      30.971  24.294  23.721  1.00  0.00     0.081 C 
ATOM     20  N   UNL A   1      32.426  24.385  25.647  1.00  0.00    -0.336 N 
ATOM     21  C   UNL A   1      30.400  25.300  24.703  1.00  0.00     0.068 C 
ATOM     22  C   UNL A   1      31.306  25.280  25.923  1.00  0.00     0.261 C 
ATOM     23  H   UNL A   1      33.258  24.925  25.415  1.00  0.00     0.346 HD
ATOM     24  H   UNL A   1      32.641  23.811  26.462  1.00  0.00     0.346 HD
ENDBRANCH  15  18
ENDBRANCH   7  14
ENDBRANCH   4   7
ENDBRANCH   2   3
ENDBRANCH   1   2
BRANCH   1  25
ATOM     25  C   UNL A   1      39.123  20.291  25.877  1.00  0.00     0.118 C 
BRANCH  25  26
ATOM     26  N   UNL A   1      40.131  19.237  25.924  1.00  0.00    -0.352 N 
ATOM     27  C   UNL A   1      41.497  19.296  26.067  1.00  0.00     0.251 C 
ATOM     28  H   UNL A   1      39.770  18.325  25.839  1.00  0.00     0.163 HD
ATOM     29  O   UNL A   1      42.172  18.289  25.893  1.00  0.00    -0.269 OA
BRANCH  27  30
ATOM     30  C   UNL A   1      42.162  20.576  26.395  1.00  0.00     0.039 A 
ATOM     31  C   UNL A   1      42.665  21.365  25.357  1.00  0.00     0.014 A 
ATOM     32  C   UNL A   1      42.291  21.001  27.717  1.00  0.00     0.014 A 
ATOM     33  C   UNL A   1      43.204  22.620  25.641  1.00  0.00     0.010 A 
ATOM     34  C   UNL A   1      42.712  22.296  27.987  1.00  0.00     0.010 A 
ATOM     35  C   UNL A   1      43.177  23.119  26.954  1.00  0.00    -0.014 A 
BRANCH  35  36
ATOM     36  C   UNL A   1      43.614  24.502  27.266  1.00  0.00     0.031 A 
ATOM     37  C   UNL A   1      42.628  25.513  27.775  1.00  0.00     0.074 A 
ATOM     38  C   UNL A   1      44.883  24.870  26.999  1.00  0.00     0.049 A 
ATOM     39  N   UNL A   1      42.801  26.787  28.028  1.00  0.00    -0.248 NA
ATOM     40  C   UNL A   1      41.250  25.042  27.992  1.00  0.00     0.031 C 
ATOM     41  C   UNL A   1      45.912  23.997  26.432  1.00  0.00     0.029 A 
ATOM     42  N   UNL A   1      45.517  26.076  27.153  1.00  0.00    -0.354 N 
ATOM     43  C   UNL A   1      41.556  27.267  28.409  1.00  0.00     0.074 A 
ATOM     44  C   UNL A   1      40.623  26.169  28.293  1.00  0.00     0.031 C 
ATOM     45  C   UNL A   1      47.055  24.689  26.308  1.00  0.00     0.029 A 
ATOM     46  C   UNL A   1      46.828  26.063  26.743  1.00  0.00     0.049 A 
ATOM     47  H   UNL A   1      45.075  26.875  27.521  1.00  0.00     0.167 HD
ATOM     48  C   UNL A   1      41.225  28.508  28.842  1.00  0.00     0.037 A 
ATOM     49  C   UNL A   1      47.743  27.051  26.707  1.00  0.00     0.037 A 
ATOM     50  C   UNL A   1      42.166  29.590  28.973  1.00  0.00     0.049 A 
ATOM     51  C   UNL A   1      47.358  28.418  27.199  1.00  0.00     0.074 A 
ATOM     52  C   UNL A   1      41.959  30.856  29.489  1.00  0.00     0.029 A 
ATOM     53  N   UNL A   1      43.495  29.533  28.571  1.00  0.00    -0.354 N 
ATOM     54  N   UNL A   1      46.203  28.838  27.655  1.00  0.00    -0.248 NA
ATOM     55  C   UNL A   1      48.406  29.447  27.178  1.00  0.00     0.031 C 
ATOM     56  C   UNL A   1      43.142  31.588  29.335  1.00  0.00     0.029 A 
ATOM     57  C   UNL A   1      44.106  30.758  28.786  1.00  0.00     0.049 A 
ATOM     58  H   UNL A   1      43.935  28.742  28.189  1.00  0.00     0.167 HD
ATOM     59  C   UNL A   1      46.384  30.173  27.986  1.00  0.00     0.074 A 
ATOM     60  C   UNL A   1      47.770  30.486  27.701  1.00  0.00     0.031 C 
ATOM     61  C   UNL A   1      45.484  31.060  28.478  1.00  0.00     0.037 A 
BRANCH  48  62
ATOM     62  C   UNL A   1      39.783  28.760  29.186  1.00  0.00     0.064 A 
ATOM     63  C   UNL A   1      38.865  29.243  28.239  1.00  0.00     0.173 A 
ATOM     64  C   UNL A   1      39.311  28.512  30.484  1.00  0.00     0.173 A 
ATOM     65  F   UNL A   1      39.263  29.505  26.985  1.00  0.00    -0.203 F 
ATOM     66  C   UNL A   1      37.546  29.514  28.590  1.00  0.00     0.198 A 
ATOM     67  C   UNL A   1      37.980  28.748  30.822  1.00  0.00     0.198 A 
ATOM     68  F   UNL A   1      40.140  28.043  31.429  1.00  0.00    -0.203 F 
ATOM     69  F   UNL A   1      36.708  30.043  27.688  1.00  0.00    -0.200 F 
ATOM     70  C   UNL A   1      37.102  29.261  29.880  1.00  0.00     0.200 A 
ATOM     71  F   UNL A   1      37.550  28.488  32.064  1.00  0.00    -0.200 F 
ATOM     72  F   UNL A   1      35.832  29.524  30.218  1.00  0.00    -0.200 F 
ENDBRANCH  48  62
BRANCH  49  73
ATOM     73  C   UNL A   1      49.109  26.762  26.202  1.00  0.00     0.064 A 
ATOM     74  C   UNL A   1      50.073  26.167  27.027  1.00  0.00     0.173 A 
ATOM     75  C   UNL A   1      49.465  27.033  24.872  1.00  0.00     0.173 A 
ATOM     76  F   UNL A   1      49.787  25.905  28.310  1.00  0.00    -0.203 F 
ATOM     77  C   UNL A   1      51.343  25.859  26.542  1.00  0.00     0.198 A 
ATOM     78  C   UNL A   1      50.725  26.698  24.381  1.00  0.00     0.198 A 
ATOM     79  F   UNL A   1      48.575  27.594  24.040  1.00  0.00    -0.203 F 
ATOM     80  F   UNL A   1      52.256  25.316  27.359  1.00  0.00    -0.200 F 
ATOM     81  C   UNL A   1      51.664  26.115  25.218  1.00  0.00     0.200 A 
ATOM     82  F   UNL A   1      51.023  26.929  23.095  1.00  0.00    -0.200 F 
ATOM     83  F   UNL A   1      52.878  25.801  24.747  1.00  0.00    -0.200 F 
ENDBRANCH  49  73
BRANCH  61  84
ATOM     84  C   UNL A   1      45.971  32.456  28.746  1.00  0.00     0.064 A 
ATOM     85  C   UNL A   1      45.867  33.468  27.780  1.00  0.00     0.173 A 
ATOM     86  C   UNL A   1      46.511  32.795  29.995  1.00  0.00     0.173 A 
ATOM     87  F   UNL A   1      45.372  33.193  26.563  1.00  0.00    -0.203 F 
ATOM     88  C   UNL A   1      46.311  34.761  28.046  1.00  0.00     0.198 A 
ATOM     89  C   UNL A   1      46.923  34.096  30.270  1.00  0.00     0.198 A 
ATOM     90  F   UNL A   1      46.628  31.867  30.957  1.00  0.00    -0.203 F 
ATOM     91  F   UNL A   1      46.250  35.699  27.091  1.00  0.00    -0.200 F 
ATOM     92  C   UNL A   1      46.830  35.076  29.294  1.00  0.00     0.200 A 
ATOM     93  F   UNL A   1      47.407  34.402  31.482  1.00  0.00    -0.200 F 
ATOM     94  F   UNL A   1      47.248  36.323  29.551  1.00  0.00    -0.200 F 
ENDBRANCH  61  84
ENDBRANCH  35  36
ENDBRANCH  27  30
ENDBRANCH  25  26
ENDBRANCH   1  25
TORSDOF 14
ENDMDL
