MODEL 1
REMARK VINA RESULT:     -10.7      0.000      0.000
REMARK SMILES C=CC[N@H+](CC(=O)NCCCNC(=O)c1ccc(-c2c3nc(c(-c4c(F)c(F)c(F)c(F)c4F)c4ccc([nH]4)c(-c4c(F)c(F)c(F)c(F)c4F)c4nc(c(-c5c(F)c(F)c(F)c(F)c5F)c5ccc2[nH]5)C=C4)C=C3)cc1)C[C@H]1C[N@@H+](C(C)C)CCO1
REMARK SMILES IDX 9 1 8 2 6 3 7 4 5 6 4 7 3 9 2 10 1 11 78 12 79 13 80 14
REMARK SMILES IDX 87 15 81 16 86 17 85 18 82 20 83 21 84 22 10 23 11 24 12 25
REMARK SMILES IDX 13 26 14 28 15 29 16 30 77 31 17 32 76 33 18 34 19 35 20 36
REMARK SMILES IDX 70 37 21 38 75 39 69 40 71 41 22 42 74 43 68 44 67 45 23 47
REMARK SMILES IDX 55 48 35 49 54 50 36 51 39 52 53 53 72 54 37 55 38 56 52 58
REMARK SMILES IDX 73 59 40 60 24 61 25 62 33 63 26 64 27 65 31 66 34 67 28 68
REMARK SMILES IDX 29 69 32 70 30 71 56 72 57 73 65 74 58 75 59 76 63 77 66 78
REMARK SMILES IDX 60 79 61 80 64 81 62 82 41 83 42 84 50 85 43 86 44 87 48 88
REMARK SMILES IDX 51 89 45 90 46 91 49 92 47 93
REMARK H PARENT 8 5 4 8 81 19 12 27 71 46 39 57
REMARK Flexibility Score: inf
ROOT
ATOM      1  C   UNL A   1      31.371  30.829  26.262  1.00  0.00     0.118 C 
ENDROOT
BRANCH   1   2
ATOM      2  N   UNL A   1      31.119  30.466  24.884  1.00  0.00    -0.351 N 
ATOM      3  C   UNL A   1      31.101  29.214  24.340  1.00  0.00     0.275 C 
ATOM      4  O   UNL A   1      30.564  29.070  23.237  1.00  0.00    -0.269 OA
ATOM      5  H   UNL A   1      30.939  31.209  24.266  1.00  0.00     0.163 HD
BRANCH   3   6
ATOM      6  C   UNL A   1      31.577  28.008  25.150  1.00  0.00     0.363 C 
BRANCH   6   7
ATOM      7  N   UNL A   1      33.040  27.700  25.035  1.00  0.00    -0.322 N 
ATOM      8  H   UNL A   1      33.493  28.323  24.367  1.00  0.00     0.348 HD
BRANCH   7   9
ATOM      9  C   UNL A   1      33.618  27.878  26.385  1.00  0.00     0.290 C 
BRANCH   9  10
ATOM     10  C   UNL A   1      34.532  29.052  26.622  1.00  0.00     0.025 C 
ATOM     11  C   UNL A   1      34.925  29.559  27.798  1.00  0.00     0.010 C 
ENDBRANCH   9  10
ENDBRANCH   7   9
BRANCH   7  12
ATOM     12  C   UNL A   1      33.253  26.316  24.532  1.00  0.00     0.301 C 
BRANCH  12  13
ATOM     13  C   UNL A   1      33.697  25.226  25.547  1.00  0.00     0.228 C 
ATOM     14  C   UNL A   1      32.747  23.995  25.538  1.00  0.00     0.300 C 
ATOM     15  O   UNL A   1      35.067  24.819  25.486  1.00  0.00    -0.361 OA
ATOM     16  N   UNL A   1      33.034  22.926  24.566  1.00  0.00    -0.329 N 
ATOM     17  C   UNL A   1      35.357  23.859  24.466  1.00  0.00     0.222 C 
ATOM     18  C   UNL A   1      34.464  22.618  24.546  1.00  0.00     0.291 C 
ATOM     19  H   UNL A   1      32.576  22.084  24.914  1.00  0.00     0.348 HD
BRANCH  16  20
ATOM     20  C   UNL A   1      32.318  22.969  23.288  1.00  0.00     0.177 C 
ATOM     21  C   UNL A   1      32.099  21.658  22.524  1.00  0.00     0.075 C 
ATOM     22  C   UNL A   1      30.932  23.587  23.542  1.00  0.00     0.075 C 
ENDBRANCH  16  20
ENDBRANCH  12  13
ENDBRANCH   7  12
ENDBRANCH   6   7
ENDBRANCH   3   6
ENDBRANCH   1   2
BRANCH   1  23
ATOM     23  C   UNL A   1      31.392  32.332  26.507  1.00  0.00     0.042 C 
BRANCH  23  24
ATOM     24  C   UNL A   1      32.658  32.825  27.187  1.00  0.00     0.118 C 
BRANCH  24  25
ATOM     25  N   UNL A   1      32.541  34.210  27.613  1.00  0.00    -0.352 N 
ATOM     26  C   UNL A   1      33.075  34.875  28.688  1.00  0.00     0.251 C 
ATOM     27  H   UNL A   1      31.980  34.769  27.028  1.00  0.00     0.163 HD
ATOM     28  O   UNL A   1      32.598  35.963  29.004  1.00  0.00    -0.269 OA
BRANCH  26  29
ATOM     29  C   UNL A   1      34.204  34.325  29.475  1.00  0.00     0.039 A 
ATOM     30  C   UNL A   1      35.505  34.509  28.989  1.00  0.00     0.014 A 
ATOM     31  C   UNL A   1      34.010  33.538  30.611  1.00  0.00     0.014 A 
ATOM     32  C   UNL A   1      36.595  33.933  29.650  1.00  0.00     0.010 A 
ATOM     33  C   UNL A   1      35.101  33.042  31.324  1.00  0.00     0.010 A 
ATOM     34  C   UNL A   1      36.405  33.208  30.835  1.00  0.00    -0.014 A 
BRANCH  34  35
ATOM     35  C   UNL A   1      37.548  32.578  31.547  1.00  0.00     0.031 A 
ATOM     36  C   UNL A   1      38.283  31.417  30.929  1.00  0.00     0.074 A 
ATOM     37  C   UNL A   1      37.891  33.009  32.776  1.00  0.00     0.049 A 
ATOM     38  N   UNL A   1      39.260  30.696  31.421  1.00  0.00    -0.248 NA
ATOM     39  C   UNL A   1      37.837  30.988  29.595  1.00  0.00     0.031 C 
ATOM     40  C   UNL A   1      37.225  34.085  33.508  1.00  0.00     0.029 A 
ATOM     41  N   UNL A   1      38.878  32.584  33.630  1.00  0.00    -0.354 N 
ATOM     42  C   UNL A   1      39.521  29.715  30.473  1.00  0.00     0.074 A 
ATOM     43  C   UNL A   1      38.570  29.902  29.399  1.00  0.00     0.031 C 
ATOM     44  C   UNL A   1      37.832  34.250  34.693  1.00  0.00     0.029 A 
ATOM     45  C   UNL A   1      38.909  33.270  34.818  1.00  0.00     0.049 A 
ATOM     46  H   UNL A   1      39.504  31.857  33.411  1.00  0.00     0.167 HD
ATOM     47  C   UNL A   1      40.481  28.758  30.484  1.00  0.00     0.037 A 
ATOM     48  C   UNL A   1      39.711  33.125  35.890  1.00  0.00     0.037 A 
ATOM     49  C   UNL A   1      41.455  28.602  31.532  1.00  0.00     0.049 A 
ATOM     50  C   UNL A   1      40.793  32.082  35.866  1.00  0.00     0.074 A 
ATOM     51  C   UNL A   1      42.525  27.726  31.593  1.00  0.00     0.029 A 
ATOM     52  N   UNL A   1      41.476  29.342  32.705  1.00  0.00    -0.354 N 
ATOM     53  N   UNL A   1      41.081  31.211  34.930  1.00  0.00    -0.248 NA
ATOM     54  C   UNL A   1      41.668  32.008  37.045  1.00  0.00     0.031 C 
ATOM     55  C   UNL A   1      43.168  27.906  32.824  1.00  0.00     0.029 A 
ATOM     56  C   UNL A   1      42.526  28.925  33.509  1.00  0.00     0.049 A 
ATOM     57  H   UNL A   1      40.840  30.057  32.934  1.00  0.00     0.167 HD
ATOM     58  C   UNL A   1      42.178  30.499  35.395  1.00  0.00     0.074 A 
ATOM     59  C   UNL A   1      42.515  31.052  36.691  1.00  0.00     0.031 C 
ATOM     60  C   UNL A   1      42.845  29.479  34.800  1.00  0.00     0.037 A 
BRANCH  47  61
ATOM     61  C   UNL A   1      40.519  27.801  29.326  1.00  0.00     0.064 A 
ATOM     62  C   UNL A   1      39.660  26.694  29.253  1.00  0.00     0.173 A 
ATOM     63  C   UNL A   1      41.419  28.002  28.269  1.00  0.00     0.173 A 
ATOM     64  F   UNL A   1      38.787  26.450  30.242  1.00  0.00    -0.203 F 
ATOM     65  C   UNL A   1      39.728  25.803  28.185  1.00  0.00     0.198 A 
ATOM     66  C   UNL A   1      41.463  27.126  27.187  1.00  0.00     0.198 A 
ATOM     67  F   UNL A   1      42.258  29.049  28.284  1.00  0.00    -0.203 F 
ATOM     68  F   UNL A   1      38.937  24.720  28.167  1.00  0.00    -0.200 F 
ATOM     69  C   UNL A   1      40.625  26.022  27.151  1.00  0.00     0.200 A 
ATOM     70  F   UNL A   1      42.321  27.348  26.181  1.00  0.00    -0.200 F 
ATOM     71  F   UNL A   1      40.689  25.163  26.124  1.00  0.00    -0.200 F 
ENDBRANCH  47  61
BRANCH  48  72
ATOM     72  C   UNL A   1      39.529  34.017  37.062  1.00  0.00     0.064 A 
ATOM     73  C   UNL A   1      38.773  33.607  38.168  1.00  0.00     0.173 A 
ATOM     74  C   UNL A   1      40.138  35.280  37.118  1.00  0.00     0.173 A 
ATOM     75  F   UNL A   1      38.158  32.415  38.153  1.00  0.00    -0.203 F 
ATOM     76  C   UNL A   1      38.624  34.428  39.283  1.00  0.00     0.198 A 
ATOM     77  C   UNL A   1      40.008  36.091  38.244  1.00  0.00     0.198 A 
ATOM     78  F   UNL A   1      40.877  35.715  36.088  1.00  0.00    -0.203 F 
ATOM     79  F   UNL A   1      37.873  34.024  40.316  1.00  0.00    -0.200 F 
ATOM     80  C   UNL A   1      39.249  35.666  39.323  1.00  0.00     0.200 A 
ATOM     81  F   UNL A   1      40.625  37.280  38.284  1.00  0.00    -0.200 F 
ATOM     82  F   UNL A   1      39.117  36.451  40.402  1.00  0.00    -0.200 F 
ENDBRANCH  48  72
BRANCH  60  83
ATOM     83  C   UNL A   1      44.016  28.903  35.540  1.00  0.00     0.064 A 
ATOM     84  C   UNL A   1      45.317  29.389  35.348  1.00  0.00     0.173 A 
ATOM     85  C   UNL A   1      43.829  27.879  36.482  1.00  0.00     0.173 A 
ATOM     86  F   UNL A   1      45.549  30.356  34.447  1.00  0.00    -0.203 F 
ATOM     87  C   UNL A   1      46.392  28.856  36.054  1.00  0.00     0.198 A 
ATOM     88  C   UNL A   1      44.902  27.367  37.206  1.00  0.00     0.198 A 
ATOM     89  F   UNL A   1      42.603  27.383  36.707  1.00  0.00    -0.203 F 
ATOM     90  F   UNL A   1      47.633  29.305  35.822  1.00  0.00    -0.200 F 
ATOM     91  C   UNL A   1      46.182  27.851  36.987  1.00  0.00     0.200 A 
ATOM     92  F   UNL A   1      44.696  26.405  38.115  1.00  0.00    -0.200 F 
ATOM     93  F   UNL A   1      47.217  27.343  37.670  1.00  0.00    -0.200 F 
ENDBRANCH  60  83
ENDBRANCH  34  35
ENDBRANCH  26  29
ENDBRANCH  24  25
ENDBRANCH  23  24
ENDBRANCH   1  23
TORSDOF 16
ENDMDL
MODEL 2
REMARK VINA RESULT:     -10.7      0.651      2.161
REMARK SMILES C=CC[N@H+](CC(=O)NCCCNC(=O)c1ccc(-c2c3nc(c(-c4c(F)c(F)c(F)c(F)c4F)c4ccc([nH]4)c(-c4c(F)c(F)c(F)c(F)c4F)c4nc(c(-c5c(F)c(F)c(F)c(F)c5F)c5ccc2[nH]5)C=C4)C=C3)cc1)C[C@H]1C[N@@H+](C(C)C)CCO1
REMARK SMILES IDX 9 1 8 2 6 3 7 4 5 6 4 7 3 9 2 10 1 11 78 12 79 13 80 14
REMARK SMILES IDX 87 15 81 16 86 17 85 18 82 20 83 21 84 22 10 23 11 24 12 25
REMARK SMILES IDX 13 26 14 28 15 29 16 30 77 31 17 32 76 33 18 34 19 35 20 36
REMARK SMILES IDX 70 37 21 38 75 39 69 40 71 41 22 42 74 43 68 44 67 45 23 47
REMARK SMILES IDX 55 48 35 49 54 50 36 51 39 52 53 53 72 54 37 55 38 56 52 58
REMARK SMILES IDX 73 59 40 60 24 61 25 62 33 63 26 64 27 65 31 66 34 67 28 68
REMARK SMILES IDX 29 69 32 70 30 71 56 72 57 73 65 74 58 75 59 76 63 77 66 78
REMARK SMILES IDX 60 79 61 80 64 81 62 82 41 83 42 84 50 85 43 86 44 87 48 88
REMARK SMILES IDX 51 89 45 90 46 91 49 92 47 93
REMARK H PARENT 8 5 4 8 81 19 12 27 71 46 39 57
REMARK Flexibility Score: inf
ROOT
ATOM      1  C   UNL A   1      31.297  30.984  26.356  1.00  0.00     0.118 C 
ENDROOT
BRANCH   1   2
ATOM      2  N   UNL A   1      31.159  30.584  24.973  1.00  0.00    -0.351 N 
ATOM      3  C   UNL A   1      31.176  29.317  24.464  1.00  0.00     0.275 C 
ATOM      4  O   UNL A   1      30.732  29.147  23.324  1.00  0.00    -0.269 OA
ATOM      5  H   UNL A   1      31.039  31.311  24.321  1.00  0.00     0.163 HD
BRANCH   3   6
ATOM      6  C   UNL A   1      31.571  28.132  25.345  1.00  0.00     0.363 C 
BRANCH   6   7
ATOM      7  N   UNL A   1      32.918  27.543  25.053  1.00  0.00    -0.322 N 
ATOM      8  H   UNL A   1      33.432  28.117  24.384  1.00  0.00     0.348 HD
BRANCH   7   9
ATOM      9  C   UNL A   1      33.640  27.475  26.342  1.00  0.00     0.290 C 
BRANCH   9  10
ATOM     10  C   UNL A   1      33.883  28.760  27.091  1.00  0.00     0.025 C 
ATOM     11  C   UNL A   1      35.062  29.333  27.371  1.00  0.00     0.010 C 
ENDBRANCH   9  10
ENDBRANCH   7   9
BRANCH   7  12
ATOM     12  C   UNL A   1      32.785  26.195  24.435  1.00  0.00     0.301 C 
BRANCH  12  13
ATOM     13  C   UNL A   1      34.081  25.455  24.002  1.00  0.00     0.228 C 
ATOM     14  C   UNL A   1      34.571  24.448  25.082  1.00  0.00     0.300 C 
ATOM     15  O   UNL A   1      34.067  24.851  22.705  1.00  0.00    -0.361 OA
ATOM     16  N   UNL A   1      34.013  23.086  25.038  1.00  0.00    -0.329 N 
ATOM     17  C   UNL A   1      33.427  23.572  22.652  1.00  0.00     0.222 C 
ATOM     18  C   UNL A   1      33.999  22.579  23.666  1.00  0.00     0.291 C 
ATOM     19  H   UNL A   1      34.665  22.488  25.546  1.00  0.00     0.348 HD
BRANCH  16  20
ATOM     20  C   UNL A   1      32.856  22.805  25.892  1.00  0.00     0.177 C 
ATOM     21  C   UNL A   1      31.817  21.786  25.408  1.00  0.00     0.075 C 
ATOM     22  C   UNL A   1      33.379  22.312  27.253  1.00  0.00     0.075 C 
ENDBRANCH  16  20
ENDBRANCH  12  13
ENDBRANCH   7  12
ENDBRANCH   6   7
ENDBRANCH   3   6
ENDBRANCH   1   2
BRANCH   1  23
ATOM     23  C   UNL A   1      31.340  32.493  26.558  1.00  0.00     0.042 C 
BRANCH  23  24
ATOM     24  C   UNL A   1      32.639  32.994  27.168  1.00  0.00     0.118 C 
BRANCH  24  25
ATOM     25  N   UNL A   1      32.521  34.360  27.652  1.00  0.00    -0.352 N 
ATOM     26  C   UNL A   1      33.063  34.984  28.746  1.00  0.00     0.251 C 
ATOM     27  H   UNL A   1      31.951  34.939  27.095  1.00  0.00     0.163 HD
ATOM     28  O   UNL A   1      32.584  36.055  29.112  1.00  0.00    -0.269 OA
BRANCH  26  29
ATOM     29  C   UNL A   1      34.203  34.407  29.499  1.00  0.00     0.039 A 
ATOM     30  C   UNL A   1      35.496  34.589  28.989  1.00  0.00     0.014 A 
ATOM     31  C   UNL A   1      34.025  33.599  30.623  1.00  0.00     0.014 A 
ATOM     32  C   UNL A   1      36.593  33.990  29.615  1.00  0.00     0.010 A 
ATOM     33  C   UNL A   1      35.126  33.079  31.302  1.00  0.00     0.010 A 
ATOM     34  C   UNL A   1      36.421  33.243  30.789  1.00  0.00    -0.014 A 
BRANCH  34  35
ATOM     35  C   UNL A   1      37.573  32.588  31.464  1.00  0.00     0.031 A 
ATOM     36  C   UNL A   1      38.284  31.434  30.807  1.00  0.00     0.074 A 
ATOM     37  C   UNL A   1      37.945  32.991  32.694  1.00  0.00     0.049 A 
ATOM     38  N   UNL A   1      39.264  30.695  31.263  1.00  0.00    -0.248 NA
ATOM     39  C   UNL A   1      37.807  31.037  29.474  1.00  0.00     0.031 C 
ATOM     40  C   UNL A   1      37.304  34.057  33.462  1.00  0.00     0.029 A 
ATOM     41  N   UNL A   1      38.945  32.540  33.519  1.00  0.00    -0.354 N 
ATOM     42  C   UNL A   1      39.497  29.732  30.290  1.00  0.00     0.074 A 
ATOM     43  C   UNL A   1      38.526  29.949  29.240  1.00  0.00     0.031 C 
ATOM     44  C   UNL A   1      37.937  34.192  34.638  1.00  0.00     0.029 A 
ATOM     45  C   UNL A   1      39.007  33.200  34.719  1.00  0.00     0.049 A 
ATOM     46  H   UNL A   1      39.560  31.811  33.272  1.00  0.00     0.167 HD
ATOM     47  C   UNL A   1      40.448  28.766  30.262  1.00  0.00     0.037 A 
ATOM     48  C   UNL A   1      39.829  33.025  35.772  1.00  0.00     0.037 A 
ATOM     49  C   UNL A   1      41.443  28.580  31.286  1.00  0.00     0.049 A 
ATOM     50  C   UNL A   1      40.901  31.974  35.704  1.00  0.00     0.074 A 
ATOM     51  C   UNL A   1      42.505  27.694  31.306  1.00  0.00     0.029 A 
ATOM     52  N   UNL A   1      41.495  29.295  32.473  1.00  0.00    -0.354 N 
ATOM     53  N   UNL A   1      41.162  31.121  34.744  1.00  0.00    -0.248 NA
ATOM     54  C   UNL A   1      41.799  31.868  36.862  1.00  0.00     0.031 C 
ATOM     55  C   UNL A   1      43.175  27.842  32.527  1.00  0.00     0.029 A 
ATOM     56  C   UNL A   1      42.557  28.852  33.246  1.00  0.00     0.049 A 
ATOM     57  H   UNL A   1      40.869  30.011  32.730  1.00  0.00     0.167 HD
ATOM     58  C   UNL A   1      42.262  30.389  35.171  1.00  0.00     0.074 A 
ATOM     59  C   UNL A   1      42.630  30.912  36.471  1.00  0.00     0.031 C 
ATOM     60  C   UNL A   1      42.907  29.377  34.541  1.00  0.00     0.037 A 
BRANCH  47  61
ATOM     61  C   UNL A   1      40.455  27.834  29.084  1.00  0.00     0.064 A 
ATOM     62  C   UNL A   1      41.266  28.065  27.962  1.00  0.00     0.173 A 
ATOM     63  C   UNL A   1      39.649  26.685  29.082  1.00  0.00     0.173 A 
ATOM     64  F   UNL A   1      42.048  29.154  27.907  1.00  0.00    -0.203 F 
ATOM     65  C   UNL A   1      41.239  27.204  26.867  1.00  0.00     0.198 A 
ATOM     66  C   UNL A   1      39.648  25.809  28.000  1.00  0.00     0.198 A 
ATOM     67  F   UNL A   1      38.860  26.411  30.133  1.00  0.00    -0.203 F 
ATOM     68  F   UNL A   1      41.978  27.479  25.783  1.00  0.00    -0.200 F 
ATOM     69  C   UNL A   1      40.435  26.075  26.889  1.00  0.00     0.200 A 
ATOM     70  F   UNL A   1      38.881  24.711  28.029  1.00  0.00    -0.200 F 
ATOM     71  F   UNL A   1      40.411  25.247  25.835  1.00  0.00    -0.200 F 
ENDBRANCH  47  61
BRANCH  48  72
ATOM     72  C   UNL A   1      39.680  33.895  36.966  1.00  0.00     0.064 A 
ATOM     73  C   UNL A   1      40.303  35.149  37.023  1.00  0.00     0.173 A 
ATOM     74  C   UNL A   1      38.884  33.509  38.054  1.00  0.00     0.173 A 
ATOM     75  F   UNL A   1      41.088  35.553  36.014  1.00  0.00    -0.203 F 
ATOM     76  C   UNL A   1      40.143  35.982  38.128  1.00  0.00     0.198 A 
ATOM     77  C   UNL A   1      38.705  34.353  39.148  1.00  0.00     0.198 A 
ATOM     78  F   UNL A   1      38.262  32.322  38.043  1.00  0.00    -0.203 F 
ATOM     79  F   UNL A   1      40.772  37.164  38.171  1.00  0.00    -0.200 F 
ATOM     80  C   UNL A   1      39.337  35.586  39.186  1.00  0.00     0.200 A 
ATOM     81  F   UNL A   1      37.914  33.974  40.161  1.00  0.00    -0.200 F 
ATOM     82  F   UNL A   1      39.172  36.394  40.243  1.00  0.00    -0.200 F 
ENDBRANCH  48  72
BRANCH  60  83
ATOM     83  C   UNL A   1      44.088  28.775  35.245  1.00  0.00     0.064 A 
ATOM     84  C   UNL A   1      43.947  27.684  36.114  1.00  0.00     0.173 A 
ATOM     85  C   UNL A   1      45.381  29.271  35.016  1.00  0.00     0.173 A 
ATOM     86  F   UNL A   1      42.729  27.184  36.377  1.00  0.00    -0.203 F 
ATOM     87  C   UNL A   1      45.054  27.124  36.747  1.00  0.00     0.198 A 
ATOM     88  C   UNL A   1      46.489  28.692  35.630  1.00  0.00     0.198 A 
ATOM     89  F   UNL A   1      45.570  30.310  34.190  1.00  0.00    -0.203 F 
ATOM     90  F   UNL A   1      44.890  26.110  37.608  1.00  0.00    -0.200 F 
ATOM     91  C   UNL A   1      46.323  27.624  36.498  1.00  0.00     0.200 A 
ATOM     92  F   UNL A   1      47.716  29.169  35.380  1.00  0.00    -0.200 F 
ATOM     93  F   UNL A   1      47.388  27.081  37.104  1.00  0.00    -0.200 F 
ENDBRANCH  60  83
ENDBRANCH  34  35
ENDBRANCH  26  29
ENDBRANCH  24  25
ENDBRANCH  23  24
ENDBRANCH   1  23
TORSDOF 16
ENDMDL
MODEL 3
REMARK VINA RESULT:     -10.6      4.808      9.763
REMARK SMILES C=CC[N@H+](CC(=O)NCCCNC(=O)c1ccc(-c2c3nc(c(-c4c(F)c(F)c(F)c(F)c4F)c4ccc([nH]4)c(-c4c(F)c(F)c(F)c(F)c4F)c4nc(c(-c5c(F)c(F)c(F)c(F)c5F)c5ccc2[nH]5)C=C4)C=C3)cc1)C[C@H]1C[N@@H+](C(C)C)CCO1
REMARK SMILES IDX 9 1 8 2 6 3 7 4 5 6 4 7 3 9 2 10 1 11 78 12 79 13 80 14
REMARK SMILES IDX 87 15 81 16 86 17 85 18 82 20 83 21 84 22 10 23 11 24 12 25
REMARK SMILES IDX 13 26 14 28 15 29 16 30 77 31 17 32 76 33 18 34 19 35 20 36
REMARK SMILES IDX 70 37 21 38 75 39 69 40 71 41 22 42 74 43 68 44 67 45 23 47
REMARK SMILES IDX 55 48 35 49 54 50 36 51 39 52 53 53 72 54 37 55 38 56 52 58
REMARK SMILES IDX 73 59 40 60 24 61 25 62 33 63 26 64 27 65 31 66 34 67 28 68
REMARK SMILES IDX 29 69 32 70 30 71 56 72 57 73 65 74 58 75 59 76 63 77 66 78
REMARK SMILES IDX 60 79 61 80 64 81 62 82 41 83 42 84 50 85 43 86 44 87 48 88
REMARK SMILES IDX 51 89 45 90 46 91 49 92 47 93
REMARK H PARENT 8 5 4 8 81 19 12 27 71 46 39 57
REMARK Flexibility Score: inf
ROOT
ATOM      1  C   UNL A   1      43.292  21.489  26.040  1.00  0.00     0.118 C 
ENDROOT
BRANCH   1   2
ATOM      2  N   UNL A   1      44.398  21.781  25.155  1.00  0.00    -0.351 N 
ATOM      3  C   UNL A   1      45.608  22.322  25.482  1.00  0.00     0.275 C 
ATOM      4  O   UNL A   1      46.532  22.207  24.669  1.00  0.00    -0.269 OA
ATOM      5  H   UNL A   1      44.263  21.564  24.205  1.00  0.00     0.163 HD
BRANCH   3   6
ATOM      6  C   UNL A   1      45.851  22.897  26.877  1.00  0.00     0.363 C 
BRANCH   6   7
ATOM      7  N   UNL A   1      44.896  23.973  27.298  1.00  0.00    -0.322 N 
ATOM      8  H   UNL A   1      43.989  23.853  26.848  1.00  0.00     0.348 HD
BRANCH   7   9
ATOM      9  C   UNL A   1      44.764  23.872  28.768  1.00  0.00     0.290 C 
BRANCH   9  10
ATOM     10  C   UNL A   1      43.601  23.095  29.329  1.00  0.00     0.025 C 
ATOM     11  C   UNL A   1      42.298  23.389  29.231  1.00  0.00     0.010 C 
ENDBRANCH   9  10
ENDBRANCH   7   9
BRANCH   7  12
ATOM     12  C   UNL A   1      45.394  25.314  26.890  1.00  0.00     0.301 C 
BRANCH  12  13
ATOM     13  C   UNL A   1      45.126  25.785  25.432  1.00  0.00     0.228 C 
ATOM     14  C   UNL A   1      44.416  27.167  25.383  1.00  0.00     0.300 C 
ATOM     15  O   UNL A   1      46.241  25.747  24.536  1.00  0.00    -0.361 OA
ATOM     16  N   UNL A   1      45.269  28.367  25.404  1.00  0.00    -0.329 N 
ATOM     17  C   UNL A   1      47.124  26.868  24.639  1.00  0.00     0.222 C 
ATOM     18  C   UNL A   1      46.402  28.209  24.492  1.00  0.00     0.291 C 
ATOM     19  H   UNL A   1      44.711  29.129  25.020  1.00  0.00     0.348 HD
BRANCH  16  20
ATOM     20  C   UNL A   1      45.510  28.999  26.704  1.00  0.00     0.177 C 
ATOM     21  C   UNL A   1      46.683  29.977  26.839  1.00  0.00     0.075 C 
ATOM     22  C   UNL A   1      44.234  29.758  27.106  1.00  0.00     0.075 C 
ENDBRANCH  16  20
ENDBRANCH  12  13
ENDBRANCH   7  12
ENDBRANCH   6   7
ENDBRANCH   3   6
ENDBRANCH   1   2
BRANCH   1  23
ATOM     23  C   UNL A   1      42.035  22.296  25.738  1.00  0.00     0.042 C 
BRANCH  23  24
ATOM     24  C   UNL A   1      40.796  21.794  26.461  1.00  0.00     0.118 C 
BRANCH  24  25
ATOM     25  N   UNL A   1      39.572  22.264  25.830  1.00  0.00    -0.352 N 
ATOM     26  C   UNL A   1      38.806  23.378  26.059  1.00  0.00     0.251 C 
ATOM     27  H   UNL A   1      39.235  21.679  25.114  1.00  0.00     0.163 HD
ATOM     28  O   UNL A   1      37.663  23.410  25.608  1.00  0.00    -0.269 OA
BRANCH  26  29
ATOM     29  C   UNL A   1      39.312  24.540  26.829  1.00  0.00     0.039 A 
ATOM     30  C   UNL A   1      38.929  24.664  28.171  1.00  0.00     0.014 A 
ATOM     31  C   UNL A   1      40.054  25.563  26.237  1.00  0.00     0.014 A 
ATOM     32  C   UNL A   1      39.309  25.788  28.913  1.00  0.00     0.010 A 
ATOM     33  C   UNL A   1      40.512  26.637  27.000  1.00  0.00     0.010 A 
ATOM     34  C   UNL A   1      40.120  26.778  28.338  1.00  0.00    -0.014 A 
BRANCH  34  35
ATOM     35  C   UNL A   1      40.525  27.985  29.106  1.00  0.00     0.031 A 
ATOM     36  C   UNL A   1      41.905  28.081  29.701  1.00  0.00     0.074 A 
ATOM     37  C   UNL A   1      39.634  28.972  29.320  1.00  0.00     0.049 A 
ATOM     38  N   UNL A   1      42.422  29.020  30.454  1.00  0.00    -0.248 NA
ATOM     39  C   UNL A   1      42.815  26.954  29.443  1.00  0.00     0.031 C 
ATOM     40  C   UNL A   1      38.251  28.976  28.847  1.00  0.00     0.029 A 
ATOM     41  N   UNL A   1      39.758  30.157  30.002  1.00  0.00    -0.354 N 
ATOM     42  C   UNL A   1      43.699  28.583  30.781  1.00  0.00     0.074 A 
ATOM     43  C   UNL A   1      43.863  27.275  30.188  1.00  0.00     0.031 C 
ATOM     44  C   UNL A   1      37.657  30.116  29.237  1.00  0.00     0.029 A 
ATOM     45  C   UNL A   1      38.609  30.906  30.014  1.00  0.00     0.049 A 
ATOM     46  H   UNL A   1      40.592  30.442  30.442  1.00  0.00     0.167 HD
ATOM     47  C   UNL A   1      44.657  29.223  31.495  1.00  0.00     0.037 A 
ATOM     48  C   UNL A   1      38.348  32.096  30.589  1.00  0.00     0.037 A 
ATOM     49  C   UNL A   1      44.509  30.544  32.047  1.00  0.00     0.049 A 
ATOM     50  C   UNL A   1      39.436  32.806  31.344  1.00  0.00     0.074 A 
ATOM     51  C   UNL A   1      45.451  31.317  32.704  1.00  0.00     0.029 A 
ATOM     52  N   UNL A   1      43.339  31.288  32.007  1.00  0.00    -0.354 N 
ATOM     53  N   UNL A   1      40.666  32.418  31.581  1.00  0.00    -0.248 NA
ATOM     54  C   UNL A   1      39.105  34.123  31.904  1.00  0.00     0.031 C 
ATOM     55  C   UNL A   1      44.837  32.511  33.100  1.00  0.00     0.029 A 
ATOM     56  C   UNL A   1      43.527  32.502  32.650  1.00  0.00     0.049 A 
ATOM     57  H   UNL A   1      42.498  30.997  31.585  1.00  0.00     0.167 HD
ATOM     58  C   UNL A   1      41.260  33.446  32.299  1.00  0.00     0.074 A 
ATOM     59  C   UNL A   1      40.259  34.485  32.444  1.00  0.00     0.031 C 
ATOM     60  C   UNL A   1      42.520  33.522  32.793  1.00  0.00     0.037 A 
BRANCH  47  61
ATOM     61  C   UNL A   1      45.953  28.497  31.722  1.00  0.00     0.064 A 
ATOM     62  C   UNL A   1      46.102  27.555  32.751  1.00  0.00     0.173 A 
ATOM     63  C   UNL A   1      47.057  28.737  30.890  1.00  0.00     0.173 A 
ATOM     64  F   UNL A   1      45.082  27.295  33.582  1.00  0.00    -0.203 F 
ATOM     65  C   UNL A   1      47.319  26.911  32.964  1.00  0.00     0.198 A 
ATOM     66  C   UNL A   1      48.263  28.068  31.085  1.00  0.00     0.198 A 
ATOM     67  F   UNL A   1      46.967  29.622  29.885  1.00  0.00    -0.203 F 
ATOM     68  F   UNL A   1      47.454  26.060  33.990  1.00  0.00    -0.200 F 
ATOM     69  C   UNL A   1      48.396  27.164  32.128  1.00  0.00     0.200 A 
ATOM     70  F   UNL A   1      49.298  28.303  30.268  1.00  0.00    -0.200 F 
ATOM     71  F   UNL A   1      49.566  26.543  32.334  1.00  0.00    -0.200 F 
ENDBRANCH  47  61
BRANCH  48  72
ATOM     72  C   UNL A   1      36.998  32.697  30.441  1.00  0.00     0.064 A 
ATOM     73  C   UNL A   1      36.025  32.531  31.435  1.00  0.00     0.173 A 
ATOM     74  C   UNL A   1      36.667  33.479  29.324  1.00  0.00     0.173 A 
ATOM     75  F   UNL A   1      36.289  31.777  32.512  1.00  0.00    -0.203 F 
ATOM     76  C   UNL A   1      34.767  33.117  31.314  1.00  0.00     0.198 A 
ATOM     77  C   UNL A   1      35.417  34.084  29.216  1.00  0.00     0.198 A 
ATOM     78  F   UNL A   1      37.567  33.672  28.350  1.00  0.00    -0.203 F 
ATOM     79  F   UNL A   1      33.844  32.920  32.265  1.00  0.00    -0.200 F 
ATOM     80  C   UNL A   1      34.468  33.900  30.209  1.00  0.00     0.200 A 
ATOM     81  F   UNL A   1      35.137  34.852  28.154  1.00  0.00    -0.200 F 
ATOM     82  F   UNL A   1      33.262  34.476  30.100  1.00  0.00    -0.200 F 
ENDBRANCH  48  72
BRANCH  60  83
ATOM     83  C   UNL A   1      42.894  34.777  33.526  1.00  0.00     0.064 A 
ATOM     84  C   UNL A   1      43.336  35.921  32.845  1.00  0.00     0.173 A 
ATOM     85  C   UNL A   1      42.771  34.849  34.922  1.00  0.00     0.173 A 
ATOM     86  F   UNL A   1      43.484  35.897  31.511  1.00  0.00    -0.203 F 
ATOM     87  C   UNL A   1      43.663  37.084  33.537  1.00  0.00     0.198 A 
ATOM     88  C   UNL A   1      43.073  36.023  35.608  1.00  0.00     0.198 A 
ATOM     89  F   UNL A   1      42.348  33.784  35.619  1.00  0.00    -0.203 F 
ATOM     90  F   UNL A   1      44.125  38.151  32.870  1.00  0.00    -0.200 F 
ATOM     91  C   UNL A   1      43.525  37.136  34.916  1.00  0.00     0.200 A 
ATOM     92  F   UNL A   1      42.929  36.074  36.939  1.00  0.00    -0.200 F 
ATOM     93  F   UNL A   1      43.835  38.258  35.580  1.00  0.00    -0.200 F 
ENDBRANCH  60  83
ENDBRANCH  34  35
ENDBRANCH  26  29
ENDBRANCH  24  25
ENDBRANCH  23  24
ENDBRANCH   1  23
TORSDOF 16
ENDMDL
