MODEL 1
REMARK VINA RESULT:     -10.6      0.000      0.000
REMARK SMILES CCn1c(=O)n(CC)c2cc(C(=O)NCCCNC(=O)c3ccc(-c4c5nc(c(-c6c(F)c(F)c(F)c(F)c6F)c6ccc([nH]6)c(-c6c(F)c(F)c(F)c(F)c6F)c6nc(c(-c7c(F)c(F)c(F)c(F)c7F)c7ccc4[nH]7)C=C6)C=C5)cc3)ccc21
REMARK SMILES IDX 16 1 15 2 14 3 12 4 13 5 11 7 3 8 4 9 86 10 5 11 6 12 9 13
REMARK SMILES IDX 85 14 10 15 84 16 2 17 1 18 7 19 8 20 17 21 18 22 19 23
REMARK SMILES IDX 20 25 21 26 22 27 83 28 23 29 82 30 24 31 25 32 26 33 76 34
REMARK SMILES IDX 27 35 81 36 75 37 77 38 28 39 80 40 74 41 73 42 29 44 61 45
REMARK SMILES IDX 41 46 60 47 42 48 45 49 59 50 78 51 43 52 44 53 58 55 79 56
REMARK SMILES IDX 46 57 30 58 31 59 39 60 32 61 33 62 37 63 40 64 34 65 35 66
REMARK SMILES IDX 38 67 36 68 62 69 63 70 71 71 64 72 65 73 69 74 72 75 66 76
REMARK SMILES IDX 67 77 70 78 68 79 47 80 48 81 56 82 49 83 50 84 54 85 57 86
REMARK SMILES IDX 51 87 52 88 55 89 53 90
REMARK H PARENT 14 6 18 24 77 43 45 54
REMARK Flexibility Score: inf
ROOT
ATOM      1  C   UNL A   1      43.959  21.742  25.068  1.00  0.00     0.042 C 
ENDROOT
BRANCH   1   2
ATOM      2  C   UNL A   1      44.639  23.022  24.575  1.00  0.00     0.118 C 
BRANCH   2   3
ATOM      3  N   UNL A   1      43.723  24.148  24.592  1.00  0.00    -0.352 N 
ATOM      4  C   UNL A   1      43.757  25.410  25.123  1.00  0.00     0.251 C 
ATOM      5  O   UNL A   1      42.768  26.115  24.907  1.00  0.00    -0.269 OA
ATOM      6  H   UNL A   1      42.884  23.961  24.113  1.00  0.00     0.163 HD
BRANCH   4   7
ATOM      7  C   UNL A   1      44.899  25.998  25.885  1.00  0.00     0.042 A 
ATOM      8  N   UNL A   1      47.674  27.663  28.509  1.00  0.00    -0.292 N 
ATOM      9  C   UNL A   1      47.147  27.229  29.746  1.00  0.00     0.329 A 
ATOM     10  C   UNL A   1      46.877  27.151  27.475  1.00  0.00     0.069 A 
ATOM     11  O   UNL A   1      47.589  27.487  30.862  1.00  0.00    -0.248 OA
ATOM     12  N   UNL A   1      46.017  26.442  29.444  1.00  0.00    -0.292 N 
ATOM     13  C   UNL A   1      45.836  26.427  28.052  1.00  0.00     0.070 A 
ATOM     14  C   UNL A   1      46.996  27.265  26.107  1.00  0.00     0.029 A 
ATOM     15  C   UNL A   1      44.842  25.851  27.287  1.00  0.00     0.042 A 
ATOM     16  C   UNL A   1      46.008  26.656  25.312  1.00  0.00     0.016 A 
BRANCH   8  17
ATOM     17  C   UNL A   1      48.801  28.549  28.366  1.00  0.00     0.124 C 
ATOM     18  C   UNL A   1      48.411  30.013  28.492  1.00  0.00     0.028 C 
ENDBRANCH   8  17
BRANCH  12  19
ATOM     19  C   UNL A   1      45.217  25.739  30.415  1.00  0.00     0.124 C 
ATOM     20  C   UNL A   1      44.229  26.638  31.138  1.00  0.00     0.028 C 
ENDBRANCH  12  19
ENDBRANCH   4   7
ENDBRANCH   2   3
ENDBRANCH   1   2
BRANCH   1  21
ATOM     21  C   UNL A   1      43.416  21.860  26.497  1.00  0.00     0.118 C 
BRANCH  21  22
ATOM     22  N   UNL A   1      41.980  21.669  26.592  1.00  0.00    -0.352 N 
ATOM     23  C   UNL A   1      40.903  22.456  26.887  1.00  0.00     0.251 C 
ATOM     24  H   UNL A   1      41.717  20.741  26.395  1.00  0.00     0.163 HD
ATOM     25  O   UNL A   1      39.802  21.900  26.826  1.00  0.00    -0.269 OA
BRANCH  23  26
ATOM     26  C   UNL A   1      40.951  23.882  27.313  1.00  0.00     0.039 A 
ATOM     27  C   UNL A   1      41.761  24.407  28.317  1.00  0.00     0.014 A 
ATOM     28  C   UNL A   1      40.068  24.757  26.644  1.00  0.00     0.014 A 
ATOM     29  C   UNL A   1      41.634  25.742  28.696  1.00  0.00     0.010 A 
ATOM     30  C   UNL A   1      39.949  26.097  27.006  1.00  0.00     0.010 A 
ATOM     31  C   UNL A   1      40.706  26.583  28.062  1.00  0.00    -0.014 A 
BRANCH  31  32
ATOM     32  C   UNL A   1      40.650  27.980  28.493  1.00  0.00     0.031 A 
ATOM     33  C   UNL A   1      41.761  28.831  27.987  1.00  0.00     0.074 A 
ATOM     34  C   UNL A   1      39.679  28.522  29.258  1.00  0.00     0.049 A 
ATOM     35  N   UNL A   1      42.719  29.362  28.674  1.00  0.00    -0.248 NA
ATOM     36  C   UNL A   1      41.880  29.037  26.537  1.00  0.00     0.031 C 
ATOM     37  C   UNL A   1      38.384  27.938  29.617  1.00  0.00     0.029 A 
ATOM     38  N   UNL A   1      39.631  29.763  29.836  1.00  0.00    -0.354 N 
ATOM     39  C   UNL A   1      43.478  30.105  27.774  1.00  0.00     0.074 A 
ATOM     40  C   UNL A   1      42.988  29.777  26.460  1.00  0.00     0.031 C 
ATOM     41  C   UNL A   1      37.603  28.890  30.180  1.00  0.00     0.029 A 
ATOM     42  C   UNL A   1      38.394  30.094  30.372  1.00  0.00     0.049 A 
ATOM     43  H   UNL A   1      40.408  30.367  29.869  1.00  0.00     0.167 HD
ATOM     44  C   UNL A   1      44.306  31.095  28.208  1.00  0.00     0.037 A 
ATOM     45  C   UNL A   1      38.039  31.276  30.931  1.00  0.00     0.037 A 
ATOM     46  C   UNL A   1      44.530  31.004  29.626  1.00  0.00     0.049 A 
ATOM     47  C   UNL A   1      39.268  31.944  31.413  1.00  0.00     0.074 A 
ATOM     48  C   UNL A   1      45.335  30.281  30.477  1.00  0.00     0.029 A 
ATOM     49  N   UNL A   1      43.544  31.574  30.382  1.00  0.00    -0.354 N 
ATOM     50  N   UNL A   1      39.976  31.515  32.419  1.00  0.00    -0.248 NA
ATOM     51  C   UNL A   1      39.886  32.992  30.609  1.00  0.00     0.031 C 
ATOM     52  C   UNL A   1      44.690  30.299  31.751  1.00  0.00     0.029 A 
ATOM     53  C   UNL A   1      43.521  31.047  31.644  1.00  0.00     0.049 A 
ATOM     54  H   UNL A   1      42.932  32.275  30.060  1.00  0.00     0.167 HD
ATOM     55  C   UNL A   1      41.259  31.917  32.118  1.00  0.00     0.074 A 
ATOM     56  C   UNL A   1      41.117  32.969  31.124  1.00  0.00     0.031 C 
ATOM     57  C   UNL A   1      42.322  31.130  32.441  1.00  0.00     0.037 A 
BRANCH  44  58
ATOM     58  C   UNL A   1      44.567  32.395  27.479  1.00  0.00     0.064 A 
ATOM     59  C   UNL A   1      45.754  32.540  26.728  1.00  0.00     0.173 A 
ATOM     60  C   UNL A   1      43.877  33.593  27.757  1.00  0.00     0.173 A 
ATOM     61  F   UNL A   1      46.507  31.472  26.424  1.00  0.00    -0.203 F 
ATOM     62  C   UNL A   1      46.240  33.795  26.344  1.00  0.00     0.198 A 
ATOM     63  C   UNL A   1      44.340  34.838  27.330  1.00  0.00     0.198 A 
ATOM     64  F   UNL A   1      42.797  33.621  28.547  1.00  0.00    -0.203 F 
ATOM     65  F   UNL A   1      47.430  33.891  25.733  1.00  0.00    -0.200 F 
ATOM     66  C   UNL A   1      45.535  34.943  26.650  1.00  0.00     0.200 A 
ATOM     67  F   UNL A   1      43.655  35.943  27.658  1.00  0.00    -0.200 F 
ATOM     68  F   UNL A   1      46.025  36.149  26.334  1.00  0.00    -0.200 F 
ENDBRANCH  44  58
BRANCH  45  69
ATOM     69  C   UNL A   1      36.740  31.984  30.936  1.00  0.00     0.064 A 
ATOM     70  C   UNL A   1      35.982  32.087  32.116  1.00  0.00     0.173 A 
ATOM     71  C   UNL A   1      36.396  32.854  29.888  1.00  0.00     0.173 A 
ATOM     72  F   UNL A   1      36.260  31.305  33.170  1.00  0.00    -0.203 F 
ATOM     73  C   UNL A   1      34.989  33.058  32.266  1.00  0.00     0.198 A 
ATOM     74  C   UNL A   1      35.399  33.820  30.037  1.00  0.00     0.198 A 
ATOM     75  F   UNL A   1      37.095  32.857  28.744  1.00  0.00    -0.203 F 
ATOM     76  F   UNL A   1      34.352  33.187  33.439  1.00  0.00    -0.200 F 
ATOM     77  C   UNL A   1      34.714  33.938  31.234  1.00  0.00     0.200 A 
ATOM     78  F   UNL A   1      35.161  34.688  29.043  1.00  0.00    -0.200 F 
ATOM     79  F   UNL A   1      33.825  34.926  31.407  1.00  0.00    -0.200 F 
ENDBRANCH  45  69
BRANCH  57  80
ATOM     80  C   UNL A   1      42.136  30.173  33.572  1.00  0.00     0.064 A 
ATOM     81  C   UNL A   1      41.713  28.842  33.424  1.00  0.00     0.173 A 
ATOM     82  C   UNL A   1      42.446  30.619  34.863  1.00  0.00     0.173 A 
ATOM     83  F   UNL A   1      41.470  28.327  32.212  1.00  0.00    -0.203 F 
ATOM     84  C   UNL A   1      41.565  28.011  34.533  1.00  0.00     0.198 A 
ATOM     85  C   UNL A   1      42.332  29.777  35.964  1.00  0.00     0.198 A 
ATOM     86  F   UNL A   1      42.892  31.872  35.053  1.00  0.00    -0.203 F 
ATOM     87  F   UNL A   1      41.140  26.749  34.376  1.00  0.00    -0.200 F 
ATOM     88  C   UNL A   1      41.880  28.478  35.800  1.00  0.00     0.200 A 
ATOM     89  F   UNL A   1      42.677  30.220  37.180  1.00  0.00    -0.200 F 
ATOM     90  F   UNL A   1      41.770  27.668  36.863  1.00  0.00    -0.200 F 
ENDBRANCH  57  80
ENDBRANCH  31  32
ENDBRANCH  23  26
ENDBRANCH  21  22
ENDBRANCH   1  21
TORSDOF 12
ENDMDL
MODEL 2
REMARK VINA RESULT:     -10.6      1.181      1.867
REMARK SMILES CCn1c(=O)n(CC)c2cc(C(=O)NCCCNC(=O)c3ccc(-c4c5nc(c(-c6c(F)c(F)c(F)c(F)c6F)c6ccc([nH]6)c(-c6c(F)c(F)c(F)c(F)c6F)c6nc(c(-c7c(F)c(F)c(F)c(F)c7F)c7ccc4[nH]7)C=C6)C=C5)cc3)ccc21
REMARK SMILES IDX 16 1 15 2 14 3 12 4 13 5 11 7 3 8 4 9 86 10 5 11 6 12 9 13
REMARK SMILES IDX 85 14 10 15 84 16 2 17 1 18 7 19 8 20 17 21 18 22 19 23
REMARK SMILES IDX 20 25 21 26 22 27 83 28 23 29 82 30 24 31 25 32 26 33 76 34
REMARK SMILES IDX 27 35 81 36 75 37 77 38 28 39 80 40 74 41 73 42 29 44 61 45
REMARK SMILES IDX 41 46 60 47 42 48 45 49 59 50 78 51 43 52 44 53 58 55 79 56
REMARK SMILES IDX 46 57 30 58 31 59 39 60 32 61 33 62 37 63 40 64 34 65 35 66
REMARK SMILES IDX 38 67 36 68 62 69 63 70 71 71 64 72 65 73 69 74 72 75 66 76
REMARK SMILES IDX 67 77 70 78 68 79 47 80 48 81 56 82 49 83 50 84 54 85 57 86
REMARK SMILES IDX 51 87 52 88 55 89 53 90
REMARK H PARENT 14 6 18 24 77 43 45 54
REMARK Flexibility Score: inf
ROOT
ATOM      1  C   UNL A   1      43.461  21.389  25.562  1.00  0.00     0.042 C 
ENDROOT
BRANCH   1   2
ATOM      2  C   UNL A   1      44.193  22.717  25.348  1.00  0.00     0.118 C 
BRANCH   2   3
ATOM      3  N   UNL A   1      43.259  23.799  25.094  1.00  0.00    -0.352 N 
ATOM      4  C   UNL A   1      43.262  25.149  25.328  1.00  0.00     0.251 C 
ATOM      5  O   UNL A   1      42.267  25.767  24.940  1.00  0.00    -0.269 OA
ATOM      6  H   UNL A   1      42.434  23.493  24.652  1.00  0.00     0.163 HD
BRANCH   4   7
ATOM      7  C   UNL A   1      44.376  25.915  25.962  1.00  0.00     0.042 A 
ATOM      8  N   UNL A   1      47.830  27.884  27.209  1.00  0.00    -0.292 N 
ATOM      9  C   UNL A   1      48.452  28.120  25.963  1.00  0.00     0.329 A 
ATOM     10  C   UNL A   1      46.599  27.250  26.985  1.00  0.00     0.069 A 
ATOM     11  O   UNL A   1      49.541  28.657  25.777  1.00  0.00    -0.248 OA
ATOM     12  N   UNL A   1      47.575  27.621  24.978  1.00  0.00    -0.292 N 
ATOM     13  C   UNL A   1      46.458  27.058  25.612  1.00  0.00     0.070 A 
ATOM     14  C   UNL A   1      45.621  26.847  27.867  1.00  0.00     0.029 A 
ATOM     15  C   UNL A   1      45.369  26.395  25.082  1.00  0.00     0.042 A 
ATOM     16  C   UNL A   1      44.490  26.199  27.339  1.00  0.00     0.016 A 
BRANCH   8  17
ATOM     17  C   UNL A   1      48.420  28.185  28.488  1.00  0.00     0.124 C 
ATOM     18  C   UNL A   1      49.274  27.045  29.019  1.00  0.00     0.028 C 
ENDBRANCH   8  17
BRANCH  12  19
ATOM     19  C   UNL A   1      47.787  27.723  23.556  1.00  0.00     0.124 C 
ATOM     20  C   UNL A   1      48.786  26.708  23.028  1.00  0.00     0.028 C 
ENDBRANCH  12  19
ENDBRANCH   4   7
ENDBRANCH   2   3
ENDBRANCH   1   2
BRANCH   1  21
ATOM     21  C   UNL A   1      42.689  21.332  26.885  1.00  0.00     0.118 C 
BRANCH  21  22
ATOM     22  N   UNL A   1      41.248  21.373  26.719  1.00  0.00    -0.352 N 
ATOM     23  C   UNL A   1      40.270  22.319  26.859  1.00  0.00     0.251 C 
ATOM     24  H   UNL A   1      40.883  20.503  26.438  1.00  0.00     0.163 HD
ATOM     25  O   UNL A   1      39.125  21.949  26.582  1.00  0.00    -0.269 OA
BRANCH  23  26
ATOM     26  C   UNL A   1      40.463  23.711  27.352  1.00  0.00     0.039 A 
ATOM     27  C   UNL A   1      41.423  24.125  28.272  1.00  0.00     0.014 A 
ATOM     28  C   UNL A   1      39.563  24.674  26.849  1.00  0.00     0.014 A 
ATOM     29  C   UNL A   1      41.430  25.440  28.735  1.00  0.00     0.010 A 
ATOM     30  C   UNL A   1      39.576  25.994  27.295  1.00  0.00     0.010 A 
ATOM     31  C   UNL A   1      40.487  26.369  28.271  1.00  0.00    -0.014 A 
BRANCH  31  32
ATOM     32  C   UNL A   1      40.576  27.738  28.781  1.00  0.00     0.031 A 
ATOM     33  C   UNL A   1      41.698  28.538  28.221  1.00  0.00     0.074 A 
ATOM     34  C   UNL A   1      39.719  28.299  29.661  1.00  0.00     0.049 A 
ATOM     35  N   UNL A   1      42.751  28.958  28.844  1.00  0.00    -0.248 NA
ATOM     36  C   UNL A   1      41.703  28.823  26.780  1.00  0.00     0.031 C 
ATOM     37  C   UNL A   1      38.422  27.787  30.107  1.00  0.00     0.029 A 
ATOM     38  N   UNL A   1      39.817  29.502  30.308  1.00  0.00    -0.354 N 
ATOM     39  C   UNL A   1      43.480  29.699  27.919  1.00  0.00     0.074 A 
ATOM     40  C   UNL A   1      42.853  29.488  26.641  1.00  0.00     0.031 C 
ATOM     41  C   UNL A   1      37.767  28.755  30.791  1.00  0.00     0.029 A 
ATOM     42  C   UNL A   1      38.661  29.887  30.974  1.00  0.00     0.049 A 
ATOM     43  H   UNL A   1      40.637  30.048  30.302  1.00  0.00     0.167 HD
ATOM     44  C   UNL A   1      44.416  30.600  28.328  1.00  0.00     0.037 A 
ATOM     45  C   UNL A   1      38.447  31.054  31.627  1.00  0.00     0.037 A 
ATOM     46  C   UNL A   1      44.757  30.407  29.712  1.00  0.00     0.049 A 
ATOM     47  C   UNL A   1      39.760  31.603  32.029  1.00  0.00     0.074 A 
ATOM     48  C   UNL A   1      45.578  29.579  30.444  1.00  0.00     0.029 A 
ATOM     49  N   UNL A   1      43.889  30.998  30.586  1.00  0.00    -0.354 N 
ATOM     50  N   UNL A   1      40.520  31.065  32.940  1.00  0.00    -0.248 NA
ATOM     51  C   UNL A   1      40.382  32.652  31.229  1.00  0.00     0.031 C 
ATOM     52  C   UNL A   1      45.052  29.564  31.771  1.00  0.00     0.029 A 
ATOM     53  C   UNL A   1      43.937  30.398  31.814  1.00  0.00     0.049 A 
ATOM     54  H   UNL A   1      43.305  31.759  30.361  1.00  0.00     0.167 HD
ATOM     55  C   UNL A   1      41.799  31.394  32.542  1.00  0.00     0.074 A 
ATOM     56  C   UNL A   1      41.649  32.512  31.625  1.00  0.00     0.031 C 
ATOM     57  C   UNL A   1      42.823  30.516  32.722  1.00  0.00     0.037 A 
BRANCH  44  58
ATOM     58  C   UNL A   1      44.709  31.921  27.649  1.00  0.00     0.064 A 
ATOM     59  C   UNL A   1      45.912  32.075  26.925  1.00  0.00     0.173 A 
ATOM     60  C   UNL A   1      44.030  33.118  27.957  1.00  0.00     0.173 A 
ATOM     61  F   UNL A   1      46.655  31.007  26.598  1.00  0.00    -0.203 F 
ATOM     62  C   UNL A   1      46.422  33.335  26.594  1.00  0.00     0.198 A 
ATOM     63  C   UNL A   1      44.519  34.371  27.582  1.00  0.00     0.198 A 
ATOM     64  F   UNL A   1      42.937  33.135  28.728  1.00  0.00    -0.203 F 
ATOM     65  F   UNL A   1      47.624  33.434  26.009  1.00  0.00    -0.200 F 
ATOM     66  C   UNL A   1      45.728  34.481  26.927  1.00  0.00     0.200 A 
ATOM     67  F   UNL A   1      43.843  35.474  27.936  1.00  0.00    -0.200 F 
ATOM     68  F   UNL A   1      46.240  35.691  26.663  1.00  0.00    -0.200 F 
ENDBRANCH  44  58
BRANCH  45  69
ATOM     69  C   UNL A   1      37.211  31.850  31.791  1.00  0.00     0.064 A 
ATOM     70  C   UNL A   1      36.709  32.143  33.072  1.00  0.00     0.173 A 
ATOM     71  C   UNL A   1      36.707  32.617  30.727  1.00  0.00     0.173 A 
ATOM     72  F   UNL A   1      37.153  31.468  34.143  1.00  0.00    -0.203 F 
ATOM     73  C   UNL A   1      35.814  33.193  33.285  1.00  0.00     0.198 A 
ATOM     74  C   UNL A   1      35.808  33.663  30.940  1.00  0.00     0.198 A 
ATOM     75  F   UNL A   1      37.164  32.438  29.478  1.00  0.00    -0.203 F 
ATOM     76  F   UNL A   1      35.430  33.502  34.532  1.00  0.00    -0.200 F 
ATOM     77  C   UNL A   1      35.381  33.967  32.222  1.00  0.00     0.200 A 
ATOM     78  F   UNL A   1      35.419  34.425  29.909  1.00  0.00    -0.200 F 
ATOM     79  F   UNL A   1      34.593  35.029  32.435  1.00  0.00    -0.200 F 
ENDBRANCH  45  69
BRANCH  57  80
ATOM     80  C   UNL A   1      42.667  29.507  33.812  1.00  0.00     0.064 A 
ATOM     81  C   UNL A   1      42.002  28.279  33.667  1.00  0.00     0.173 A 
ATOM     82  C   UNL A   1      43.261  29.785  35.050  1.00  0.00     0.173 A 
ATOM     83  F   UNL A   1      41.474  27.915  32.491  1.00  0.00    -0.203 F 
ATOM     84  C   UNL A   1      41.901  27.389  34.735  1.00  0.00     0.198 A 
ATOM     85  C   UNL A   1      43.188  28.880  36.103  1.00  0.00     0.198 A 
ATOM     86  F   UNL A   1      43.941  30.929  35.228  1.00  0.00    -0.203 F 
ATOM     87  F   UNL A   1      41.243  26.230  34.585  1.00  0.00    -0.200 F 
ATOM     88  C   UNL A   1      42.499  27.689  35.950  1.00  0.00     0.200 A 
ATOM     89  F   UNL A   1      43.803  29.156  37.261  1.00  0.00    -0.200 F 
ATOM     90  F   UNL A   1      42.430  26.818  36.967  1.00  0.00    -0.200 F 
ENDBRANCH  57  80
ENDBRANCH  31  32
ENDBRANCH  23  26
ENDBRANCH  21  22
ENDBRANCH   1  21
TORSDOF 12
ENDMDL
MODEL 3
REMARK VINA RESULT:     -10.5      3.532      6.266
REMARK SMILES CCn1c(=O)n(CC)c2cc(C(=O)NCCCNC(=O)c3ccc(-c4c5nc(c(-c6c(F)c(F)c(F)c(F)c6F)c6ccc([nH]6)c(-c6c(F)c(F)c(F)c(F)c6F)c6nc(c(-c7c(F)c(F)c(F)c(F)c7F)c7ccc4[nH]7)C=C6)C=C5)cc3)ccc21
REMARK SMILES IDX 16 1 15 2 14 3 12 4 13 5 11 7 3 8 4 9 86 10 5 11 6 12 9 13
REMARK SMILES IDX 85 14 10 15 84 16 2 17 1 18 7 19 8 20 17 21 18 22 19 23
REMARK SMILES IDX 20 25 21 26 22 27 83 28 23 29 82 30 24 31 25 32 26 33 76 34
REMARK SMILES IDX 27 35 81 36 75 37 77 38 28 39 80 40 74 41 73 42 29 44 61 45
REMARK SMILES IDX 41 46 60 47 42 48 45 49 59 50 78 51 43 52 44 53 58 55 79 56
REMARK SMILES IDX 46 57 30 58 31 59 39 60 32 61 33 62 37 63 40 64 34 65 35 66
REMARK SMILES IDX 38 67 36 68 62 69 63 70 71 71 64 72 65 73 69 74 72 75 66 76
REMARK SMILES IDX 67 77 70 78 68 79 47 80 48 81 56 82 49 83 50 84 54 85 57 86
REMARK SMILES IDX 51 87 52 88 55 89 53 90
REMARK H PARENT 14 6 18 24 77 43 45 54
REMARK Flexibility Score: inf
ROOT
ATOM      1  C   UNL A   1      37.803  20.680  25.209  1.00  0.00     0.042 C 
ENDROOT
BRANCH   1   2
ATOM      2  C   UNL A   1      36.281  20.793  25.087  1.00  0.00     0.118 C 
BRANCH   2   3
ATOM      3  N   UNL A   1      35.704  21.434  26.255  1.00  0.00    -0.352 N 
ATOM      4  C   UNL A   1      34.870  22.502  26.454  1.00  0.00     0.251 C 
ATOM      5  O   UNL A   1      34.570  22.743  27.626  1.00  0.00    -0.269 OA
ATOM      6  H   UNL A   1      35.974  21.002  27.097  1.00  0.00     0.163 HD
BRANCH   4   7
ATOM      7  C   UNL A   1      34.272  23.347  25.377  1.00  0.00     0.042 A 
ATOM      8  N   UNL A   1      32.471  26.122  22.844  1.00  0.00    -0.292 N 
ATOM      9  C   UNL A   1      32.665  27.307  23.587  1.00  0.00     0.329 A 
ATOM     10  C   UNL A   1      33.064  25.055  23.535  1.00  0.00     0.069 A 
ATOM     11  O   UNL A   1      32.280  28.433  23.284  1.00  0.00    -0.248 OA
ATOM     12  N   UNL A   1      33.390  26.942  24.740  1.00  0.00    -0.292 N 
ATOM     13  C   UNL A   1      33.601  25.555  24.719  1.00  0.00     0.070 A 
ATOM     14  C   UNL A   1      33.170  23.720  23.210  1.00  0.00     0.029 A 
ATOM     15  C   UNL A   1      34.199  24.729  25.649  1.00  0.00     0.042 A 
ATOM     16  C   UNL A   1      33.806  22.871  24.133  1.00  0.00     0.016 A 
BRANCH   8  17
ATOM     17  C   UNL A   1      31.716  26.037  21.620  1.00  0.00     0.124 C 
ATOM     18  C   UNL A   1      32.588  25.715  20.418  1.00  0.00     0.028 C 
ENDBRANCH   8  17
BRANCH  12  19
ATOM     19  C   UNL A   1      33.868  27.862  25.741  1.00  0.00     0.124 C 
ATOM     20  C   UNL A   1      32.912  28.018  26.912  1.00  0.00     0.028 C 
ENDBRANCH  12  19
ENDBRANCH   4   7
ENDBRANCH   2   3
ENDBRANCH   1   2
BRANCH   1  21
ATOM     21  C   UNL A   1      38.461  21.954  25.751  1.00  0.00     0.118 C 
BRANCH  21  22
ATOM     22  N   UNL A   1      39.873  21.800  26.047  1.00  0.00    -0.352 N 
ATOM     23  C   UNL A   1      40.844  22.568  26.627  1.00  0.00     0.251 C 
ATOM     24  H   UNL A   1      40.218  20.925  25.757  1.00  0.00     0.163 HD
ATOM     25  O   UNL A   1      41.956  22.041  26.723  1.00  0.00    -0.269 OA
BRANCH  23  26
ATOM     26  C   UNL A   1      40.684  23.972  27.097  1.00  0.00     0.039 A 
ATOM     27  C   UNL A   1      39.725  24.878  26.651  1.00  0.00     0.014 A 
ATOM     28  C   UNL A   1      41.618  24.411  28.059  1.00  0.00     0.014 A 
ATOM     29  C   UNL A   1      39.750  26.200  27.091  1.00  0.00     0.010 A 
ATOM     30  C   UNL A   1      41.638  25.727  28.516  1.00  0.00     0.010 A 
ATOM     31  C   UNL A   1      40.725  26.636  28.001  1.00  0.00    -0.014 A 
BRANCH  31  32
ATOM     32  C   UNL A   1      40.669  28.031  28.441  1.00  0.00     0.031 A 
ATOM     33  C   UNL A   1      41.785  28.882  27.949  1.00  0.00     0.074 A 
ATOM     34  C   UNL A   1      39.692  28.569  29.201  1.00  0.00     0.049 A 
ATOM     35  N   UNL A   1      42.739  29.406  28.648  1.00  0.00    -0.248 NA
ATOM     36  C   UNL A   1      41.917  29.097  26.502  1.00  0.00     0.031 C 
ATOM     37  C   UNL A   1      38.394  27.987  29.546  1.00  0.00     0.029 A 
ATOM     38  N   UNL A   1      39.643  29.807  29.787  1.00  0.00    -0.354 N 
ATOM     39  C   UNL A   1      43.507  30.153  27.759  1.00  0.00     0.074 A 
ATOM     40  C   UNL A   1      43.028  29.835  26.439  1.00  0.00     0.031 C 
ATOM     41  C   UNL A   1      37.610  28.937  30.109  1.00  0.00     0.029 A 
ATOM     42  C   UNL A   1      38.402  30.138  30.315  1.00  0.00     0.049 A 
ATOM     43  H   UNL A   1      40.421  30.409  29.831  1.00  0.00     0.167 HD
ATOM     44  C   UNL A   1      44.334  31.138  28.207  1.00  0.00     0.037 A 
ATOM     45  C   UNL A   1      38.046  31.317  30.879  1.00  0.00     0.037 A 
ATOM     46  C   UNL A   1      44.546  31.037  29.626  1.00  0.00     0.049 A 
ATOM     47  C   UNL A   1      39.272  31.978  31.375  1.00  0.00     0.074 A 
ATOM     48  C   UNL A   1      45.342  30.306  30.479  1.00  0.00     0.029 A 
ATOM     49  N   UNL A   1      43.556  31.605  30.377  1.00  0.00    -0.354 N 
ATOM     50  N   UNL A   1      39.971  31.541  32.384  1.00  0.00    -0.248 NA
ATOM     51  C   UNL A   1      39.900  33.030  30.584  1.00  0.00     0.031 C 
ATOM     52  C   UNL A   1      44.687  30.318  31.747  1.00  0.00     0.029 A 
ATOM     53  C   UNL A   1      43.520  31.069  31.635  1.00  0.00     0.049 A 
ATOM     54  H   UNL A   1      42.948  32.309  30.055  1.00  0.00     0.167 HD
ATOM     55  C   UNL A   1      41.257  31.942  32.096  1.00  0.00     0.074 A 
ATOM     56  C   UNL A   1      41.126  33.001  31.109  1.00  0.00     0.031 C 
ATOM     57  C   UNL A   1      42.315  31.150  32.423  1.00  0.00     0.037 A 
BRANCH  44  58
ATOM     58  C   UNL A   1      44.605  32.442  27.488  1.00  0.00     0.064 A 
ATOM     59  C   UNL A   1      45.806  32.595  26.761  1.00  0.00     0.173 A 
ATOM     60  C   UNL A   1      43.904  33.636  27.757  1.00  0.00     0.173 A 
ATOM     61  F   UNL A   1      46.569  31.531  26.468  1.00  0.00    -0.203 F 
ATOM     62  C   UNL A   1      46.294  33.853  26.392  1.00  0.00     0.198 A 
ATOM     63  C   UNL A   1      44.371  34.885  27.345  1.00  0.00     0.198 A 
ATOM     64  F   UNL A   1      42.809  33.657  28.526  1.00  0.00    -0.203 F 
ATOM     65  F   UNL A   1      47.496  33.956  25.806  1.00  0.00    -0.200 F 
ATOM     66  C   UNL A   1      45.579  34.997  26.689  1.00  0.00     0.200 A 
ATOM     67  F   UNL A   1      43.675  35.986  27.664  1.00  0.00    -0.200 F 
ATOM     68  F   UNL A   1      46.070  36.207  26.388  1.00  0.00    -0.200 F 
ENDBRANCH  44  58
BRANCH  45  69
ATOM     69  C   UNL A   1      36.749  32.028  30.877  1.00  0.00     0.064 A 
ATOM     70  C   UNL A   1      35.977  32.118  32.050  1.00  0.00     0.173 A 
ATOM     71  C   UNL A   1      36.419  32.914  29.837  1.00  0.00     0.173 A 
ATOM     72  F   UNL A   1      36.240  31.320  33.096  1.00  0.00    -0.203 F 
ATOM     73  C   UNL A   1      34.985  33.089  32.201  1.00  0.00     0.198 A 
ATOM     74  C   UNL A   1      35.423  33.880  29.987  1.00  0.00     0.198 A 
ATOM     75  F   UNL A   1      37.132  32.930  28.702  1.00  0.00    -0.203 F 
ATOM     76  F   UNL A   1      34.334  33.204  33.367  1.00  0.00    -0.200 F 
ATOM     77  C   UNL A   1      34.723  33.983  31.178  1.00  0.00     0.200 A 
ATOM     78  F   UNL A   1      35.199  34.761  29.002  1.00  0.00    -0.200 F 
ATOM     79  F   UNL A   1      33.835  34.971  31.353  1.00  0.00    -0.200 F 
ENDBRANCH  45  69
BRANCH  57  80
ATOM     80  C   UNL A   1      42.118  30.186  33.546  1.00  0.00     0.064 A 
ATOM     81  C   UNL A   1      41.670  28.865  33.388  1.00  0.00     0.173 A 
ATOM     82  C   UNL A   1      42.442  30.615  34.840  1.00  0.00     0.173 A 
ATOM     83  F   UNL A   1      41.412  28.365  32.173  1.00  0.00    -0.203 F 
ATOM     84  C   UNL A   1      41.513  28.026  34.490  1.00  0.00     0.198 A 
ATOM     85  C   UNL A   1      42.318  29.764  35.933  1.00  0.00     0.198 A 
ATOM     86  F   UNL A   1      42.911  31.857  35.039  1.00  0.00    -0.203 F 
ATOM     87  F   UNL A   1      41.064  26.773  34.323  1.00  0.00    -0.200 F 
ATOM     88  C   UNL A   1      41.842  28.475  35.760  1.00  0.00     0.200 A 
ATOM     89  F   UNL A   1      42.677  30.191  37.151  1.00  0.00    -0.200 F 
ATOM     90  F   UNL A   1      41.723  27.658  36.815  1.00  0.00    -0.200 F 
ENDBRANCH  57  80
ENDBRANCH  31  32
ENDBRANCH  23  26
ENDBRANCH  21  22
ENDBRANCH   1  21
TORSDOF 12
ENDMDL
