MODEL 1
REMARK VINA RESULT:     -14.6      0.000      0.000
REMARK SMILES C[C@@H]1C(=O)NC(=O)CN1C(=O)NC1(CC(=O)NCCCNC(=O)c2ccc(-c3c4nc(c(-c5c(F)c(F)c(F)c(F)c5F)c5ccc([nH]5)c(-c5c(F)c(F)c(F)c(F)c5F)c5nc(c(-c6c(F)c(F)c(F)c(F)c6F)c6ccc3[nH]6)C=C5)C=C4)cc2)CCC1
REMARK SMILES IDX 18 1 17 2 15 3 16 4 14 6 13 7 87 8 89 9 88 10 12 11 10 12
REMARK SMILES IDX 11 13 9 15 1 16 2 17 3 18 4 19 5 20 8 21 6 22 7 24 19 25
REMARK SMILES IDX 20 26 21 27 22 28 23 30 24 31 25 32 86 33 26 34 85 35 27 36
REMARK SMILES IDX 28 37 29 38 79 39 30 40 84 41 78 42 80 43 31 44 83 45 77 46
REMARK SMILES IDX 76 47 32 49 64 50 44 51 63 52 45 53 48 54 62 55 81 56 46 57
REMARK SMILES IDX 47 58 61 60 82 61 49 62 33 63 34 64 42 65 35 66 36 67 40 68
REMARK SMILES IDX 43 69 37 70 38 71 41 72 39 73 65 74 66 75 74 76 67 77 68 78
REMARK SMILES IDX 72 79 75 80 69 81 70 82 73 83 71 84 50 85 51 86 59 87 52 88
REMARK SMILES IDX 53 89 57 90 60 91 54 92 55 93 58 94 56 95
REMARK H PARENT 17 5 12 14 5 23 21 29 80 48 48 59
REMARK Flexibility Score: inf
ROOT
ATOM      1  C   UNL A   1      32.561  30.189  26.196  1.00  0.00     0.117 C 
ENDROOT
BRANCH   1   2
ATOM      2  N   UNL A   1      33.279  29.684  24.378  1.00  0.00    -0.356 N 
ATOM      3  C   UNL A   1      33.692  28.369  23.595  1.00  0.00     0.222 C 
ATOM      4  O   UNL A   1      34.272  28.581  22.521  1.00  0.00    -0.275 OA
ATOM      5  H   UNL A   1      33.409  30.482  23.817  1.00  0.00     0.163 HD
BRANCH   3   6
ATOM      6  C   UNL A   1      33.238  26.695  23.986  1.00  0.00     0.128 C 
BRANCH   6   7
ATOM      7  C   UNL A   1      31.910  25.845  23.547  1.00  0.00     0.051 C 
ATOM      8  C   UNL A   1      30.518  26.568  23.369  1.00  0.00     0.029 C 
ATOM      9  C   UNL A   1      30.984  24.601  24.086  1.00  0.00     0.029 C 
ATOM     10  C   UNL A   1      29.839  25.554  24.310  1.00  0.00     0.005 C 
BRANCH   7  11
ATOM     11  N   UNL A   1      32.342  25.324  22.284  1.00  0.00    -0.332 N 
ATOM     12  C   UNL A   1      33.010  24.181  22.354  1.00  0.00     0.318 C 
ATOM     13  O   UNL A   1      33.473  23.708  21.325  1.00  0.00    -0.249 OA
ATOM     14  H   UNL A   1      32.159  25.780  21.432  1.00  0.00     0.165 HD
BRANCH  12  15
ATOM     15  N   UNL A   1      33.272  23.704  23.654  1.00  0.00    -0.304 N 
ATOM     16  C   UNL A   1      35.776  24.261  25.748  1.00  0.00     0.042 C 
ATOM     17  C   UNL A   1      34.216  24.125  25.366  1.00  0.00     0.174 C 
ATOM     18  C   UNL A   1      34.034  22.753  26.768  1.00  0.00     0.249 C 
ATOM     19  O   UNL A   1      34.402  22.880  27.935  1.00  0.00    -0.272 OA
ATOM     20  N   UNL A   1      33.190  21.364  26.333  1.00  0.00    -0.293 N 
ATOM     21  C   UNL A   1      32.595  21.956  23.466  1.00  0.00     0.222 C 
ATOM     22  C   UNL A   1      32.420  20.869  24.988  1.00  0.00     0.246 C 
ATOM     23  H   UNL A   1      33.154  20.699  27.057  1.00  0.00     0.173 HD
ATOM     24  O   UNL A   1      31.778  19.820  25.001  1.00  0.00    -0.273 OA
ENDBRANCH  12  15
ENDBRANCH   7  11
ENDBRANCH   6   7
ENDBRANCH   3   6
ENDBRANCH   1   2
BRANCH   1  25
ATOM     25  C   UNL A   1      31.969  31.513  26.874  1.00  0.00     0.042 C 
BRANCH  25  26
ATOM     26  C   UNL A   1      33.014  32.470  27.379  1.00  0.00     0.118 C 
BRANCH  26  27
ATOM     27  N   UNL A   1      32.569  33.846  27.626  1.00  0.00    -0.352 N 
ATOM     28  C   UNL A   1      33.051  34.748  28.541  1.00  0.00     0.251 C 
ATOM     29  H   UNL A   1      31.828  34.165  27.061  1.00  0.00     0.163 HD
ATOM     30  O   UNL A   1      32.528  35.843  28.686  1.00  0.00    -0.269 OA
BRANCH  28  31
ATOM     31  C   UNL A   1      34.184  34.317  29.362  1.00  0.00     0.039 A 
ATOM     32  C   UNL A   1      33.955  33.498  30.462  1.00  0.00     0.014 A 
ATOM     33  C   UNL A   1      35.470  34.563  28.885  1.00  0.00     0.014 A 
ATOM     34  C   UNL A   1      35.040  32.846  31.031  1.00  0.00     0.010 A 
ATOM     35  C   UNL A   1      36.491  33.742  29.299  1.00  0.00     0.010 A 
ATOM     36  C   UNL A   1      36.301  32.919  30.413  1.00  0.00    -0.014 A 
BRANCH  36  37
ATOM     37  C   UNL A   1      37.474  32.213  30.961  1.00  0.00     0.031 A 
ATOM     38  C   UNL A   1      37.953  32.580  32.338  1.00  0.00     0.074 A 
ATOM     39  C   UNL A   1      38.108  31.295  30.209  1.00  0.00     0.049 A 
ATOM     40  N   UNL A   1      38.988  32.130  32.997  1.00  0.00    -0.248 NA
ATOM     41  C   UNL A   1      37.203  33.629  33.057  1.00  0.00     0.031 C 
ATOM     42  C   UNL A   1      37.756  30.926  28.833  1.00  0.00     0.029 A 
ATOM     43  N   UNL A   1      39.177  30.493  30.501  1.00  0.00    -0.354 N 
ATOM     44  C   UNL A   1      39.009  32.849  34.184  1.00  0.00     0.074 A 
ATOM     45  C   UNL A   1      37.966  33.840  34.114  1.00  0.00     0.031 C 
ATOM     46  C   UNL A   1      38.555  29.925  28.429  1.00  0.00     0.029 A 
ATOM     47  C   UNL A   1      39.503  29.620  29.493  1.00  0.00     0.049 A 
ATOM     48  H   UNL A   1      39.667  30.539  31.354  1.00  0.00     0.167 HD
ATOM     49  C   UNL A   1      39.789  32.654  35.269  1.00  0.00     0.037 A 
ATOM     50  C   UNL A   1      40.461  28.678  29.452  1.00  0.00     0.037 A 
ATOM     51  C   UNL A   1      40.794  31.633  35.338  1.00  0.00     0.049 A 
ATOM     52  C   UNL A   1      41.333  28.499  30.668  1.00  0.00     0.074 A 
ATOM     53  C   UNL A   1      41.628  31.314  36.391  1.00  0.00     0.029 A 
ATOM     54  N   UNL A   1      41.092  30.760  34.301  1.00  0.00    -0.354 N 
ATOM     55  N   UNL A   1      41.297  29.132  31.816  1.00  0.00    -0.248 NA
ATOM     56  C   UNL A   1      42.372  27.466  30.585  1.00  0.00     0.031 C 
ATOM     57  C   UNL A   1      42.468  30.278  35.973  1.00  0.00     0.029 A 
ATOM     58  C   UNL A   1      42.113  29.910  34.684  1.00  0.00     0.049 A 
ATOM     59  H   UNL A   1      40.644  30.748  33.425  1.00  0.00     0.167 HD
ATOM     60  C   UNL A   1      42.280  28.552  32.605  1.00  0.00     0.074 A 
ATOM     61  C   UNL A   1      42.877  27.499  31.809  1.00  0.00     0.031 C 
ATOM     62  C   UNL A   1      42.664  28.858  33.868  1.00  0.00     0.037 A 
BRANCH  49  63
ATOM     63  C   UNL A   1      39.559  33.540  36.458  1.00  0.00     0.064 A 
ATOM     64  C   UNL A   1      38.743  33.139  37.528  1.00  0.00     0.173 A 
ATOM     65  C   UNL A   1      40.170  34.799  36.537  1.00  0.00     0.173 A 
ATOM     66  F   UNL A   1      38.114  31.954  37.491  1.00  0.00    -0.203 F 
ATOM     67  C   UNL A   1      38.528  33.974  38.621  1.00  0.00     0.198 A 
ATOM     68  C   UNL A   1      39.983  35.617  37.648  1.00  0.00     0.198 A 
ATOM     69  F   UNL A   1      40.953  35.236  35.538  1.00  0.00    -0.203 F 
ATOM     70  F   UNL A   1      37.700  33.591  39.602  1.00  0.00    -0.200 F 
ATOM     71  C   UNL A   1      39.157  35.207  38.686  1.00  0.00     0.200 A 
ATOM     72  F   UNL A   1      40.599  36.805  37.715  1.00  0.00    -0.200 F 
ATOM     73  F   UNL A   1      38.961  36.006  39.744  1.00  0.00    -0.200 F 
ENDBRANCH  49  63
BRANCH  50  74
ATOM     74  C   UNL A   1      40.631  27.818  28.250  1.00  0.00     0.064 A 
ATOM     75  C   UNL A   1      40.037  26.548  28.181  1.00  0.00     0.173 A 
ATOM     76  C   UNL A   1      41.419  28.223  27.163  1.00  0.00     0.173 A 
ATOM     77  F   UNL A   1      39.280  26.107  29.196  1.00  0.00    -0.203 F 
ATOM     78  C   UNL A   1      40.264  25.702  27.097  1.00  0.00     0.198 A 
ATOM     79  C   UNL A   1      41.616  27.390  26.063  1.00  0.00     0.198 A 
ATOM     80  F   UNL A   1      42.001  29.431  27.168  1.00  0.00    -0.203 F 
ATOM     81  F   UNL A   1      39.742  24.467  27.094  1.00  0.00    -0.200 F 
ATOM     82  C   UNL A   1      41.052  26.124  26.039  1.00  0.00     0.200 A 
ATOM     83  F   UNL A   1      42.361  27.811  25.032  1.00  0.00    -0.200 F 
ATOM     84  F   UNL A   1      41.277  25.307  25.001  1.00  0.00    -0.200 F 
ENDBRANCH  50  74
BRANCH  62  85
ATOM     85  C   UNL A   1      43.739  28.009  34.480  1.00  0.00     0.064 A 
ATOM     86  C   UNL A   1      45.091  28.374  34.422  1.00  0.00     0.173 A 
ATOM     87  C   UNL A   1      43.401  26.834  35.169  1.00  0.00     0.173 A 
ATOM     88  F   UNL A   1      45.464  29.483  33.765  1.00  0.00    -0.203 F 
ATOM     89  C   UNL A   1      46.071  27.572  34.998  1.00  0.00     0.198 A 
ATOM     90  C   UNL A   1      44.379  26.058  35.780  1.00  0.00     0.198 A 
ATOM     91  F   UNL A   1      42.119  26.449  35.265  1.00  0.00    -0.203 F 
ATOM     92  F   UNL A   1      47.363  27.906  34.874  1.00  0.00    -0.200 F 
ATOM     93  C   UNL A   1      45.713  26.420  35.683  1.00  0.00     0.200 A 
ATOM     94  F   UNL A   1      44.030  24.958  36.461  1.00  0.00    -0.200 F 
ATOM     95  F   UNL A   1      46.659  25.655  36.245  1.00  0.00    -0.200 F 
ENDBRANCH  62  85
ENDBRANCH  36  37
ENDBRANCH  28  31
ENDBRANCH  26  27
ENDBRANCH  25  26
ENDBRANCH   1  25
TORSDOF 13
ENDMDL
MODEL 2
REMARK VINA RESULT:     -14.6      1.712      2.535
REMARK SMILES C[C@@H]1C(=O)NC(=O)CN1C(=O)NC1(CC(=O)NCCCNC(=O)c2ccc(-c3c4nc(c(-c5c(F)c(F)c(F)c(F)c5F)c5ccc([nH]5)c(-c5c(F)c(F)c(F)c(F)c5F)c5nc(c(-c6c(F)c(F)c(F)c(F)c6F)c6ccc3[nH]6)C=C5)C=C4)cc2)CCC1
REMARK SMILES IDX 18 1 17 2 15 3 16 4 14 6 13 7 87 8 89 9 88 10 12 11 10 12
REMARK SMILES IDX 11 13 9 15 1 16 2 17 3 18 4 19 5 20 8 21 6 22 7 24 19 25
REMARK SMILES IDX 20 26 21 27 22 28 23 30 24 31 25 32 86 33 26 34 85 35 27 36
REMARK SMILES IDX 28 37 29 38 79 39 30 40 84 41 78 42 80 43 31 44 83 45 77 46
REMARK SMILES IDX 76 47 32 49 64 50 44 51 63 52 45 53 48 54 62 55 81 56 46 57
REMARK SMILES IDX 47 58 61 60 82 61 49 62 33 63 34 64 42 65 35 66 36 67 40 68
REMARK SMILES IDX 43 69 37 70 38 71 41 72 39 73 65 74 66 75 74 76 67 77 68 78
REMARK SMILES IDX 72 79 75 80 69 81 70 82 73 83 71 84 50 85 51 86 59 87 52 88
REMARK SMILES IDX 53 89 57 90 60 91 54 92 55 93 58 94 56 95
REMARK H PARENT 17 5 12 14 5 23 21 29 80 48 48 59
REMARK Flexibility Score: inf
ROOT
ATOM      1  C   UNL A   1      31.702  28.224  24.999  1.00  0.00     0.117 C 
ENDROOT
BRANCH   1   2
ATOM      2  N   UNL A   1      32.682  27.887  23.267  1.00  0.00    -0.356 N 
ATOM      3  C   UNL A   1      33.220  26.649  22.437  1.00  0.00     0.222 C 
ATOM      4  O   UNL A   1      33.947  26.958  21.482  1.00  0.00    -0.275 OA
ATOM      5  H   UNL A   1      32.882  28.733  22.806  1.00  0.00     0.163 HD
BRANCH   3   6
ATOM      6  C   UNL A   1      32.734  24.947  22.604  1.00  0.00     0.128 C 
BRANCH   6   7
ATOM      7  C   UNL A   1      31.592  24.277  23.566  1.00  0.00     0.051 C 
ATOM      8  C   UNL A   1      30.246  25.045  23.866  1.00  0.00     0.029 C 
ATOM      9  C   UNL A   1      31.411  23.740  25.107  1.00  0.00     0.029 C 
ATOM     10  C   UNL A   1      30.448  24.865  25.383  1.00  0.00     0.005 C 
BRANCH   7  11
ATOM     11  N   UNL A   1      31.307  23.080  22.834  1.00  0.00    -0.332 N 
ATOM     12  C   UNL A   1      32.205  22.114  22.973  1.00  0.00     0.318 C 
ATOM     13  O   UNL A   1      32.068  21.087  22.324  1.00  0.00    -0.249 OA
ATOM     14  H   UNL A   1      30.506  22.981  22.270  1.00  0.00     0.165 HD
BRANCH  12  15
ATOM     15  N   UNL A   1      33.342  22.444  23.738  1.00  0.00    -0.304 N 
ATOM     16  C   UNL A   1      36.492  23.010  22.887  1.00  0.00     0.042 C 
ATOM     17  C   UNL A   1      35.125  23.347  23.672  1.00  0.00     0.174 C 
ATOM     18  C   UNL A   1      36.134  23.307  25.364  1.00  0.00     0.249 C 
ATOM     19  O   UNL A   1      37.173  23.929  25.582  1.00  0.00    -0.272 OA
ATOM     20  N   UNL A   1      35.423  22.450  26.623  1.00  0.00    -0.293 N 
ATOM     21  C   UNL A   1      32.969  21.415  25.272  1.00  0.00     0.222 C 
ATOM     22  C   UNL A   1      34.025  21.638  26.809  1.00  0.00     0.246 C 
ATOM     23  H   UNL A   1      35.981  22.435  27.435  1.00  0.00     0.173 HD
ATOM     24  O   UNL A   1      33.716  21.194  27.914  1.00  0.00    -0.273 OA
ENDBRANCH  12  15
ENDBRANCH   7  11
ENDBRANCH   6   7
ENDBRANCH   3   6
ENDBRANCH   1   2
BRANCH   1  25
ATOM     25  C   UNL A   1      31.977  29.063  26.335  1.00  0.00     0.042 C 
BRANCH  25  26
ATOM     26  C   UNL A   1      33.066  30.093  26.206  1.00  0.00     0.118 C 
BRANCH  26  27
ATOM     27  N   UNL A   1      32.782  31.415  26.775  1.00  0.00    -0.352 N 
ATOM     28  C   UNL A   1      33.580  32.187  27.580  1.00  0.00     0.251 C 
ATOM     29  H   UNL A   1      31.904  31.799  26.547  1.00  0.00     0.163 HD
ATOM     30  O   UNL A   1      33.177  33.244  28.044  1.00  0.00    -0.269 OA
BRANCH  28  31
ATOM     31  C   UNL A   1      34.909  31.662  27.896  1.00  0.00     0.039 A 
ATOM     32  C   UNL A   1      35.981  32.541  28.007  1.00  0.00     0.014 A 
ATOM     33  C   UNL A   1      35.011  30.329  28.291  1.00  0.00     0.014 A 
ATOM     34  C   UNL A   1      37.144  32.086  28.610  1.00  0.00     0.010 A 
ATOM     35  C   UNL A   1      36.067  29.960  29.088  1.00  0.00     0.010 A 
ATOM     36  C   UNL A   1      37.168  30.813  29.207  1.00  0.00    -0.014 A 
BRANCH  36  37
ATOM     37  C   UNL A   1      38.370  30.301  29.891  1.00  0.00     0.031 A 
ATOM     38  C   UNL A   1      38.630  30.739  31.306  1.00  0.00     0.074 A 
ATOM     39  C   UNL A   1      39.220  29.497  29.229  1.00  0.00     0.049 A 
ATOM     40  N   UNL A   1      39.644  30.458  32.082  1.00  0.00    -0.248 NA
ATOM     41  C   UNL A   1      37.649  31.655  31.921  1.00  0.00     0.031 C 
ATOM     42  C   UNL A   1      39.086  29.078  27.829  1.00  0.00     0.029 A 
ATOM     43  N   UNL A   1      40.364  28.875  29.650  1.00  0.00    -0.354 N 
ATOM     44  C   UNL A   1      39.419  31.170  33.253  1.00  0.00     0.074 A 
ATOM     45  C   UNL A   1      38.246  31.983  33.052  1.00  0.00     0.031 C 
ATOM     46  C   UNL A   1      40.072  28.217  27.531  1.00  0.00     0.029 A 
ATOM     47  C   UNL A   1      40.933  28.065  28.698  1.00  0.00     0.049 A 
ATOM     48  H   UNL A   1      40.743  28.997  30.551  1.00  0.00     0.167 HD
ATOM     49  C   UNL A   1      40.095  31.101  34.420  1.00  0.00     0.037 A 
ATOM     50  C   UNL A   1      42.027  27.287  28.778  1.00  0.00     0.037 A 
ATOM     51  C   UNL A   1      41.235  30.253  34.615  1.00  0.00     0.049 A 
ATOM     52  C   UNL A   1      42.776  27.248  30.085  1.00  0.00     0.074 A 
ATOM     53  C   UNL A   1      41.987  30.069  35.758  1.00  0.00     0.029 A 
ATOM     54  N   UNL A   1      41.780  29.438  33.632  1.00  0.00    -0.354 N 
ATOM     55  N   UNL A   1      42.513  27.866  31.211  1.00  0.00    -0.248 NA
ATOM     56  C   UNL A   1      43.968  26.393  30.133  1.00  0.00     0.031 C 
ATOM     57  C   UNL A   1      43.021  29.179  35.451  1.00  0.00     0.029 A 
ATOM     58  C   UNL A   1      42.873  28.761  34.138  1.00  0.00     0.049 A 
ATOM     59  H   UNL A   1      41.439  29.356  32.712  1.00  0.00     0.167 HD
ATOM     60  C   UNL A   1      43.483  27.449  32.112  1.00  0.00     0.074 A 
ATOM     61  C   UNL A   1      44.323  26.505  31.404  1.00  0.00     0.031 C 
ATOM     62  C   UNL A   1      43.670  27.811  33.405  1.00  0.00     0.037 A 
BRANCH  49  63
ATOM     63  C   UNL A   1      39.598  31.938  35.561  1.00  0.00     0.064 A 
ATOM     64  C   UNL A   1      40.089  33.233  35.792  1.00  0.00     0.173 A 
ATOM     65  C   UNL A   1      38.611  31.448  36.427  1.00  0.00     0.173 A 
ATOM     66  F   UNL A   1      41.053  33.741  35.009  1.00  0.00    -0.203 F 
ATOM     67  C   UNL A   1      39.628  33.996  36.861  1.00  0.00     0.198 A 
ATOM     68  C   UNL A   1      38.125  32.228  37.473  1.00  0.00     0.198 A 
ATOM     69  F   UNL A   1      38.113  30.213  36.257  1.00  0.00    -0.203 F 
ATOM     70  F   UNL A   1      40.153  35.207  37.094  1.00  0.00    -0.200 F 
ATOM     71  C   UNL A   1      38.638  33.498  37.694  1.00  0.00     0.200 A 
ATOM     72  F   UNL A   1      37.161  31.749  38.271  1.00  0.00    -0.200 F 
ATOM     73  F   UNL A   1      38.185  34.238  38.714  1.00  0.00    -0.200 F 
ENDBRANCH  49  63
BRANCH  50  74
ATOM     74  C   UNL A   1      42.463  26.466  27.616  1.00  0.00     0.064 A 
ATOM     75  C   UNL A   1      41.933  25.184  27.398  1.00  0.00     0.173 A 
ATOM     76  C   UNL A   1      43.442  26.922  26.722  1.00  0.00     0.173 A 
ATOM     77  F   UNL A   1      41.000  24.697  28.228  1.00  0.00    -0.203 F 
ATOM     78  C   UNL A   1      42.401  24.375  26.365  1.00  0.00     0.198 A 
ATOM     79  C   UNL A   1      43.883  26.126  25.665  1.00  0.00     0.198 A 
ATOM     80  F   UNL A   1      43.974  28.144  26.872  1.00  0.00    -0.203 F 
ATOM     81  F   UNL A   1      41.927  23.129  26.227  1.00  0.00    -0.200 F 
ATOM     82  C   UNL A   1      43.373  24.847  25.498  1.00  0.00     0.200 A 
ATOM     83  F   UNL A   1      44.808  26.594  24.817  1.00  0.00    -0.200 F 
ATOM     84  F   UNL A   1      43.829  24.066  24.509  1.00  0.00    -0.200 F 
ENDBRANCH  50  74
BRANCH  62  85
ATOM     85  C   UNL A   1      44.792  27.143  34.145  1.00  0.00     0.064 A 
ATOM     86  C   UNL A   1      46.083  27.688  34.178  1.00  0.00     0.173 A 
ATOM     87  C   UNL A   1      44.555  25.961  34.863  1.00  0.00     0.173 A 
ATOM     88  F   UNL A   1      46.360  28.811  33.498  1.00  0.00    -0.203 F 
ATOM     89  C   UNL A   1      47.107  27.052  34.872  1.00  0.00     0.198 A 
ATOM     90  C   UNL A   1      45.571  25.351  35.590  1.00  0.00     0.198 A 
ATOM     91  F   UNL A   1      43.333  25.407  34.874  1.00  0.00    -0.203 F 
ATOM     92  F   UNL A   1      48.348  27.555  34.838  1.00  0.00    -0.200 F 
ATOM     93  C   UNL A   1      46.848  25.890  35.584  1.00  0.00     0.200 A 
ATOM     94  F   UNL A   1      45.314  24.241  36.296  1.00  0.00    -0.200 F 
ATOM     95  F   UNL A   1      47.835  25.285  36.259  1.00  0.00    -0.200 F 
ENDBRANCH  62  85
ENDBRANCH  36  37
ENDBRANCH  28  31
ENDBRANCH  26  27
ENDBRANCH  25  26
ENDBRANCH   1  25
TORSDOF 13
ENDMDL
MODEL 3
REMARK VINA RESULT:     -14.6      1.777      2.825
REMARK SMILES C[C@@H]1C(=O)NC(=O)CN1C(=O)NC1(CC(=O)NCCCNC(=O)c2ccc(-c3c4nc(c(-c5c(F)c(F)c(F)c(F)c5F)c5ccc([nH]5)c(-c5c(F)c(F)c(F)c(F)c5F)c5nc(c(-c6c(F)c(F)c(F)c(F)c6F)c6ccc3[nH]6)C=C5)C=C4)cc2)CCC1
REMARK SMILES IDX 18 1 17 2 15 3 16 4 14 6 13 7 87 8 89 9 88 10 12 11 10 12
REMARK SMILES IDX 11 13 9 15 1 16 2 17 3 18 4 19 5 20 8 21 6 22 7 24 19 25
REMARK SMILES IDX 20 26 21 27 22 28 23 30 24 31 25 32 86 33 26 34 85 35 27 36
REMARK SMILES IDX 28 37 29 38 79 39 30 40 84 41 78 42 80 43 31 44 83 45 77 46
REMARK SMILES IDX 76 47 32 49 64 50 44 51 63 52 45 53 48 54 62 55 81 56 46 57
REMARK SMILES IDX 47 58 61 60 82 61 49 62 33 63 34 64 42 65 35 66 36 67 40 68
REMARK SMILES IDX 43 69 37 70 38 71 41 72 39 73 65 74 66 75 74 76 67 77 68 78
REMARK SMILES IDX 72 79 75 80 69 81 70 82 73 83 71 84 50 85 51 86 59 87 52 88
REMARK SMILES IDX 53 89 57 90 60 91 54 92 55 93 58 94 56 95
REMARK H PARENT 17 5 12 14 5 23 21 29 80 48 48 59
REMARK Flexibility Score: inf
ROOT
ATOM      1  C   UNL A   1      31.688  28.927  24.002  1.00  0.00     0.117 C 
ENDROOT
BRANCH   1   2
ATOM      2  N   UNL A   1      32.427  27.982  22.379  1.00  0.00    -0.356 N 
ATOM      3  C   UNL A   1      33.058  26.574  22.018  1.00  0.00     0.222 C 
ATOM      4  O   UNL A   1      33.550  26.516  20.882  1.00  0.00    -0.275 OA
ATOM      5  H   UNL A   1      32.383  28.561  21.584  1.00  0.00     0.163 HD
BRANCH   3   6
ATOM      6  C   UNL A   1      32.946  25.070  22.959  1.00  0.00     0.128 C 
BRANCH   6   7
ATOM      7  C   UNL A   1      31.683  24.458  23.802  1.00  0.00     0.051 C 
ATOM      8  C   UNL A   1      30.395  25.332  24.062  1.00  0.00     0.029 C 
ATOM      9  C   UNL A   1      31.346  23.854  25.292  1.00  0.00     0.029 C 
ATOM     10  C   UNL A   1      30.472  25.048  25.574  1.00  0.00     0.005 C 
BRANCH   7  11
ATOM     11  N   UNL A   1      31.342  23.336  22.979  1.00  0.00    -0.332 N 
ATOM     12  C   UNL A   1      32.207  22.332  23.021  1.00  0.00     0.318 C 
ATOM     13  O   UNL A   1      32.022  21.367  22.292  1.00  0.00    -0.249 OA
ATOM     14  H   UNL A   1      30.530  23.313  22.425  1.00  0.00     0.165 HD
BRANCH  12  15
ATOM     15  N   UNL A   1      33.368  22.557  23.789  1.00  0.00    -0.304 N 
ATOM     16  C   UNL A   1      36.537  22.987  22.932  1.00  0.00     0.042 C 
ATOM     17  C   UNL A   1      35.198  23.360  23.749  1.00  0.00     0.174 C 
ATOM     18  C   UNL A   1      36.217  23.176  25.424  1.00  0.00     0.249 C 
ATOM     19  O   UNL A   1      37.292  23.726  25.663  1.00  0.00    -0.272 OA
ATOM     20  N   UNL A   1      35.470  22.296  26.647  1.00  0.00    -0.293 N 
ATOM     21  C   UNL A   1      32.950  21.472  25.273  1.00  0.00     0.222 C 
ATOM     22  C   UNL A   1      34.029  21.556  26.807  1.00  0.00     0.246 C 
ATOM     23  H   UNL A   1      36.033  22.207  27.450  1.00  0.00     0.173 HD
ATOM     24  O   UNL A   1      33.706  21.073  27.891  1.00  0.00    -0.273 OA
ENDBRANCH  12  15
ENDBRANCH   7  11
ENDBRANCH   6   7
ENDBRANCH   3   6
ENDBRANCH   1   2
BRANCH   1  25
ATOM     25  C   UNL A   1      31.963  28.895  25.579  1.00  0.00     0.042 C 
BRANCH  25  26
ATOM     26  C   UNL A   1      33.118  29.751  26.023  1.00  0.00     0.118 C 
BRANCH  26  27
ATOM     27  N   UNL A   1      32.776  31.064  26.582  1.00  0.00    -0.352 N 
ATOM     28  C   UNL A   1      33.530  31.864  27.403  1.00  0.00     0.251 C 
ATOM     29  H   UNL A   1      31.891  31.417  26.334  1.00  0.00     0.163 HD
ATOM     30  O   UNL A   1      33.081  32.908  27.854  1.00  0.00    -0.269 OA
BRANCH  28  31
ATOM     31  C   UNL A   1      34.869  31.385  27.749  1.00  0.00     0.039 A 
ATOM     32  C   UNL A   1      35.907  32.300  27.879  1.00  0.00     0.014 A 
ATOM     33  C   UNL A   1      35.007  30.058  28.151  1.00  0.00     0.014 A 
ATOM     34  C   UNL A   1      37.073  31.886  28.509  1.00  0.00     0.010 A 
ATOM     35  C   UNL A   1      36.057  29.727  28.972  1.00  0.00     0.010 A 
ATOM     36  C   UNL A   1      37.126  30.616  29.111  1.00  0.00    -0.014 A 
BRANCH  36  37
ATOM     37  C   UNL A   1      38.329  30.148  29.823  1.00  0.00     0.031 A 
ATOM     38  C   UNL A   1      38.573  30.642  31.222  1.00  0.00     0.074 A 
ATOM     39  C   UNL A   1      39.196  29.330  29.197  1.00  0.00     0.049 A 
ATOM     40  N   UNL A   1      39.584  30.405  32.015  1.00  0.00    -0.248 NA
ATOM     41  C   UNL A   1      37.575  31.567  31.795  1.00  0.00     0.031 C 
ATOM     42  C   UNL A   1      39.077  28.857  27.814  1.00  0.00     0.029 A 
ATOM     43  N   UNL A   1      40.344  28.741  29.650  1.00  0.00    -0.354 N 
ATOM     44  C   UNL A   1      39.341  31.157  33.156  1.00  0.00     0.074 A 
ATOM     45  C   UNL A   1      38.159  31.946  32.916  1.00  0.00     0.031 C 
ATOM     46  C   UNL A   1      40.078  27.999  27.556  1.00  0.00     0.029 A 
ATOM     47  C   UNL A   1      40.931  27.903  28.734  1.00  0.00     0.049 A 
ATOM     48  H   UNL A   1      40.715  28.902  30.548  1.00  0.00     0.167 HD
ATOM     49  C   UNL A   1      40.009  31.141  34.330  1.00  0.00     0.037 A 
ATOM     50  C   UNL A   1      42.035  27.144  28.851  1.00  0.00     0.037 A 
ATOM     51  C   UNL A   1      41.158  30.317  34.565  1.00  0.00     0.049 A 
ATOM     52  C   UNL A   1      42.774  27.164  30.163  1.00  0.00     0.074 A 
ATOM     53  C   UNL A   1      41.904  30.187  35.719  1.00  0.00     0.029 A 
ATOM     54  N   UNL A   1      41.722  29.474  33.618  1.00  0.00    -0.354 N 
ATOM     55  N   UNL A   1      42.495  27.821  31.263  1.00  0.00    -0.248 NA
ATOM     56  C   UNL A   1      43.977  26.328  30.253  1.00  0.00     0.031 C 
ATOM     57  C   UNL A   1      42.953  29.301  35.454  1.00  0.00     0.029 A 
ATOM     58  C   UNL A   1      42.821  28.831  34.157  1.00  0.00     0.049 A 
ATOM     59  H   UNL A   1      41.389  29.352  32.699  1.00  0.00     0.167 HD
ATOM     60  C   UNL A   1      43.463  27.451  32.187  1.00  0.00     0.074 A 
ATOM     61  C   UNL A   1      44.321  26.493  31.521  1.00  0.00     0.031 C 
ATOM     62  C   UNL A   1      43.636  27.865  33.466  1.00  0.00     0.037 A 
BRANCH  49  63
ATOM     63  C   UNL A   1      39.492  32.014  35.435  1.00  0.00     0.064 A 
ATOM     64  C   UNL A   1      38.606  31.523  36.407  1.00  0.00     0.173 A 
ATOM     65  C   UNL A   1      39.895  33.353  35.533  1.00  0.00     0.173 A 
ATOM     66  F   UNL A   1      38.167  30.256  36.344  1.00  0.00    -0.203 F 
ATOM     67  C   UNL A   1      38.124  32.345  37.422  1.00  0.00     0.198 A 
ATOM     68  C   UNL A   1      39.441  34.163  36.571  1.00  0.00     0.198 A 
ATOM     69  F   UNL A   1      40.734  33.877  34.626  1.00  0.00    -0.203 F 
ATOM     70  F   UNL A   1      37.235  31.868  38.303  1.00  0.00    -0.200 F 
ATOM     71  C   UNL A   1      38.550  33.661  37.510  1.00  0.00     0.200 A 
ATOM     72  F   UNL A   1      39.861  35.432  36.662  1.00  0.00    -0.200 F 
ATOM     73  F   UNL A   1      38.097  34.449  38.494  1.00  0.00    -0.200 F 
ENDBRANCH  49  63
BRANCH  50  74
ATOM     74  C   UNL A   1      42.491  26.286  27.724  1.00  0.00     0.064 A 
ATOM     75  C   UNL A   1      43.470  26.736  26.824  1.00  0.00     0.173 A 
ATOM     76  C   UNL A   1      41.936  25.018  27.496  1.00  0.00     0.173 A 
ATOM     77  F   UNL A   1      44.027  27.944  26.991  1.00  0.00    -0.203 F 
ATOM     78  C   UNL A   1      43.837  25.975  25.716  1.00  0.00     0.198 A 
ATOM     79  C   UNL A   1      42.332  24.241  26.408  1.00  0.00     0.198 A 
ATOM     80  F   UNL A   1      41.007  24.531  28.331  1.00  0.00    -0.203 F 
ATOM     81  F   UNL A   1      44.721  26.463  24.835  1.00  0.00    -0.200 F 
ATOM     82  C   UNL A   1      43.270  24.727  25.510  1.00  0.00     0.200 A 
ATOM     83  F   UNL A   1      41.796  23.027  26.224  1.00  0.00    -0.200 F 
ATOM     84  F   UNL A   1      43.617  23.999  24.441  1.00  0.00    -0.200 F 
ENDBRANCH  50  74
BRANCH  62  85
ATOM     85  C   UNL A   1      44.760  27.241  34.239  1.00  0.00     0.064 A 
ATOM     86  C   UNL A   1      44.598  26.036  34.937  1.00  0.00     0.173 A 
ATOM     87  C   UNL A   1      46.029  27.840  34.243  1.00  0.00     0.173 A 
ATOM     88  F   UNL A   1      43.401  25.431  34.971  1.00  0.00    -0.203 F 
ATOM     89  C   UNL A   1      45.656  25.475  35.645  1.00  0.00     0.198 A 
ATOM     90  C   UNL A   1      47.094  27.255  34.918  1.00  0.00     0.198 A 
ATOM     91  F   UNL A   1      46.239  28.987  33.578  1.00  0.00    -0.203 F 
ATOM     92  F   UNL A   1      45.461  24.358  36.360  1.00  0.00    -0.200 F 
ATOM     93  C   UNL A   1      46.904  26.080  35.628  1.00  0.00     0.200 A 
ATOM     94  F   UNL A   1      48.305  27.828  34.880  1.00  0.00    -0.200 F 
ATOM     95  F   UNL A   1      47.923  25.532  36.304  1.00  0.00    -0.200 F 
ENDBRANCH  62  85
ENDBRANCH  36  37
ENDBRANCH  28  31
ENDBRANCH  26  27
ENDBRANCH  25  26
ENDBRANCH   1  25
TORSDOF 13
ENDMDL
