MODEL 1
REMARK VINA RESULT:     -13.4      0.000      0.000
REMARK SMILES O=C(NCCCNC(=O)c1cn(-c2ncnc3ccccc23)cn1)c1ccc(-c2c3nc(c(-c4c(F)c(F)c(F)c(F)c4F)c4ccc([nH]4)c(-c4c(F)c(F)c(F)c(F)c4F)c4nc(c(-c5c(F)c(F)c(F)c(F)c5F)c5ccc2[nH]5)C=C4)C=C3)cc1
REMARK SMILES IDX 4 1 3 2 1 3 2 4 25 6 26 7 87 8 27 9 86 10 28 11 29 12 30 13
REMARK SMILES IDX 80 14 31 15 85 16 79 17 81 18 32 19 84 20 78 21 77 22 33 24
REMARK SMILES IDX 65 25 45 26 64 27 46 28 49 29 63 30 82 31 47 32 48 33 62 35
REMARK SMILES IDX 83 36 50 37 34 38 35 39 43 40 36 41 37 42 41 43 44 44 38 45
REMARK SMILES IDX 39 46 42 47 40 48 66 49 67 50 75 51 68 52 69 53 73 54 76 55
REMARK SMILES IDX 70 56 71 57 74 58 72 59 51 60 52 61 60 62 53 63 54 64 58 65
REMARK SMILES IDX 61 66 55 67 56 68 59 69 57 70 5 71 6 72 7 73 8 74 9 76 10 77
REMARK SMILES IDX 11 78 24 79 12 80 23 81 13 82 14 83 22 84 15 85 17 86 21 87
REMARK SMILES IDX 16 88 18 89 20 90 19 91
REMARK H PARENT 3 5 81 23 49 34 7 75
REMARK Flexibility Score: inf
ROOT
ATOM      1  C   UNL A   1      35.097  34.366  28.545  1.00  0.00     0.118 C 
ENDROOT
BRANCH   1   2
ATOM      2  N   UNL A   1      34.444  33.119  28.197  1.00  0.00    -0.352 N 
ATOM      3  O   UNL A   1      33.857  31.004  28.002  1.00  0.00    -0.269 OA
ATOM      4  C   UNL A   1      34.780  31.794  28.226  1.00  0.00     0.251 C 
ATOM      5  H   UNL A   1      33.531  33.261  27.856  1.00  0.00     0.163 HD
BRANCH   4   6
ATOM      6  C   UNL A   1      36.145  31.237  28.441  1.00  0.00     0.039 A 
ATOM      7  C   UNL A   1      37.206  31.871  29.086  1.00  0.00     0.014 A 
ATOM      8  C   UNL A   1      36.357  29.937  27.934  1.00  0.00     0.014 A 
ATOM      9  C   UNL A   1      38.454  31.241  29.177  1.00  0.00     0.010 A 
ATOM     10  C   UNL A   1      37.595  29.306  28.021  1.00  0.00     0.010 A 
ATOM     11  C   UNL A   1      38.656  29.966  28.631  1.00  0.00    -0.014 A 
BRANCH  11  12
ATOM     12  C   UNL A   1      39.918  29.270  28.904  1.00  0.00     0.031 A 
ATOM     13  C   UNL A   1      40.223  29.105  30.356  1.00  0.00     0.074 A 
ATOM     14  C   UNL A   1      40.690  28.658  27.979  1.00  0.00     0.049 A 
ATOM     15  N   UNL A   1      41.252  29.539  31.009  1.00  0.00    -0.248 NA
ATOM     16  C   UNL A   1      39.216  28.446  31.202  1.00  0.00     0.031 C 
ATOM     17  C   UNL A   1      40.392  28.438  26.563  1.00  0.00     0.029 A 
ATOM     18  N   UNL A   1      41.888  28.012  28.142  1.00  0.00    -0.354 N 
ATOM     19  C   UNL A   1      41.105  29.080  32.319  1.00  0.00     0.074 A 
ATOM     20  C   UNL A   1      39.782  28.525  32.408  1.00  0.00     0.031 C 
ATOM     21  C   UNL A   1      41.272  27.547  26.050  1.00  0.00     0.029 A 
ATOM     22  C   UNL A   1      42.272  27.229  27.057  1.00  0.00     0.049 A 
ATOM     23  H   UNL A   1      42.431  28.095  28.959  1.00  0.00     0.167 HD
ATOM     24  C   UNL A   1      42.168  29.015  33.169  1.00  0.00     0.037 A 
ATOM     25  C   UNL A   1      43.309  26.351  27.001  1.00  0.00     0.037 A 
ATOM     26  C   UNL A   1      43.241  29.862  32.720  1.00  0.00     0.049 A 
ATOM     27  C   UNL A   1      44.247  26.688  28.095  1.00  0.00     0.074 A 
ATOM     28  C   UNL A   1      43.390  31.217  32.493  1.00  0.00     0.029 A 
ATOM     29  N   UNL A   1      44.316  29.266  32.114  1.00  0.00    -0.354 N 
ATOM     30  N   UNL A   1      45.001  27.748  28.118  1.00  0.00    -0.248 NA
ATOM     31  C   UNL A   1      44.077  26.012  29.371  1.00  0.00     0.031 C 
ATOM     32  C   UNL A   1      44.263  31.310  31.369  1.00  0.00     0.029 A 
ATOM     33  C   UNL A   1      44.638  30.014  31.016  1.00  0.00     0.049 A 
ATOM     34  H   UNL A   1      44.774  28.448  32.415  1.00  0.00     0.167 HD
ATOM     35  C   UNL A   1      45.015  28.130  29.448  1.00  0.00     0.074 A 
ATOM     36  C   UNL A   1      44.537  26.964  30.184  1.00  0.00     0.031 C 
ATOM     37  C   UNL A   1      45.139  29.444  29.790  1.00  0.00     0.037 A 
BRANCH  24  38
ATOM     38  C   UNL A   1      42.395  27.913  34.183  1.00  0.00     0.064 A 
ATOM     39  C   UNL A   1      42.976  26.699  33.754  1.00  0.00     0.173 A 
ATOM     40  C   UNL A   1      41.778  27.869  35.452  1.00  0.00     0.173 A 
ATOM     41  F   UNL A   1      43.589  26.617  32.563  1.00  0.00    -0.203 F 
ATOM     42  C   UNL A   1      42.843  25.513  34.482  1.00  0.00     0.198 A 
ATOM     43  C   UNL A   1      41.695  26.694  36.200  1.00  0.00     0.198 A 
ATOM     44  F   UNL A   1      41.135  28.919  35.973  1.00  0.00    -0.203 F 
ATOM     45  F   UNL A   1      43.279  24.359  33.959  1.00  0.00    -0.200 F 
ATOM     46  C   UNL A   1      42.190  25.509  35.699  1.00  0.00     0.200 A 
ATOM     47  F   UNL A   1      41.046  26.707  37.374  1.00  0.00    -0.200 F 
ATOM     48  F   UNL A   1      41.995  24.364  36.364  1.00  0.00    -0.200 F 
ENDBRANCH  24  38
BRANCH  25  49
ATOM     49  C   UNL A   1      43.456  25.087  26.237  1.00  0.00     0.064 A 
ATOM     50  C   UNL A   1      44.538  24.887  25.358  1.00  0.00     0.173 A 
ATOM     51  C   UNL A   1      42.716  23.941  26.581  1.00  0.00     0.173 A 
ATOM     52  F   UNL A   1      45.323  25.916  25.008  1.00  0.00    -0.203 F 
ATOM     53  C   UNL A   1      44.881  23.615  24.888  1.00  0.00     0.198 A 
ATOM     54  C   UNL A   1      43.054  22.672  26.105  1.00  0.00     0.198 A 
ATOM     55  F   UNL A   1      41.713  24.014  27.468  1.00  0.00    -0.203 F 
ATOM     56  F   UNL A   1      45.963  23.455  24.112  1.00  0.00    -0.200 F 
ATOM     57  C   UNL A   1      44.146  22.506  25.273  1.00  0.00     0.200 A 
ATOM     58  F   UNL A   1      42.357  21.602  26.514  1.00  0.00    -0.200 F 
ATOM     59  F   UNL A   1      44.513  21.279  24.879  1.00  0.00    -0.200 F 
ENDBRANCH  25  49
BRANCH  37  60
ATOM     60  C   UNL A   1      45.613  30.403  28.737  1.00  0.00     0.064 A 
ATOM     61  C   UNL A   1      44.780  31.024  27.790  1.00  0.00     0.173 A 
ATOM     62  C   UNL A   1      46.957  30.803  28.776  1.00  0.00     0.173 A 
ATOM     63  F   UNL A   1      43.464  30.773  27.751  1.00  0.00    -0.203 F 
ATOM     64  C   UNL A   1      45.287  31.964  26.893  1.00  0.00     0.198 A 
ATOM     65  C   UNL A   1      47.449  31.772  27.909  1.00  0.00     0.198 A 
ATOM     66  F   UNL A   1      47.787  30.281  29.693  1.00  0.00    -0.203 F 
ATOM     67  F   UNL A   1      44.478  32.530  25.984  1.00  0.00    -0.200 F 
ATOM     68  C   UNL A   1      46.618  32.343  26.960  1.00  0.00     0.200 A 
ATOM     69  F   UNL A   1      48.724  32.172  28.013  1.00  0.00    -0.200 F 
ATOM     70  F   UNL A   1      47.094  33.279  26.127  1.00  0.00    -0.200 F 
ENDBRANCH  37  60
ENDBRANCH  11  12
ENDBRANCH   4   6
ENDBRANCH   1   2
BRANCH   1  71
ATOM     71  C   UNL A   1      34.179  35.587  28.581  1.00  0.00     0.042 C 
BRANCH  71  72
ATOM     72  C   UNL A   1      32.961  35.453  29.498  1.00  0.00     0.118 C 
BRANCH  72  73
ATOM     73  N   UNL A   1      32.849  36.532  30.465  1.00  0.00    -0.351 N 
ATOM     74  C   UNL A   1      33.188  36.569  31.802  1.00  0.00     0.271 C 
ATOM     75  H   UNL A   1      32.470  37.369  30.110  1.00  0.00     0.163 HD
ATOM     76  O   UNL A   1      32.897  37.566  32.450  1.00  0.00    -0.267 OA
BRANCH  74  77
ATOM     77  C   UNL A   1      33.893  35.428  32.384  1.00  0.00     0.146 A 
ATOM     78  C   UNL A   1      35.244  35.334  32.665  1.00  0.00     0.128 A 
ATOM     79  N   UNL A   1      33.258  34.257  32.751  1.00  0.00    -0.231 NA
ATOM     80  N   UNL A   1      35.446  34.064  33.153  1.00  0.00    -0.289 N 
ATOM     81  C   UNL A   1      34.216  33.454  33.158  1.00  0.00     0.206 A 
BRANCH  80  82
ATOM     82  C   UNL A   1      36.680  33.427  33.449  1.00  0.00     0.149 A 
ATOM     83  N   UNL A   1      36.661  32.649  34.557  1.00  0.00    -0.218 NA
ATOM     84  C   UNL A   1      37.801  33.568  32.609  1.00  0.00     0.044 A 
ATOM     85  C   UNL A   1      37.750  31.905  34.763  1.00  0.00     0.224 A 
ATOM     86  C   UNL A   1      38.880  32.744  32.963  1.00  0.00     0.076 A 
ATOM     87  C   UNL A   1      37.966  34.484  31.530  1.00  0.00     0.014 A 
ATOM     88  N   UNL A   1      38.850  31.904  34.003  1.00  0.00    -0.236 NA
ATOM     89  C   UNL A   1      40.052  32.814  32.218  1.00  0.00     0.029 A 
ATOM     90  C   UNL A   1      39.157  34.545  30.810  1.00  0.00     0.001 A 
ATOM     91  C   UNL A   1      40.201  33.702  31.151  1.00  0.00     0.002 A 
ENDBRANCH  80  82
ENDBRANCH  74  77
ENDBRANCH  72  73
ENDBRANCH  71  72
ENDBRANCH   1  71
TORSDOF 11
ENDMDL
MODEL 2
REMARK VINA RESULT:     -13.3      3.863     11.534
REMARK SMILES O=C(NCCCNC(=O)c1cn(-c2ncnc3ccccc23)cn1)c1ccc(-c2c3nc(c(-c4c(F)c(F)c(F)c(F)c4F)c4ccc([nH]4)c(-c4c(F)c(F)c(F)c(F)c4F)c4nc(c(-c5c(F)c(F)c(F)c(F)c5F)c5ccc2[nH]5)C=C4)C=C3)cc1
REMARK SMILES IDX 4 1 3 2 1 3 2 4 25 6 26 7 87 8 27 9 86 10 28 11 29 12 30 13
REMARK SMILES IDX 80 14 31 15 85 16 79 17 81 18 32 19 84 20 78 21 77 22 33 24
REMARK SMILES IDX 65 25 45 26 64 27 46 28 49 29 63 30 82 31 47 32 48 33 62 35
REMARK SMILES IDX 83 36 50 37 34 38 35 39 43 40 36 41 37 42 41 43 44 44 38 45
REMARK SMILES IDX 39 46 42 47 40 48 66 49 67 50 75 51 68 52 69 53 73 54 76 55
REMARK SMILES IDX 70 56 71 57 74 58 72 59 51 60 52 61 60 62 53 63 54 64 58 65
REMARK SMILES IDX 61 66 55 67 56 68 59 69 57 70 5 71 6 72 7 73 8 74 9 76 10 77
REMARK SMILES IDX 11 78 24 79 12 80 23 81 13 82 14 83 22 84 15 85 17 86 21 87
REMARK SMILES IDX 16 88 18 89 20 90 19 91
REMARK H PARENT 3 5 81 23 49 34 7 75
REMARK Flexibility Score: inf
ROOT
ATOM      1  C   UNL A   1      41.778  20.479  26.449  1.00  0.00     0.118 C 
ENDROOT
BRANCH   1   2
ATOM      2  N   UNL A   1      40.396  20.816  26.173  1.00  0.00    -0.352 N 
ATOM      3  O   UNL A   1      38.501  21.857  25.752  1.00  0.00    -0.269 OA
ATOM      4  C   UNL A   1      39.624  21.941  26.259  1.00  0.00     0.251 C 
ATOM      5  H   UNL A   1      39.885  20.042  25.841  1.00  0.00     0.163 HD
BRANCH   4   6
ATOM      6  C   UNL A   1      39.991  23.209  26.948  1.00  0.00     0.039 A 
ATOM      7  C   UNL A   1      41.119  23.425  27.739  1.00  0.00     0.014 A 
ATOM      8  C   UNL A   1      39.094  24.283  26.763  1.00  0.00     0.014 A 
ATOM      9  C   UNL A   1      41.316  24.663  28.364  1.00  0.00     0.010 A 
ATOM     10  C   UNL A   1      39.284  25.516  27.381  1.00  0.00     0.010 A 
ATOM     11  C   UNL A   1      40.392  25.705  28.200  1.00  0.00    -0.014 A 
BRANCH  11  12
ATOM     12  C   UNL A   1      40.724  27.036  28.721  1.00  0.00     0.031 A 
ATOM     13  C   UNL A   1      41.957  27.633  28.129  1.00  0.00     0.074 A 
ATOM     14  C   UNL A   1      39.937  27.778  29.531  1.00  0.00     0.049 A 
ATOM     15  N   UNL A   1      43.034  28.007  28.740  1.00  0.00    -0.248 NA
ATOM     16  C   UNL A   1      42.032  27.751  26.665  1.00  0.00     0.031 C 
ATOM     17  C   UNL A   1      38.563  27.497  29.952  1.00  0.00     0.029 A 
ATOM     18  N   UNL A   1      40.178  29.010  30.081  1.00  0.00    -0.354 N 
ATOM     19  C   UNL A   1      43.868  28.552  27.762  1.00  0.00     0.074 A 
ATOM     20  C   UNL A   1      43.256  28.254  26.495  1.00  0.00     0.031 C 
ATOM     21  C   UNL A   1      38.029  28.606  30.516  1.00  0.00     0.029 A 
ATOM     22  C   UNL A   1      39.053  29.634  30.613  1.00  0.00     0.049 A 
ATOM     23  H   UNL A   1      41.074  29.419  30.099  1.00  0.00     0.167 HD
ATOM     24  C   UNL A   1      44.896  29.383  28.091  1.00  0.00     0.037 A 
ATOM     25  C   UNL A   1      38.957  30.914  31.061  1.00  0.00     0.037 A 
ATOM     26  C   UNL A   1      45.258  29.233  29.477  1.00  0.00     0.049 A 
ATOM     27  C   UNL A   1      40.327  31.403  31.335  1.00  0.00     0.074 A 
ATOM     28  C   UNL A   1      45.725  28.196  30.260  1.00  0.00     0.029 A 
ATOM     29  N   UNL A   1      44.842  30.200  30.354  1.00  0.00    -0.354 N 
ATOM     30  N   UNL A   1      41.070  30.996  32.323  1.00  0.00    -0.248 NA
ATOM     31  C   UNL A   1      41.027  32.100  30.268  1.00  0.00     0.031 C 
ATOM     32  C   UNL A   1      45.122  28.395  31.537  1.00  0.00     0.029 A 
ATOM     33  C   UNL A   1      44.372  29.569  31.472  1.00  0.00     0.049 A 
ATOM     34  H   UNL A   1      44.878  31.173  30.207  1.00  0.00     0.167 HD
ATOM     35  C   UNL A   1      42.350  30.968  31.798  1.00  0.00     0.074 A 
ATOM     36  C   UNL A   1      42.281  31.769  30.581  1.00  0.00     0.031 C 
ATOM     37  C   UNL A   1      43.264  30.062  32.252  1.00  0.00     0.037 A 
BRANCH  24  38
ATOM     38  C   UNL A   1      45.321  30.593  27.285  1.00  0.00     0.064 A 
ATOM     39  C   UNL A   1      46.694  30.786  27.015  1.00  0.00     0.173 A 
ATOM     40  C   UNL A   1      44.500  31.719  27.061  1.00  0.00     0.173 A 
ATOM     41  F   UNL A   1      47.573  29.788  27.192  1.00  0.00    -0.203 F 
ATOM     42  C   UNL A   1      47.214  32.035  26.665  1.00  0.00     0.198 A 
ATOM     43  C   UNL A   1      45.017  32.952  26.660  1.00  0.00     0.198 A 
ATOM     44  F   UNL A   1      43.189  31.714  27.326  1.00  0.00    -0.203 F 
ATOM     45  F   UNL A   1      48.540  32.200  26.567  1.00  0.00    -0.200 F 
ATOM     46  C   UNL A   1      46.376  33.121  26.501  1.00  0.00     0.200 A 
ATOM     47  F   UNL A   1      44.189  33.998  26.519  1.00  0.00    -0.200 F 
ATOM     48  F   UNL A   1      46.876  34.335  26.240  1.00  0.00    -0.200 F 
ENDBRANCH  24  38
BRANCH  25  49
ATOM     49  C   UNL A   1      37.804  31.849  31.051  1.00  0.00     0.064 A 
ATOM     50  C   UNL A   1      37.363  32.452  29.858  1.00  0.00     0.173 A 
ATOM     51  C   UNL A   1      36.926  31.929  32.148  1.00  0.00     0.173 A 
ATOM     52  F   UNL A   1      38.117  32.389  28.750  1.00  0.00    -0.203 F 
ATOM     53  C   UNL A   1      36.108  33.061  29.758  1.00  0.00     0.198 A 
ATOM     54  C   UNL A   1      35.675  32.543  32.050  1.00  0.00     0.198 A 
ATOM     55  F   UNL A   1      37.220  31.323  33.306  1.00  0.00    -0.203 F 
ATOM     56  F   UNL A   1      35.695  33.559  28.583  1.00  0.00    -0.200 F 
ATOM     57  C   UNL A   1      35.259  33.094  30.851  1.00  0.00     0.200 A 
ATOM     58  F   UNL A   1      34.848  32.537  33.105  1.00  0.00    -0.200 F 
ATOM     59  F   UNL A   1      34.029  33.615  30.740  1.00  0.00    -0.200 F 
ENDBRANCH  25  49
BRANCH  37  60
ATOM     60  C   UNL A   1      42.975  29.359  33.546  1.00  0.00     0.064 A 
ATOM     61  C   UNL A   1      43.256  29.886  34.819  1.00  0.00     0.173 A 
ATOM     62  C   UNL A   1      42.267  28.151  33.488  1.00  0.00     0.173 A 
ATOM     63  F   UNL A   1      43.840  31.083  34.963  1.00  0.00    -0.203 F 
ATOM     64  C   UNL A   1      42.886  29.203  35.977  1.00  0.00     0.198 A 
ATOM     65  C   UNL A   1      41.861  27.494  34.645  1.00  0.00     0.198 A 
ATOM     66  F   UNL A   1      41.928  27.627  32.300  1.00  0.00    -0.203 F 
ATOM     67  F   UNL A   1      43.180  29.713  37.182  1.00  0.00    -0.200 F 
ATOM     68  C   UNL A   1      42.181  28.013  35.888  1.00  0.00     0.200 A 
ATOM     69  F   UNL A   1      41.136  26.371  34.552  1.00  0.00    -0.200 F 
ATOM     70  F   UNL A   1      41.787  27.380  37.001  1.00  0.00    -0.200 F 
ENDBRANCH  37  60
ENDBRANCH  11  12
ENDBRANCH   4   6
ENDBRANCH   1   2
BRANCH   1  71
ATOM     71  C   UNL A   1      42.289  19.221  25.749  1.00  0.00     0.042 C 
BRANCH  71  72
ATOM     72  C   UNL A   1      43.714  18.807  26.122  1.00  0.00     0.118 C 
BRANCH  72  73
ATOM     73  N   UNL A   1      44.530  18.454  24.971  1.00  0.00    -0.351 N 
ATOM     74  C   UNL A   1      45.181  19.259  24.060  1.00  0.00     0.271 C 
ATOM     75  H   UNL A   1      44.633  17.486  24.818  1.00  0.00     0.163 HD
ATOM     76  O   UNL A   1      45.724  18.731  23.098  1.00  0.00    -0.267 OA
BRANCH  74  77
ATOM     77  C   UNL A   1      45.211  20.703  24.287  1.00  0.00     0.146 A 
ATOM     78  C   UNL A   1      45.958  21.386  25.230  1.00  0.00     0.128 A 
ATOM     79  N   UNL A   1      44.468  21.600  23.543  1.00  0.00    -0.231 NA
ATOM     80  N   UNL A   1      45.619  22.714  25.099  1.00  0.00    -0.289 N 
ATOM     81  C   UNL A   1      44.698  22.776  24.082  1.00  0.00     0.206 A 
BRANCH  80  82
ATOM     82  C   UNL A   1      46.001  23.799  25.929  1.00  0.00     0.149 A 
ATOM     83  N   UNL A   1      46.816  24.703  25.338  1.00  0.00    -0.218 NA
ATOM     84  C   UNL A   1      45.510  23.928  27.243  1.00  0.00     0.044 A 
ATOM     85  C   UNL A   1      47.051  25.818  26.033  1.00  0.00     0.224 A 
ATOM     86  C   UNL A   1      45.859  25.139  27.861  1.00  0.00     0.076 A 
ATOM     87  C   UNL A   1      44.793  22.957  28.000  1.00  0.00     0.014 A 
ATOM     88  N   UNL A   1      46.591  26.083  27.260  1.00  0.00    -0.236 NA
ATOM     89  C   UNL A   1      45.450  25.369  29.169  1.00  0.00     0.029 A 
ATOM     90  C   UNL A   1      44.409  23.206  29.316  1.00  0.00     0.001 A 
ATOM     91  C   UNL A   1      44.732  24.420  29.900  1.00  0.00     0.002 A 
ENDBRANCH  80  82
ENDBRANCH  74  77
ENDBRANCH  72  73
ENDBRANCH  71  72
ENDBRANCH   1  71
TORSDOF 11
ENDMDL
MODEL 3
REMARK VINA RESULT:     -13.2      0.492      1.680
REMARK SMILES O=C(NCCCNC(=O)c1cn(-c2ncnc3ccccc23)cn1)c1ccc(-c2c3nc(c(-c4c(F)c(F)c(F)c(F)c4F)c4ccc([nH]4)c(-c4c(F)c(F)c(F)c(F)c4F)c4nc(c(-c5c(F)c(F)c(F)c(F)c5F)c5ccc2[nH]5)C=C4)C=C3)cc1
REMARK SMILES IDX 4 1 3 2 1 3 2 4 25 6 26 7 87 8 27 9 86 10 28 11 29 12 30 13
REMARK SMILES IDX 80 14 31 15 85 16 79 17 81 18 32 19 84 20 78 21 77 22 33 24
REMARK SMILES IDX 65 25 45 26 64 27 46 28 49 29 63 30 82 31 47 32 48 33 62 35
REMARK SMILES IDX 83 36 50 37 34 38 35 39 43 40 36 41 37 42 41 43 44 44 38 45
REMARK SMILES IDX 39 46 42 47 40 48 66 49 67 50 75 51 68 52 69 53 73 54 76 55
REMARK SMILES IDX 70 56 71 57 74 58 72 59 51 60 52 61 60 62 53 63 54 64 58 65
REMARK SMILES IDX 61 66 55 67 56 68 59 69 57 70 5 71 6 72 7 73 8 74 9 76 10 77
REMARK SMILES IDX 11 78 24 79 12 80 23 81 13 82 14 83 22 84 15 85 17 86 21 87
REMARK SMILES IDX 16 88 18 89 20 90 19 91
REMARK H PARENT 3 5 81 23 49 34 7 75
REMARK Flexibility Score: inf
ROOT
ATOM      1  C   UNL A   1      35.028  34.196  29.044  1.00  0.00     0.118 C 
ENDROOT
BRANCH   1   2
ATOM      2  N   UNL A   1      34.407  33.004  28.500  1.00  0.00    -0.352 N 
ATOM      3  O   UNL A   1      33.861  30.932  27.986  1.00  0.00    -0.269 OA
ATOM      4  C   UNL A   1      34.763  31.692  28.352  1.00  0.00     0.251 C 
ATOM      5  H   UNL A   1      33.503  33.182  28.151  1.00  0.00     0.163 HD
BRANCH   4   6
ATOM      6  C   UNL A   1      36.130  31.127  28.531  1.00  0.00     0.039 A 
ATOM      7  C   UNL A   1      37.201  31.739  29.181  1.00  0.00     0.014 A 
ATOM      8  C   UNL A   1      36.331  29.842  27.983  1.00  0.00     0.014 A 
ATOM      9  C   UNL A   1      38.448  31.104  29.236  1.00  0.00     0.010 A 
ATOM     10  C   UNL A   1      37.569  29.205  28.034  1.00  0.00     0.010 A 
ATOM     11  C   UNL A   1      38.639  29.845  28.650  1.00  0.00    -0.014 A 
BRANCH  11  12
ATOM     12  C   UNL A   1      39.903  29.138  28.885  1.00  0.00     0.031 A 
ATOM     13  C   UNL A   1      40.170  28.824  30.319  1.00  0.00     0.074 A 
ATOM     14  C   UNL A   1      40.710  28.636  27.924  1.00  0.00     0.049 A 
ATOM     15  N   UNL A   1      41.173  29.199  31.045  1.00  0.00    -0.248 NA
ATOM     16  C   UNL A   1      39.149  28.068  31.062  1.00  0.00     0.031 C 
ATOM     17  C   UNL A   1      40.455  28.564  26.484  1.00  0.00     0.029 A 
ATOM     18  N   UNL A   1      41.912  27.990  28.053  1.00  0.00    -0.354 N 
ATOM     19  C   UNL A   1      40.997  28.602  32.294  1.00  0.00     0.074 A 
ATOM     20  C   UNL A   1      39.680  28.025  32.285  1.00  0.00     0.031 C 
ATOM     21  C   UNL A   1      41.362  27.742  25.906  1.00  0.00     0.029 A 
ATOM     22  C   UNL A   1      42.338  27.331  26.903  1.00  0.00     0.049 A 
ATOM     23  H   UNL A   1      42.431  27.993  28.890  1.00  0.00     0.167 HD
ATOM     24  C   UNL A   1      42.036  28.459  33.164  1.00  0.00     0.037 A 
ATOM     25  C   UNL A   1      43.388  26.476  26.786  1.00  0.00     0.037 A 
ATOM     26  C   UNL A   1      43.109  29.362  32.838  1.00  0.00     0.049 A 
ATOM     27  C   UNL A   1      44.290  26.706  27.936  1.00  0.00     0.074 A 
ATOM     28  C   UNL A   1      43.245  30.734  32.759  1.00  0.00     0.029 A 
ATOM     29  N   UNL A   1      44.209  28.846  32.204  1.00  0.00    -0.354 N 
ATOM     30  N   UNL A   1      45.028  27.766  28.093  1.00  0.00    -0.248 NA
ATOM     31  C   UNL A   1      44.094  25.897  29.128  1.00  0.00     0.031 C 
ATOM     32  C   UNL A   1      44.147  30.956  31.678  1.00  0.00     0.029 A 
ATOM     33  C   UNL A   1      44.551  29.709  31.201  1.00  0.00     0.049 A 
ATOM     34  H   UNL A   1      44.670  28.005  32.431  1.00  0.00     0.167 HD
ATOM     35  C   UNL A   1      44.999  28.005  29.455  1.00  0.00     0.074 A 
ATOM     36  C   UNL A   1      44.517  26.763  30.050  1.00  0.00     0.031 C 
ATOM     37  C   UNL A   1      45.095  29.278  29.937  1.00  0.00     0.037 A 
BRANCH  24  38
ATOM     38  C   UNL A   1      42.251  27.259  34.063  1.00  0.00     0.064 A 
ATOM     39  C   UNL A   1      41.917  27.363  35.431  1.00  0.00     0.173 A 
ATOM     40  C   UNL A   1      43.062  26.155  33.723  1.00  0.00     0.173 A 
ATOM     41  F   UNL A   1      41.153  28.373  35.875  1.00  0.00    -0.203 F 
ATOM     42  C   UNL A   1      42.450  26.501  36.393  1.00  0.00     0.198 A 
ATOM     43  C   UNL A   1      43.548  25.264  34.681  1.00  0.00     0.198 A 
ATOM     44  F   UNL A   1      43.510  25.950  32.480  1.00  0.00    -0.203 F 
ATOM     45  F   UNL A   1      42.224  26.734  37.694  1.00  0.00    -0.200 F 
ATOM     46  C   UNL A   1      43.277  25.460  36.018  1.00  0.00     0.200 A 
ATOM     47  F   UNL A   1      44.360  24.267  34.300  1.00  0.00    -0.200 F 
ATOM     48  F   UNL A   1      43.849  24.677  36.942  1.00  0.00    -0.200 F 
ENDBRANCH  24  38
BRANCH  25  49
ATOM     49  C   UNL A   1      43.574  25.301  25.897  1.00  0.00     0.064 A 
ATOM     50  C   UNL A   1      44.793  25.078  25.228  1.00  0.00     0.173 A 
ATOM     51  C   UNL A   1      42.676  24.219  25.928  1.00  0.00     0.173 A 
ATOM     52  F   UNL A   1      45.726  26.041  25.184  1.00  0.00    -0.203 F 
ATOM     53  C   UNL A   1      45.108  23.838  24.662  1.00  0.00     0.198 A 
ATOM     54  C   UNL A   1      42.989  22.983  25.357  1.00  0.00     0.198 A 
ATOM     55  F   UNL A   1      41.522  24.306  26.603  1.00  0.00    -0.203 F 
ATOM     56  F   UNL A   1      46.309  23.644  24.098  1.00  0.00    -0.200 F 
ATOM     57  C   UNL A   1      44.210  22.787  24.739  1.00  0.00     0.200 A 
ATOM     58  F   UNL A   1      42.126  21.963  25.469  1.00  0.00    -0.200 F 
ATOM     59  F   UNL A   1      44.537  21.580  24.259  1.00  0.00    -0.200 F 
ENDBRANCH  25  49
BRANCH  37  60
ATOM     60  C   UNL A   1      45.584  30.348  29.005  1.00  0.00     0.064 A 
ATOM     61  C   UNL A   1      46.936  30.682  28.815  1.00  0.00     0.173 A 
ATOM     62  C   UNL A   1      44.641  30.973  28.178  1.00  0.00     0.173 A 
ATOM     63  F   UNL A   1      47.909  30.059  29.494  1.00  0.00    -0.203 F 
ATOM     64  C   UNL A   1      47.315  31.637  27.872  1.00  0.00     0.198 A 
ATOM     65  C   UNL A   1      45.026  31.893  27.208  1.00  0.00     0.198 A 
ATOM     66  F   UNL A   1      43.341  30.656  28.281  1.00  0.00    -0.203 F 
ATOM     67  F   UNL A   1      48.609  31.956  27.720  1.00  0.00    -0.200 F 
ATOM     68  C   UNL A   1      46.360  32.234  27.064  1.00  0.00     0.200 A 
ATOM     69  F   UNL A   1      44.104  32.428  26.396  1.00  0.00    -0.200 F 
ATOM     70  F   UNL A   1      46.729  33.119  26.127  1.00  0.00    -0.200 F 
ENDBRANCH  37  60
ENDBRANCH  11  12
ENDBRANCH   4   6
ENDBRANCH   1   2
BRANCH   1  71
ATOM     71  C   UNL A   1      34.255  35.492  28.806  1.00  0.00     0.042 C 
BRANCH  71  72
ATOM     72  C   UNL A   1      32.896  35.571  29.507  1.00  0.00     0.118 C 
BRANCH  72  73
ATOM     73  N   UNL A   1      32.823  36.630  30.500  1.00  0.00    -0.351 N 
ATOM     74  C   UNL A   1      33.194  36.631  31.829  1.00  0.00     0.271 C 
ATOM     75  H   UNL A   1      32.448  37.480  30.173  1.00  0.00     0.163 HD
ATOM     76  O   UNL A   1      32.935  37.618  32.506  1.00  0.00    -0.267 OA
BRANCH  74  77
ATOM     77  C   UNL A   1      33.896  35.467  32.368  1.00  0.00     0.146 A 
ATOM     78  C   UNL A   1      35.235  35.379  32.705  1.00  0.00     0.128 A 
ATOM     79  N   UNL A   1      33.270  34.263  32.628  1.00  0.00    -0.231 NA
ATOM     80  N   UNL A   1      35.441  34.083  33.118  1.00  0.00    -0.289 N 
ATOM     81  C   UNL A   1      34.225  33.452  33.026  1.00  0.00     0.206 A 
BRANCH  80  82
ATOM     82  C   UNL A   1      36.673  33.450  33.429  1.00  0.00     0.149 A 
ATOM     83  N   UNL A   1      36.653  32.701  34.557  1.00  0.00    -0.218 NA
ATOM     84  C   UNL A   1      37.794  33.566  32.585  1.00  0.00     0.044 A 
ATOM     85  C   UNL A   1      37.740  31.959  34.781  1.00  0.00     0.224 A 
ATOM     86  C   UNL A   1      38.871  32.749  32.959  1.00  0.00     0.076 A 
ATOM     87  C   UNL A   1      37.961  34.454  31.483  1.00  0.00     0.014 A 
ATOM     88  N   UNL A   1      38.839  31.936  34.021  1.00  0.00    -0.236 NA
ATOM     89  C   UNL A   1      40.042  32.796  32.212  1.00  0.00     0.029 A 
ATOM     90  C   UNL A   1      39.151  34.494  30.761  1.00  0.00     0.001 A 
ATOM     91  C   UNL A   1      40.193  33.656  31.122  1.00  0.00     0.002 A 
ENDBRANCH  80  82
ENDBRANCH  74  77
ENDBRANCH  72  73
ENDBRANCH  71  72
ENDBRANCH   1  71
TORSDOF 11
ENDMDL
