MODEL 1
REMARK VINA RESULT:     -11.5      0.000      0.000
REMARK SMILES CCCCSCC(=O)Nc1sc(C)c(C)c1C(=O)NCCCNC(=O)c1ccc(-c2c3nc(c(-c4c(F)c(F)c(F)c(F)c4F)c4ccc([nH]4)c(-c4c(F)c(F)c(F)c(F)c4F)c4nc(c(-c5c(F)c(F)c(F)c(F)c5F)c5ccc2[nH]5)C=C4)C=C3)cc1
REMARK SMILES IDX 17 1 18 2 19 3 16 5 10 6 11 7 12 8 14 9 13 10 15 11 9 12
REMARK SMILES IDX 7 13 8 14 6 16 5 17 4 18 3 19 2 20 1 21 20 22 21 23 22 24
REMARK SMILES IDX 23 25 24 26 25 28 26 29 27 30 88 31 28 32 87 33 29 34 30 35
REMARK SMILES IDX 31 36 81 37 32 38 86 39 80 40 82 41 33 42 85 43 79 44 78 45
REMARK SMILES IDX 34 47 66 48 46 49 65 50 47 51 50 52 64 53 83 54 48 55 49 56
REMARK SMILES IDX 63 58 84 59 51 60 35 61 36 62 44 63 37 64 38 65 42 66 45 67
REMARK SMILES IDX 39 68 40 69 43 70 41 71 67 72 68 73 76 74 69 75 70 76 74 77
REMARK SMILES IDX 77 78 71 79 72 80 75 81 73 82 52 83 53 84 61 85 54 86 55 87
REMARK SMILES IDX 59 88 62 89 56 90 57 91 60 92 58 93
REMARK H PARENT 19 4 9 15 23 27 82 46 50 57
REMARK Flexibility Score: inf
ROOT
ATOM      1  C   UNL A   1      31.198  25.481  26.147  1.00  0.00     0.254 C 
ATOM      2  O   UNL A   1      30.316  24.680  26.457  1.00  0.00    -0.269 OA
ATOM      3  N   UNL A   1      31.284  26.580  26.977  1.00  0.00    -0.352 N 
ATOM      4  H   UNL A   1      30.613  26.598  27.697  1.00  0.00     0.163 HD
ENDROOT
BRANCH   1   5
ATOM      5  C   UNL A   1      32.035  25.258  24.939  1.00  0.00     0.077 A 
ATOM      6  C   UNL A   1      33.217  24.547  24.791  1.00  0.00     0.108 A 
ATOM      7  S   UNL A   1      33.757  24.428  23.187  1.00  0.00    -0.122 S 
ATOM      8  C   UNL A   1      32.567  25.488  22.624  1.00  0.00     0.007 A 
ATOM      9  C   UNL A   1      31.665  25.823  23.623  1.00  0.00    -0.022 A 
ATOM     10  C   UNL A   1      32.587  25.887  21.186  1.00  0.00     0.057 C 
ATOM     11  C   UNL A   1      30.452  26.676  23.385  1.00  0.00     0.046 C 
BRANCH   6  12
ATOM     12  N   UNL A   1      33.930  23.759  25.662  1.00  0.00    -0.316 N 
ATOM     13  C   UNL A   1      33.711  22.413  25.832  1.00  0.00     0.234 C 
ATOM     14  O   UNL A   1      34.655  21.759  26.291  1.00  0.00    -0.274 OA
ATOM     15  H   UNL A   1      34.641  24.184  26.194  1.00  0.00     0.170 HD
BRANCH  13  16
ATOM     16  C   UNL A   1      32.465  21.700  25.333  1.00  0.00     0.169 C 
BRANCH  16  17
ATOM     17  S   UNL A   1      32.658  20.788  23.770  1.00  0.00    -0.152 SA
BRANCH  17  18
ATOM     18  C   UNL A   1      32.514  19.042  24.285  1.00  0.00     0.070 C 
BRANCH  18  19
ATOM     19  C   UNL A   1      32.616  18.054  23.123  1.00  0.00     0.011 C 
BRANCH  19  20
ATOM     20  C   UNL A   1      33.690  16.973  23.256  1.00  0.00    -0.003 C 
ATOM     21  C   UNL A   1      34.738  17.304  24.309  1.00  0.00     0.004 C 
ENDBRANCH  19  20
ENDBRANCH  18  19
ENDBRANCH  17  18
ENDBRANCH  16  17
ENDBRANCH  13  16
ENDBRANCH   6  12
ENDBRANCH   1   5
BRANCH   3  22
ATOM     22  C   UNL A   1      32.183  27.703  26.973  1.00  0.00     0.118 C 
BRANCH  22  23
ATOM     23  C   UNL A   1      31.666  29.024  26.445  1.00  0.00     0.042 C 
BRANCH  23  24
ATOM     24  C   UNL A   1      32.703  29.991  25.913  1.00  0.00     0.118 C 
BRANCH  24  25
ATOM     25  N   UNL A   1      32.588  31.346  26.432  1.00  0.00    -0.352 N 
ATOM     26  C   UNL A   1      33.370  32.081  27.295  1.00  0.00     0.251 C 
ATOM     27  H   UNL A   1      31.797  31.830  26.103  1.00  0.00     0.163 HD
ATOM     28  O   UNL A   1      32.988  33.200  27.626  1.00  0.00    -0.269 OA
BRANCH  26  29
ATOM     29  C   UNL A   1      34.632  31.550  27.870  1.00  0.00     0.039 A 
ATOM     30  C   UNL A   1      35.699  32.434  28.069  1.00  0.00     0.014 A 
ATOM     31  C   UNL A   1      34.805  30.206  28.192  1.00  0.00     0.014 A 
ATOM     32  C   UNL A   1      36.883  31.985  28.664  1.00  0.00     0.010 A 
ATOM     33  C   UNL A   1      35.918  29.792  28.918  1.00  0.00     0.010 A 
ATOM     34  C   UNL A   1      36.982  30.671  29.150  1.00  0.00    -0.014 A 
BRANCH  34  35
ATOM     35  C   UNL A   1      38.186  30.213  29.894  1.00  0.00     0.031 A 
ATOM     36  C   UNL A   1      38.439  30.655  31.312  1.00  0.00     0.074 A 
ATOM     37  C   UNL A   1      39.091  29.436  29.267  1.00  0.00     0.049 A 
ATOM     38  N   UNL A   1      39.428  30.342  32.114  1.00  0.00    -0.248 NA
ATOM     39  C   UNL A   1      37.480  31.604  31.896  1.00  0.00     0.031 C 
ATOM     40  C   UNL A   1      39.017  29.016  27.866  1.00  0.00     0.029 A 
ATOM     41  N   UNL A   1      40.250  28.858  29.723  1.00  0.00    -0.354 N 
ATOM     42  C   UNL A   1      39.216  31.068  33.280  1.00  0.00     0.074 A 
ATOM     43  C   UNL A   1      38.051  31.893  33.054  1.00  0.00     0.031 C 
ATOM     44  C   UNL A   1      40.054  28.211  27.591  1.00  0.00     0.029 A 
ATOM     45  C   UNL A   1      40.888  28.088  28.782  1.00  0.00     0.049 A 
ATOM     46  H   UNL A   1      40.593  28.985  30.639  1.00  0.00     0.167 HD
ATOM     47  C   UNL A   1      39.909  31.030  34.444  1.00  0.00     0.037 A 
ATOM     48  C   UNL A   1      42.016  27.357  28.867  1.00  0.00     0.037 A 
ATOM     49  C   UNL A   1      41.058  30.190  34.668  1.00  0.00     0.049 A 
ATOM     50  C   UNL A   1      42.747  27.293  30.178  1.00  0.00     0.074 A 
ATOM     51  C   UNL A   1      41.783  30.010  35.833  1.00  0.00     0.029 A 
ATOM     52  N   UNL A   1      41.658  29.398  33.700  1.00  0.00    -0.354 N 
ATOM     53  N   UNL A   1      42.476  27.902  31.308  1.00  0.00    -0.248 NA
ATOM     54  C   UNL A   1      43.931  26.426  30.231  1.00  0.00     0.031 C 
ATOM     55  C   UNL A   1      42.859  29.161  35.552  1.00  0.00     0.029 A 
ATOM     56  C   UNL A   1      42.765  28.752  34.231  1.00  0.00     0.049 A 
ATOM     57  H   UNL A   1      41.345  29.307  32.771  1.00  0.00     0.167 HD
ATOM     58  C   UNL A   1      43.442  27.478  32.210  1.00  0.00     0.074 A 
ATOM     59  C   UNL A   1      44.288  26.540  31.501  1.00  0.00     0.031 C 
ATOM     60  C   UNL A   1      43.612  27.836  33.509  1.00  0.00     0.037 A 
BRANCH  47  61
ATOM     61  C   UNL A   1      39.444  31.930  35.557  1.00  0.00     0.064 A 
ATOM     62  C   UNL A   1      39.923  33.242  35.703  1.00  0.00     0.173 A 
ATOM     63  C   UNL A   1      38.503  31.475  36.493  1.00  0.00     0.173 A 
ATOM     64  F   UNL A   1      40.831  33.730  34.844  1.00  0.00    -0.203 F 
ATOM     65  C   UNL A   1      39.517  34.043  36.767  1.00  0.00     0.198 A 
ATOM     66  C   UNL A   1      38.068  32.293  37.534  1.00  0.00     0.198 A 
ATOM     67  F   UNL A   1      38.002  30.233  36.402  1.00  0.00    -0.203 F 
ATOM     68  F   UNL A   1      40.047  35.264  36.926  1.00  0.00    -0.200 F 
ATOM     69  C   UNL A   1      38.587  33.569  37.679  1.00  0.00     0.200 A 
ATOM     70  F   UNL A   1      37.156  31.838  38.404  1.00  0.00    -0.200 F 
ATOM     71  F   UNL A   1      38.197  34.341  38.704  1.00  0.00    -0.200 F 
ENDBRANCH  47  61
BRANCH  48  72
ATOM     72  C   UNL A   1      42.485  26.597  27.679  1.00  0.00     0.064 A 
ATOM     73  C   UNL A   1      43.436  27.137  26.803  1.00  0.00     0.173 A 
ATOM     74  C   UNL A   1      42.024  25.297  27.421  1.00  0.00     0.173 A 
ATOM     75  F   UNL A   1      43.895  28.382  26.996  1.00  0.00    -0.203 F 
ATOM     76  C   UNL A   1      43.899  26.411  25.706  1.00  0.00     0.198 A 
ATOM     77  C   UNL A   1      42.512  24.561  26.343  1.00  0.00     0.198 A 
ATOM     78  F   UNL A   1      41.122  24.731  28.236  1.00  0.00    -0.203 F 
ATOM     79  F   UNL A   1      44.782  26.965  24.864  1.00  0.00    -0.200 F 
ATOM     80  C   UNL A   1      43.444  25.120  25.483  1.00  0.00     0.200 A 
ATOM     81  F   UNL A   1      42.084  23.307  26.143  1.00  0.00    -0.200 F 
ATOM     82  F   UNL A   1      43.903  24.417  24.440  1.00  0.00    -0.200 F 
ENDBRANCH  48  72
BRANCH  60  83
ATOM     83  C   UNL A   1      44.749  27.188  34.250  1.00  0.00     0.064 A 
ATOM     84  C   UNL A   1      46.028  27.764  34.294  1.00  0.00     0.173 A 
ATOM     85  C   UNL A   1      44.555  25.975  34.929  1.00  0.00     0.173 A 
ATOM     86  F   UNL A   1      46.273  28.917  33.653  1.00  0.00    -0.203 F 
ATOM     87  C   UNL A   1      47.080  27.126  34.948  1.00  0.00     0.198 A 
ATOM     88  C   UNL A   1      45.598  25.359  35.614  1.00  0.00     0.198 A 
ATOM     89  F   UNL A   1      43.350  25.384  34.929  1.00  0.00    -0.203 F 
ATOM     90  F   UNL A   1      48.308  27.659  34.914  1.00  0.00    -0.200 F 
ATOM     91  C   UNL A   1      46.863  25.928  35.612  1.00  0.00     0.200 A 
ATOM     92  F   UNL A   1      45.382  24.211  36.270  1.00  0.00    -0.200 F 
ATOM     93  F   UNL A   1      47.876  25.314  36.237  1.00  0.00    -0.200 F 
ENDBRANCH  60  83
ENDBRANCH  34  35
ENDBRANCH  26  29
ENDBRANCH  24  25
ENDBRANCH  23  24
ENDBRANCH  22  23
ENDBRANCH   3  22
TORSDOF 16
ENDMDL
MODEL 2
REMARK VINA RESULT:     -11.2      1.008      2.163
REMARK SMILES CCCCSCC(=O)Nc1sc(C)c(C)c1C(=O)NCCCNC(=O)c1ccc(-c2c3nc(c(-c4c(F)c(F)c(F)c(F)c4F)c4ccc([nH]4)c(-c4c(F)c(F)c(F)c(F)c4F)c4nc(c(-c5c(F)c(F)c(F)c(F)c5F)c5ccc2[nH]5)C=C4)C=C3)cc1
REMARK SMILES IDX 17 1 18 2 19 3 16 5 10 6 11 7 12 8 14 9 13 10 15 11 9 12
REMARK SMILES IDX 7 13 8 14 6 16 5 17 4 18 3 19 2 20 1 21 20 22 21 23 22 24
REMARK SMILES IDX 23 25 24 26 25 28 26 29 27 30 88 31 28 32 87 33 29 34 30 35
REMARK SMILES IDX 31 36 81 37 32 38 86 39 80 40 82 41 33 42 85 43 79 44 78 45
REMARK SMILES IDX 34 47 66 48 46 49 65 50 47 51 50 52 64 53 83 54 48 55 49 56
REMARK SMILES IDX 63 58 84 59 51 60 35 61 36 62 44 63 37 64 38 65 42 66 45 67
REMARK SMILES IDX 39 68 40 69 43 70 41 71 67 72 68 73 76 74 69 75 70 76 74 77
REMARK SMILES IDX 77 78 71 79 72 80 75 81 73 82 52 83 53 84 61 85 54 86 55 87
REMARK SMILES IDX 59 88 62 89 56 90 57 91 60 92 58 93
REMARK H PARENT 19 4 9 15 23 27 82 46 50 57
REMARK Flexibility Score: inf
ROOT
ATOM      1  C   UNL A   1      31.668  25.041  26.497  1.00  0.00     0.254 C 
ATOM      2  O   UNL A   1      30.667  24.324  26.545  1.00  0.00    -0.269 OA
ATOM      3  N   UNL A   1      31.441  26.356  26.849  1.00  0.00    -0.352 N 
ATOM      4  H   UNL A   1      30.503  26.561  27.069  1.00  0.00     0.163 HD
ENDROOT
BRANCH   1   5
ATOM      5  C   UNL A   1      32.973  24.494  26.041  1.00  0.00     0.077 A 
ATOM      6  C   UNL A   1      33.817  24.925  25.028  1.00  0.00     0.108 A 
ATOM      7  S   UNL A   1      35.289  24.086  24.951  1.00  0.00    -0.122 S 
ATOM      8  C   UNL A   1      34.804  22.966  26.120  1.00  0.00     0.007 A 
ATOM      9  C   UNL A   1      33.583  23.308  26.682  1.00  0.00    -0.022 A 
ATOM     10  C   UNL A   1      35.712  21.824  26.438  1.00  0.00     0.057 C 
ATOM     11  C   UNL A   1      32.953  22.543  27.810  1.00  0.00     0.046 C 
BRANCH   6  12
ATOM     12  N   UNL A   1      33.775  26.022  24.203  1.00  0.00    -0.316 N 
ATOM     13  C   UNL A   1      32.858  26.186  23.192  1.00  0.00     0.234 C 
ATOM     14  O   UNL A   1      32.652  27.348  22.824  1.00  0.00    -0.274 OA
ATOM     15  H   UNL A   1      34.441  26.733  24.343  1.00  0.00     0.170 HD
BRANCH  13  16
ATOM     16  C   UNL A   1      31.996  25.055  22.656  1.00  0.00     0.169 C 
BRANCH  16  17
ATOM     17  S   UNL A   1      32.902  23.605  22.034  1.00  0.00    -0.152 SA
BRANCH  17  18
ATOM     18  C   UNL A   1      32.092  22.208  22.886  1.00  0.00     0.070 C 
BRANCH  18  19
ATOM     19  C   UNL A   1      33.077  21.249  23.555  1.00  0.00     0.011 C 
BRANCH  19  20
ATOM     20  C   UNL A   1      32.506  19.895  23.982  1.00  0.00    -0.003 C 
ATOM     21  C   UNL A   1      32.889  19.511  25.404  1.00  0.00     0.004 C 
ENDBRANCH  19  20
ENDBRANCH  18  19
ENDBRANCH  17  18
ENDBRANCH  16  17
ENDBRANCH  13  16
ENDBRANCH   6  12
ENDBRANCH   1   5
BRANCH   3  22
ATOM     22  C   UNL A   1      32.335  27.478  26.950  1.00  0.00     0.118 C 
BRANCH  22  23
ATOM     23  C   UNL A   1      31.762  28.863  26.743  1.00  0.00     0.042 C 
BRANCH  23  24
ATOM     24  C   UNL A   1      32.633  29.850  25.995  1.00  0.00     0.118 C 
BRANCH  24  25
ATOM     25  N   UNL A   1      32.534  31.223  26.466  1.00  0.00    -0.352 N 
ATOM     26  C   UNL A   1      33.333  31.984  27.291  1.00  0.00     0.251 C 
ATOM     27  H   UNL A   1      31.741  31.701  26.132  1.00  0.00     0.163 HD
ATOM     28  O   UNL A   1      32.962  33.116  27.587  1.00  0.00    -0.269 OA
BRANCH  26  29
ATOM     29  C   UNL A   1      34.601  31.466  27.865  1.00  0.00     0.039 A 
ATOM     30  C   UNL A   1      35.670  32.354  28.031  1.00  0.00     0.014 A 
ATOM     31  C   UNL A   1      34.776  30.130  28.218  1.00  0.00     0.014 A 
ATOM     32  C   UNL A   1      36.860  31.918  28.626  1.00  0.00     0.010 A 
ATOM     33  C   UNL A   1      35.897  29.733  28.943  1.00  0.00     0.010 A 
ATOM     34  C   UNL A   1      36.963  30.616  29.142  1.00  0.00    -0.014 A 
BRANCH  34  35
ATOM     35  C   UNL A   1      38.175  30.176  29.885  1.00  0.00     0.031 A 
ATOM     36  C   UNL A   1      38.431  30.633  31.297  1.00  0.00     0.074 A 
ATOM     37  C   UNL A   1      39.083  29.400  29.261  1.00  0.00     0.049 A 
ATOM     38  N   UNL A   1      39.426  30.337  32.097  1.00  0.00    -0.248 NA
ATOM     39  C   UNL A   1      37.466  31.580  31.877  1.00  0.00     0.031 C 
ATOM     40  C   UNL A   1      39.006  28.966  27.865  1.00  0.00     0.029 A 
ATOM     41  N   UNL A   1      40.249  28.837  29.716  1.00  0.00    -0.354 N 
ATOM     42  C   UNL A   1      39.214  31.072  33.257  1.00  0.00     0.074 A 
ATOM     43  C   UNL A   1      38.040  31.885  33.029  1.00  0.00     0.031 C 
ATOM     44  C   UNL A   1      40.048  28.167  27.592  1.00  0.00     0.029 A 
ATOM     45  C   UNL A   1      40.889  28.063  28.779  1.00  0.00     0.049 A 
ATOM     46  H   UNL A   1      40.595  28.975  30.629  1.00  0.00     0.167 HD
ATOM     47  C   UNL A   1      39.913  31.050  34.418  1.00  0.00     0.037 A 
ATOM     48  C   UNL A   1      42.023  27.342  28.866  1.00  0.00     0.037 A 
ATOM     49  C   UNL A   1      41.070  30.222  34.645  1.00  0.00     0.049 A 
ATOM     50  C   UNL A   1      42.762  27.297  30.174  1.00  0.00     0.074 A 
ATOM     51  C   UNL A   1      41.801  30.060  35.808  1.00  0.00     0.029 A 
ATOM     52  N   UNL A   1      41.672  29.426  33.681  1.00  0.00    -0.354 N 
ATOM     53  N   UNL A   1      42.491  27.914  31.299  1.00  0.00    -0.248 NA
ATOM     54  C   UNL A   1      43.952  26.440  30.229  1.00  0.00     0.031 C 
ATOM     55  C   UNL A   1      42.883  29.217  35.529  1.00  0.00     0.029 A 
ATOM     56  C   UNL A   1      42.786  28.795  34.213  1.00  0.00     0.049 A 
ATOM     57  H   UNL A   1      41.354  29.324  32.754  1.00  0.00     0.167 HD
ATOM     58  C   UNL A   1      43.464  27.507  32.201  1.00  0.00     0.074 A 
ATOM     59  C   UNL A   1      44.315  26.569  31.497  1.00  0.00     0.031 C 
ATOM     60  C   UNL A   1      43.638  27.878  33.495  1.00  0.00     0.037 A 
BRANCH  47  61
ATOM     61  C   UNL A   1      39.446  31.957  35.525  1.00  0.00     0.064 A 
ATOM     62  C   UNL A   1      39.908  33.278  35.651  1.00  0.00     0.173 A 
ATOM     63  C   UNL A   1      38.518  31.501  36.475  1.00  0.00     0.173 A 
ATOM     64  F   UNL A   1      40.802  33.767  34.778  1.00  0.00    -0.203 F 
ATOM     65  C   UNL A   1      39.501  34.086  36.710  1.00  0.00     0.198 A 
ATOM     66  C   UNL A   1      38.082  32.325  37.509  1.00  0.00     0.198 A 
ATOM     67  F   UNL A   1      38.034  30.251  36.402  1.00  0.00    -0.203 F 
ATOM     68  F   UNL A   1      40.016  35.315  36.849  1.00  0.00    -0.200 F 
ATOM     69  C   UNL A   1      38.585  33.610  37.635  1.00  0.00     0.200 A 
ATOM     70  F   UNL A   1      37.184  31.869  38.393  1.00  0.00    -0.200 F 
ATOM     71  F   UNL A   1      38.194  34.388  38.655  1.00  0.00    -0.200 F 
ENDBRANCH  47  61
BRANCH  48  72
ATOM     72  C   UNL A   1      42.493  26.575  27.684  1.00  0.00     0.064 A 
ATOM     73  C   UNL A   1      43.433  27.115  26.795  1.00  0.00     0.173 A 
ATOM     74  C   UNL A   1      42.044  25.268  27.441  1.00  0.00     0.173 A 
ATOM     75  F   UNL A   1      43.879  28.367  26.973  1.00  0.00    -0.203 F 
ATOM     76  C   UNL A   1      43.897  26.383  25.704  1.00  0.00     0.198 A 
ATOM     77  C   UNL A   1      42.533  24.525  26.368  1.00  0.00     0.198 A 
ATOM     78  F   UNL A   1      41.153  24.700  28.268  1.00  0.00    -0.203 F 
ATOM     79  F   UNL A   1      44.768  26.937  24.850  1.00  0.00    -0.200 F 
ATOM     80  C   UNL A   1      43.454  25.085  25.497  1.00  0.00     0.200 A 
ATOM     81  F   UNL A   1      42.116  23.265  26.184  1.00  0.00    -0.200 F 
ATOM     82  F   UNL A   1      43.914  24.375  24.458  1.00  0.00    -0.200 F 
ENDBRANCH  48  72
BRANCH  60  83
ATOM     83  C   UNL A   1      44.784  27.247  34.237  1.00  0.00     0.064 A 
ATOM     84  C   UNL A   1      44.649  26.018  34.902  1.00  0.00     0.173 A 
ATOM     85  C   UNL A   1      46.036  27.880  34.281  1.00  0.00     0.173 A 
ATOM     86  F   UNL A   1      43.471  25.376  34.902  1.00  0.00    -0.203 F 
ATOM     87  C   UNL A   1      45.709  25.473  35.621  1.00  0.00     0.198 A 
ATOM     88  C   UNL A   1      47.105  27.312  34.968  1.00  0.00     0.198 A 
ATOM     89  F   UNL A   1      46.225  29.052  33.654  1.00  0.00    -0.203 F 
ATOM     90  F   UNL A   1      45.535  24.335  36.307  1.00  0.00    -0.200 F 
ATOM     91  C   UNL A   1      46.937  26.117  35.649  1.00  0.00     0.200 A 
ATOM     92  F   UNL A   1      48.296  27.928  34.979  1.00  0.00    -0.200 F 
ATOM     93  F   UNL A   1      47.955  25.592  36.344  1.00  0.00    -0.200 F 
ENDBRANCH  60  83
ENDBRANCH  34  35
ENDBRANCH  26  29
ENDBRANCH  24  25
ENDBRANCH  23  24
ENDBRANCH  22  23
ENDBRANCH   3  22
TORSDOF 16
ENDMDL
MODEL 3
REMARK VINA RESULT:     -11.0      4.371     10.180
REMARK SMILES CCCCSCC(=O)Nc1sc(C)c(C)c1C(=O)NCCCNC(=O)c1ccc(-c2c3nc(c(-c4c(F)c(F)c(F)c(F)c4F)c4ccc([nH]4)c(-c4c(F)c(F)c(F)c(F)c4F)c4nc(c(-c5c(F)c(F)c(F)c(F)c5F)c5ccc2[nH]5)C=C4)C=C3)cc1
REMARK SMILES IDX 17 1 18 2 19 3 16 5 10 6 11 7 12 8 14 9 13 10 15 11 9 12
REMARK SMILES IDX 7 13 8 14 6 16 5 17 4 18 3 19 2 20 1 21 20 22 21 23 22 24
REMARK SMILES IDX 23 25 24 26 25 28 26 29 27 30 88 31 28 32 87 33 29 34 30 35
REMARK SMILES IDX 31 36 81 37 32 38 86 39 80 40 82 41 33 42 85 43 79 44 78 45
REMARK SMILES IDX 34 47 66 48 46 49 65 50 47 51 50 52 64 53 83 54 48 55 49 56
REMARK SMILES IDX 63 58 84 59 51 60 35 61 36 62 44 63 37 64 38 65 42 66 45 67
REMARK SMILES IDX 39 68 40 69 43 70 41 71 67 72 68 73 76 74 69 75 70 76 74 77
REMARK SMILES IDX 77 78 71 79 72 80 75 81 73 82 52 83 53 84 61 85 54 86 55 87
REMARK SMILES IDX 59 88 62 89 56 90 57 91 60 92 58 93
REMARK H PARENT 19 4 9 15 23 27 82 46 50 57
REMARK Flexibility Score: inf
ROOT
ATOM      1  C   UNL A   1      34.731  23.970  25.260  1.00  0.00     0.254 C 
ATOM      2  O   UNL A   1      35.288  25.058  25.410  1.00  0.00    -0.269 OA
ATOM      3  N   UNL A   1      35.596  22.903  25.132  1.00  0.00    -0.352 N 
ATOM      4  H   UNL A   1      36.549  23.148  25.152  1.00  0.00     0.163 HD
ENDROOT
BRANCH   1   5
ATOM      5  C   UNL A   1      33.249  23.882  25.177  1.00  0.00     0.077 A 
ATOM      6  C   UNL A   1      32.390  24.238  24.148  1.00  0.00     0.108 A 
ATOM      7  S   UNL A   1      30.768  23.822  24.426  1.00  0.00    -0.122 S 
ATOM      8  C   UNL A   1      31.082  23.336  26.014  1.00  0.00     0.007 A 
ATOM      9  C   UNL A   1      32.441  23.347  26.295  1.00  0.00    -0.022 A 
ATOM     10  C   UNL A   1      29.935  22.926  26.876  1.00  0.00     0.057 C 
ATOM     11  C   UNL A   1      33.015  22.876  27.599  1.00  0.00     0.046 C 
BRANCH   6  12
ATOM     12  N   UNL A   1      32.622  24.685  22.870  1.00  0.00    -0.316 N 
ATOM     13  C   UNL A   1      33.096  25.940  22.572  1.00  0.00     0.234 C 
ATOM     14  O   UNL A   1      33.653  26.068  21.476  1.00  0.00    -0.274 OA
ATOM     15  H   UNL A   1      32.440  24.069  22.124  1.00  0.00     0.170 HD
BRANCH  13  16
ATOM     16  C   UNL A   1      33.115  27.085  23.572  1.00  0.00     0.169 C 
BRANCH  16  17
ATOM     17  S   UNL A   1      32.121  28.540  23.116  1.00  0.00    -0.152 SA
BRANCH  17  18
ATOM     18  C   UNL A   1      30.561  27.809  22.513  1.00  0.00     0.070 C 
BRANCH  18  19
ATOM     19  C   UNL A   1      29.357  28.126  23.400  1.00  0.00     0.011 C 
BRANCH  19  20
ATOM     20  C   UNL A   1      28.246  28.952  22.750  1.00  0.00    -0.003 C 
ATOM     21  C   UNL A   1      28.751  30.252  22.139  1.00  0.00     0.004 C 
ENDBRANCH  19  20
ENDBRANCH  18  19
ENDBRANCH  17  18
ENDBRANCH  16  17
ENDBRANCH  13  16
ENDBRANCH   6  12
ENDBRANCH   1   5
BRANCH   3  22
ATOM     22  C   UNL A   1      35.347  21.495  24.976  1.00  0.00     0.118 C 
BRANCH  22  23
ATOM     23  C   UNL A   1      36.534  20.557  25.001  1.00  0.00     0.042 C 
BRANCH  23  24
ATOM     24  C   UNL A   1      37.900  21.197  25.140  1.00  0.00     0.118 C 
BRANCH  24  25
ATOM     25  N   UNL A   1      38.905  20.348  25.761  1.00  0.00    -0.352 N 
ATOM     26  C   UNL A   1      40.033  20.629  26.501  1.00  0.00     0.251 C 
ATOM     27  H   UNL A   1      38.749  19.386  25.627  1.00  0.00     0.163 HD
ATOM     28  O   UNL A   1      40.756  19.700  26.845  1.00  0.00    -0.269 OA
BRANCH  26  29
ATOM     29  C   UNL A   1      40.422  22.018  26.856  1.00  0.00     0.039 A 
ATOM     30  C   UNL A   1      41.339  22.210  27.896  1.00  0.00     0.014 A 
ATOM     31  C   UNL A   1      39.893  23.135  26.214  1.00  0.00     0.014 A 
ATOM     32  C   UNL A   1      41.778  23.498  28.219  1.00  0.00     0.010 A 
ATOM     33  C   UNL A   1      40.438  24.398  26.430  1.00  0.00     0.010 A 
ATOM     34  C   UNL A   1      41.376  24.602  27.448  1.00  0.00    -0.014 A 
BRANCH  34  35
ATOM     35  C   UNL A   1      41.928  25.960  27.701  1.00  0.00     0.031 A 
ATOM     36  C   UNL A   1      43.277  26.363  27.166  1.00  0.00     0.074 A 
ATOM     37  C   UNL A   1      41.230  26.822  28.467  1.00  0.00     0.049 A 
ATOM     38  N   UNL A   1      43.905  27.508  27.279  1.00  0.00    -0.248 NA
ATOM     39  C   UNL A   1      44.043  25.336  26.445  1.00  0.00     0.031 C 
ATOM     40  C   UNL A   1      39.957  26.524  29.126  1.00  0.00     0.029 A 
ATOM     41  N   UNL A   1      41.489  28.122  28.823  1.00  0.00    -0.354 N 
ATOM     42  C   UNL A   1      45.137  27.329  26.662  1.00  0.00     0.074 A 
ATOM     43  C   UNL A   1      45.200  25.946  26.245  1.00  0.00     0.031 C 
ATOM     44  C   UNL A   1      39.523  27.622  29.764  1.00  0.00     0.029 A 
ATOM     45  C   UNL A   1      40.503  28.688  29.592  1.00  0.00     0.049 A 
ATOM     46  H   UNL A   1      42.306  28.603  28.552  1.00  0.00     0.167 HD
ATOM     47  C   UNL A   1      46.115  28.239  26.434  1.00  0.00     0.037 A 
ATOM     48  C   UNL A   1      40.394  29.931  30.100  1.00  0.00     0.037 A 
ATOM     49  C   UNL A   1      46.037  29.621  26.835  1.00  0.00     0.049 A 
ATOM     50  C   UNL A   1      41.469  30.938  29.802  1.00  0.00     0.074 A 
ATOM     51  C   UNL A   1      46.931  30.645  26.581  1.00  0.00     0.029 A 
ATOM     52  N   UNL A   1      45.007  30.168  27.587  1.00  0.00    -0.354 N 
ATOM     53  N   UNL A   1      42.582  30.786  29.124  1.00  0.00    -0.248 NA
ATOM     54  C   UNL A   1      41.263  32.296  30.322  1.00  0.00     0.031 C 
ATOM     55  C   UNL A   1      46.475  31.796  27.236  1.00  0.00     0.029 A 
ATOM     56  C   UNL A   1      45.260  31.509  27.835  1.00  0.00     0.049 A 
ATOM     57  H   UNL A   1      44.213  29.676  27.898  1.00  0.00     0.167 HD
ATOM     58  C   UNL A   1      43.200  32.029  29.121  1.00  0.00     0.074 A 
ATOM     59  C   UNL A   1      42.323  32.929  29.841  1.00  0.00     0.031 C 
ATOM     60  C   UNL A   1      44.387  32.390  28.572  1.00  0.00     0.037 A 
BRANCH  47  61
ATOM     61  C   UNL A   1      47.355  27.761  25.727  1.00  0.00     0.064 A 
ATOM     62  C   UNL A   1      47.444  27.720  24.326  1.00  0.00     0.173 A 
ATOM     63  C   UNL A   1      48.475  27.340  26.462  1.00  0.00     0.173 A 
ATOM     64  F   UNL A   1      46.403  28.101  23.571  1.00  0.00    -0.203 F 
ATOM     65  C   UNL A   1      48.582  27.229  23.690  1.00  0.00     0.198 A 
ATOM     66  C   UNL A   1      49.628  26.889  25.822  1.00  0.00     0.198 A 
ATOM     67  F   UNL A   1      48.454  27.365  27.803  1.00  0.00    -0.203 F 
ATOM     68  F   UNL A   1      48.611  27.129  22.354  1.00  0.00    -0.200 F 
ATOM     69  C   UNL A   1      49.674  26.819  24.439  1.00  0.00     0.200 A 
ATOM     70  F   UNL A   1      50.688  26.508  26.548  1.00  0.00    -0.200 F 
ATOM     71  F   UNL A   1      50.769  26.346  23.826  1.00  0.00    -0.200 F 
ENDBRANCH  47  61
BRANCH  48  72
ATOM     72  C   UNL A   1      39.197  30.290  30.902  1.00  0.00     0.064 A 
ATOM     73  C   UNL A   1      39.187  30.142  32.296  1.00  0.00     0.173 A 
ATOM     74  C   UNL A   1      38.052  30.830  30.296  1.00  0.00     0.173 A 
ATOM     75  F   UNL A   1      40.250  29.614  32.921  1.00  0.00    -0.203 F 
ATOM     76  C   UNL A   1      38.074  30.508  33.052  1.00  0.00     0.198 A 
ATOM     77  C   UNL A   1      36.953  31.225  31.056  1.00  0.00     0.198 A 
ATOM     78  F   UNL A   1      38.014  31.002  28.967  1.00  0.00    -0.203 F 
ATOM     79  F   UNL A   1      38.078  30.322  34.379  1.00  0.00    -0.200 F 
ATOM     80  C   UNL A   1      36.962  31.059  32.433  1.00  0.00     0.200 A 
ATOM     81  F   UNL A   1      35.889  31.774  30.455  1.00  0.00    -0.200 F 
ATOM     82  F   UNL A   1      35.900  31.427  33.161  1.00  0.00    -0.200 F 
ENDBRANCH  48  72
BRANCH  60  83
ATOM     83  C   UNL A   1      44.792  33.831  28.713  1.00  0.00     0.064 A 
ATOM     84  C   UNL A   1      45.572  34.279  29.792  1.00  0.00     0.173 A 
ATOM     85  C   UNL A   1      44.398  34.778  27.755  1.00  0.00     0.173 A 
ATOM     86  F   UNL A   1      45.966  33.420  30.743  1.00  0.00    -0.203 F 
ATOM     87  C   UNL A   1      45.898  35.626  29.929  1.00  0.00     0.198 A 
ATOM     88  C   UNL A   1      44.760  36.117  27.874  1.00  0.00     0.198 A 
ATOM     89  F   UNL A   1      43.661  34.404  26.697  1.00  0.00    -0.203 F 
ATOM     90  F   UNL A   1      46.581  36.041  31.005  1.00  0.00    -0.200 F 
ATOM     91  C   UNL A   1      45.497  36.542  28.968  1.00  0.00     0.200 A 
ATOM     92  F   UNL A   1      44.386  36.997  26.936  1.00  0.00    -0.200 F 
ATOM     93  F   UNL A   1      45.810  37.837  29.104  1.00  0.00    -0.200 F 
ENDBRANCH  60  83
ENDBRANCH  34  35
ENDBRANCH  26  29
ENDBRANCH  24  25
ENDBRANCH  23  24
ENDBRANCH  22  23
ENDBRANCH   3  22
TORSDOF 16
ENDMDL
