MODEL 1
REMARK VINA RESULT:     -12.3      0.000      0.000
REMARK SMILES O=C(NCCCNC(=O)C1(CCc2ccccn2)CCCCC1)c1ccc(-c2c3nc(c(-c4c(F)c(F)c(F)c(F)c4F)c4ccc([nH]4)c(-c4c(F)c(F)c(F)c(F)c4F)c4nc(c(-c5c(F)c(F)c(F)c(F)c5F)c5ccc2[nH]5)C=C4)C=C3)cc1
REMARK SMILES IDX 5 1 4 2 3 3 1 4 2 5 24 7 25 8 86 9 26 10 85 11 27 12 28 13
REMARK SMILES IDX 29 14 79 15 30 16 84 17 78 18 80 19 31 20 83 21 77 22 76 23
REMARK SMILES IDX 32 25 64 26 44 27 63 28 45 29 48 30 62 31 81 32 46 33 47 34
REMARK SMILES IDX 61 36 82 37 49 38 33 39 34 40 42 41 35 42 36 43 40 44 43 45
REMARK SMILES IDX 37 46 38 47 41 48 39 49 65 50 66 51 74 52 67 53 68 54 72 55
REMARK SMILES IDX 75 56 69 57 70 58 73 59 71 60 50 61 51 62 59 63 52 64 53 65
REMARK SMILES IDX 57 66 60 67 54 68 55 69 58 70 56 71 6 72 7 73 8 74 9 76
REMARK SMILES IDX 10 77 19 78 23 79 20 80 22 81 21 82 11 83 12 84 13 85 14 86
REMARK SMILES IDX 18 87 15 88 17 89 16 90
REMARK H PARENT 3 6 80 24 48 35 7 75
REMARK Flexibility Score: inf
ROOT
ATOM      1  C   UNL A   1      37.812  19.951  25.001  1.00  0.00     0.042 C 
ENDROOT
BRANCH   1   2
ATOM      2  C   UNL A   1      39.012  20.393  25.823  1.00  0.00     0.118 C 
BRANCH   2   3
ATOM      3  N   UNL A   1      40.042  19.357  25.897  1.00  0.00    -0.352 N 
ATOM      4  O   UNL A   1      42.137  18.516  25.852  1.00  0.00    -0.269 OA
ATOM      5  C   UNL A   1      41.405  19.473  26.053  1.00  0.00     0.251 C 
ATOM      6  H   UNL A   1      39.709  18.433  25.824  1.00  0.00     0.163 HD
BRANCH   5   7
ATOM      7  C   UNL A   1      41.969  20.778  26.454  1.00  0.00     0.039 A 
ATOM      8  C   UNL A   1      42.145  21.058  27.805  1.00  0.00     0.014 A 
ATOM      9  C   UNL A   1      42.304  21.733  25.490  1.00  0.00     0.014 A 
ATOM     10  C   UNL A   1      42.423  22.353  28.203  1.00  0.00     0.010 A 
ATOM     11  C   UNL A   1      42.744  22.999  25.894  1.00  0.00     0.010 A 
ATOM     12  C   UNL A   1      42.769  23.331  27.256  1.00  0.00    -0.014 A 
BRANCH  12  13
ATOM     13  C   UNL A   1      43.224  24.648  27.769  1.00  0.00     0.031 A 
ATOM     14  C   UNL A   1      44.671  25.049  27.748  1.00  0.00     0.074 A 
ATOM     15  C   UNL A   1      42.276  25.526  28.155  1.00  0.00     0.049 A 
ATOM     16  N   UNL A   1      45.206  26.199  28.075  1.00  0.00    -0.248 NA
ATOM     17  C   UNL A   1      45.648  24.035  27.323  1.00  0.00     0.031 C 
ATOM     18  C   UNL A   1      40.842  25.228  28.232  1.00  0.00     0.029 A 
ATOM     19  N   UNL A   1      42.354  26.852  28.491  1.00  0.00    -0.354 N 
ATOM     20  C   UNL A   1      46.576  26.041  27.918  1.00  0.00     0.074 A 
ATOM     21  C   UNL A   1      46.797  24.678  27.485  1.00  0.00     0.031 C 
ATOM     22  C   UNL A   1      40.168  26.357  28.485  1.00  0.00     0.029 A 
ATOM     23  C   UNL A   1      41.126  27.437  28.685  1.00  0.00     0.049 A 
ATOM     24  H   UNL A   1      43.205  27.337  28.583  1.00  0.00     0.167 HD
ATOM     25  C   UNL A   1      47.555  26.958  28.117  1.00  0.00     0.037 A 
ATOM     26  C   UNL A   1      40.800  28.702  29.003  1.00  0.00     0.037 A 
ATOM     27  C   UNL A   1      47.317  28.319  28.528  1.00  0.00     0.049 A 
ATOM     28  C   UNL A   1      41.906  29.696  29.188  1.00  0.00     0.074 A 
ATOM     29  C   UNL A   1      48.239  29.324  28.767  1.00  0.00     0.029 A 
ATOM     30  N   UNL A   1      46.062  28.869  28.753  1.00  0.00    -0.354 N 
ATOM     31  N   UNL A   1      43.198  29.526  29.052  1.00  0.00    -0.248 NA
ATOM     32  C   UNL A   1      41.512  31.053  29.585  1.00  0.00     0.031 C 
ATOM     33  C   UNL A   1      47.544  30.472  29.165  1.00  0.00     0.029 A 
ATOM     34  C   UNL A   1      46.187  30.196  29.134  1.00  0.00     0.049 A 
ATOM     35  H   UNL A   1      45.210  28.387  28.656  1.00  0.00     0.167 HD
ATOM     36  C   UNL A   1      43.775  30.748  29.358  1.00  0.00     0.074 A 
ATOM     37  C   UNL A   1      42.686  31.663  29.639  1.00  0.00     0.031 C 
ATOM     38  C   UNL A   1      45.087  31.079  29.423  1.00  0.00     0.037 A 
BRANCH  25  39
ATOM     39  C   UNL A   1      48.977  26.522  27.909  1.00  0.00     0.064 A 
ATOM     40  C   UNL A   1      49.538  26.428  26.627  1.00  0.00     0.173 A 
ATOM     41  C   UNL A   1      49.805  26.252  29.009  1.00  0.00     0.173 A 
ATOM     42  F   UNL A   1      48.786  26.660  25.541  1.00  0.00    -0.203 F 
ATOM     43  C   UNL A   1      50.874  26.067  26.454  1.00  0.00     0.198 A 
ATOM     44  C   UNL A   1      51.146  25.917  28.833  1.00  0.00     0.198 A 
ATOM     45  F   UNL A   1      49.320  26.331  30.257  1.00  0.00    -0.203 F 
ATOM     46  F   UNL A   1      51.381  25.953  25.219  1.00  0.00    -0.200 F 
ATOM     47  C   UNL A   1      51.678  25.821  27.557  1.00  0.00     0.200 A 
ATOM     48  F   UNL A   1      51.924  25.690  29.901  1.00  0.00    -0.200 F 
ATOM     49  F   UNL A   1      52.965  25.488  27.388  1.00  0.00    -0.200 F 
ENDBRANCH  25  39
BRANCH  26  50
ATOM     50  C   UNL A   1      39.374  29.074  29.189  1.00  0.00     0.064 A 
ATOM     51  C   UNL A   1      38.771  29.036  30.453  1.00  0.00     0.173 A 
ATOM     52  C   UNL A   1      38.591  29.500  28.106  1.00  0.00     0.173 A 
ATOM     53  F   UNL A   1      39.471  28.620  31.518  1.00  0.00    -0.203 F 
ATOM     54  C   UNL A   1      37.435  29.397  30.622  1.00  0.00     0.198 A 
ATOM     55  C   UNL A   1      37.268  29.895  28.281  1.00  0.00     0.198 A 
ATOM     56  F   UNL A   1      39.123  29.561  26.875  1.00  0.00    -0.203 F 
ATOM     57  F   UNL A   1      36.869  29.313  31.834  1.00  0.00    -0.200 F 
ATOM     58  C   UNL A   1      36.688  29.834  29.539  1.00  0.00     0.200 A 
ATOM     59  F   UNL A   1      36.559  30.340  27.235  1.00  0.00    -0.200 F 
ATOM     60  F   UNL A   1      35.409  30.195  29.705  1.00  0.00    -0.200 F 
ENDBRANCH  26  50
BRANCH  38  61
ATOM     61  C   UNL A   1      45.398  32.491  29.819  1.00  0.00     0.064 A 
ATOM     62  C   UNL A   1      45.597  32.843  31.163  1.00  0.00     0.173 A 
ATOM     63  C   UNL A   1      45.492  33.500  28.850  1.00  0.00     0.173 A 
ATOM     64  F   UNL A   1      45.499  31.913  32.125  1.00  0.00    -0.203 F 
ATOM     65  C   UNL A   1      45.842  34.163  31.525  1.00  0.00     0.198 A 
ATOM     66  C   UNL A   1      45.764  34.814  29.215  1.00  0.00     0.198 A 
ATOM     67  F   UNL A   1      45.313  33.211  27.553  1.00  0.00    -0.203 F 
ATOM     68  F   UNL A   1      45.968  34.488  32.819  1.00  0.00    -0.200 F 
ATOM     69  C   UNL A   1      45.929  35.148  30.551  1.00  0.00     0.200 A 
ATOM     70  F   UNL A   1      45.856  35.764  28.274  1.00  0.00    -0.200 F 
ATOM     71  F   UNL A   1      46.157  36.419  30.903  1.00  0.00    -0.200 F 
ENDBRANCH  38  61
ENDBRANCH  12  13
ENDBRANCH   5   7
ENDBRANCH   2   3
ENDBRANCH   1   2
BRANCH   1  72
ATOM     72  C   UNL A   1      36.799  21.072  24.874  1.00  0.00     0.117 C 
BRANCH  72  73
ATOM     73  N   UNL A   1      35.886  21.059  26.001  1.00  0.00    -0.356 N 
ATOM     74  C   UNL A   1      34.844  21.815  26.410  1.00  0.00     0.226 C 
ATOM     75  H   UNL A   1      36.072  20.317  26.620  1.00  0.00     0.163 HD
ATOM     76  O   UNL A   1      34.447  21.552  27.553  1.00  0.00    -0.274 OA
BRANCH  74  77
ATOM     77  C   UNL A   1      34.118  22.869  25.538  1.00  0.00     0.050 C 
ATOM     78  C   UNL A   1      32.995  23.430  26.482  1.00  0.00     0.017 C 
ATOM     79  C   UNL A   1      35.012  24.049  25.085  1.00  0.00     0.017 C 
ATOM     80  C   UNL A   1      32.301  24.699  26.007  1.00  0.00     0.001 C 
ATOM     81  C   UNL A   1      34.296  25.336  24.681  1.00  0.00     0.001 C 
ATOM     82  C   UNL A   1      33.314  25.797  25.738  1.00  0.00     0.000 C 
BRANCH  77  83
ATOM     83  C   UNL A   1      33.438  22.148  24.325  1.00  0.00     0.023 C 
BRANCH  83  84
ATOM     84  C   UNL A   1      32.448  20.992  24.606  1.00  0.00     0.057 C 
BRANCH  84  85
ATOM     85  C   UNL A   1      32.871  19.619  24.131  1.00  0.00     0.040 A 
ATOM     86  C   UNL A   1      32.229  19.014  23.051  1.00  0.00     0.024 A 
ATOM     87  N   UNL A   1      33.894  19.016  24.778  1.00  0.00    -0.261 NA
ATOM     88  C   UNL A   1      32.732  17.816  22.545  1.00  0.00     0.003 A 
ATOM     89  C   UNL A   1      34.355  17.848  24.279  1.00  0.00     0.111 A 
ATOM     90  C   UNL A   1      33.828  17.226  23.162  1.00  0.00     0.020 A 
ENDBRANCH  84  85
ENDBRANCH  83  84
ENDBRANCH  77  83
ENDBRANCH  74  77
ENDBRANCH  72  73
ENDBRANCH   1  72
TORSDOF 13
ENDMDL
MODEL 2
REMARK VINA RESULT:     -12.3      5.957     11.039
REMARK SMILES O=C(NCCCNC(=O)C1(CCc2ccccn2)CCCCC1)c1ccc(-c2c3nc(c(-c4c(F)c(F)c(F)c(F)c4F)c4ccc([nH]4)c(-c4c(F)c(F)c(F)c(F)c4F)c4nc(c(-c5c(F)c(F)c(F)c(F)c5F)c5ccc2[nH]5)C=C4)C=C3)cc1
REMARK SMILES IDX 5 1 4 2 3 3 1 4 2 5 24 7 25 8 86 9 26 10 85 11 27 12 28 13
REMARK SMILES IDX 29 14 79 15 30 16 84 17 78 18 80 19 31 20 83 21 77 22 76 23
REMARK SMILES IDX 32 25 64 26 44 27 63 28 45 29 48 30 62 31 81 32 46 33 47 34
REMARK SMILES IDX 61 36 82 37 49 38 33 39 34 40 42 41 35 42 36 43 40 44 43 45
REMARK SMILES IDX 37 46 38 47 41 48 39 49 65 50 66 51 74 52 67 53 68 54 72 55
REMARK SMILES IDX 75 56 69 57 70 58 73 59 71 60 50 61 51 62 59 63 52 64 53 65
REMARK SMILES IDX 57 66 60 67 54 68 55 69 58 70 56 71 6 72 7 73 8 74 9 76
REMARK SMILES IDX 10 77 19 78 23 79 20 80 22 81 21 82 11 83 12 84 13 85 14 86
REMARK SMILES IDX 18 87 15 88 17 89 16 90
REMARK H PARENT 3 6 80 24 48 35 7 75
REMARK Flexibility Score: inf
ROOT
ATOM      1  C   UNL A   1      31.444  31.934  26.513  1.00  0.00     0.042 C 
ENDROOT
BRANCH   1   2
ATOM      2  C   UNL A   1      32.636  32.519  27.255  1.00  0.00     0.118 C 
BRANCH   2   3
ATOM      3  N   UNL A   1      32.451  33.936  27.567  1.00  0.00    -0.352 N 
ATOM      4  O   UNL A   1      32.579  35.812  28.815  1.00  0.00    -0.269 OA
ATOM      5  C   UNL A   1      33.029  34.709  28.549  1.00  0.00     0.251 C 
ATOM      6  H   UNL A   1      31.814  34.410  26.984  1.00  0.00     0.163 HD
BRANCH   5   7
ATOM      7  C   UNL A   1      34.194  34.176  29.284  1.00  0.00     0.039 A 
ATOM      8  C   UNL A   1      35.474  34.574  28.913  1.00  0.00     0.014 A 
ATOM      9  C   UNL A   1      34.017  33.264  30.328  1.00  0.00     0.014 A 
ATOM     10  C   UNL A   1      36.570  33.896  29.410  1.00  0.00     0.010 A 
ATOM     11  C   UNL A   1      35.138  32.696  30.947  1.00  0.00     0.010 A 
ATOM     12  C   UNL A   1      36.424  32.979  30.464  1.00  0.00    -0.014 A 
BRANCH  12  13
ATOM     13  C   UNL A   1      37.663  32.422  31.063  1.00  0.00     0.031 A 
ATOM     14  C   UNL A   1      38.099  32.778  32.455  1.00  0.00     0.074 A 
ATOM     15  C   UNL A   1      38.332  31.491  30.354  1.00  0.00     0.049 A 
ATOM     16  N   UNL A   1      39.105  32.299  33.145  1.00  0.00    -0.248 NA
ATOM     17  C   UNL A   1      37.325  33.807  33.164  1.00  0.00     0.031 C 
ATOM     18  C   UNL A   1      38.003  31.087  28.982  1.00  0.00     0.029 A 
ATOM     19  N   UNL A   1      39.376  30.671  30.693  1.00  0.00    -0.354 N 
ATOM     20  C   UNL A   1      39.099  32.983  34.353  1.00  0.00     0.074 A 
ATOM     21  C   UNL A   1      38.001  33.924  34.300  1.00  0.00     0.031 C 
ATOM     22  C   UNL A   1      38.751  30.031  28.639  1.00  0.00     0.029 A 
ATOM     23  C   UNL A   1      39.679  29.746  29.724  1.00  0.00     0.049 A 
ATOM     24  H   UNL A   1      39.860  30.738  31.548  1.00  0.00     0.167 HD
ATOM     25  C   UNL A   1      39.936  32.829  35.409  1.00  0.00     0.037 A 
ATOM     26  C   UNL A   1      40.612  28.777  29.701  1.00  0.00     0.037 A 
ATOM     27  C   UNL A   1      41.012  31.871  35.455  1.00  0.00     0.049 A 
ATOM     28  C   UNL A   1      41.503  28.618  30.895  1.00  0.00     0.074 A 
ATOM     29  C   UNL A   1      41.924  31.642  36.472  1.00  0.00     0.029 A 
ATOM     30  N   UNL A   1      41.316  30.974  34.440  1.00  0.00    -0.354 N 
ATOM     31  N   UNL A   1      41.494  29.284  32.024  1.00  0.00    -0.248 NA
ATOM     32  C   UNL A   1      42.540  27.583  30.810  1.00  0.00     0.031 C 
ATOM     33  C   UNL A   1      42.796  30.629  36.060  1.00  0.00     0.029 A 
ATOM     34  C   UNL A   1      42.404  30.196  34.804  1.00  0.00     0.049 A 
ATOM     35  H   UNL A   1      40.830  30.902  33.587  1.00  0.00     0.167 HD
ATOM     36  C   UNL A   1      42.531  28.761  32.780  1.00  0.00     0.074 A 
ATOM     37  C   UNL A   1      43.115  27.688  31.999  1.00  0.00     0.031 C 
ATOM     38  C   UNL A   1      42.975  29.146  34.000  1.00  0.00     0.037 A 
BRANCH  25  39
ATOM     39  C   UNL A   1      39.736  33.725  36.597  1.00  0.00     0.064 A 
ATOM     40  C   UNL A   1      40.327  34.995  36.670  1.00  0.00     0.173 A 
ATOM     41  C   UNL A   1      38.895  33.332  37.650  1.00  0.00     0.173 A 
ATOM     42  F   UNL A   1      41.152  35.412  35.699  1.00  0.00    -0.203 F 
ATOM     43  C   UNL A   1      40.094  35.833  37.759  1.00  0.00     0.198 A 
ATOM     44  C   UNL A   1      38.643  34.182  38.724  1.00  0.00     0.198 A 
ATOM     45  F   UNL A   1      38.301  32.129  37.628  1.00  0.00    -0.203 F 
ATOM     46  F   UNL A   1      40.694  37.029  37.823  1.00  0.00    -0.200 F 
ATOM     47  C   UNL A   1      39.245  35.430  38.780  1.00  0.00     0.200 A 
ATOM     48  F   UNL A   1      37.815  33.795  39.704  1.00  0.00    -0.200 F 
ATOM     49  F   UNL A   1      39.012  36.243  39.819  1.00  0.00    -0.200 F 
ENDBRANCH  25  39
BRANCH  26  50
ATOM     50  C   UNL A   1      40.756  27.918  28.497  1.00  0.00     0.064 A 
ATOM     51  C   UNL A   1      40.090  26.691  28.394  1.00  0.00     0.173 A 
ATOM     52  C   UNL A   1      41.549  28.323  27.412  1.00  0.00     0.173 A 
ATOM     53  F   UNL A   1      39.333  26.251  29.410  1.00  0.00    -0.203 F 
ATOM     54  C   UNL A   1      40.221  25.896  27.257  1.00  0.00     0.198 A 
ATOM     55  C   UNL A   1      41.651  27.545  26.262  1.00  0.00     0.198 A 
ATOM     56  F   UNL A   1      42.202  29.494  27.458  1.00  0.00    -0.203 F 
ATOM     57  F   UNL A   1      39.606  24.706  27.199  1.00  0.00    -0.200 F 
ATOM     58  C   UNL A   1      40.994  26.327  26.189  1.00  0.00     0.200 A 
ATOM     59  F   UNL A   1      42.379  27.980  25.225  1.00  0.00    -0.200 F 
ATOM     60  F   UNL A   1      41.108  25.569  25.092  1.00  0.00    -0.200 F 
ENDBRANCH  26  50
BRANCH  38  61
ATOM     61  C   UNL A   1      44.153  28.398  34.547  1.00  0.00     0.064 A 
ATOM     62  C   UNL A   1      45.465  28.840  34.321  1.00  0.00     0.173 A 
ATOM     63  C   UNL A   1      43.968  27.226  35.295  1.00  0.00     0.173 A 
ATOM     64  F   UNL A   1      45.689  29.945  33.595  1.00  0.00    -0.203 F 
ATOM     65  C   UNL A   1      46.553  28.114  34.796  1.00  0.00     0.198 A 
ATOM     66  C   UNL A   1      45.059  26.519  35.791  1.00  0.00     0.198 A 
ATOM     67  F   UNL A   1      42.732  26.767  35.539  1.00  0.00    -0.203 F 
ATOM     68  F   UNL A   1      47.799  28.521  34.517  1.00  0.00    -0.200 F 
ATOM     69  C   UNL A   1      46.350  26.956  35.532  1.00  0.00     0.200 A 
ATOM     70  F   UNL A   1      44.862  25.404  36.509  1.00  0.00    -0.200 F 
ATOM     71  F   UNL A   1      47.399  26.255  35.981  1.00  0.00    -0.200 F 
ENDBRANCH  38  61
ENDBRANCH  12  13
ENDBRANCH   5   7
ENDBRANCH   2   3
ENDBRANCH   1   2
BRANCH   1  72
ATOM     72  C   UNL A   1      31.575  30.431  26.375  1.00  0.00     0.117 C 
BRANCH  72  73
ATOM     73  N   UNL A   1      32.348  30.097  25.194  1.00  0.00    -0.356 N 
ATOM     74  C   UNL A   1      32.564  28.981  24.463  1.00  0.00     0.226 C 
ATOM     75  H   UNL A   1      32.835  30.874  24.837  1.00  0.00     0.163 HD
ATOM     76  O   UNL A   1      33.459  29.099  23.614  1.00  0.00    -0.274 OA
BRANCH  74  77
ATOM     77  C   UNL A   1      31.740  27.675  24.576  1.00  0.00     0.050 C 
ATOM     78  C   UNL A   1      32.515  26.661  23.661  1.00  0.00     0.017 C 
ATOM     79  C   UNL A   1      31.666  27.087  26.005  1.00  0.00     0.017 C 
ATOM     80  C   UNL A   1      32.115  25.199  23.803  1.00  0.00     0.001 C 
ATOM     81  C   UNL A   1      31.333  25.601  26.120  1.00  0.00     0.001 C 
ATOM     82  C   UNL A   1      32.230  24.748  25.247  1.00  0.00     0.000 C 
BRANCH  77  83
ATOM     83  C   UNL A   1      30.318  27.914  23.965  1.00  0.00     0.023 C 
BRANCH  83  84
ATOM     84  C   UNL A   1      30.209  28.528  22.548  1.00  0.00     0.057 C 
BRANCH  84  85
ATOM     85  C   UNL A   1      29.384  29.791  22.428  1.00  0.00     0.040 A 
ATOM     86  C   UNL A   1      29.255  30.659  23.512  1.00  0.00     0.024 A 
ATOM     87  N   UNL A   1      28.796  30.048  21.237  1.00  0.00    -0.261 NA
ATOM     88  C   UNL A   1      28.611  31.882  23.329  1.00  0.00     0.003 A 
ATOM     89  C   UNL A   1      28.164  31.234  21.089  1.00  0.00     0.111 A 
ATOM     90  C   UNL A   1      28.066  32.184  22.089  1.00  0.00     0.020 A 
ENDBRANCH  84  85
ENDBRANCH  83  84
ENDBRANCH  77  83
ENDBRANCH  74  77
ENDBRANCH  72  73
ENDBRANCH   1  72
TORSDOF 13
ENDMDL
MODEL 3
REMARK VINA RESULT:     -12.3      5.737     10.798
REMARK SMILES O=C(NCCCNC(=O)C1(CCc2ccccn2)CCCCC1)c1ccc(-c2c3nc(c(-c4c(F)c(F)c(F)c(F)c4F)c4ccc([nH]4)c(-c4c(F)c(F)c(F)c(F)c4F)c4nc(c(-c5c(F)c(F)c(F)c(F)c5F)c5ccc2[nH]5)C=C4)C=C3)cc1
REMARK SMILES IDX 5 1 4 2 3 3 1 4 2 5 24 7 25 8 86 9 26 10 85 11 27 12 28 13
REMARK SMILES IDX 29 14 79 15 30 16 84 17 78 18 80 19 31 20 83 21 77 22 76 23
REMARK SMILES IDX 32 25 64 26 44 27 63 28 45 29 48 30 62 31 81 32 46 33 47 34
REMARK SMILES IDX 61 36 82 37 49 38 33 39 34 40 42 41 35 42 36 43 40 44 43 45
REMARK SMILES IDX 37 46 38 47 41 48 39 49 65 50 66 51 74 52 67 53 68 54 72 55
REMARK SMILES IDX 75 56 69 57 70 58 73 59 71 60 50 61 51 62 59 63 52 64 53 65
REMARK SMILES IDX 57 66 60 67 54 68 55 69 58 70 56 71 6 72 7 73 8 74 9 76
REMARK SMILES IDX 10 77 19 78 23 79 20 80 22 81 21 82 11 83 12 84 13 85 14 86
REMARK SMILES IDX 18 87 15 88 17 89 16 90
REMARK H PARENT 3 6 80 24 48 35 7 75
REMARK Flexibility Score: inf
ROOT
ATOM      1  C   UNL A   1      31.533  31.635  26.595  1.00  0.00     0.042 C 
ENDROOT
BRANCH   1   2
ATOM      2  C   UNL A   1      32.796  32.373  27.009  1.00  0.00     0.118 C 
BRANCH   2   3
ATOM      3  N   UNL A   1      32.522  33.750  27.415  1.00  0.00    -0.352 N 
ATOM      4  O   UNL A   1      32.511  35.535  28.798  1.00  0.00    -0.269 OA
ATOM      5  C   UNL A   1      33.030  34.481  28.467  1.00  0.00     0.251 C 
ATOM      6  H   UNL A   1      31.874  34.230  26.850  1.00  0.00     0.163 HD
BRANCH   5   7
ATOM      7  C   UNL A   1      34.205  33.961  29.195  1.00  0.00     0.039 A 
ATOM      8  C   UNL A   1      35.464  34.486  28.920  1.00  0.00     0.014 A 
ATOM      9  C   UNL A   1      34.061  32.939  30.136  1.00  0.00     0.014 A 
ATOM     10  C   UNL A   1      36.590  33.840  29.395  1.00  0.00     0.010 A 
ATOM     11  C   UNL A   1      35.198  32.393  30.744  1.00  0.00     0.010 A 
ATOM     12  C   UNL A   1      36.475  32.814  30.348  1.00  0.00    -0.014 A 
BRANCH  12  13
ATOM     13  C   UNL A   1      37.731  32.290  30.942  1.00  0.00     0.031 A 
ATOM     14  C   UNL A   1      38.161  32.653  32.334  1.00  0.00     0.074 A 
ATOM     15  C   UNL A   1      38.424  31.379  30.228  1.00  0.00     0.049 A 
ATOM     16  N   UNL A   1      39.181  32.201  33.019  1.00  0.00    -0.248 NA
ATOM     17  C   UNL A   1      37.360  33.659  33.048  1.00  0.00     0.031 C 
ATOM     18  C   UNL A   1      38.102  30.971  28.856  1.00  0.00     0.029 A 
ATOM     19  N   UNL A   1      39.490  30.588  30.563  1.00  0.00    -0.354 N 
ATOM     20  C   UNL A   1      39.159  32.881  34.230  1.00  0.00     0.074 A 
ATOM     21  C   UNL A   1      38.036  33.792  34.182  1.00  0.00     0.031 C 
ATOM     22  C   UNL A   1      38.878  29.937  28.508  1.00  0.00     0.029 A 
ATOM     23  C   UNL A   1      39.816  29.673  29.590  1.00  0.00     0.049 A 
ATOM     24  H   UNL A   1      39.975  30.666  31.416  1.00  0.00     0.167 HD
ATOM     25  C   UNL A   1      40.003  32.747  35.283  1.00  0.00     0.037 A 
ATOM     26  C   UNL A   1      40.775  28.731  29.562  1.00  0.00     0.037 A 
ATOM     27  C   UNL A   1      41.106  31.819  35.324  1.00  0.00     0.049 A 
ATOM     28  C   UNL A   1      41.673  28.593  30.754  1.00  0.00     0.074 A 
ATOM     29  C   UNL A   1      42.025  31.613  36.338  1.00  0.00     0.029 A 
ATOM     30  N   UNL A   1      41.431  30.934  34.305  1.00  0.00    -0.354 N 
ATOM     31  N   UNL A   1      41.649  29.255  31.884  1.00  0.00    -0.248 NA
ATOM     32  C   UNL A   1      42.739  27.588  30.663  1.00  0.00     0.031 C 
ATOM     33  C   UNL A   1      42.924  30.625  35.921  1.00  0.00     0.029 A 
ATOM     34  C   UNL A   1      42.541  30.185  34.665  1.00  0.00     0.049 A 
ATOM     35  H   UNL A   1      40.945  30.850  33.454  1.00  0.00     0.167 HD
ATOM     36  C   UNL A   1      42.702  28.760  32.636  1.00  0.00     0.074 A 
ATOM     37  C   UNL A   1      43.314  27.705  31.851  1.00  0.00     0.031 C 
ATOM     38  C   UNL A   1      43.138  29.153  33.856  1.00  0.00     0.037 A 
BRANCH  25  39
ATOM     39  C   UNL A   1      39.782  33.634  36.474  1.00  0.00     0.064 A 
ATOM     40  C   UNL A   1      40.350  34.914  36.556  1.00  0.00     0.173 A 
ATOM     41  C   UNL A   1      38.943  33.222  37.521  1.00  0.00     0.173 A 
ATOM     42  F   UNL A   1      41.172  35.350  35.590  1.00  0.00    -0.203 F 
ATOM     43  C   UNL A   1      40.097  35.742  37.647  1.00  0.00     0.198 A 
ATOM     44  C   UNL A   1      38.671  34.063  38.598  1.00  0.00     0.198 A 
ATOM     45  F   UNL A   1      38.371  32.009  37.491  1.00  0.00    -0.203 F 
ATOM     46  F   UNL A   1      40.675  36.949  37.719  1.00  0.00    -0.200 F 
ATOM     47  C   UNL A   1      39.251  35.320  38.662  1.00  0.00     0.200 A 
ATOM     48  F   UNL A   1      37.845  33.656  39.572  1.00  0.00    -0.200 F 
ATOM     49  F   UNL A   1      38.998  36.124  39.704  1.00  0.00    -0.200 F 
ENDBRANCH  25  39
BRANCH  26  50
ATOM     50  C   UNL A   1      40.940  27.880  28.355  1.00  0.00     0.064 A 
ATOM     51  C   UNL A   1      41.719  28.299  27.269  1.00  0.00     0.173 A 
ATOM     52  C   UNL A   1      40.338  26.615  28.276  1.00  0.00     0.173 A 
ATOM     53  F   UNL A   1      42.302  29.507  27.289  1.00  0.00    -0.203 F 
ATOM     54  C   UNL A   1      41.878  27.491  26.145  1.00  0.00     0.198 A 
ATOM     55  C   UNL A   1      40.527  25.793  27.169  1.00  0.00     0.198 A 
ATOM     56  F   UNL A   1      39.588  26.163  29.293  1.00  0.00    -0.203 F 
ATOM     57  F   UNL A   1      42.594  27.931  25.102  1.00  0.00    -0.200 F 
ATOM     58  C   UNL A   1      41.290  26.236  26.100  1.00  0.00     0.200 A 
ATOM     59  F   UNL A   1      39.977  24.572  27.142  1.00  0.00    -0.200 F 
ATOM     60  F   UNL A   1      41.456  25.454  25.025  1.00  0.00    -0.200 F 
ENDBRANCH  26  50
BRANCH  38  61
ATOM     61  C   UNL A   1      44.337  28.436  34.398  1.00  0.00     0.064 A 
ATOM     62  C   UNL A   1      44.203  27.261  35.153  1.00  0.00     0.173 A 
ATOM     63  C   UNL A   1      45.629  28.929  34.166  1.00  0.00     0.173 A 
ATOM     64  F   UNL A   1      42.986  26.763  35.415  1.00  0.00    -0.203 F 
ATOM     65  C   UNL A   1      45.320  26.626  35.688  1.00  0.00     0.198 A 
ATOM     66  C   UNL A   1      46.745  28.276  34.681  1.00  0.00     0.198 A 
ATOM     67  F   UNL A   1      45.807  30.047  33.447  1.00  0.00    -0.203 F 
ATOM     68  F   UNL A   1      45.164  25.540  36.458  1.00  0.00    -0.200 F 
ATOM     69  C   UNL A   1      46.589  27.132  35.450  1.00  0.00     0.200 A 
ATOM     70  F   UNL A   1      47.971  28.760  34.443  1.00  0.00    -0.200 F 
ATOM     71  F   UNL A   1      47.661  26.523  35.973  1.00  0.00    -0.200 F 
ENDBRANCH  38  61
ENDBRANCH  12  13
ENDBRANCH   5   7
ENDBRANCH   2   3
ENDBRANCH   1   2
BRANCH   1  72
ATOM     72  C   UNL A   1      31.829  30.179  26.291  1.00  0.00     0.117 C 
BRANCH  72  73
ATOM     73  N   UNL A   1      32.505  30.057  25.014  1.00  0.00    -0.356 N 
ATOM     74  C   UNL A   1      33.024  29.042  24.288  1.00  0.00     0.226 C 
ATOM     75  H   UNL A   1      32.611  30.926  24.566  1.00  0.00     0.163 HD
ATOM     76  O   UNL A   1      33.686  29.410  23.308  1.00  0.00    -0.274 OA
BRANCH  74  77
ATOM     77  C   UNL A   1      32.774  27.539  24.562  1.00  0.00     0.050 C 
ATOM     78  C   UNL A   1      33.398  26.820  23.313  1.00  0.00     0.017 C 
ATOM     79  C   UNL A   1      33.466  26.997  25.836  1.00  0.00     0.017 C 
ATOM     80  C   UNL A   1      33.575  25.312  23.434  1.00  0.00     0.001 C 
ATOM     81  C   UNL A   1      33.697  25.489  25.903  1.00  0.00     0.001 C 
ATOM     82  C   UNL A   1      34.392  24.964  24.664  1.00  0.00     0.000 C 
BRANCH  77  83
ATOM     83  C   UNL A   1      31.231  27.271  24.573  1.00  0.00     0.023 C 
BRANCH  83  84
ATOM     84  C   UNL A   1      30.440  27.416  23.251  1.00  0.00     0.057 C 
BRANCH  84  85
ATOM     85  C   UNL A   1      29.443  28.552  23.188  1.00  0.00     0.040 A 
ATOM     86  C   UNL A   1      28.081  28.292  23.038  1.00  0.00     0.024 A 
ATOM     87  N   UNL A   1      29.918  29.814  23.297  1.00  0.00    -0.261 NA
ATOM     88  C   UNL A   1      27.174  29.347  23.129  1.00  0.00     0.003 A 
ATOM     89  C   UNL A   1      29.020  30.821  23.368  1.00  0.00     0.111 A 
ATOM     90  C   UNL A   1      27.650  30.638  23.312  1.00  0.00     0.020 A 
ENDBRANCH  84  85
ENDBRANCH  83  84
ENDBRANCH  77  83
ENDBRANCH  74  77
ENDBRANCH  72  73
ENDBRANCH   1  72
TORSDOF 13
ENDMDL
