MODEL 1
REMARK VINA RESULT:     -13.4      0.000      0.000
REMARK SMILES Cc1ccccc1CCNS(=O)(=O)c1ccc(C(=O)NCCCNC(=O)c2ccc(-c3c4nc(c(-c5c(F)c(F)c(F)c(F)c5F)c5ccc([nH]5)c(-c5c(F)c(F)c(F)c(F)c5F)c5nc(c(-c6c(F)c(F)c(F)c(F)c6F)c6ccc3[nH]6)C=C5)C=C4)cc2)o1
REMARK SMILES IDX 18 1 19 2 20 3 17 5 14 6 15 7 90 8 16 9 11 10 12 11 13 12
REMARK SMILES IDX 10 13 9 15 8 16 7 17 1 18 2 19 3 20 4 21 6 22 5 23 21 24
REMARK SMILES IDX 22 25 23 26 24 27 25 28 26 30 27 31 28 32 89 33 29 34 88 35
REMARK SMILES IDX 30 36 31 37 32 38 82 39 33 40 87 41 81 42 83 43 34 44 86 45
REMARK SMILES IDX 80 46 79 47 35 49 67 50 47 51 66 52 48 53 51 54 65 55 84 56
REMARK SMILES IDX 49 57 50 58 64 60 85 61 52 62 36 63 37 64 45 65 38 66 39 67
REMARK SMILES IDX 43 68 46 69 40 70 41 71 44 72 42 73 68 74 69 75 77 76 70 77
REMARK SMILES IDX 71 78 75 79 78 80 72 81 73 82 76 83 74 84 53 85 54 86 62 87
REMARK SMILES IDX 55 88 56 89 60 90 63 91 57 92 58 93 61 94 59 95
REMARK H PARENT 20 4 10 14 24 29 83 48 51 59
REMARK Flexibility Score: inf
ROOT
ATOM      1  C   UNL A   1      33.062  26.981  24.152  1.00  0.00     0.287 C 
ATOM      2  O   UNL A   1      33.426  26.745  22.998  1.00  0.00    -0.266 OA
ATOM      3  N   UNL A   1      33.809  27.905  24.847  1.00  0.00    -0.349 N 
ATOM      4  H   UNL A   1      34.599  28.252  24.369  1.00  0.00     0.163 HD
ENDROOT
BRANCH   1   5
ATOM      5  C   UNL A   1      31.909  26.341  24.762  1.00  0.00     0.193 A 
ATOM      6  C   UNL A   1      30.967  24.682  25.931  1.00  0.00     0.234 A 
ATOM      7  C   UNL A   1      29.963  25.572  25.591  1.00  0.00     0.065 A 
ATOM      8  O   UNL A   1      32.151  25.172  25.432  1.00  0.00    -0.438 OA
ATOM      9  C   UNL A   1      30.561  26.627  24.868  1.00  0.00     0.058 A 
BRANCH   6  10
ATOM     10  S   UNL A   1      30.916  23.174  26.876  1.00  0.00     0.273 S 
ATOM     11  O   UNL A   1      29.665  23.189  27.600  1.00  0.00    -0.204 OA
ATOM     12  O   UNL A   1      32.191  23.104  27.552  1.00  0.00    -0.204 OA
BRANCH  10  13
ATOM     13  N   UNL A   1      30.879  21.894  25.782  1.00  0.00    -0.208 NA
ATOM     14  H   UNL A   1      30.132  21.263  26.074  1.00  0.00     0.141 HD
BRANCH  13  15
ATOM     15  C   UNL A   1      32.115  21.082  25.636  1.00  0.00     0.104 C 
BRANCH  15  16
ATOM     16  C   UNL A   1      32.641  21.179  24.190  1.00  0.00     0.052 C 
BRANCH  16  17
ATOM     17  C   UNL A   1      34.002  21.849  24.111  1.00  0.00    -0.044 A 
ATOM     18  C   UNL A   1      33.318  23.582  22.328  1.00  0.00     0.044 C 
ATOM     19  C   UNL A   1      34.320  22.878  23.204  1.00  0.00    -0.048 A 
ATOM     20  C   UNL A   1      35.652  23.327  23.126  1.00  0.00     0.004 A 
ATOM     21  C   UNL A   1      36.654  22.769  23.920  1.00  0.00     0.000 A 
ATOM     22  C   UNL A   1      35.020  21.345  24.950  1.00  0.00     0.004 A 
ATOM     23  C   UNL A   1      36.336  21.783  24.840  1.00  0.00     0.000 A 
ENDBRANCH  16  17
ENDBRANCH  15  16
ENDBRANCH  13  15
ENDBRANCH  10  13
ENDBRANCH   6  10
ENDBRANCH   1   5
BRANCH   3  24
ATOM     24  C   UNL A   1      33.605  28.445  26.176  1.00  0.00     0.118 C 
BRANCH  24  25
ATOM     25  C   UNL A   1      33.234  29.921  26.112  1.00  0.00     0.042 C 
BRANCH  25  26
ATOM     26  C   UNL A   1      33.164  30.558  27.483  1.00  0.00     0.118 C 
BRANCH  26  27
ATOM     27  N   UNL A   1      34.192  31.572  27.678  1.00  0.00    -0.352 N 
ATOM     28  C   UNL A   1      35.461  31.478  28.215  1.00  0.00     0.251 C 
ATOM     29  H   UNL A   1      33.941  32.475  27.378  1.00  0.00     0.163 HD
ATOM     30  O   UNL A   1      36.083  32.508  28.463  1.00  0.00    -0.269 OA
BRANCH  28  31
ATOM     31  C   UNL A   1      36.154  30.168  28.270  1.00  0.00     0.039 A 
ATOM     32  C   UNL A   1      36.276  29.601  29.549  1.00  0.00     0.014 A 
ATOM     33  C   UNL A   1      37.017  29.790  27.254  1.00  0.00     0.014 A 
ATOM     34  C   UNL A   1      37.453  28.957  29.888  1.00  0.00     0.010 A 
ATOM     35  C   UNL A   1      38.250  29.334  27.627  1.00  0.00     0.010 A 
ATOM     36  C   UNL A   1      38.479  28.983  28.960  1.00  0.00    -0.014 A 
BRANCH  36  37
ATOM     37  C   UNL A   1      39.843  28.587  29.215  1.00  0.00     0.031 A 
ATOM     38  C   UNL A   1      40.197  27.206  28.860  1.00  0.00     0.074 A 
ATOM     39  C   UNL A   1      40.745  29.564  29.448  1.00  0.00     0.049 A 
ATOM     40  N   UNL A   1      41.337  26.668  29.082  1.00  0.00    -0.248 NA
ATOM     41  C   UNL A   1      39.247  26.300  28.220  1.00  0.00     0.031 C 
ATOM     42  C   UNL A   1      42.192  29.524  29.278  1.00  0.00     0.029 A 
ATOM     43  N   UNL A   1      40.513  30.790  30.096  1.00  0.00    -0.354 N 
ATOM     44  C   UNL A   1      41.385  25.490  28.371  1.00  0.00     0.074 A 
ATOM     45  C   UNL A   1      40.032  25.260  27.934  1.00  0.00     0.031 C 
ATOM     46  C   UNL A   1      42.745  30.464  30.064  1.00  0.00     0.029 A 
ATOM     47  C   UNL A   1      41.674  31.005  30.884  1.00  0.00     0.049 A 
ATOM     48  H   UNL A   1      39.721  31.371  30.020  1.00  0.00     0.167 HD
ATOM     49  C   UNL A   1      42.614  24.945  28.146  1.00  0.00     0.037 A 
ATOM     50  C   UNL A   1      41.592  30.879  32.246  1.00  0.00     0.037 A 
ATOM     51  C   UNL A   1      43.622  25.675  28.921  1.00  0.00     0.049 A 
ATOM     52  C   UNL A   1      42.384  29.707  32.799  1.00  0.00     0.074 A 
ATOM     53  C   UNL A   1      44.505  26.705  28.646  1.00  0.00     0.029 A 
ATOM     54  N   UNL A   1      43.530  25.612  30.298  1.00  0.00    -0.354 N 
ATOM     55  N   UNL A   1      42.931  28.777  32.063  1.00  0.00    -0.248 NA
ATOM     56  C   UNL A   1      42.566  29.455  34.228  1.00  0.00     0.031 C 
ATOM     57  C   UNL A   1      44.886  27.297  29.892  1.00  0.00     0.029 A 
ATOM     58  C   UNL A   1      44.254  26.610  30.914  1.00  0.00     0.049 A 
ATOM     59  H   UNL A   1      43.006  24.935  30.783  1.00  0.00     0.167 HD
ATOM     60  C   UNL A   1      43.511  27.831  32.861  1.00  0.00     0.074 A 
ATOM     61  C   UNL A   1      43.231  28.287  34.213  1.00  0.00     0.031 C 
ATOM     62  C   UNL A   1      44.162  26.739  32.361  1.00  0.00     0.037 A 
BRANCH  49  63
ATOM     63  C   UNL A   1      42.964  23.899  27.112  1.00  0.00     0.064 A 
ATOM     64  C   UNL A   1      42.613  22.551  27.345  1.00  0.00     0.173 A 
ATOM     65  C   UNL A   1      43.681  24.112  25.917  1.00  0.00     0.173 A 
ATOM     66  F   UNL A   1      41.878  22.193  28.407  1.00  0.00    -0.203 F 
ATOM     67  C   UNL A   1      43.005  21.509  26.501  1.00  0.00     0.198 A 
ATOM     68  C   UNL A   1      44.090  23.067  25.081  1.00  0.00     0.198 A 
ATOM     69  F   UNL A   1      43.991  25.330  25.475  1.00  0.00    -0.203 F 
ATOM     70  F   UNL A   1      42.651  20.250  26.793  1.00  0.00    -0.200 F 
ATOM     71  C   UNL A   1      43.759  21.764  25.376  1.00  0.00     0.200 A 
ATOM     72  F   UNL A   1      44.809  23.344  23.982  1.00  0.00    -0.200 F 
ATOM     73  F   UNL A   1      44.151  20.766  24.575  1.00  0.00    -0.200 F 
ENDBRANCH  49  63
BRANCH  50  74
ATOM     74  C   UNL A   1      40.265  31.355  32.751  1.00  0.00     0.064 A 
ATOM     75  C   UNL A   1      39.958  32.722  32.574  1.00  0.00     0.173 A 
ATOM     76  C   UNL A   1      39.193  30.468  32.908  1.00  0.00     0.173 A 
ATOM     77  F   UNL A   1      40.949  33.620  32.442  1.00  0.00    -0.203 F 
ATOM     78  C   UNL A   1      38.649  33.143  32.350  1.00  0.00     0.198 A 
ATOM     79  C   UNL A   1      37.878  30.908  32.731  1.00  0.00     0.198 A 
ATOM     80  F   UNL A   1      39.413  29.160  33.093  1.00  0.00    -0.203 F 
ATOM     81  F   UNL A   1      38.409  34.414  31.994  1.00  0.00    -0.200 F 
ATOM     82  C   UNL A   1      37.614  32.227  32.391  1.00  0.00     0.200 A 
ATOM     83  F   UNL A   1      36.871  30.023  32.773  1.00  0.00    -0.200 F 
ATOM     84  F   UNL A   1      36.372  32.601  32.055  1.00  0.00    -0.200 F 
ENDBRANCH  50  74
BRANCH  62  85
ATOM     85  C   UNL A   1      44.768  25.675  33.232  1.00  0.00     0.064 A 
ATOM     86  C   UNL A   1      46.140  25.385  33.209  1.00  0.00     0.173 A 
ATOM     87  C   UNL A   1      43.973  24.840  34.049  1.00  0.00     0.173 A 
ATOM     88  F   UNL A   1      46.970  26.065  32.404  1.00  0.00    -0.203 F 
ATOM     89  C   UNL A   1      46.687  24.375  34.003  1.00  0.00     0.198 A 
ATOM     90  C   UNL A   1      44.511  23.787  34.782  1.00  0.00     0.198 A 
ATOM     91  F   UNL A   1      42.655  25.038  34.192  1.00  0.00    -0.203 F 
ATOM     92  F   UNL A   1      48.013  24.186  34.012  1.00  0.00    -0.200 F 
ATOM     93  C   UNL A   1      45.872  23.570  34.780  1.00  0.00     0.200 A 
ATOM     94  F   UNL A   1      43.699  22.998  35.502  1.00  0.00    -0.200 F 
ATOM     95  F   UNL A   1      46.397  22.594  35.530  1.00  0.00    -0.200 F 
ENDBRANCH  62  85
ENDBRANCH  36  37
ENDBRANCH  28  31
ENDBRANCH  26  27
ENDBRANCH  25  26
ENDBRANCH  24  25
ENDBRANCH   3  24
TORSDOF 15
ENDMDL
MODEL 2
REMARK VINA RESULT:     -13.2      3.104      9.327
REMARK SMILES Cc1ccccc1CCNS(=O)(=O)c1ccc(C(=O)NCCCNC(=O)c2ccc(-c3c4nc(c(-c5c(F)c(F)c(F)c(F)c5F)c5ccc([nH]5)c(-c5c(F)c(F)c(F)c(F)c5F)c5nc(c(-c6c(F)c(F)c(F)c(F)c6F)c6ccc3[nH]6)C=C5)C=C4)cc2)o1
REMARK SMILES IDX 18 1 19 2 20 3 17 5 14 6 15 7 90 8 16 9 11 10 12 11 13 12
REMARK SMILES IDX 10 13 9 15 8 16 7 17 1 18 2 19 3 20 4 21 6 22 5 23 21 24
REMARK SMILES IDX 22 25 23 26 24 27 25 28 26 30 27 31 28 32 89 33 29 34 88 35
REMARK SMILES IDX 30 36 31 37 32 38 82 39 33 40 87 41 81 42 83 43 34 44 86 45
REMARK SMILES IDX 80 46 79 47 35 49 67 50 47 51 66 52 48 53 51 54 65 55 84 56
REMARK SMILES IDX 49 57 50 58 64 60 85 61 52 62 36 63 37 64 45 65 38 66 39 67
REMARK SMILES IDX 43 68 46 69 40 70 41 71 44 72 42 73 68 74 69 75 77 76 70 77
REMARK SMILES IDX 71 78 75 79 78 80 72 81 73 82 76 83 74 84 53 85 54 86 62 87
REMARK SMILES IDX 55 88 56 89 60 90 63 91 57 92 58 93 61 94 59 95
REMARK H PARENT 20 4 10 14 24 29 83 48 51 59
REMARK Flexibility Score: inf
ROOT
ATOM      1  C   UNL A   1      33.925  19.848  24.738  1.00  0.00     0.287 C 
ATOM      2  O   UNL A   1      33.518  18.689  24.632  1.00  0.00    -0.266 OA
ATOM      3  N   UNL A   1      35.240  19.997  25.118  1.00  0.00    -0.349 N 
ATOM      4  H   UNL A   1      35.717  19.159  25.321  1.00  0.00     0.163 HD
ENDROOT
BRANCH   1   5
ATOM      5  C   UNL A   1      33.088  21.005  24.472  1.00  0.00     0.193 A 
ATOM      6  C   UNL A   1      31.920  22.788  25.151  1.00  0.00     0.234 A 
ATOM      7  C   UNL A   1      31.800  22.715  23.774  1.00  0.00     0.065 A 
ATOM      8  O   UNL A   1      32.721  21.748  25.561  1.00  0.00    -0.438 OA
ATOM      9  C   UNL A   1      32.551  21.599  23.345  1.00  0.00     0.058 A 
BRANCH   6  10
ATOM     10  S   UNL A   1      31.272  23.969  26.315  1.00  0.00     0.273 S 
ATOM     11  O   UNL A   1      32.315  24.949  26.525  1.00  0.00    -0.204 OA
ATOM     12  O   UNL A   1      30.733  23.181  27.399  1.00  0.00    -0.204 OA
BRANCH  10  13
ATOM     13  N   UNL A   1      29.965  24.738  25.580  1.00  0.00    -0.208 NA
ATOM     14  H   UNL A   1      29.545  24.072  24.931  1.00  0.00     0.141 HD
BRANCH  13  15
ATOM     15  C   UNL A   1      30.243  25.985  24.822  1.00  0.00     0.104 C 
BRANCH  15  16
ATOM     16  C   UNL A   1      28.982  26.425  24.052  1.00  0.00     0.052 C 
BRANCH  16  17
ATOM     17  C   UNL A   1      29.163  27.764  23.358  1.00  0.00    -0.044 A 
ATOM     18  C   UNL A   1      26.666  28.405  23.411  1.00  0.00     0.044 C 
ATOM     19  C   UNL A   1      28.098  28.612  22.997  1.00  0.00    -0.048 A 
ATOM     20  C   UNL A   1      28.376  29.763  22.235  1.00  0.00     0.004 A 
ATOM     21  C   UNL A   1      29.674  30.070  21.828  1.00  0.00     0.000 A 
ATOM     22  C   UNL A   1      30.476  28.129  22.991  1.00  0.00     0.004 A 
ATOM     23  C   UNL A   1      30.728  29.257  22.216  1.00  0.00     0.000 A 
ENDBRANCH  16  17
ENDBRANCH  15  16
ENDBRANCH  13  15
ENDBRANCH  10  13
ENDBRANCH   6  10
ENDBRANCH   1   5
BRANCH   3  24
ATOM     24  C   UNL A   1      36.027  21.205  25.261  1.00  0.00     0.118 C 
BRANCH  24  25
ATOM     25  C   UNL A   1      37.515  20.882  25.311  1.00  0.00     0.042 C 
BRANCH  25  26
ATOM     26  C   UNL A   1      38.378  22.124  25.252  1.00  0.00     0.118 C 
BRANCH  26  27
ATOM     27  N   UNL A   1      39.516  22.055  26.160  1.00  0.00    -0.352 N 
ATOM     28  C   UNL A   1      40.272  23.056  26.736  1.00  0.00     0.251 C 
ATOM     29  H   UNL A   1      39.791  21.141  26.403  1.00  0.00     0.163 HD
ATOM     30  O   UNL A   1      41.314  22.759  27.316  1.00  0.00    -0.269 OA
BRANCH  28  31
ATOM     31  C   UNL A   1      39.724  24.428  26.861  1.00  0.00     0.039 A 
ATOM     32  C   UNL A   1      40.397  25.418  26.127  1.00  0.00     0.014 A 
ATOM     33  C   UNL A   1      38.955  24.776  27.959  1.00  0.00     0.014 A 
ATOM     34  C   UNL A   1      40.587  26.665  26.698  1.00  0.00     0.010 A 
ATOM     35  C   UNL A   1      39.296  25.926  28.616  1.00  0.00     0.010 A 
ATOM     36  C   UNL A   1      40.166  26.833  28.006  1.00  0.00    -0.014 A 
BRANCH  36  37
ATOM     37  C   UNL A   1      40.488  27.962  28.845  1.00  0.00     0.031 A 
ATOM     38  C   UNL A   1      39.538  29.081  28.822  1.00  0.00     0.074 A 
ATOM     39  C   UNL A   1      41.427  27.784  29.799  1.00  0.00     0.049 A 
ATOM     40  N   UNL A   1      39.701  30.186  29.448  1.00  0.00    -0.248 NA
ATOM     41  C   UNL A   1      38.299  29.034  28.049  1.00  0.00     0.031 C 
ATOM     42  C   UNL A   1      41.620  28.535  31.033  1.00  0.00     0.029 A 
ATOM     43  N   UNL A   1      42.557  26.952  29.727  1.00  0.00    -0.354 N 
ATOM     44  C   UNL A   1      38.501  30.861  29.419  1.00  0.00     0.074 A 
ATOM     45  C   UNL A   1      37.695  30.152  28.458  1.00  0.00     0.031 C 
ATOM     46  C   UNL A   1      42.898  28.393  31.428  1.00  0.00     0.029 A 
ATOM     47  C   UNL A   1      43.590  27.692  30.360  1.00  0.00     0.049 A 
ATOM     48  H   UNL A   1      42.619  26.054  29.326  1.00  0.00     0.167 HD
ATOM     49  C   UNL A   1      38.323  31.860  30.328  1.00  0.00     0.037 A 
ATOM     50  C   UNL A   1      44.595  28.227  29.596  1.00  0.00     0.037 A 
ATOM     51  C   UNL A   1      39.588  32.121  31.022  1.00  0.00     0.049 A 
ATOM     52  C   UNL A   1      44.594  29.745  29.563  1.00  0.00     0.074 A 
ATOM     53  C   UNL A   1      40.143  31.712  32.223  1.00  0.00     0.029 A 
ATOM     54  N   UNL A   1      40.638  32.606  30.266  1.00  0.00    -0.354 N 
ATOM     55  N   UNL A   1      43.630  30.490  30.034  1.00  0.00    -0.248 NA
ATOM     56  C   UNL A   1      45.648  30.542  28.937  1.00  0.00     0.031 C 
ATOM     57  C   UNL A   1      41.558  31.906  32.138  1.00  0.00     0.029 A 
ATOM     58  C   UNL A   1      41.851  32.453  30.900  1.00  0.00     0.049 A 
ATOM     59  H   UNL A   1      40.530  33.013  29.376  1.00  0.00     0.167 HD
ATOM     60  C   UNL A   1      43.898  31.808  29.791  1.00  0.00     0.074 A 
ATOM     61  C   UNL A   1      45.163  31.788  29.075  1.00  0.00     0.031 C 
ATOM     62  C   UNL A   1      43.061  32.817  30.176  1.00  0.00     0.037 A 
BRANCH  49  63
ATOM     63  C   UNL A   1      37.009  32.482  30.744  1.00  0.00     0.064 A 
ATOM     64  C   UNL A   1      36.367  33.389  29.872  1.00  0.00     0.173 A 
ATOM     65  C   UNL A   1      36.349  32.297  31.976  1.00  0.00     0.173 A 
ATOM     66  F   UNL A   1      36.836  33.626  28.639  1.00  0.00    -0.203 F 
ATOM     67  C   UNL A   1      35.217  34.097  30.229  1.00  0.00     0.198 A 
ATOM     68  C   UNL A   1      35.209  33.021  32.342  1.00  0.00     0.198 A 
ATOM     69  F   UNL A   1      36.743  31.392  32.871  1.00  0.00    -0.203 F 
ATOM     70  F   UNL A   1      34.670  34.956  29.358  1.00  0.00    -0.200 F 
ATOM     71  C   UNL A   1      34.646  33.927  31.472  1.00  0.00     0.200 A 
ATOM     72  F   UNL A   1      34.662  32.823  33.551  1.00  0.00    -0.200 F 
ATOM     73  F   UNL A   1      33.554  34.617  31.824  1.00  0.00    -0.200 F 
ENDBRANCH  49  63
BRANCH  50  74
ATOM     74  C   UNL A   1      44.936  27.327  28.449  1.00  0.00     0.064 A 
ATOM     75  C   UNL A   1      45.471  26.058  28.761  1.00  0.00     0.173 A 
ATOM     76  C   UNL A   1      44.312  27.476  27.205  1.00  0.00     0.173 A 
ATOM     77  F   UNL A   1      46.101  25.864  29.931  1.00  0.00    -0.203 F 
ATOM     78  C   UNL A   1      45.204  24.947  27.962  1.00  0.00     0.198 A 
ATOM     79  C   UNL A   1      44.091  26.365  26.385  1.00  0.00     0.198 A 
ATOM     80  F   UNL A   1      43.794  28.656  26.840  1.00  0.00    -0.203 F 
ATOM     81  F   UNL A   1      45.560  23.723  28.380  1.00  0.00    -0.200 F 
ATOM     82  C   UNL A   1      44.480  25.097  26.794  1.00  0.00     0.200 A 
ATOM     83  F   UNL A   1      43.392  26.507  25.249  1.00  0.00    -0.200 F 
ATOM     84  F   UNL A   1      44.114  24.020  26.086  1.00  0.00    -0.200 F 
ENDBRANCH  50  74
BRANCH  62  85
ATOM     85  C   UNL A   1      43.329  34.265  29.879  1.00  0.00     0.064 A 
ATOM     86  C   UNL A   1      43.494  35.217  30.895  1.00  0.00     0.173 A 
ATOM     87  C   UNL A   1      43.329  34.765  28.557  1.00  0.00     0.173 A 
ATOM     88  F   UNL A   1      43.428  34.859  32.186  1.00  0.00    -0.203 F 
ATOM     89  C   UNL A   1      43.715  36.565  30.605  1.00  0.00     0.198 A 
ATOM     90  C   UNL A   1      43.476  36.119  28.274  1.00  0.00     0.198 A 
ATOM     91  F   UNL A   1      43.223  33.954  27.494  1.00  0.00    -0.203 F 
ATOM     92  F   UNL A   1      43.950  37.426  31.603  1.00  0.00    -0.200 F 
ATOM     93  C   UNL A   1      43.695  37.017  29.296  1.00  0.00     0.200 A 
ATOM     94  F   UNL A   1      43.419  36.541  27.002  1.00  0.00    -0.200 F 
ATOM     95  F   UNL A   1      43.894  38.312  29.022  1.00  0.00    -0.200 F 
ENDBRANCH  62  85
ENDBRANCH  36  37
ENDBRANCH  28  31
ENDBRANCH  26  27
ENDBRANCH  25  26
ENDBRANCH  24  25
ENDBRANCH   3  24
TORSDOF 15
ENDMDL
MODEL 3
REMARK VINA RESULT:     -12.8      3.431      9.564
REMARK SMILES Cc1ccccc1CCNS(=O)(=O)c1ccc(C(=O)NCCCNC(=O)c2ccc(-c3c4nc(c(-c5c(F)c(F)c(F)c(F)c5F)c5ccc([nH]5)c(-c5c(F)c(F)c(F)c(F)c5F)c5nc(c(-c6c(F)c(F)c(F)c(F)c6F)c6ccc3[nH]6)C=C5)C=C4)cc2)o1
REMARK SMILES IDX 18 1 19 2 20 3 17 5 14 6 15 7 90 8 16 9 11 10 12 11 13 12
REMARK SMILES IDX 10 13 9 15 8 16 7 17 1 18 2 19 3 20 4 21 6 22 5 23 21 24
REMARK SMILES IDX 22 25 23 26 24 27 25 28 26 30 27 31 28 32 89 33 29 34 88 35
REMARK SMILES IDX 30 36 31 37 32 38 82 39 33 40 87 41 81 42 83 43 34 44 86 45
REMARK SMILES IDX 80 46 79 47 35 49 67 50 47 51 66 52 48 53 51 54 65 55 84 56
REMARK SMILES IDX 49 57 50 58 64 60 85 61 52 62 36 63 37 64 45 65 38 66 39 67
REMARK SMILES IDX 43 68 46 69 40 70 41 71 44 72 42 73 68 74 69 75 77 76 70 77
REMARK SMILES IDX 71 78 75 79 78 80 72 81 73 82 76 83 74 84 53 85 54 86 62 87
REMARK SMILES IDX 55 88 56 89 60 90 63 91 57 92 58 93 61 94 59 95
REMARK H PARENT 20 4 10 14 24 29 83 48 51 59
REMARK Flexibility Score: inf
ROOT
ATOM      1  C   UNL A   1      34.223  20.078  24.842  1.00  0.00     0.287 C 
ATOM      2  O   UNL A   1      33.931  18.917  24.549  1.00  0.00    -0.266 OA
ATOM      3  N   UNL A   1      35.477  20.273  25.375  1.00  0.00    -0.349 N 
ATOM      4  H   UNL A   1      36.004  19.453  25.520  1.00  0.00     0.163 HD
ENDROOT
BRANCH   1   5
ATOM      5  C   UNL A   1      33.317  21.195  24.636  1.00  0.00     0.193 A 
ATOM      6  C   UNL A   1      32.768  23.131  23.658  1.00  0.00     0.234 A 
ATOM      7  C   UNL A   1      31.741  22.799  24.525  1.00  0.00     0.065 A 
ATOM      8  O   UNL A   1      33.715  22.136  23.724  1.00  0.00    -0.438 OA
ATOM      9  C   UNL A   1      32.081  21.569  25.129  1.00  0.00     0.058 A 
BRANCH   6  10
ATOM     10  S   UNL A   1      32.959  24.515  22.554  1.00  0.00     0.273 S 
ATOM     11  O   UNL A   1      33.357  23.966  21.277  1.00  0.00    -0.204 OA
ATOM     12  O   UNL A   1      33.782  25.464  23.269  1.00  0.00    -0.204 OA
BRANCH  10  13
ATOM     13  N   UNL A   1      31.444  25.229  22.373  1.00  0.00    -0.208 NA
ATOM     14  H   UNL A   1      31.133  25.049  21.418  1.00  0.00     0.141 HD
BRANCH  13  15
ATOM     15  C   UNL A   1      31.346  26.693  22.605  1.00  0.00     0.104 C 
BRANCH  15  16
ATOM     16  C   UNL A   1      30.430  26.975  23.813  1.00  0.00     0.052 C 
BRANCH  16  17
ATOM     17  C   UNL A   1      31.122  27.796  24.888  1.00  0.00    -0.044 A 
ATOM     18  C   UNL A   1      31.491  25.820  26.503  1.00  0.00     0.044 C 
ATOM     19  C   UNL A   1      31.521  27.279  26.136  1.00  0.00    -0.048 A 
ATOM     20  C   UNL A   1      32.028  28.165  27.106  1.00  0.00     0.004 A 
ATOM     21  C   UNL A   1      32.133  29.533  26.857  1.00  0.00     0.000 A 
ATOM     22  C   UNL A   1      31.299  29.173  24.635  1.00  0.00     0.004 A 
ATOM     23  C   UNL A   1      31.777  30.037  25.615  1.00  0.00     0.000 A 
ENDBRANCH  16  17
ENDBRANCH  15  16
ENDBRANCH  13  15
ENDBRANCH  10  13
ENDBRANCH   6  10
ENDBRANCH   1   5
BRANCH   3  24
ATOM     24  C   UNL A   1      36.138  21.506  25.752  1.00  0.00     0.118 C 
BRANCH  24  25
ATOM     25  C   UNL A   1      37.652  21.362  25.661  1.00  0.00     0.042 C 
BRANCH  25  26
ATOM     26  C   UNL A   1      38.365  22.693  25.750  1.00  0.00     0.118 C 
BRANCH  26  27
ATOM     27  N   UNL A   1      39.453  22.678  26.720  1.00  0.00    -0.352 N 
ATOM     28  C   UNL A   1      40.172  23.712  27.285  1.00  0.00     0.251 C 
ATOM     29  H   UNL A   1      39.720  21.780  27.023  1.00  0.00     0.163 HD
ATOM     30  O   UNL A   1      41.183  23.453  27.934  1.00  0.00    -0.269 OA
BRANCH  28  31
ATOM     31  C   UNL A   1      39.612  25.085  27.311  1.00  0.00     0.039 A 
ATOM     32  C   UNL A   1      40.223  26.005  26.443  1.00  0.00     0.014 A 
ATOM     33  C   UNL A   1      38.907  25.531  28.417  1.00  0.00     0.014 A 
ATOM     34  C   UNL A   1      40.428  27.303  26.877  1.00  0.00     0.010 A 
ATOM     35  C   UNL A   1      39.270  26.743  28.936  1.00  0.00     0.010 A 
ATOM     36  C   UNL A   1      40.087  27.594  28.187  1.00  0.00    -0.014 A 
BRANCH  36  37
ATOM     37  C   UNL A   1      40.442  28.802  28.891  1.00  0.00     0.031 A 
ATOM     38  C   UNL A   1      39.408  29.842  28.962  1.00  0.00     0.074 A 
ATOM     39  C   UNL A   1      41.536  28.766  29.681  1.00  0.00     0.049 A 
ATOM     40  N   UNL A   1      39.574  30.999  29.484  1.00  0.00    -0.248 NA
ATOM     41  C   UNL A   1      38.068  29.646  28.414  1.00  0.00     0.031 C 
ATOM     42  C   UNL A   1      41.863  29.618  30.818  1.00  0.00     0.029 A 
ATOM     43  N   UNL A   1      42.707  28.019  29.469  1.00  0.00    -0.354 N 
ATOM     44  C   UNL A   1      38.332  31.578  29.618  1.00  0.00     0.074 A 
ATOM     45  C   UNL A   1      37.445  30.742  28.852  1.00  0.00     0.031 C 
ATOM     46  C   UNL A   1      43.195  29.603  30.999  1.00  0.00     0.029 A 
ATOM     47  C   UNL A   1      43.762  28.880  29.873  1.00  0.00     0.049 A 
ATOM     48  H   UNL A   1      42.781  27.101  29.119  1.00  0.00     0.167 HD
ATOM     49  C   UNL A   1      38.220  32.624  30.484  1.00  0.00     0.037 A 
ATOM     50  C   UNL A   1      44.578  29.431  28.921  1.00  0.00     0.037 A 
ATOM     51  C   UNL A   1      39.554  33.030  30.937  1.00  0.00     0.049 A 
ATOM     52  C   UNL A   1      44.441  30.939  28.797  1.00  0.00     0.074 A 
ATOM     53  C   UNL A   1      40.330  32.753  32.049  1.00  0.00     0.029 A 
ATOM     54  N   UNL A   1      40.419  33.536  29.987  1.00  0.00    -0.354 N 
ATOM     55  N   UNL A   1      43.506  31.641  29.380  1.00  0.00    -0.248 NA
ATOM     56  C   UNL A   1      45.305  31.764  27.956  1.00  0.00     0.031 C 
ATOM     57  C   UNL A   1      41.691  33.047  31.715  1.00  0.00     0.029 A 
ATOM     58  C   UNL A   1      41.728  33.522  30.415  1.00  0.00     0.049 A 
ATOM     59  H   UNL A   1      40.133  33.868  29.106  1.00  0.00     0.167 HD
ATOM     60  C   UNL A   1      43.615  32.954  29.016  1.00  0.00     0.074 A 
ATOM     61  C   UNL A   1      44.742  32.977  28.099  1.00  0.00     0.031 C 
ATOM     62  C   UNL A   1      42.768  33.922  29.477  1.00  0.00     0.037 A 
BRANCH  49  63
ATOM     63  C   UNL A   1      36.942  33.174  31.078  1.00  0.00     0.064 A 
ATOM     64  C   UNL A   1      36.653  32.932  32.440  1.00  0.00     0.173 A 
ATOM     65  C   UNL A   1      35.936  33.881  30.389  1.00  0.00     0.173 A 
ATOM     66  F   UNL A   1      37.535  32.325  33.245  1.00  0.00    -0.203 F 
ATOM     67  C   UNL A   1      35.443  33.299  33.033  1.00  0.00     0.198 A 
ATOM     68  C   UNL A   1      34.716  34.232  30.977  1.00  0.00     0.198 A 
ATOM     69  F   UNL A   1      36.088  34.301  29.133  1.00  0.00    -0.203 F 
ATOM     70  F   UNL A   1      35.228  33.022  34.326  1.00  0.00    -0.200 F 
ATOM     71  C   UNL A   1      34.465  33.934  32.297  1.00  0.00     0.200 A 
ATOM     72  F   UNL A   1      33.788  34.865  30.244  1.00  0.00    -0.200 F 
ATOM     73  F   UNL A   1      33.298  34.271  32.859  1.00  0.00    -0.200 F 
ENDBRANCH  49  63
BRANCH  50  74
ATOM     74  C   UNL A   1      44.804  28.478  27.788  1.00  0.00     0.064 A 
ATOM     75  C   UNL A   1      45.488  27.277  28.081  1.00  0.00     0.173 A 
ATOM     76  C   UNL A   1      43.977  28.490  26.659  1.00  0.00     0.173 A 
ATOM     77  F   UNL A   1      46.313  27.216  29.139  1.00  0.00    -0.203 F 
ATOM     78  C   UNL A   1      45.190  26.095  27.405  1.00  0.00     0.198 A 
ATOM     79  C   UNL A   1      43.721  27.310  25.955  1.00  0.00     0.198 A 
ATOM     80  F   UNL A   1      43.309  29.600  26.316  1.00  0.00    -0.203 F 
ATOM     81  F   UNL A   1      45.710  24.934  27.830  1.00  0.00    -0.200 F 
ATOM     82  C   UNL A   1      44.276  26.107  26.367  1.00  0.00     0.200 A 
ATOM     83  F   UNL A   1      42.837  27.317  24.946  1.00  0.00    -0.200 F 
ATOM     84  F   UNL A   1      43.892  24.957  25.796  1.00  0.00    -0.200 F 
ENDBRANCH  50  74
BRANCH  62  85
ATOM     85  C   UNL A   1      42.857  35.361  29.052  1.00  0.00     0.064 A 
ATOM     86  C   UNL A   1      42.543  35.775  27.750  1.00  0.00     0.173 A 
ATOM     87  C   UNL A   1      43.358  36.362  29.916  1.00  0.00     0.173 A 
ATOM     88  F   UNL A   1      42.136  34.888  26.829  1.00  0.00    -0.203 F 
ATOM     89  C   UNL A   1      42.656  37.110  27.360  1.00  0.00     0.198 A 
ATOM     90  C   UNL A   1      43.539  37.677  29.502  1.00  0.00     0.198 A 
ATOM     91  F   UNL A   1      43.655  36.106  31.198  1.00  0.00    -0.203 F 
ATOM     92  F   UNL A   1      42.268  37.477  26.132  1.00  0.00    -0.200 F 
ATOM     93  C   UNL A   1      43.165  38.058  28.232  1.00  0.00     0.200 A 
ATOM     94  F   UNL A   1      44.066  38.573  30.351  1.00  0.00    -0.200 F 
ATOM     95  F   UNL A   1      43.285  39.336  27.851  1.00  0.00    -0.200 F 
ENDBRANCH  62  85
ENDBRANCH  36  37
ENDBRANCH  28  31
ENDBRANCH  26  27
ENDBRANCH  25  26
ENDBRANCH  24  25
ENDBRANCH   3  24
TORSDOF 15
ENDMDL
