MODEL 1
REMARK VINA RESULT:     -13.6      0.000      0.000
REMARK SMILES Cc1nc(N2CCCC[C@H]2C(=O)NCCCNC(=O)c2ccc(-c3c4nc(c(-c5c(F)c(F)c(F)c(F)c5F)c5ccc([nH]5)c(-c5c(F)c(F)c(F)c(F)c5F)c5nc(c(-c6c(F)c(F)c(F)c(F)c6F)c6ccc3[nH]6)C=C5)C=C4)cc2)c2oc3ccccc3c2n1
REMARK SMILES IDX 15 1 14 2 13 3 11 4 12 5 10 7 5 8 6 9 7 10 9 11 8 12 4 13
REMARK SMILES IDX 1 14 2 15 3 16 92 17 91 18 83 19 90 20 84 21 85 22 89 23
REMARK SMILES IDX 86 24 88 25 87 26 16 27 17 28 18 29 19 31 20 32 21 33 82 34
REMARK SMILES IDX 22 35 81 36 23 37 24 38 25 39 75 40 26 41 80 42 74 43 76 44
REMARK SMILES IDX 27 45 79 46 73 47 72 48 28 50 60 51 40 52 59 53 41 54 44 55
REMARK SMILES IDX 58 56 77 57 42 58 43 59 57 61 78 62 45 63 29 64 30 65 38 66
REMARK SMILES IDX 31 67 32 68 36 69 39 70 33 71 34 72 37 73 35 74 61 75 62 76
REMARK SMILES IDX 70 77 63 78 64 79 68 80 71 81 65 82 66 83 69 84 67 85 46 86
REMARK SMILES IDX 47 87 55 88 48 89 49 90 53 91 56 92 50 93 51 94 54 95 52 96
REMARK H PARENT 13 6 17 30 76 49 44 60
REMARK Flexibility Score: inf
ROOT
ATOM      1  C   UNL A   1      36.323  23.403  26.495  1.00  0.00     0.042 C 
ENDROOT
BRANCH   1   2
ATOM      2  C   UNL A   1      35.177  22.395  26.439  1.00  0.00     0.117 C 
BRANCH   2   3
ATOM      3  N   UNL A   1      35.489  21.317  25.517  1.00  0.00    -0.354 N 
ATOM      4  C   UNL A   1      34.738  20.247  25.135  1.00  0.00     0.242 C 
ATOM      5  O   UNL A   1      35.343  19.312  24.601  1.00  0.00    -0.273 OA
ATOM      6  H   UNL A   1      36.382  21.368  25.105  1.00  0.00     0.163 HD
BRANCH   4   7
ATOM      7  C   UNL A   1      33.201  20.268  25.303  1.00  0.00     0.173 C 
ATOM      8  N   UNL A   1      32.637  21.399  24.557  1.00  0.00    -0.341 N 
ATOM      9  C   UNL A   1      32.701  21.368  23.102  1.00  0.00     0.119 C 
ATOM     10  C   UNL A   1      31.993  20.124  22.579  1.00  0.00     0.022 C 
ATOM     11  C   UNL A   1      32.542  18.974  24.776  1.00  0.00     0.035 C 
ATOM     12  C   UNL A   1      32.516  18.855  23.247  1.00  0.00     0.004 C 
BRANCH   8  13
ATOM     13  C   UNL A   1      31.955  22.391  25.218  1.00  0.00     0.176 A 
ATOM     14  C   UNL A   1      29.115  22.614  27.574  1.00  0.00     0.090 C 
ATOM     15  C   UNL A   1      30.236  23.052  26.680  1.00  0.00     0.128 A 
ATOM     16  N   UNL A   1      30.870  22.083  25.974  1.00  0.00    -0.212 NA
ATOM     17  N   UNL A   1      30.524  24.367  26.680  1.00  0.00    -0.229 NA
ATOM     18  C   UNL A   1      31.567  24.686  25.880  1.00  0.00     0.123 A 
ATOM     19  C   UNL A   1      32.287  23.741  25.171  1.00  0.00     0.196 A 
ATOM     20  C   UNL A   1      32.137  25.948  25.564  1.00  0.00     0.047 A 
ATOM     21  O   UNL A   1      33.269  24.341  24.439  1.00  0.00    -0.450 OA
ATOM     22  C   UNL A   1      33.165  25.678  24.666  1.00  0.00     0.137 A 
ATOM     23  C   UNL A   1      31.890  27.286  25.919  1.00  0.00     0.014 A 
ATOM     24  C   UNL A   1      33.966  26.653  24.079  1.00  0.00     0.048 A 
ATOM     25  C   UNL A   1      32.682  28.291  25.345  1.00  0.00     0.001 A 
ATOM     26  C   UNL A   1      33.698  27.978  24.437  1.00  0.00     0.004 A 
ENDBRANCH   8  13
ENDBRANCH   4   7
ENDBRANCH   2   3
ENDBRANCH   1   2
BRANCH   1  27
ATOM     27  C   UNL A   1      37.527  22.980  25.653  1.00  0.00     0.118 C 
BRANCH  27  28
ATOM     28  N   UNL A   1      38.511  22.207  26.396  1.00  0.00    -0.352 N 
ATOM     29  C   UNL A   1      39.599  22.643  27.117  1.00  0.00     0.251 C 
ATOM     30  H   UNL A   1      38.379  21.232  26.382  1.00  0.00     0.163 HD
ATOM     31  O   UNL A   1      40.392  21.851  27.601  1.00  0.00    -0.269 OA
BRANCH  29  32
ATOM     32  C   UNL A   1      39.826  24.094  27.252  1.00  0.00     0.039 A 
ATOM     33  C   UNL A   1      40.566  24.785  26.291  1.00  0.00     0.014 A 
ATOM     34  C   UNL A   1      39.318  24.752  28.376  1.00  0.00     0.014 A 
ATOM     35  C   UNL A   1      40.925  26.104  26.523  1.00  0.00     0.010 A 
ATOM     36  C   UNL A   1      39.636  26.092  28.584  1.00  0.00     0.010 A 
ATOM     37  C   UNL A   1      40.471  26.753  27.676  1.00  0.00    -0.014 A 
BRANCH  37  38
ATOM     38  C   UNL A   1      40.855  28.156  27.835  1.00  0.00     0.031 A 
ATOM     39  C   UNL A   1      39.721  29.116  27.883  1.00  0.00     0.074 A 
ATOM     40  C   UNL A   1      42.019  28.525  28.403  1.00  0.00     0.049 A 
ATOM     41  N   UNL A   1      39.069  29.371  28.978  1.00  0.00    -0.248 NA
ATOM     42  C   UNL A   1      39.107  29.664  26.676  1.00  0.00     0.031 C 
ATOM     43  C   UNL A   1      42.743  27.737  29.407  1.00  0.00     0.029 A 
ATOM     44  N   UNL A   1      42.659  29.739  28.388  1.00  0.00    -0.354 N 
ATOM     45  C   UNL A   1      37.922  30.042  28.614  1.00  0.00     0.074 A 
ATOM     46  C   UNL A   1      37.999  30.229  27.180  1.00  0.00     0.031 C 
ATOM     47  C   UNL A   1      43.599  28.558  30.054  1.00  0.00     0.029 A 
ATOM     48  C   UNL A   1      43.607  29.857  29.395  1.00  0.00     0.049 A 
ATOM     49  H   UNL A   1      42.466  30.448  27.734  1.00  0.00     0.167 HD
ATOM     50  C   UNL A   1      36.955  30.386  29.502  1.00  0.00     0.037 A 
ATOM     51  C   UNL A   1      43.992  31.028  29.966  1.00  0.00     0.037 A 
ATOM     52  C   UNL A   1      37.194  30.029  30.866  1.00  0.00     0.049 A 
ATOM     53  C   UNL A   1      42.731  31.401  30.713  1.00  0.00     0.074 A 
ATOM     54  C   UNL A   1      36.904  28.960  31.688  1.00  0.00     0.029 A 
ATOM     55  N   UNL A   1      37.984  30.856  31.629  1.00  0.00    -0.354 N 
ATOM     56  N   UNL A   1      42.347  30.913  31.864  1.00  0.00    -0.248 NA
ATOM     57  C   UNL A   1      41.682  32.110  29.974  1.00  0.00     0.031 C 
ATOM     58  C   UNL A   1      37.891  28.992  32.722  1.00  0.00     0.029 A 
ATOM     59  C   UNL A   1      38.755  30.044  32.425  1.00  0.00     0.049 A 
ATOM     60  H   UNL A   1      37.996  31.841  31.609  1.00  0.00     0.167 HD
ATOM     61  C   UNL A   1      40.953  31.020  31.863  1.00  0.00     0.074 A 
ATOM     62  C   UNL A   1      40.613  31.796  30.691  1.00  0.00     0.031 C 
ATOM     63  C   UNL A   1      40.147  30.311  32.702  1.00  0.00     0.037 A 
BRANCH  50  64
ATOM     64  C   UNL A   1      35.772  31.186  29.154  1.00  0.00     0.064 A 
ATOM     65  C   UNL A   1      34.799  30.612  28.326  1.00  0.00     0.173 A 
ATOM     66  C   UNL A   1      35.666  32.542  29.472  1.00  0.00     0.173 A 
ATOM     67  F   UNL A   1      34.882  29.312  27.997  1.00  0.00    -0.203 F 
ATOM     68  C   UNL A   1      33.770  31.380  27.798  1.00  0.00     0.198 A 
ATOM     69  C   UNL A   1      34.630  33.309  28.945  1.00  0.00     0.198 A 
ATOM     70  F   UNL A   1      36.583  33.127  30.257  1.00  0.00    -0.203 F 
ATOM     71  F   UNL A   1      32.872  30.816  26.978  1.00  0.00    -0.200 F 
ATOM     72  C   UNL A   1      33.691  32.731  28.101  1.00  0.00     0.200 A 
ATOM     73  F   UNL A   1      34.552  34.617  29.232  1.00  0.00    -0.200 F 
ATOM     74  F   UNL A   1      32.715  33.478  27.567  1.00  0.00    -0.200 F 
ENDBRANCH  50  64
BRANCH  51  75
ATOM     75  C   UNL A   1      44.704  31.959  29.025  1.00  0.00     0.064 A 
ATOM     76  C   UNL A   1      45.623  31.415  28.098  1.00  0.00     0.173 A 
ATOM     77  C   UNL A   1      44.531  33.348  28.972  1.00  0.00     0.173 A 
ATOM     78  F   UNL A   1      45.948  30.113  28.152  1.00  0.00    -0.203 F 
ATOM     79  C   UNL A   1      46.208  32.186  27.095  1.00  0.00     0.198 A 
ATOM     80  C   UNL A   1      45.099  34.117  27.953  1.00  0.00     0.198 A 
ATOM     81  F   UNL A   1      43.793  33.987  29.888  1.00  0.00    -0.203 F 
ATOM     82  F   UNL A   1      47.033  31.614  26.207  1.00  0.00    -0.200 F 
ATOM     83  C   UNL A   1      45.920  33.533  27.003  1.00  0.00     0.200 A 
ATOM     84  F   UNL A   1      44.825  35.427  27.880  1.00  0.00    -0.200 F 
ATOM     85  F   UNL A   1      46.431  34.269  26.007  1.00  0.00    -0.200 F 
ENDBRANCH  51  75
BRANCH  63  86
ATOM     86  C   UNL A   1      40.844  29.579  33.792  1.00  0.00     0.064 A 
ATOM     87  C   UNL A   1      41.219  28.241  33.608  1.00  0.00     0.173 A 
ATOM     88  C   UNL A   1      41.172  30.197  35.007  1.00  0.00     0.173 A 
ATOM     89  F   UNL A   1      40.932  27.610  32.458  1.00  0.00    -0.203 F 
ATOM     90  C   UNL A   1      41.918  27.555  34.596  1.00  0.00     0.198 A 
ATOM     91  C   UNL A   1      41.892  29.514  35.982  1.00  0.00     0.198 A 
ATOM     92  F   UNL A   1      40.819  31.470  35.247  1.00  0.00    -0.203 F 
ATOM     93  F   UNL A   1      42.276  26.279  34.397  1.00  0.00    -0.200 F 
ATOM     94  C   UNL A   1      42.265  28.196  35.775  1.00  0.00     0.200 A 
ATOM     95  F   UNL A   1      42.242  30.141  37.116  1.00  0.00    -0.200 F 
ATOM     96  F   UNL A   1      42.971  27.544  36.711  1.00  0.00    -0.200 F 
ENDBRANCH  63  86
ENDBRANCH  37  38
ENDBRANCH  29  32
ENDBRANCH  27  28
ENDBRANCH   1  27
TORSDOF 11
ENDMDL
MODEL 2
REMARK VINA RESULT:     -13.2      2.044      2.896
REMARK SMILES Cc1nc(N2CCCC[C@H]2C(=O)NCCCNC(=O)c2ccc(-c3c4nc(c(-c5c(F)c(F)c(F)c(F)c5F)c5ccc([nH]5)c(-c5c(F)c(F)c(F)c(F)c5F)c5nc(c(-c6c(F)c(F)c(F)c(F)c6F)c6ccc3[nH]6)C=C5)C=C4)cc2)c2oc3ccccc3c2n1
REMARK SMILES IDX 15 1 14 2 13 3 11 4 12 5 10 7 5 8 6 9 7 10 9 11 8 12 4 13
REMARK SMILES IDX 1 14 2 15 3 16 92 17 91 18 83 19 90 20 84 21 85 22 89 23
REMARK SMILES IDX 86 24 88 25 87 26 16 27 17 28 18 29 19 31 20 32 21 33 82 34
REMARK SMILES IDX 22 35 81 36 23 37 24 38 25 39 75 40 26 41 80 42 74 43 76 44
REMARK SMILES IDX 27 45 79 46 73 47 72 48 28 50 60 51 40 52 59 53 41 54 44 55
REMARK SMILES IDX 58 56 77 57 42 58 43 59 57 61 78 62 45 63 29 64 30 65 38 66
REMARK SMILES IDX 31 67 32 68 36 69 39 70 33 71 34 72 37 73 35 74 61 75 62 76
REMARK SMILES IDX 70 77 63 78 64 79 68 80 71 81 65 82 66 83 69 84 67 85 46 86
REMARK SMILES IDX 47 87 55 88 48 89 49 90 53 91 56 92 50 93 51 94 54 95 52 96
REMARK H PARENT 13 6 17 30 76 49 44 60
REMARK Flexibility Score: inf
ROOT
ATOM      1  C   UNL A   1      37.759  21.317  25.532  1.00  0.00     0.042 C 
ENDROOT
BRANCH   1   2
ATOM      2  C   UNL A   1      36.967  22.085  24.476  1.00  0.00     0.117 C 
BRANCH   2   3
ATOM      3  N   UNL A   1      35.678  21.458  24.248  1.00  0.00    -0.354 N 
ATOM      4  C   UNL A   1      34.458  21.747  24.780  1.00  0.00     0.242 C 
ATOM      5  O   UNL A   1      33.591  20.872  24.678  1.00  0.00    -0.273 OA
ATOM      6  H   UNL A   1      35.687  20.708  23.610  1.00  0.00     0.163 HD
BRANCH   4   7
ATOM      7  C   UNL A   1      34.181  23.136  25.400  1.00  0.00     0.173 C 
ATOM      8  N   UNL A   1      32.830  23.579  25.038  1.00  0.00    -0.341 N 
ATOM      9  C   UNL A   1      31.694  22.858  25.596  1.00  0.00     0.119 C 
ATOM     10  C   UNL A   1      31.755  22.892  27.118  1.00  0.00     0.022 C 
ATOM     11  C   UNL A   1      34.279  23.114  26.941  1.00  0.00     0.035 C 
ATOM     12  C   UNL A   1      33.107  22.412  27.639  1.00  0.00     0.004 C 
BRANCH   8  13
ATOM     13  C   UNL A   1      32.652  24.723  24.299  1.00  0.00     0.176 A 
ATOM     14  C   UNL A   1      32.550  25.643  20.720  1.00  0.00     0.090 C 
ATOM     15  C   UNL A   1      32.517  25.796  22.211  1.00  0.00     0.128 A 
ATOM     16  N   UNL A   1      32.758  24.682  22.945  1.00  0.00    -0.212 NA
ATOM     17  N   UNL A   1      32.230  27.024  22.681  1.00  0.00    -0.229 NA
ATOM     18  C   UNL A   1      32.183  27.082  24.032  1.00  0.00     0.123 A 
ATOM     19  C   UNL A   1      32.370  25.974  24.839  1.00  0.00     0.196 A 
ATOM     20  C   UNL A   1      31.972  28.183  24.903  1.00  0.00     0.047 A 
ATOM     21  O   UNL A   1      32.284  26.322  26.155  1.00  0.00    -0.450 OA
ATOM     22  C   UNL A   1      32.060  27.663  26.190  1.00  0.00     0.137 A 
ATOM     23  C   UNL A   1      31.735  29.561  24.752  1.00  0.00     0.014 A 
ATOM     24  C   UNL A   1      31.941  28.423  27.351  1.00  0.00     0.048 A 
ATOM     25  C   UNL A   1      31.610  30.353  25.903  1.00  0.00     0.001 A 
ATOM     26  C   UNL A   1      31.717  29.792  27.179  1.00  0.00     0.004 A 
ENDBRANCH   8  13
ENDBRANCH   4   7
ENDBRANCH   2   3
ENDBRANCH   1   2
BRANCH   1  27
ATOM     27  C   UNL A   1      38.946  22.113  26.078  1.00  0.00     0.118 C 
BRANCH  27  28
ATOM     28  N   UNL A   1      40.138  21.305  26.285  1.00  0.00    -0.352 N 
ATOM     29  C   UNL A   1      41.423  21.704  26.575  1.00  0.00     0.251 C 
ATOM     30  H   UNL A   1      40.007  20.333  26.206  1.00  0.00     0.163 HD
ATOM     31  O   UNL A   1      42.339  20.898  26.616  1.00  0.00    -0.269 OA
BRANCH  29  32
ATOM     32  C   UNL A   1      41.691  23.139  26.785  1.00  0.00     0.039 A 
ATOM     33  C   UNL A   1      42.336  23.888  25.799  1.00  0.00     0.014 A 
ATOM     34  C   UNL A   1      41.319  23.722  28.000  1.00  0.00     0.014 A 
ATOM     35  C   UNL A   1      42.743  25.183  26.082  1.00  0.00     0.010 A 
ATOM     36  C   UNL A   1      41.682  25.040  28.265  1.00  0.00     0.010 A 
ATOM     37  C   UNL A   1      42.427  25.754  27.319  1.00  0.00    -0.014 A 
BRANCH  37  38
ATOM     38  C   UNL A   1      42.852  27.138  27.533  1.00  0.00     0.031 A 
ATOM     39  C   UNL A   1      41.748  28.129  27.616  1.00  0.00     0.074 A 
ATOM     40  C   UNL A   1      44.025  27.450  28.114  1.00  0.00     0.049 A 
ATOM     41  N   UNL A   1      41.101  28.360  28.720  1.00  0.00    -0.248 NA
ATOM     42  C   UNL A   1      41.151  28.741  26.431  1.00  0.00     0.031 C 
ATOM     43  C   UNL A   1      44.725  26.603  29.088  1.00  0.00     0.029 A 
ATOM     44  N   UNL A   1      44.701  28.644  28.146  1.00  0.00    -0.354 N 
ATOM     45  C   UNL A   1      39.975  29.079  28.381  1.00  0.00     0.074 A 
ATOM     46  C   UNL A   1      40.061  29.318  26.956  1.00  0.00     0.031 C 
ATOM     47  C   UNL A   1      45.603  27.372  29.767  1.00  0.00     0.029 A 
ATOM     48  C   UNL A   1      45.650  28.695  29.158  1.00  0.00     0.049 A 
ATOM     49  H   UNL A   1      44.531  29.384  27.520  1.00  0.00     0.167 HD
ATOM     50  C   UNL A   1      39.017  29.417  29.281  1.00  0.00     0.037 A 
ATOM     51  C   UNL A   1      46.069  29.831  29.774  1.00  0.00     0.037 A 
ATOM     52  C   UNL A   1      39.243  29.001  30.631  1.00  0.00     0.049 A 
ATOM     53  C   UNL A   1      44.819  30.213  30.534  1.00  0.00     0.074 A 
ATOM     54  C   UNL A   1      38.920  27.911  31.411  1.00  0.00     0.029 A 
ATOM     55  N   UNL A   1      40.056  29.775  31.426  1.00  0.00    -0.354 N 
ATOM     56  N   UNL A   1      44.419  29.692  31.665  1.00  0.00    -0.248 NA
ATOM     57  C   UNL A   1      43.793  30.981  29.822  1.00  0.00     0.031 C 
ATOM     58  C   UNL A   1      39.906  27.873  32.446  1.00  0.00     0.029 A 
ATOM     59  C   UNL A   1      40.801  28.910  32.190  1.00  0.00     0.049 A 
ATOM     60  H   UNL A   1      40.097  30.758  31.444  1.00  0.00     0.167 HD
ATOM     61  C   UNL A   1      43.029  29.840  31.667  1.00  0.00     0.074 A 
ATOM     62  C   UNL A   1      42.713  30.671  30.526  1.00  0.00     0.031 C 
ATOM     63  C   UNL A   1      42.200  29.125  32.478  1.00  0.00     0.037 A 
BRANCH  50  64
ATOM     64  C   UNL A   1      37.859  30.265  28.964  1.00  0.00     0.064 A 
ATOM     65  C   UNL A   1      36.811  29.710  28.219  1.00  0.00     0.173 A 
ATOM     66  C   UNL A   1      37.843  31.637  29.224  1.00  0.00     0.173 A 
ATOM     67  F   UNL A   1      36.807  28.394  27.947  1.00  0.00    -0.203 F 
ATOM     68  C   UNL A   1      35.794  30.509  27.715  1.00  0.00     0.198 A 
ATOM     69  C   UNL A   1      36.819  32.436  28.721  1.00  0.00     0.198 A 
ATOM     70  F   UNL A   1      38.833  32.205  29.928  1.00  0.00    -0.203 F 
ATOM     71  F   UNL A   1      34.822  29.960  26.974  1.00  0.00    -0.200 F 
ATOM     72  C   UNL A   1      35.803  31.874  27.958  1.00  0.00     0.200 A 
ATOM     73  F   UNL A   1      36.826  33.757  28.951  1.00  0.00    -0.200 F 
ATOM     74  F   UNL A   1      34.837  32.650  27.446  1.00  0.00    -0.200 F 
ENDBRANCH  50  64
BRANCH  51  75
ATOM     75  C   UNL A   1      46.810  30.776  28.870  1.00  0.00     0.064 A 
ATOM     76  C   UNL A   1      48.209  30.913  29.031  1.00  0.00     0.173 A 
ATOM     77  C   UNL A   1      46.233  31.545  27.851  1.00  0.00     0.173 A 
ATOM     78  F   UNL A   1      48.833  30.312  30.056  1.00  0.00    -0.203 F 
ATOM     79  C   UNL A   1      48.989  31.648  28.140  1.00  0.00     0.198 A 
ATOM     80  C   UNL A   1      47.017  32.264  26.944  1.00  0.00     0.198 A 
ATOM     81  F   UNL A   1      44.905  31.602  27.697  1.00  0.00    -0.203 F 
ATOM     82  F   UNL A   1      50.318  31.705  28.303  1.00  0.00    -0.200 F 
ATOM     83  C   UNL A   1      48.394  32.298  27.076  1.00  0.00     0.200 A 
ATOM     84  F   UNL A   1      46.430  32.903  25.923  1.00  0.00    -0.200 F 
ATOM     85  F   UNL A   1      49.143  32.957  26.181  1.00  0.00    -0.200 F 
ENDBRANCH  51  75
BRANCH  63  86
ATOM     86  C   UNL A   1      42.873  28.330  33.540  1.00  0.00     0.064 A 
ATOM     87  C   UNL A   1      43.403  27.068  33.239  1.00  0.00     0.173 A 
ATOM     88  C   UNL A   1      43.026  28.819  34.845  1.00  0.00     0.173 A 
ATOM     89  F   UNL A   1      43.286  26.563  32.001  1.00  0.00    -0.203 F 
ATOM     90  C   UNL A   1      44.082  26.333  34.206  1.00  0.00     0.198 A 
ATOM     91  C   UNL A   1      43.727  28.091  35.801  1.00  0.00     0.198 A 
ATOM     92  F   UNL A   1      42.520  30.013  35.195  1.00  0.00    -0.203 F 
ATOM     93  F   UNL A   1      44.590  25.132  33.897  1.00  0.00    -0.200 F 
ATOM     94  C   UNL A   1      44.255  26.850  35.480  1.00  0.00     0.200 A 
ATOM     95  F   UNL A   1      43.907  28.600  37.029  1.00  0.00    -0.200 F 
ATOM     96  F   UNL A   1      44.941  26.156  36.400  1.00  0.00    -0.200 F 
ENDBRANCH  63  86
ENDBRANCH  37  38
ENDBRANCH  29  32
ENDBRANCH  27  28
ENDBRANCH   1  27
TORSDOF 11
ENDMDL
MODEL 3
REMARK VINA RESULT:     -13.2      1.746      2.674
REMARK SMILES Cc1nc(N2CCCC[C@H]2C(=O)NCCCNC(=O)c2ccc(-c3c4nc(c(-c5c(F)c(F)c(F)c(F)c5F)c5ccc([nH]5)c(-c5c(F)c(F)c(F)c(F)c5F)c5nc(c(-c6c(F)c(F)c(F)c(F)c6F)c6ccc3[nH]6)C=C5)C=C4)cc2)c2oc3ccccc3c2n1
REMARK SMILES IDX 15 1 14 2 13 3 11 4 12 5 10 7 5 8 6 9 7 10 9 11 8 12 4 13
REMARK SMILES IDX 1 14 2 15 3 16 92 17 91 18 83 19 90 20 84 21 85 22 89 23
REMARK SMILES IDX 86 24 88 25 87 26 16 27 17 28 18 29 19 31 20 32 21 33 82 34
REMARK SMILES IDX 22 35 81 36 23 37 24 38 25 39 75 40 26 41 80 42 74 43 76 44
REMARK SMILES IDX 27 45 79 46 73 47 72 48 28 50 60 51 40 52 59 53 41 54 44 55
REMARK SMILES IDX 58 56 77 57 42 58 43 59 57 61 78 62 45 63 29 64 30 65 38 66
REMARK SMILES IDX 31 67 32 68 36 69 39 70 33 71 34 72 37 73 35 74 61 75 62 76
REMARK SMILES IDX 70 77 63 78 64 79 68 80 71 81 65 82 66 83 69 84 67 85 46 86
REMARK SMILES IDX 47 87 55 88 48 89 49 90 53 91 56 92 50 93 51 94 54 95 52 96
REMARK H PARENT 13 6 17 30 76 49 44 60
REMARK Flexibility Score: inf
ROOT
ATOM      1  C   UNL A   1      38.631  21.930  25.717  1.00  0.00     0.042 C 
ENDROOT
BRANCH   1   2
ATOM      2  C   UNL A   1      37.840  23.235  25.749  1.00  0.00     0.117 C 
BRANCH   2   3
ATOM      3  N   UNL A   1      37.088  23.409  24.520  1.00  0.00    -0.354 N 
ATOM      4  C   UNL A   1      35.856  22.941  24.174  1.00  0.00     0.242 C 
ATOM      5  O   UNL A   1      35.582  22.951  22.969  1.00  0.00    -0.273 OA
ATOM      6  H   UNL A   1      37.538  23.948  23.830  1.00  0.00     0.163 HD
BRANCH   4   7
ATOM      7  C   UNL A   1      34.848  22.506  25.262  1.00  0.00     0.173 C 
ATOM      8  N   UNL A   1      33.491  22.495  24.704  1.00  0.00    -0.341 N 
ATOM      9  C   UNL A   1      33.168  21.498  23.693  1.00  0.00     0.119 C 
ATOM     10  C   UNL A   1      33.406  20.100  24.249  1.00  0.00     0.022 C 
ATOM     11  C   UNL A   1      35.153  21.092  25.804  1.00  0.00     0.035 C 
ATOM     12  C   UNL A   1      34.810  19.956  24.832  1.00  0.00     0.004 C 
BRANCH   8  13
ATOM     13  C   UNL A   1      32.523  23.321  25.223  1.00  0.00     0.176 A 
ATOM     14  C   UNL A   1      29.456  22.953  27.253  1.00  0.00     0.090 C 
ATOM     15  C   UNL A   1      30.541  23.610  26.452  1.00  0.00     0.128 A 
ATOM     16  N   UNL A   1      31.460  22.793  25.882  1.00  0.00    -0.212 NA
ATOM     17  N   UNL A   1      30.511  24.955  26.393  1.00  0.00    -0.229 NA
ATOM     18  C   UNL A   1      31.537  25.481  25.686  1.00  0.00     0.123 A 
ATOM     19  C   UNL A   1      32.535  24.708  25.120  1.00  0.00     0.196 A 
ATOM     20  C   UNL A   1      31.829  26.829  25.346  1.00  0.00     0.047 A 
ATOM     21  O   UNL A   1      33.428  25.495  24.454  1.00  0.00    -0.450 OA
ATOM     22  C   UNL A   1      32.988  26.777  24.579  1.00  0.00     0.137 A 
ATOM     23  C   UNL A   1      31.238  28.082  25.582  1.00  0.00     0.014 A 
ATOM     24  C   UNL A   1      33.603  27.890  24.013  1.00  0.00     0.048 A 
ATOM     25  C   UNL A   1      31.834  29.223  25.026  1.00  0.00     0.001 A 
ATOM     26  C   UNL A   1      32.993  29.126  24.252  1.00  0.00     0.004 A 
ENDBRANCH   8  13
ENDBRANCH   4   7
ENDBRANCH   2   3
ENDBRANCH   1   2
BRANCH   1  27
ATOM     27  C   UNL A   1      39.671  21.837  26.835  1.00  0.00     0.118 C 
BRANCH  27  28
ATOM     28  N   UNL A   1      40.945  21.290  26.396  1.00  0.00    -0.352 N 
ATOM     29  C   UNL A   1      42.135  21.937  26.151  1.00  0.00     0.251 C 
ATOM     30  H   UNL A   1      40.959  20.316  26.254  1.00  0.00     0.163 HD
ATOM     31  O   UNL A   1      43.092  21.340  25.684  1.00  0.00    -0.269 OA
BRANCH  29  32
ATOM     32  C   UNL A   1      42.222  23.386  26.412  1.00  0.00     0.039 A 
ATOM     33  C   UNL A   1      42.610  24.264  25.397  1.00  0.00     0.014 A 
ATOM     34  C   UNL A   1      41.943  23.856  27.698  1.00  0.00     0.014 A 
ATOM     35  C   UNL A   1      42.864  25.592  25.704  1.00  0.00     0.010 A 
ATOM     36  C   UNL A   1      42.148  25.201  27.994  1.00  0.00     0.010 A 
ATOM     37  C   UNL A   1      42.645  26.057  27.005  1.00  0.00    -0.014 A 
BRANCH  37  38
ATOM     38  C   UNL A   1      42.894  27.479  27.245  1.00  0.00     0.031 A 
ATOM     39  C   UNL A   1      41.680  28.335  27.263  1.00  0.00     0.074 A 
ATOM     40  C   UNL A   1      43.987  27.919  27.897  1.00  0.00     0.049 A 
ATOM     41  N   UNL A   1      40.946  28.481  28.326  1.00  0.00    -0.248 NA
ATOM     42  C   UNL A   1      41.089  28.884  26.045  1.00  0.00     0.031 C 
ATOM     43  C   UNL A   1      44.720  27.150  28.910  1.00  0.00     0.029 A 
ATOM     44  N   UNL A   1      44.517  29.182  27.971  1.00  0.00    -0.354 N 
ATOM     45  C   UNL A   1      39.767  29.069  27.922  1.00  0.00     0.074 A 
ATOM     46  C   UNL A   1      39.909  29.328  26.505  1.00  0.00     0.031 C 
ATOM     47  C   UNL A   1      45.461  28.009  29.641  1.00  0.00     0.029 A 
ATOM     48  C   UNL A   1      45.392  29.334  29.038  1.00  0.00     0.049 A 
ATOM     49  H   UNL A   1      44.300  29.903  27.337  1.00  0.00     0.167 HD
ATOM     50  C   UNL A   1      38.724  29.287  28.763  1.00  0.00     0.037 A 
ATOM     51  C   UNL A   1      45.640  30.506  29.680  1.00  0.00     0.037 A 
ATOM     52  C   UNL A   1      38.916  28.888  30.123  1.00  0.00     0.049 A 
ATOM     53  C   UNL A   1      44.311  30.735  30.364  1.00  0.00     0.074 A 
ATOM     54  C   UNL A   1      38.675  27.761  30.881  1.00  0.00     0.029 A 
ATOM     55  N   UNL A   1      39.586  29.743  30.967  1.00  0.00    -0.354 N 
ATOM     56  N   UNL A   1      43.906  30.162  31.469  1.00  0.00    -0.248 NA
ATOM     57  C   UNL A   1      43.247  31.385  29.592  1.00  0.00     0.031 C 
ATOM     58  C   UNL A   1      39.595  27.829  31.973  1.00  0.00     0.029 A 
ATOM     59  C   UNL A   1      40.378  28.964  31.773  1.00  0.00     0.049 A 
ATOM     60  H   UNL A   1      39.511  30.725  30.989  1.00  0.00     0.167 HD
ATOM     61  C   UNL A   1      42.511  30.149  31.387  1.00  0.00     0.074 A 
ATOM     62  C   UNL A   1      42.170  30.948  30.230  1.00  0.00     0.031 C 
ATOM     63  C   UNL A   1      41.723  29.335  32.146  1.00  0.00     0.037 A 
BRANCH  50  64
ATOM     64  C   UNL A   1      37.497  29.998  28.378  1.00  0.00     0.064 A 
ATOM     65  C   UNL A   1      37.404  31.366  28.659  1.00  0.00     0.173 A 
ATOM     66  C   UNL A   1      36.364  29.332  27.905  1.00  0.00     0.173 A 
ATOM     67  F   UNL A   1      38.476  32.029  29.124  1.00  0.00    -0.203 F 
ATOM     68  C   UNL A   1      36.201  32.044  28.509  1.00  0.00     0.198 A 
ATOM     69  C   UNL A   1      35.160  30.014  27.751  1.00  0.00     0.198 A 
ATOM     70  F   UNL A   1      36.414  28.020  27.631  1.00  0.00    -0.203 F 
ATOM     71  F   UNL A   1      36.127  33.345  28.820  1.00  0.00    -0.200 F 
ATOM     72  C   UNL A   1      35.077  31.366  28.064  1.00  0.00     0.200 A 
ATOM     73  F   UNL A   1      34.070  29.361  27.324  1.00  0.00    -0.200 F 
ATOM     74  F   UNL A   1      33.909  32.013  27.948  1.00  0.00    -0.200 F 
ENDBRANCH  50  64
BRANCH  51  75
ATOM     75  C   UNL A   1      46.319  31.537  28.824  1.00  0.00     0.064 A 
ATOM     76  C   UNL A   1      47.646  31.912  29.137  1.00  0.00     0.173 A 
ATOM     77  C   UNL A   1      45.752  32.170  27.710  1.00  0.00     0.173 A 
ATOM     78  F   UNL A   1      48.233  31.453  30.254  1.00  0.00    -0.203 F 
ATOM     79  C   UNL A   1      48.397  32.744  28.308  1.00  0.00     0.198 A 
ATOM     80  C   UNL A   1      46.510  32.985  26.866  1.00  0.00     0.198 A 
ATOM     81  F   UNL A   1      44.460  31.997  27.402  1.00  0.00    -0.203 F 
ATOM     82  F   UNL A   1      49.669  33.029  28.621  1.00  0.00    -0.200 F 
ATOM     83  C   UNL A   1      47.837  33.255  27.153  1.00  0.00     0.200 A 
ATOM     84  F   UNL A   1      45.955  33.488  25.755  1.00  0.00    -0.200 F 
ATOM     85  F   UNL A   1      48.570  34.007  26.321  1.00  0.00    -0.200 F 
ENDBRANCH  51  75
BRANCH  63  86
ATOM     86  C   UNL A   1      42.419  28.615  33.244  1.00  0.00     0.064 A 
ATOM     87  C   UNL A   1      42.424  29.150  34.539  1.00  0.00     0.173 A 
ATOM     88  C   UNL A   1      43.056  27.383  33.034  1.00  0.00     0.173 A 
ATOM     89  F   UNL A   1      41.821  30.323  34.789  1.00  0.00    -0.203 F 
ATOM     90  C   UNL A   1      43.025  28.465  35.590  1.00  0.00     0.198 A 
ATOM     91  C   UNL A   1      43.634  26.690  34.093  1.00  0.00     0.198 A 
ATOM     92  F   UNL A   1      43.101  26.833  31.810  1.00  0.00    -0.203 F 
ATOM     93  F   UNL A   1      43.011  28.989  36.824  1.00  0.00    -0.200 F 
ATOM     94  C   UNL A   1      43.617  27.231  35.369  1.00  0.00     0.200 A 
ATOM     95  F   UNL A   1      44.192  25.489  33.881  1.00  0.00    -0.200 F 
ATOM     96  F   UNL A   1      44.164  26.555  36.390  1.00  0.00    -0.200 F 
ENDBRANCH  63  86
ENDBRANCH  37  38
ENDBRANCH  29  32
ENDBRANCH  27  28
ENDBRANCH   1  27
TORSDOF 11
ENDMDL
