MODEL 1
REMARK VINA RESULT:     -13.0      0.000      0.000
REMARK SMILES CN(C)c1cc(C(F)(F)F)cc(-c2cccc(/C=C/C(=O)NCCCNC(=O)c3ccc(-c4c5nc(c(-c6c(F)c(F)c(F)c(F)c6F)c6ccc([nH]6)c(-c6c(F)c(F)c(F)c(F)c6F)c6nc(c(-c7c(F)c(F)c(F)c(F)c7F)c7ccc4[nH]7)C=C6)C=C5)cc3)c2)n1
REMARK SMILES IDX 23 1 22 2 20 3 21 4 19 6 18 7 17 8 13 9 14 10 92 11 15 12
REMARK SMILES IDX 16 13 12 14 4 15 5 16 93 17 6 18 11 19 2 20 1 21 3 22 7 23
REMARK SMILES IDX 8 24 9 25 10 26 24 27 25 28 26 29 27 30 28 32 29 33 30 34
REMARK SMILES IDX 91 35 31 36 90 37 32 38 33 39 34 40 84 41 35 42 89 43 83 44
REMARK SMILES IDX 85 45 36 46 88 47 82 48 81 49 37 51 69 52 49 53 68 54 50 55
REMARK SMILES IDX 53 56 67 57 86 58 51 59 52 60 66 62 87 63 54 64 38 65 39 66
REMARK SMILES IDX 47 67 40 68 41 69 45 70 48 71 42 72 43 73 46 74 44 75 70 76
REMARK SMILES IDX 71 77 79 78 72 79 73 80 77 81 80 82 74 83 75 84 78 85 76 86
REMARK SMILES IDX 55 87 56 88 64 89 57 90 58 91 62 92 65 93 59 94 60 95 63 96
REMARK SMILES IDX 61 97
REMARK H PARENT 22 5 26 31 85 50 53 61
REMARK Flexibility Score: inf
ROOT
ATOM      1  C   UNL A   1      31.826  30.680  26.854  1.00  0.00     0.118 C 
ENDROOT
BRANCH   1   2
ATOM      2  N   UNL A   1      33.040  30.363  27.588  1.00  0.00    -0.352 N 
ATOM      3  C   UNL A   1      34.034  29.475  27.316  1.00  0.00     0.244 C 
ATOM      4  O   UNL A   1      35.038  29.453  28.023  1.00  0.00    -0.270 OA
ATOM      5  H   UNL A   1      33.163  30.875  28.420  1.00  0.00     0.163 HD
BRANCH   3   6
ATOM      6  C   UNL A   1      33.959  28.592  26.132  1.00  0.00     0.072 C 
ATOM      7  C   UNL A   1      33.807  27.263  26.208  1.00  0.00     0.014 C 
BRANCH   7   8
ATOM      8  C   UNL A   1      33.741  26.363  25.050  1.00  0.00    -0.025 A 
ATOM      9  C   UNL A   1      34.132  24.116  24.159  1.00  0.00     0.001 A 
ATOM     10  C   UNL A   1      33.831  24.596  22.877  1.00  0.00     0.010 A 
ATOM     11  C   UNL A   1      34.081  25.015  25.237  1.00  0.00     0.018 A 
ATOM     12  C   UNL A   1      33.477  25.933  22.680  1.00  0.00     0.001 A 
ATOM     13  C   UNL A   1      33.438  26.814  23.761  1.00  0.00     0.008 A 
BRANCH   9  14
ATOM     14  C   UNL A   1      34.540  22.725  24.369  1.00  0.00     0.073 A 
ATOM     15  C   UNL A   1      36.344  21.298  24.796  1.00  0.00     0.129 A 
ATOM     16  C   UNL A   1      35.479  20.208  24.839  1.00  0.00     0.060 A 
ATOM     17  N   UNL A   1      35.866  22.539  24.565  1.00  0.00    -0.231 NA
ATOM     18  C   UNL A   1      34.103  20.392  24.659  1.00  0.00     0.061 A 
ATOM     19  C   UNL A   1      33.629  21.681  24.411  1.00  0.00     0.042 A 
BRANCH  15  20
ATOM     20  N   UNL A   1      37.705  21.139  25.037  1.00  0.00    -0.363 N 
ATOM     21  C   UNL A   1      38.377  22.131  25.859  1.00  0.00     0.144 C 
ATOM     22  C   UNL A   1      38.185  19.766  25.091  1.00  0.00     0.144 C 
ENDBRANCH  15  20
BRANCH  18  23
ATOM     23  C   UNL A   1      33.143  19.242  24.776  1.00  0.00     0.416 C 
ATOM     24  F   UNL A   1      31.897  19.566  24.334  1.00  0.00    -0.166 F 
ATOM     25  F   UNL A   1      33.529  18.161  24.044  1.00  0.00    -0.166 F 
ATOM     26  F   UNL A   1      32.981  18.792  26.050  1.00  0.00    -0.166 F 
ENDBRANCH  18  23
ENDBRANCH   9  14
ENDBRANCH   7   8
ENDBRANCH   3   6
ENDBRANCH   1   2
BRANCH   1  27
ATOM     27  C   UNL A   1      31.532  32.178  26.875  1.00  0.00     0.042 C 
BRANCH  27  28
ATOM     28  C   UNL A   1      32.782  33.044  27.014  1.00  0.00     0.118 C 
BRANCH  28  29
ATOM     29  N   UNL A   1      32.492  34.333  27.625  1.00  0.00    -0.352 N 
ATOM     30  C   UNL A   1      33.009  34.913  28.757  1.00  0.00     0.251 C 
ATOM     31  H   UNL A   1      31.820  34.874  27.152  1.00  0.00     0.163 HD
ATOM     32  O   UNL A   1      32.475  35.915  29.221  1.00  0.00    -0.269 OA
BRANCH  30  33
ATOM     33  C   UNL A   1      34.198  34.340  29.426  1.00  0.00     0.039 A 
ATOM     34  C   UNL A   1      34.013  33.565  30.576  1.00  0.00     0.014 A 
ATOM     35  C   UNL A   1      35.489  34.607  28.965  1.00  0.00     0.014 A 
ATOM     36  C   UNL A   1      35.117  33.017  31.232  1.00  0.00     0.010 A 
ATOM     37  C   UNL A   1      36.584  34.005  29.579  1.00  0.00     0.010 A 
ATOM     38  C   UNL A   1      36.411  33.210  30.722  1.00  0.00    -0.014 A 
BRANCH  38  39
ATOM     39  C   UNL A   1      37.598  32.600  31.372  1.00  0.00     0.031 A 
ATOM     40  C   UNL A   1      38.315  31.457  30.711  1.00  0.00     0.074 A 
ATOM     41  C   UNL A   1      37.982  33.026  32.590  1.00  0.00     0.049 A 
ATOM     42  N   UNL A   1      39.300  30.722  31.163  1.00  0.00    -0.248 NA
ATOM     43  C   UNL A   1      37.845  31.069  29.372  1.00  0.00     0.031 C 
ATOM     44  C   UNL A   1      37.345  34.102  33.349  1.00  0.00     0.029 A 
ATOM     45  N   UNL A   1      38.992  32.592  33.413  1.00  0.00    -0.354 N 
ATOM     46  C   UNL A   1      39.548  29.774  30.179  1.00  0.00     0.074 A 
ATOM     47  C   UNL A   1      38.584  30.000  29.123  1.00  0.00     0.031 C 
ATOM     48  C   UNL A   1      37.987  34.256  34.518  1.00  0.00     0.029 A 
ATOM     49  C   UNL A   1      39.054  33.264  34.610  1.00  0.00     0.049 A 
ATOM     50  H   UNL A   1      39.614  31.869  33.168  1.00  0.00     0.167 HD
ATOM     51  C   UNL A   1      40.505  28.816  30.150  1.00  0.00     0.037 A 
ATOM     52  C   UNL A   1      39.870  33.089  35.665  1.00  0.00     0.037 A 
ATOM     53  C   UNL A   1      41.481  28.616  31.190  1.00  0.00     0.049 A 
ATOM     54  C   UNL A   1      40.923  32.015  35.610  1.00  0.00     0.074 A 
ATOM     55  C   UNL A   1      42.531  27.716  31.228  1.00  0.00     0.029 A 
ATOM     56  N   UNL A   1      41.525  29.331  32.378  1.00  0.00    -0.354 N 
ATOM     57  N   UNL A   1      41.186  31.163  34.649  1.00  0.00    -0.248 NA
ATOM     58  C   UNL A   1      41.794  31.882  36.786  1.00  0.00     0.031 C 
ATOM     59  C   UNL A   1      43.183  27.855  32.457  1.00  0.00     0.029 A 
ATOM     60  C   UNL A   1      42.571  28.878  33.165  1.00  0.00     0.049 A 
ATOM     61  H   UNL A   1      40.904  30.055  32.626  1.00  0.00     0.167 HD
ATOM     62  C   UNL A   1      42.270  30.415  35.090  1.00  0.00     0.074 A 
ATOM     63  C   UNL A   1      42.621  30.921  36.400  1.00  0.00     0.031 C 
ATOM     64  C   UNL A   1      42.914  29.400  34.464  1.00  0.00     0.037 A 
BRANCH  51  65
ATOM     65  C   UNL A   1      40.543  27.905  28.956  1.00  0.00     0.064 A 
ATOM     66  C   UNL A   1      41.354  28.181  27.845  1.00  0.00     0.173 A 
ATOM     67  C   UNL A   1      39.784  26.725  28.937  1.00  0.00     0.173 A 
ATOM     68  F   UNL A   1      42.091  29.302  27.808  1.00  0.00    -0.203 F 
ATOM     69  C   UNL A   1      41.379  27.326  26.745  1.00  0.00     0.198 A 
ATOM     70  C   UNL A   1      39.836  25.857  27.850  1.00  0.00     0.198 A 
ATOM     71  F   UNL A   1      38.997  26.409  29.977  1.00  0.00    -0.203 F 
ATOM     72  F   UNL A   1      42.122  27.637  25.674  1.00  0.00    -0.200 F 
ATOM     73  C   UNL A   1      40.626  26.162  26.752  1.00  0.00     0.200 A 
ATOM     74  F   UNL A   1      39.118  24.725  27.863  1.00  0.00    -0.200 F 
ATOM     75  F   UNL A   1      40.656  25.337  25.696  1.00  0.00    -0.200 F 
ENDBRANCH  51  65
BRANCH  52  76
ATOM     76  C   UNL A   1      39.740  33.968  36.856  1.00  0.00     0.064 A 
ATOM     77  C   UNL A   1      38.947  33.585  37.946  1.00  0.00     0.173 A 
ATOM     78  C   UNL A   1      40.404  35.201  36.933  1.00  0.00     0.173 A 
ATOM     79  F   UNL A   1      38.276  32.424  37.910  1.00  0.00    -0.203 F 
ATOM     80  C   UNL A   1      38.807  34.410  39.060  1.00  0.00     0.198 A 
ATOM     81  C   UNL A   1      40.286  36.012  38.060  1.00  0.00     0.198 A 
ATOM     82  F   UNL A   1      41.180  35.611  35.919  1.00  0.00    -0.203 F 
ATOM     83  F   UNL A   1      38.008  34.038  40.070  1.00  0.00    -0.200 F 
ATOM     84  C   UNL A   1      39.481  35.620  39.119  1.00  0.00     0.200 A 
ATOM     85  F   UNL A   1      40.951  37.175  38.119  1.00  0.00    -0.200 F 
ATOM     86  F   UNL A   1      39.351  36.410  40.193  1.00  0.00    -0.200 F 
ENDBRANCH  52  76
BRANCH  64  87
ATOM     87  C   UNL A   1      44.092  28.795  35.170  1.00  0.00     0.064 A 
ATOM     88  C   UNL A   1      45.387  29.312  35.018  1.00  0.00     0.173 A 
ATOM     89  C   UNL A   1      43.915  27.710  36.042  1.00  0.00     0.173 A 
ATOM     90  F   UNL A   1      45.610  30.338  34.184  1.00  0.00    -0.203 F 
ATOM     91  C   UNL A   1      46.465  28.749  35.696  1.00  0.00     0.198 A 
ATOM     92  C   UNL A   1      44.991  27.170  36.741  1.00  0.00     0.198 A 
ATOM     93  F   UNL A   1      42.696  27.184  36.228  1.00  0.00    -0.203 F 
ATOM     94  F   UNL A   1      47.701  29.229  35.500  1.00  0.00    -0.200 F 
ATOM     95  C   UNL A   1      46.266  27.684  36.562  1.00  0.00     0.200 A 
ATOM     96  F   UNL A   1      44.793  26.149  37.588  1.00  0.00    -0.200 F 
ATOM     97  F   UNL A   1      47.303  27.149  37.219  1.00  0.00    -0.200 F 
ENDBRANCH  64  87
ENDBRANCH  38  39
ENDBRANCH  30  33
ENDBRANCH  28  29
ENDBRANCH  27  28
ENDBRANCH   1  27
TORSDOF 14
ENDMDL
MODEL 2
REMARK VINA RESULT:     -12.7      1.280      2.201
REMARK SMILES CN(C)c1cc(C(F)(F)F)cc(-c2cccc(/C=C/C(=O)NCCCNC(=O)c3ccc(-c4c5nc(c(-c6c(F)c(F)c(F)c(F)c6F)c6ccc([nH]6)c(-c6c(F)c(F)c(F)c(F)c6F)c6nc(c(-c7c(F)c(F)c(F)c(F)c7F)c7ccc4[nH]7)C=C6)C=C5)cc3)c2)n1
REMARK SMILES IDX 23 1 22 2 20 3 21 4 19 6 18 7 17 8 13 9 14 10 92 11 15 12
REMARK SMILES IDX 16 13 12 14 4 15 5 16 93 17 6 18 11 19 2 20 1 21 3 22 7 23
REMARK SMILES IDX 8 24 9 25 10 26 24 27 25 28 26 29 27 30 28 32 29 33 30 34
REMARK SMILES IDX 91 35 31 36 90 37 32 38 33 39 34 40 84 41 35 42 89 43 83 44
REMARK SMILES IDX 85 45 36 46 88 47 82 48 81 49 37 51 69 52 49 53 68 54 50 55
REMARK SMILES IDX 53 56 67 57 86 58 51 59 52 60 66 62 87 63 54 64 38 65 39 66
REMARK SMILES IDX 47 67 40 68 41 69 45 70 48 71 42 72 43 73 46 74 44 75 70 76
REMARK SMILES IDX 71 77 79 78 72 79 73 80 77 81 80 82 74 83 75 84 78 85 76 86
REMARK SMILES IDX 55 87 56 88 64 89 57 90 58 91 62 92 65 93 59 94 60 95 63 96
REMARK SMILES IDX 61 97
REMARK H PARENT 22 5 26 31 85 50 53 61
REMARK Flexibility Score: inf
ROOT
ATOM      1  C   UNL A   1      31.555  30.653  26.488  1.00  0.00     0.118 C 
ENDROOT
BRANCH   1   2
ATOM      2  N   UNL A   1      31.583  30.349  25.067  1.00  0.00    -0.352 N 
ATOM      3  C   UNL A   1      31.538  29.156  24.415  1.00  0.00     0.244 C 
ATOM      4  O   UNL A   1      31.456  29.137  23.190  1.00  0.00    -0.270 OA
ATOM      5  H   UNL A   1      31.645  31.137  24.480  1.00  0.00     0.163 HD
BRANCH   3   6
ATOM      6  C   UNL A   1      31.502  27.883  25.166  1.00  0.00     0.072 C 
ATOM      7  C   UNL A   1      31.270  26.693  24.594  1.00  0.00     0.014 C 
BRANCH   7   8
ATOM      8  C   UNL A   1      31.218  25.416  25.317  1.00  0.00    -0.025 A 
ATOM      9  C   UNL A   1      32.228  23.217  25.694  1.00  0.00     0.001 A 
ATOM     10  C   UNL A   1      31.131  22.875  26.496  1.00  0.00     0.010 A 
ATOM     11  C   UNL A   1      32.256  24.495  25.112  1.00  0.00     0.018 A 
ATOM     12  C   UNL A   1      30.097  23.788  26.718  1.00  0.00     0.001 A 
ATOM     13  C   UNL A   1      30.138  25.051  26.126  1.00  0.00     0.008 A 
BRANCH   9  14
ATOM     14  C   UNL A   1      33.297  22.253  25.425  1.00  0.00     0.073 A 
ATOM     15  C   UNL A   1      35.610  21.900  25.434  1.00  0.00     0.129 A 
ATOM     16  C   UNL A   1      35.416  20.581  25.032  1.00  0.00     0.060 A 
ATOM     17  N   UNL A   1      34.553  22.716  25.627  1.00  0.00    -0.231 NA
ATOM     18  C   UNL A   1      34.120  20.085  24.840  1.00  0.00     0.061 A 
ATOM     19  C   UNL A   1      33.041  20.948  25.036  1.00  0.00     0.042 A 
BRANCH  15  20
ATOM     20  N   UNL A   1      36.887  22.387  25.690  1.00  0.00    -0.363 N 
ATOM     21  C   UNL A   1      38.024  21.547  25.352  1.00  0.00     0.144 C 
ATOM     22  C   UNL A   1      37.049  23.831  25.589  1.00  0.00     0.144 C 
ENDBRANCH  15  20
BRANCH  18  23
ATOM     23  C   UNL A   1      33.885  18.645  24.481  1.00  0.00     0.416 C 
ATOM     24  F   UNL A   1      35.048  17.978  24.245  1.00  0.00    -0.166 F 
ATOM     25  F   UNL A   1      33.252  17.956  25.469  1.00  0.00    -0.166 F 
ATOM     26  F   UNL A   1      33.126  18.477  23.363  1.00  0.00    -0.166 F 
ENDBRANCH  18  23
ENDBRANCH   9  14
ENDBRANCH   7   8
ENDBRANCH   3   6
ENDBRANCH   1   2
BRANCH   1  27
ATOM     27  C   UNL A   1      31.395  32.151  26.740  1.00  0.00     0.042 C 
BRANCH  27  28
ATOM     28  C   UNL A   1      32.702  32.852  27.103  1.00  0.00     0.118 C 
BRANCH  28  29
ATOM     29  N   UNL A   1      32.481  34.203  27.598  1.00  0.00    -0.352 N 
ATOM     30  C   UNL A   1      33.046  34.859  28.664  1.00  0.00     0.251 C 
ATOM     31  H   UNL A   1      31.823  34.729  27.089  1.00  0.00     0.163 HD
ATOM     32  O   UNL A   1      32.566  35.922  29.043  1.00  0.00    -0.269 OA
BRANCH  30  33
ATOM     33  C   UNL A   1      34.221  34.296  29.364  1.00  0.00     0.039 A 
ATOM     34  C   UNL A   1      34.017  33.564  30.538  1.00  0.00     0.014 A 
ATOM     35  C   UNL A   1      35.519  34.530  28.904  1.00  0.00     0.014 A 
ATOM     36  C   UNL A   1      35.109  33.027  31.223  1.00  0.00     0.010 A 
ATOM     37  C   UNL A   1      36.602  33.936  29.549  1.00  0.00     0.010 A 
ATOM     38  C   UNL A   1      36.409  33.185  30.718  1.00  0.00    -0.014 A 
BRANCH  38  39
ATOM     39  C   UNL A   1      37.584  32.584  31.399  1.00  0.00     0.031 A 
ATOM     40  C   UNL A   1      38.327  31.446  30.758  1.00  0.00     0.074 A 
ATOM     41  C   UNL A   1      37.933  33.013  32.627  1.00  0.00     0.049 A 
ATOM     42  N   UNL A   1      39.304  30.718  31.236  1.00  0.00    -0.248 NA
ATOM     43  C   UNL A   1      37.894  31.055  29.407  1.00  0.00     0.031 C 
ATOM     44  C   UNL A   1      37.267  34.085  33.368  1.00  0.00     0.029 A 
ATOM     45  N   UNL A   1      38.923  32.587  33.476  1.00  0.00    -0.354 N 
ATOM     46  C   UNL A   1      39.585  29.773  30.259  1.00  0.00     0.074 A 
ATOM     47  C   UNL A   1      38.648  29.990  29.178  1.00  0.00     0.031 C 
ATOM     48  C   UNL A   1      37.877  34.244  34.554  1.00  0.00     0.029 A 
ATOM     49  C   UNL A   1      38.949  33.259  34.674  1.00  0.00     0.049 A 
ATOM     50  H   UNL A   1      39.557  31.869  33.248  1.00  0.00     0.167 HD
ATOM     51  C   UNL A   1      40.550  28.821  30.256  1.00  0.00     0.037 A 
ATOM     52  C   UNL A   1      39.738  33.091  35.751  1.00  0.00     0.037 A 
ATOM     53  C   UNL A   1      41.500  28.629  31.321  1.00  0.00     0.049 A 
ATOM     54  C   UNL A   1      40.800  32.025  35.724  1.00  0.00     0.074 A 
ATOM     55  C   UNL A   1      42.555  27.737  31.388  1.00  0.00     0.029 A 
ATOM     56  N   UNL A   1      41.506  29.345  32.510  1.00  0.00    -0.354 N 
ATOM     57  N   UNL A   1      41.094  31.174  34.771  1.00  0.00    -0.248 NA
ATOM     58  C   UNL A   1      41.640  31.899  36.922  1.00  0.00     0.031 C 
ATOM     59  C   UNL A   1      43.173  27.881  32.634  1.00  0.00     0.029 A 
ATOM     60  C   UNL A   1      42.535  28.899  33.325  1.00  0.00     0.049 A 
ATOM     61  H   UNL A   1      40.874  30.063  32.742  1.00  0.00     0.167 HD
ATOM     62  C   UNL A   1      42.171  30.435  35.240  1.00  0.00     0.074 A 
ATOM     63  C   UNL A   1      42.485  30.944  36.559  1.00  0.00     0.031 C 
ATOM     64  C   UNL A   1      42.839  29.424  34.632  1.00  0.00     0.037 A 
BRANCH  51  65
ATOM     65  C   UNL A   1      40.626  27.911  29.064  1.00  0.00     0.064 A 
ATOM     66  C   UNL A   1      39.843  26.750  28.972  1.00  0.00     0.173 A 
ATOM     67  C   UNL A   1      41.467  28.221  27.985  1.00  0.00     0.173 A 
ATOM     68  F   UNL A   1      39.030  26.401  29.982  1.00  0.00    -0.203 F 
ATOM     69  C   UNL A   1      39.924  25.916  27.859  1.00  0.00     0.198 A 
ATOM     70  C   UNL A   1      41.522  27.402  26.860  1.00  0.00     0.198 A 
ATOM     71  F   UNL A   1      42.230  29.323  28.017  1.00  0.00    -0.203 F 
ATOM     72  F   UNL A   1      39.206  24.785  27.818  1.00  0.00    -0.200 F 
ATOM     73  C   UNL A   1      40.757  26.246  26.801  1.00  0.00     0.200 A 
ATOM     74  F   UNL A   1      42.317  27.730  25.832  1.00  0.00    -0.200 F 
ATOM     75  F   UNL A   1      40.829  25.447  25.728  1.00  0.00    -0.200 F 
ENDBRANCH  51  65
BRANCH  52  76
ATOM     76  C   UNL A   1      39.570  33.970  36.937  1.00  0.00     0.064 A 
ATOM     77  C   UNL A   1      40.179  35.231  36.986  1.00  0.00     0.173 A 
ATOM     78  C   UNL A   1      38.799  33.573  38.040  1.00  0.00     0.173 A 
ATOM     79  F   UNL A   1      40.943  35.645  35.964  1.00  0.00    -0.203 F 
ATOM     80  C   UNL A   1      40.039  36.055  38.100  1.00  0.00     0.198 A 
ATOM     81  C   UNL A   1      38.637  34.411  39.142  1.00  0.00     0.198 A 
ATOM     82  F   UNL A   1      38.191  32.378  38.039  1.00  0.00    -0.203 F 
ATOM     83  F   UNL A   1      40.668  37.238  38.138  1.00  0.00    -0.200 F 
ATOM     84  C   UNL A   1      39.263  35.647  39.174  1.00  0.00     0.200 A 
ATOM     85  F   UNL A   1      37.874  34.019  40.172  1.00  0.00    -0.200 F 
ATOM     86  F   UNL A   1      39.124  36.443  40.244  1.00  0.00    -0.200 F 
ENDBRANCH  52  76
BRANCH  64  87
ATOM     87  C   UNL A   1      44.003  28.828  35.369  1.00  0.00     0.064 A 
ATOM     88  C   UNL A   1      45.306  29.324  35.214  1.00  0.00     0.173 A 
ATOM     89  C   UNL A   1      43.804  27.775  36.274  1.00  0.00     0.173 A 
ATOM     90  F   UNL A   1      45.550  30.319  34.348  1.00  0.00    -0.203 F 
ATOM     91  C   UNL A   1      46.370  28.770  35.920  1.00  0.00     0.198 A 
ATOM     92  C   UNL A   1      44.865  27.244  37.001  1.00  0.00     0.198 A 
ATOM     93  F   UNL A   1      42.576  27.269  36.464  1.00  0.00    -0.203 F 
ATOM     94  F   UNL A   1      47.614  29.228  35.721  1.00  0.00    -0.200 F 
ATOM     95  C   UNL A   1      46.149  27.737  36.818  1.00  0.00     0.200 A 
ATOM     96  F   UNL A   1      44.647  26.254  37.878  1.00  0.00    -0.200 F 
ATOM     97  F   UNL A   1      47.173  27.210  37.502  1.00  0.00    -0.200 F 
ENDBRANCH  64  87
ENDBRANCH  38  39
ENDBRANCH  30  33
ENDBRANCH  28  29
ENDBRANCH  27  28
ENDBRANCH   1  27
TORSDOF 14
ENDMDL
MODEL 3
REMARK VINA RESULT:     -12.7      1.722      2.739
REMARK SMILES CN(C)c1cc(C(F)(F)F)cc(-c2cccc(/C=C/C(=O)NCCCNC(=O)c3ccc(-c4c5nc(c(-c6c(F)c(F)c(F)c(F)c6F)c6ccc([nH]6)c(-c6c(F)c(F)c(F)c(F)c6F)c6nc(c(-c7c(F)c(F)c(F)c(F)c7F)c7ccc4[nH]7)C=C6)C=C5)cc3)c2)n1
REMARK SMILES IDX 23 1 22 2 20 3 21 4 19 6 18 7 17 8 13 9 14 10 92 11 15 12
REMARK SMILES IDX 16 13 12 14 4 15 5 16 93 17 6 18 11 19 2 20 1 21 3 22 7 23
REMARK SMILES IDX 8 24 9 25 10 26 24 27 25 28 26 29 27 30 28 32 29 33 30 34
REMARK SMILES IDX 91 35 31 36 90 37 32 38 33 39 34 40 84 41 35 42 89 43 83 44
REMARK SMILES IDX 85 45 36 46 88 47 82 48 81 49 37 51 69 52 49 53 68 54 50 55
REMARK SMILES IDX 53 56 67 57 86 58 51 59 52 60 66 62 87 63 54 64 38 65 39 66
REMARK SMILES IDX 47 67 40 68 41 69 45 70 48 71 42 72 43 73 46 74 44 75 70 76
REMARK SMILES IDX 71 77 79 78 72 79 73 80 77 81 80 82 74 83 75 84 78 85 76 86
REMARK SMILES IDX 55 87 56 88 64 89 57 90 58 91 62 92 65 93 59 94 60 95 63 96
REMARK SMILES IDX 61 97
REMARK H PARENT 22 5 26 31 85 50 53 61
REMARK Flexibility Score: inf
ROOT
ATOM      1  C   UNL A   1      31.553  30.280  26.087  1.00  0.00     0.118 C 
ENDROOT
BRANCH   1   2
ATOM      2  N   UNL A   1      31.402  30.078  24.656  1.00  0.00    -0.352 N 
ATOM      3  C   UNL A   1      31.030  28.976  23.951  1.00  0.00     0.244 C 
ATOM      4  O   UNL A   1      30.853  29.062  22.738  1.00  0.00    -0.270 OA
ATOM      5  H   UNL A   1      31.603  30.869  24.106  1.00  0.00     0.163 HD
BRANCH   3   6
ATOM      6  C   UNL A   1      30.753  27.695  24.636  1.00  0.00     0.072 C 
ATOM      7  C   UNL A   1      31.619  26.673  24.672  1.00  0.00     0.014 C 
BRANCH   7   8
ATOM      8  C   UNL A   1      31.366  25.388  25.335  1.00  0.00    -0.025 A 
ATOM      9  C   UNL A   1      32.038  23.052  25.633  1.00  0.00     0.001 A 
ATOM     10  C   UNL A   1      30.883  22.839  26.397  1.00  0.00     0.010 A 
ATOM     11  C   UNL A   1      32.265  24.336  25.109  1.00  0.00     0.018 A 
ATOM     12  C   UNL A   1      29.987  23.882  26.641  1.00  0.00     0.001 A 
ATOM     13  C   UNL A   1      30.224  25.149  26.107  1.00  0.00     0.008 A 
BRANCH   9  14
ATOM     14  C   UNL A   1      32.964  21.955  25.340  1.00  0.00     0.073 A 
ATOM     15  C   UNL A   1      33.141  19.706  24.721  1.00  0.00     0.129 A 
ATOM     16  C   UNL A   1      34.529  19.814  24.706  1.00  0.00     0.060 A 
ATOM     17  N   UNL A   1      32.378  20.774  25.033  1.00  0.00    -0.231 NA
ATOM     18  C   UNL A   1      35.146  21.036  25.000  1.00  0.00     0.061 A 
ATOM     19  C   UNL A   1      34.340  22.126  25.331  1.00  0.00     0.042 A 
BRANCH  15  20
ATOM     20  N   UNL A   1      32.513  18.516  24.368  1.00  0.00    -0.363 N 
ATOM     21  C   UNL A   1      32.527  18.120  22.969  1.00  0.00     0.144 C 
ATOM     22  C   UNL A   1      32.529  17.466  25.376  1.00  0.00     0.144 C 
ENDBRANCH  15  20
BRANCH  18  23
ATOM     23  C   UNL A   1      36.638  21.194  24.917  1.00  0.00     0.416 C 
ATOM     24  F   UNL A   1      37.280  19.994  24.887  1.00  0.00    -0.166 F 
ATOM     25  F   UNL A   1      37.032  21.856  23.794  1.00  0.00    -0.166 F 
ATOM     26  F   UNL A   1      37.176  21.878  25.963  1.00  0.00    -0.166 F 
ENDBRANCH  18  23
ENDBRANCH   9  14
ENDBRANCH   7   8
ENDBRANCH   3   6
ENDBRANCH   1   2
BRANCH   1  27
ATOM     27  C   UNL A   1      31.375  31.748  26.470  1.00  0.00     0.042 C 
BRANCH  27  28
ATOM     28  C   UNL A   1      32.678  32.434  26.876  1.00  0.00     0.118 C 
BRANCH  28  29
ATOM     29  N   UNL A   1      32.458  33.795  27.345  1.00  0.00    -0.352 N 
ATOM     30  C   UNL A   1      33.032  34.475  28.390  1.00  0.00     0.251 C 
ATOM     31  H   UNL A   1      31.792  34.307  26.832  1.00  0.00     0.163 HD
ATOM     32  O   UNL A   1      32.553  35.545  28.751  1.00  0.00    -0.269 OA
BRANCH  30  33
ATOM     33  C   UNL A   1      34.218  33.932  29.087  1.00  0.00     0.039 A 
ATOM     34  C   UNL A   1      34.028  32.969  30.084  1.00  0.00     0.014 A 
ATOM     35  C   UNL A   1      35.503  34.401  28.806  1.00  0.00     0.014 A 
ATOM     36  C   UNL A   1      35.129  32.443  30.764  1.00  0.00     0.010 A 
ATOM     37  C   UNL A   1      36.606  33.827  29.436  1.00  0.00     0.010 A 
ATOM     38  C   UNL A   1      36.429  32.847  30.425  1.00  0.00    -0.014 A 
BRANCH  38  39
ATOM     39  C   UNL A   1      37.620  32.270  31.098  1.00  0.00     0.031 A 
ATOM     40  C   UNL A   1      38.405  31.175  30.432  1.00  0.00     0.074 A 
ATOM     41  C   UNL A   1      37.948  32.680  32.338  1.00  0.00     0.049 A 
ATOM     42  N   UNL A   1      39.404  30.469  30.898  1.00  0.00    -0.248 NA
ATOM     43  C   UNL A   1      37.993  30.803  29.069  1.00  0.00     0.031 C 
ATOM     44  C   UNL A   1      37.243  33.709  33.102  1.00  0.00     0.029 A 
ATOM     45  N   UNL A   1      38.949  32.266  33.182  1.00  0.00    -0.354 N 
ATOM     46  C   UNL A   1      39.722  29.558  29.899  1.00  0.00     0.074 A 
ATOM     47  C   UNL A   1      38.783  29.771  28.819  1.00  0.00     0.031 C 
ATOM     48  C   UNL A   1      37.841  33.858  34.295  1.00  0.00     0.029 A 
ATOM     49  C   UNL A   1      38.945  32.908  34.396  1.00  0.00     0.049 A 
ATOM     50  H   UNL A   1      39.608  31.576  32.939  1.00  0.00     0.167 HD
ATOM     51  C   UNL A   1      40.719  28.641  29.878  1.00  0.00     0.037 A 
ATOM     52  C   UNL A   1      39.734  32.740  35.473  1.00  0.00     0.037 A 
ATOM     53  C   UNL A   1      41.670  28.454  30.943  1.00  0.00     0.049 A 
ATOM     54  C   UNL A   1      40.832  31.711  35.426  1.00  0.00     0.074 A 
ATOM     55  C   UNL A   1      42.755  27.597  30.993  1.00  0.00     0.029 A 
ATOM     56  N   UNL A   1      41.646  29.139  32.149  1.00  0.00    -0.354 N 
ATOM     57  N   UNL A   1      41.160  30.896  34.453  1.00  0.00    -0.248 NA
ATOM     58  C   UNL A   1      41.671  31.584  36.625  1.00  0.00     0.031 C 
ATOM     59  C   UNL A   1      43.361  27.730  32.246  1.00  0.00     0.029 A 
ATOM     60  C   UNL A   1      42.685  28.708  32.959  1.00  0.00     0.049 A 
ATOM     61  H   UNL A   1      40.988  29.830  32.395  1.00  0.00     0.167 HD
ATOM     62  C   UNL A   1      42.260  30.182  34.910  1.00  0.00     0.074 A 
ATOM     63  C   UNL A   1      42.549  30.668  36.243  1.00  0.00     0.031 C 
ATOM     64  C   UNL A   1      42.965  29.210  34.280  1.00  0.00     0.037 A 
BRANCH  51  65
ATOM     65  C   UNL A   1      40.832  27.764  28.663  1.00  0.00     0.064 A 
ATOM     66  C   UNL A   1      40.091  26.579  28.538  1.00  0.00     0.173 A 
ATOM     67  C   UNL A   1      41.667  28.130  27.597  1.00  0.00     0.173 A 
ATOM     68  F   UNL A   1      39.285  26.177  29.534  1.00  0.00    -0.203 F 
ATOM     69  C   UNL A   1      40.205  25.777  27.405  1.00  0.00     0.198 A 
ATOM     70  C   UNL A   1      41.755  27.342  26.452  1.00  0.00     0.198 A 
ATOM     71  F   UNL A   1      42.392  29.257  27.661  1.00  0.00    -0.203 F 
ATOM     72  F   UNL A   1      39.527  24.624  27.331  1.00  0.00    -0.200 F 
ATOM     73  C   UNL A   1      41.031  26.163  26.360  1.00  0.00     0.200 A 
ATOM     74  F   UNL A   1      42.544  27.723  25.437  1.00  0.00    -0.200 F 
ATOM     75  F   UNL A   1      41.136  25.394  25.268  1.00  0.00    -0.200 F 
ENDBRANCH  51  65
BRANCH  52  76
ATOM     76  C   UNL A   1      39.530  33.582  36.680  1.00  0.00     0.064 A 
ATOM     77  C   UNL A   1      38.743  33.126  37.746  1.00  0.00     0.173 A 
ATOM     78  C   UNL A   1      40.118  34.850  36.797  1.00  0.00     0.173 A 
ATOM     79  F   UNL A   1      38.143  31.929  37.671  1.00  0.00    -0.203 F 
ATOM     80  C   UNL A   1      38.533  33.915  38.875  1.00  0.00     0.198 A 
ATOM     81  C   UNL A   1      39.931  35.626  37.940  1.00  0.00     0.198 A 
ATOM     82  F   UNL A   1      40.885  35.328  35.808  1.00  0.00    -0.203 F 
ATOM     83  F   UNL A   1      37.740  33.473  39.861  1.00  0.00    -0.200 F 
ATOM     84  C   UNL A   1      39.133  35.161  38.974  1.00  0.00     0.200 A 
ATOM     85  F   UNL A   1      40.524  36.825  38.037  1.00  0.00    -0.200 F 
ATOM     86  F   UNL A   1      38.936  35.918  40.062  1.00  0.00    -0.200 F 
ENDBRANCH  52  76
BRANCH  64  87
ATOM     87  C   UNL A   1      44.145  28.636  35.010  1.00  0.00     0.064 A 
ATOM     88  C   UNL A   1      44.025  27.504  35.828  1.00  0.00     0.173 A 
ATOM     89  C   UNL A   1      45.418  29.203  34.853  1.00  0.00     0.173 A 
ATOM     90  F   UNL A   1      42.826  26.935  36.022  1.00  0.00    -0.203 F 
ATOM     91  C   UNL A   1      45.135  26.975  36.482  1.00  0.00     0.198 A 
ATOM     92  C   UNL A   1      46.530  28.654  35.484  1.00  0.00     0.198 A 
ATOM     93  F   UNL A   1      45.587  30.283  34.075  1.00  0.00    -0.203 F 
ATOM     94  F   UNL A   1      44.990  25.920  37.297  1.00  0.00    -0.200 F 
ATOM     95  C   UNL A   1      46.387  27.545  36.304  1.00  0.00     0.200 A 
ATOM     96  F   UNL A   1      47.741  29.198  35.300  1.00  0.00    -0.200 F 
ATOM     97  F   UNL A   1      47.454  27.030  36.929  1.00  0.00    -0.200 F 
ENDBRANCH  64  87
ENDBRANCH  38  39
ENDBRANCH  30  33
ENDBRANCH  28  29
ENDBRANCH  27  28
ENDBRANCH   1  27
TORSDOF 14
ENDMDL
