MODEL 1
REMARK VINA RESULT:     -11.1      0.000      0.000
REMARK SMILES COc1cc2c(cc1OC)[C@]13CCN4C(=O)C(=O)[C@@H](C[C@@H]41)[C@H]1[C@@H]3N2C(=O)C[C@H]1OCC(=O)NCCCNC(=O)c1ccc(-c2c3nc(c(-c4c(F)c(F)c(F)c(F)c4F)c4ccc([nH]4)c(-c4c(F)c(F)c(F)c(F)c4F)c4nc(c(-c5c(F)c(F)c(F)c(F)c5F)c5ccc2[nH]5)C=C4)C=C3)cc1
REMARK SMILES IDX 34 1 33 2 31 3 32 4 30 6 29 7 28 8 3 9 4 10 8 11 5 12 7 13
REMARK SMILES IDX 6 14 24 15 11 16 23 17 25 18 12 19 21 20 22 21 26 22 27 23
REMARK SMILES IDX 13 24 14 25 20 26 19 27 15 28 17 29 16 30 18 31 2 32 1 33
REMARK SMILES IDX 9 34 10 35 35 36 36 37 37 38 38 39 39 41 40 42 41 43 102 44
REMARK SMILES IDX 42 45 101 46 43 47 44 48 45 49 95 50 46 51 100 52 94 53
REMARK SMILES IDX 96 54 47 55 99 56 93 57 92 58 48 60 80 61 60 62 79 63 61 64
REMARK SMILES IDX 64 65 78 66 97 67 62 68 63 69 77 71 98 72 65 73 49 74 50 75
REMARK SMILES IDX 58 76 51 77 52 78 56 79 59 80 53 81 54 82 57 83 55 84 81 85
REMARK SMILES IDX 82 86 90 87 83 88 84 89 88 90 91 91 85 92 86 93 89 94 87 95
REMARK SMILES IDX 66 96 67 97 75 98 68 99 69 100 73 101 76 102 70 103 71 104
REMARK SMILES IDX 74 105 72 106
REMARK H PARENT 33 5 37 40 96 59 64 70
REMARK Flexibility Score: inf
ROOT
ATOM      1  C   UNL A   1      38.792  33.442  40.391  1.00  0.00     0.117 C 
ENDROOT
BRANCH   1   2
ATOM      2  N   UNL A   1      38.114  32.226  39.983  1.00  0.00    -0.354 N 
ATOM      3  C   UNL A   1      37.450  31.967  38.818  1.00  0.00     0.246 C 
ATOM      4  O   UNL A   1      36.932  30.860  38.668  1.00  0.00    -0.272 OA
ATOM      5  H   UNL A   1      38.135  31.487  40.634  1.00  0.00     0.163 HD
BRANCH   3   6
ATOM      6  C   UNL A   1      37.341  33.057  37.745  1.00  0.00     0.260 C 
BRANCH   6   7
ATOM      7  O   UNL A   1      36.920  32.634  36.455  1.00  0.00    -0.367 OA
BRANCH   7   8
ATOM      8  C   UNL A   1      36.889  33.659  35.456  1.00  0.00     0.134 C 
ATOM      9  C   UNL A   1      34.753  33.835  29.755  1.00  0.00     0.162 A 
ATOM     10  C   UNL A   1      34.955  34.364  31.022  1.00  0.00     0.077 A 
ATOM     11  C   UNL A   1      35.828  33.301  29.044  1.00  0.00     0.161 A 
ATOM     12  C   UNL A   1      36.217  34.259  31.606  1.00  0.00     0.052 A 
ATOM     13  C   UNL A   1      37.069  33.160  29.686  1.00  0.00     0.057 A 
ATOM     14  C   UNL A   1      37.286  33.604  31.005  1.00  0.00    -0.010 A 
ATOM     15  N   UNL A   1      36.562  34.666  32.887  1.00  0.00    -0.307 N 
ATOM     16  C   UNL A   1      38.590  33.625  31.914  1.00  0.00     0.041 C 
ATOM     17  C   UNL A   1      37.944  34.260  33.182  1.00  0.00     0.110 C 
ATOM     18  C   UNL A   1      35.587  34.988  33.815  1.00  0.00     0.229 C 
ATOM     19  C   UNL A   1      39.640  34.041  30.839  1.00  0.00     0.038 C 
ATOM     20  C   UNL A   1      39.569  32.443  32.460  1.00  0.00     0.099 C 
ATOM     21  C   UNL A   1      37.850  33.227  34.333  1.00  0.00     0.054 C 
ATOM     22  O   UNL A   1      34.715  35.837  33.649  1.00  0.00    -0.274 OA
ATOM     23  C   UNL A   1      35.508  34.004  34.958  1.00  0.00     0.133 C 
ATOM     24  C   UNL A   1      40.072  32.583  30.267  1.00  0.00     0.121 C 
ATOM     25  N   UNL A   1      39.553  31.675  31.302  1.00  0.00    -0.332 N 
ATOM     26  C   UNL A   1      39.346  31.527  33.649  1.00  0.00     0.038 C 
ATOM     27  C   UNL A   1      37.885  31.698  33.883  1.00  0.00     0.076 C 
ATOM     28  C   UNL A   1      38.360  30.887  31.236  1.00  0.00     0.290 C 
ATOM     29  C   UNL A   1      37.307  31.119  32.534  1.00  0.00     0.223 C 
ATOM     30  O   UNL A   1      38.063  30.203  30.275  1.00  0.00    -0.266 OA
ATOM     31  O   UNL A   1      36.110  30.890  32.415  1.00  0.00    -0.288 OA
BRANCH   9  32
ATOM     32  O   UNL A   1      33.485  33.918  29.238  1.00  0.00    -0.493 OA
ATOM     33  C   UNL A   1      33.099  35.286  29.080  1.00  0.00     0.278 C 
ENDBRANCH   9  32
BRANCH  11  34
ATOM     34  O   UNL A   1      35.595  32.917  27.748  1.00  0.00    -0.493 OA
ATOM     35  C   UNL A   1      35.310  31.539  27.543  1.00  0.00     0.278 C 
ENDBRANCH  11  34
ENDBRANCH   7   8
ENDBRANCH   6   7
ENDBRANCH   3   6
ENDBRANCH   1   2
BRANCH   1  36
ATOM     36  C   UNL A   1      40.294  33.402  40.102  1.00  0.00     0.042 C 
BRANCH  36  37
ATOM     37  C   UNL A   1      41.075  34.652  40.514  1.00  0.00     0.118 C 
BRANCH  37  38
ATOM     38  N   UNL A   1      40.438  35.897  40.120  1.00  0.00    -0.352 N 
ATOM     39  C   UNL A   1      40.339  36.484  38.881  1.00  0.00     0.251 C 
ATOM     40  H   UNL A   1      40.012  36.397  40.854  1.00  0.00     0.163 HD
ATOM     41  O   UNL A   1      39.824  37.596  38.787  1.00  0.00    -0.269 OA
BRANCH  39  42
ATOM     42  C   UNL A   1      40.881  35.828  37.664  1.00  0.00     0.039 A 
ATOM     43  C   UNL A   1      40.055  35.329  36.654  1.00  0.00     0.014 A 
ATOM     44  C   UNL A   1      42.272  35.756  37.517  1.00  0.00     0.014 A 
ATOM     45  C   UNL A   1      40.615  34.656  35.565  1.00  0.00     0.010 A 
ATOM     46  C   UNL A   1      42.834  35.118  36.406  1.00  0.00     0.010 A 
ATOM     47  C   UNL A   1      42.006  34.525  35.444  1.00  0.00    -0.014 A 
BRANCH  47  48
ATOM     48  C   UNL A   1      42.568  33.725  34.328  1.00  0.00     0.031 A 
ATOM     49  C   UNL A   1      42.707  32.236  34.465  1.00  0.00     0.074 A 
ATOM     50  C   UNL A   1      42.889  34.323  33.165  1.00  0.00     0.049 A 
ATOM     51  N   UNL A   1      43.013  31.346  33.552  1.00  0.00    -0.248 NA
ATOM     52  C   UNL A   1      42.468  31.666  35.800  1.00  0.00     0.031 C 
ATOM     53  C   UNL A   1      42.815  35.760  32.906  1.00  0.00     0.029 A 
ATOM     54  N   UNL A   1      43.313  33.787  31.975  1.00  0.00    -0.354 N 
ATOM     55  C   UNL A   1      42.995  30.119  34.198  1.00  0.00     0.074 A 
ATOM     56  C   UNL A   1      42.683  30.375  35.588  1.00  0.00     0.031 C 
ATOM     57  C   UNL A   1      43.134  35.988  31.620  1.00  0.00     0.029 A 
ATOM     58  C   UNL A   1      43.440  34.715  30.973  1.00  0.00     0.049 A 
ATOM     59  H   UNL A   1      43.504  32.828  31.852  1.00  0.00     0.167 HD
ATOM     60  C   UNL A   1      43.195  28.886  33.676  1.00  0.00     0.037 A 
ATOM     61  C   UNL A   1      43.747  34.552  29.672  1.00  0.00     0.037 A 
ATOM     62  C   UNL A   1      43.478  28.617  32.294  1.00  0.00     0.049 A 
ATOM     63  C   UNL A   1      44.012  33.179  29.129  1.00  0.00     0.074 A 
ATOM     64  C   UNL A   1      43.601  27.394  31.657  1.00  0.00     0.029 A 
ATOM     65  N   UNL A   1      43.697  29.592  31.335  1.00  0.00    -0.354 N 
ATOM     66  N   UNL A   1      43.915  32.021  29.733  1.00  0.00    -0.248 NA
ATOM     67  C   UNL A   1      44.436  33.093  27.724  1.00  0.00     0.031 C 
ATOM     68  C   UNL A   1      43.922  27.630  30.315  1.00  0.00     0.029 A 
ATOM     69  C   UNL A   1      43.986  28.999  30.117  1.00  0.00     0.049 A 
ATOM     70  H   UNL A   1      43.654  30.562  31.495  1.00  0.00     0.167 HD
ATOM     71  C   UNL A   1      44.253  31.069  28.782  1.00  0.00     0.074 A 
ATOM     72  C   UNL A   1      44.557  31.782  27.559  1.00  0.00     0.031 C 
ATOM     73  C   UNL A   1      44.301  29.722  28.914  1.00  0.00     0.037 A 
BRANCH  60  74
ATOM     74  C   UNL A   1      43.093  27.723  34.610  1.00  0.00     0.064 A 
ATOM     75  C   UNL A   1      41.909  26.979  34.710  1.00  0.00     0.173 A 
ATOM     76  C   UNL A   1      44.193  27.329  35.383  1.00  0.00     0.173 A 
ATOM     77  F   UNL A   1      40.826  27.333  34.001  1.00  0.00    -0.203 F 
ATOM     78  C   UNL A   1      41.828  25.881  35.561  1.00  0.00     0.198 A 
ATOM     79  C   UNL A   1      44.111  26.224  36.225  1.00  0.00     0.198 A 
ATOM     80  F   UNL A   1      45.343  28.017  35.322  1.00  0.00    -0.203 F 
ATOM     81  F   UNL A   1      40.680  25.197  35.662  1.00  0.00    -0.200 F 
ATOM     82  C   UNL A   1      42.929  25.503  36.315  1.00  0.00     0.200 A 
ATOM     83  F   UNL A   1      45.173  25.860  36.957  1.00  0.00    -0.200 F 
ATOM     84  F   UNL A   1      42.848  24.446  37.136  1.00  0.00    -0.200 F 
ENDBRANCH  60  74
BRANCH  61  85
ATOM     85  C   UNL A   1      43.773  35.731  28.776  1.00  0.00     0.064 A 
ATOM     86  C   UNL A   1      42.596  36.188  28.168  1.00  0.00     0.173 A 
ATOM     87  C   UNL A   1      44.962  36.425  28.521  1.00  0.00     0.173 A 
ATOM     88  F   UNL A   1      41.441  35.539  28.375  1.00  0.00    -0.203 F 
ATOM     89  C   UNL A   1      42.609  37.302  27.334  1.00  0.00     0.198 A 
ATOM     90  C   UNL A   1      44.972  37.544  27.692  1.00  0.00     0.198 A 
ATOM     91  F   UNL A   1      46.110  36.014  29.077  1.00  0.00    -0.203 F 
ATOM     92  F   UNL A   1      41.473  37.713  26.752  1.00  0.00    -0.200 F 
ATOM     93  C   UNL A   1      43.795  37.981  27.099  1.00  0.00     0.200 A 
ATOM     94  F   UNL A   1      46.119  38.198  27.465  1.00  0.00    -0.200 F 
ATOM     95  F   UNL A   1      43.806  39.054  26.296  1.00  0.00    -0.200 F 
ENDBRANCH  61  85
BRANCH  73  96
ATOM     96  C   UNL A   1      44.705  28.930  27.712  1.00  0.00     0.064 A 
ATOM     97  C   UNL A   1      46.043  28.564  27.508  1.00  0.00     0.173 A 
ATOM     98  C   UNL A   1      43.748  28.494  26.786  1.00  0.00     0.173 A 
ATOM     99  F   UNL A   1      46.992  28.973  28.362  1.00  0.00    -0.203 F 
ATOM    100  C   UNL A   1      46.408  27.789  26.410  1.00  0.00     0.198 A 
ATOM    101  C   UNL A   1      44.115  27.711  25.697  1.00  0.00     0.198 A 
ATOM    102  F   UNL A   1      42.457  28.822  26.945  1.00  0.00    -0.203 F 
ATOM    103  F   UNL A   1      47.695  27.463  26.221  1.00  0.00    -0.200 F 
ATOM    104  C   UNL A   1      45.444  27.359  25.509  1.00  0.00     0.200 A 
ATOM    105  F   UNL A   1      43.184  27.295  24.827  1.00  0.00    -0.200 F 
ATOM    106  F   UNL A   1      45.798  26.611  24.456  1.00  0.00    -0.200 F 
ENDBRANCH  73  96
ENDBRANCH  47  48
ENDBRANCH  39  42
ENDBRANCH  37  38
ENDBRANCH  36  37
ENDBRANCH   1  36
TORSDOF 14
ENDMDL
MODEL 2
REMARK VINA RESULT:     -10.9      0.783      6.844
REMARK SMILES COc1cc2c(cc1OC)[C@]13CCN4C(=O)C(=O)[C@@H](C[C@@H]41)[C@H]1[C@@H]3N2C(=O)C[C@H]1OCC(=O)NCCCNC(=O)c1ccc(-c2c3nc(c(-c4c(F)c(F)c(F)c(F)c4F)c4ccc([nH]4)c(-c4c(F)c(F)c(F)c(F)c4F)c4nc(c(-c5c(F)c(F)c(F)c(F)c5F)c5ccc2[nH]5)C=C4)C=C3)cc1
REMARK SMILES IDX 34 1 33 2 31 3 32 4 30 6 29 7 28 8 3 9 4 10 8 11 5 12 7 13
REMARK SMILES IDX 6 14 24 15 11 16 23 17 25 18 12 19 21 20 22 21 26 22 27 23
REMARK SMILES IDX 13 24 14 25 20 26 19 27 15 28 17 29 16 30 18 31 2 32 1 33
REMARK SMILES IDX 9 34 10 35 35 36 36 37 37 38 38 39 39 41 40 42 41 43 102 44
REMARK SMILES IDX 42 45 101 46 43 47 44 48 45 49 95 50 46 51 100 52 94 53
REMARK SMILES IDX 96 54 47 55 99 56 93 57 92 58 48 60 80 61 60 62 79 63 61 64
REMARK SMILES IDX 64 65 78 66 97 67 62 68 63 69 77 71 98 72 65 73 49 74 50 75
REMARK SMILES IDX 58 76 51 77 52 78 56 79 59 80 53 81 54 82 57 83 55 84 81 85
REMARK SMILES IDX 82 86 90 87 83 88 84 89 88 90 91 91 85 92 86 93 89 94 87 95
REMARK SMILES IDX 66 96 67 97 75 98 68 99 69 100 73 101 76 102 70 103 71 104
REMARK SMILES IDX 74 105 72 106
REMARK H PARENT 33 5 37 40 96 59 64 70
REMARK Flexibility Score: inf
ROOT
ATOM      1  C   UNL A   1      39.174  34.602  39.794  1.00  0.00     0.117 C 
ENDROOT
BRANCH   1   2
ATOM      2  N   UNL A   1      39.586  33.508  38.936  1.00  0.00    -0.354 N 
ATOM      3  C   UNL A   1      38.882  32.889  37.942  1.00  0.00     0.246 C 
ATOM      4  O   UNL A   1      39.417  31.964  37.329  1.00  0.00    -0.272 OA
ATOM      5  H   UNL A   1      40.496  33.165  39.091  1.00  0.00     0.163 HD
BRANCH   3   6
ATOM      6  C   UNL A   1      37.447  33.333  37.634  1.00  0.00     0.260 C 
BRANCH   6   7
ATOM      7  O   UNL A   1      36.893  32.873  36.408  1.00  0.00    -0.367 OA
BRANCH   7   8
ATOM      8  C   UNL A   1      36.895  33.828  35.341  1.00  0.00     0.134 C 
ATOM      9  C   UNL A   1      34.691  33.710  29.664  1.00  0.00     0.162 A 
ATOM     10  C   UNL A   1      34.933  34.314  30.890  1.00  0.00     0.077 A 
ATOM     11  C   UNL A   1      35.732  33.080  28.981  1.00  0.00     0.161 A 
ATOM     12  C   UNL A   1      36.198  34.193  31.467  1.00  0.00     0.052 A 
ATOM     13  C   UNL A   1      36.974  32.928  29.619  1.00  0.00     0.057 A 
ATOM     14  C   UNL A   1      37.228  33.451  30.901  1.00  0.00    -0.010 A 
ATOM     15  N   UNL A   1      36.577  34.670  32.713  1.00  0.00    -0.307 N 
ATOM     16  C   UNL A   1      38.544  33.475  31.793  1.00  0.00     0.041 C 
ATOM     17  C   UNL A   1      37.944  34.224  33.020  1.00  0.00     0.110 C 
ATOM     18  C   UNL A   1      35.631  35.099  33.627  1.00  0.00     0.229 C 
ATOM     19  C   UNL A   1      39.596  33.769  30.681  1.00  0.00     0.038 C 
ATOM     20  C   UNL A   1      39.477  32.290  32.409  1.00  0.00     0.099 C 
ATOM     21  C   UNL A   1      37.820  33.277  34.241  1.00  0.00     0.054 C 
ATOM     22  O   UNL A   1      34.794  35.973  33.412  1.00  0.00    -0.274 OA
ATOM     23  C   UNL A   1      35.523  34.200  34.835  1.00  0.00     0.133 C 
ATOM     24  C   UNL A   1      39.956  32.257  30.206  1.00  0.00     0.121 C 
ATOM     25  N   UNL A   1      39.412  31.446  31.307  1.00  0.00    -0.332 N 
ATOM     26  C   UNL A   1      39.230  31.469  33.660  1.00  0.00     0.038 C 
ATOM     27  C   UNL A   1      37.781  31.721  33.898  1.00  0.00     0.076 C 
ATOM     28  C   UNL A   1      38.184  30.710  31.308  1.00  0.00     0.290 C 
ATOM     29  C   UNL A   1      37.160  31.078  32.598  1.00  0.00     0.223 C 
ATOM     30  O   UNL A   1      37.844  29.976  30.399  1.00  0.00    -0.266 OA
ATOM     31  O   UNL A   1      35.952  30.895  32.507  1.00  0.00    -0.288 OA
BRANCH   9  32
ATOM     32  O   UNL A   1      33.422  33.815  29.157  1.00  0.00    -0.493 OA
ATOM     33  C   UNL A   1      33.000  35.181  29.142  1.00  0.00     0.278 C 
ENDBRANCH   9  32
BRANCH  11  34
ATOM     34  O   UNL A   1      35.465  32.620  27.718  1.00  0.00    -0.493 OA
ATOM     35  C   UNL A   1      35.187  31.230  27.601  1.00  0.00     0.278 C 
ENDBRANCH  11  34
ENDBRANCH   7   8
ENDBRANCH   6   7
ENDBRANCH   3   6
ENDBRANCH   1   2
BRANCH   1  36
ATOM     36  C   UNL A   1      40.223  34.946  40.852  1.00  0.00     0.042 C 
BRANCH  36  37
ATOM     37  C   UNL A   1      41.655  35.097  40.333  1.00  0.00     0.118 C 
BRANCH  37  38
ATOM     38  N   UNL A   1      42.025  36.468  40.026  1.00  0.00    -0.352 N 
ATOM     39  C   UNL A   1      42.415  37.030  38.833  1.00  0.00     0.251 C 
ATOM     40  H   UNL A   1      41.992  37.090  40.789  1.00  0.00     0.163 HD
ATOM     41  O   UNL A   1      42.770  38.207  38.816  1.00  0.00    -0.269 OA
BRANCH  39  42
ATOM     42  C   UNL A   1      42.461  36.239  37.578  1.00  0.00     0.039 A 
ATOM     43  C   UNL A   1      41.314  35.940  36.841  1.00  0.00     0.014 A 
ATOM     44  C   UNL A   1      43.713  35.823  37.107  1.00  0.00     0.014 A 
ATOM     45  C   UNL A   1      41.405  35.129  35.706  1.00  0.00     0.010 A 
ATOM     46  C   UNL A   1      43.810  35.045  35.948  1.00  0.00     0.010 A 
ATOM     47  C   UNL A   1      42.650  34.656  35.264  1.00  0.00    -0.014 A 
BRANCH  47  48
ATOM     48  C   UNL A   1      42.707  33.722  34.113  1.00  0.00     0.031 A 
ATOM     49  C   UNL A   1      42.883  34.256  32.719  1.00  0.00     0.074 A 
ATOM     50  C   UNL A   1      42.672  32.393  34.320  1.00  0.00     0.049 A 
ATOM     51  N   UNL A   1      43.125  33.604  31.609  1.00  0.00    -0.248 NA
ATOM     52  C   UNL A   1      42.778  35.713  32.547  1.00  0.00     0.031 C 
ATOM     53  C   UNL A   1      42.491  31.747  35.620  1.00  0.00     0.029 A 
ATOM     54  N   UNL A   1      42.819  31.349  33.442  1.00  0.00    -0.354 N 
ATOM     55  C   UNL A   1      43.208  34.566  30.614  1.00  0.00     0.074 A 
ATOM     56  C   UNL A   1      42.956  35.847  31.241  1.00  0.00     0.031 C 
ATOM     57  C   UNL A   1      42.588  30.415  35.460  1.00  0.00     0.029 A 
ATOM     58  C   UNL A   1      42.828  30.120  34.050  1.00  0.00     0.049 A 
ATOM     59  H   UNL A   1      42.911  31.472  32.468  1.00  0.00     0.167 HD
ATOM     60  C   UNL A   1      43.493  34.403  29.301  1.00  0.00     0.037 A 
ATOM     61  C   UNL A   1      43.031  28.895  33.531  1.00  0.00     0.037 A 
ATOM     62  C   UNL A   1      43.770  33.141  28.673  1.00  0.00     0.049 A 
ATOM     63  C   UNL A   1      43.297  28.737  32.062  1.00  0.00     0.074 A 
ATOM     64  C   UNL A   1      44.163  32.890  27.370  1.00  0.00     0.029 A 
ATOM     65  N   UNL A   1      43.670  31.913  29.305  1.00  0.00    -0.354 N 
ATOM     66  N   UNL A   1      43.450  29.662  31.148  1.00  0.00    -0.248 NA
ATOM     67  C   UNL A   1      43.412  27.362  31.555  1.00  0.00     0.031 C 
ATOM     68  C   UNL A   1      44.274  31.504  27.205  1.00  0.00     0.029 A 
ATOM     69  C   UNL A   1      43.963  30.897  28.410  1.00  0.00     0.049 A 
ATOM     70  H   UNL A   1      43.428  31.781  30.250  1.00  0.00     0.167 HD
ATOM     71  C   UNL A   1      43.691  28.984  29.961  1.00  0.00     0.074 A 
ATOM     72  C   UNL A   1      43.664  27.570  30.269  1.00  0.00     0.031 C 
ATOM     73  C   UNL A   1      43.917  29.495  28.727  1.00  0.00     0.037 A 
BRANCH  60  74
ATOM     74  C   UNL A   1      43.539  35.633  28.453  1.00  0.00     0.064 A 
ATOM     75  C   UNL A   1      42.367  36.189  27.921  1.00  0.00     0.173 A 
ATOM     76  C   UNL A   1      44.756  36.280  28.199  1.00  0.00     0.173 A 
ATOM     77  F   UNL A   1      41.184  35.592  28.126  1.00  0.00    -0.203 F 
ATOM     78  C   UNL A   1      42.413  37.349  27.155  1.00  0.00     0.198 A 
ATOM     79  C   UNL A   1      44.797  37.447  27.441  1.00  0.00     0.198 A 
ATOM     80  F   UNL A   1      45.902  35.779  28.684  1.00  0.00    -0.203 F 
ATOM     81  F   UNL A   1      41.285  37.852  26.635  1.00  0.00    -0.200 F 
ATOM     82  C   UNL A   1      43.626  37.979  26.919  1.00  0.00     0.200 A 
ATOM     83  F   UNL A   1      45.969  38.053  27.208  1.00  0.00    -0.200 F 
ATOM     84  F   UNL A   1      43.669  39.096  26.178  1.00  0.00    -0.200 F 
ENDBRANCH  60  74
BRANCH  61  85
ATOM     85  C   UNL A   1      43.038  27.715  34.426  1.00  0.00     0.064 A 
ATOM     86  C   UNL A   1      44.207  27.342  35.101  1.00  0.00     0.173 A 
ATOM     87  C   UNL A   1      41.883  26.951  34.630  1.00  0.00     0.173 A 
ATOM     88  F   UNL A   1      45.338  28.039  34.918  1.00  0.00    -0.203 F 
ATOM     89  C   UNL A   1      44.219  26.242  35.953  1.00  0.00     0.198 A 
ATOM     90  C   UNL A   1      41.895  25.855  35.489  1.00  0.00     0.198 A 
ATOM     91  F   UNL A   1      40.747  27.271  33.995  1.00  0.00    -0.203 F 
ATOM     92  F   UNL A   1      45.353  25.894  36.579  1.00  0.00    -0.200 F 
ATOM     93  C   UNL A   1      43.063  25.501  36.149  1.00  0.00     0.200 A 
ATOM     94  F   UNL A   1      40.777  25.139  35.676  1.00  0.00    -0.200 F 
ATOM     95  F   UNL A   1      43.076  24.441  36.970  1.00  0.00    -0.200 F 
ENDBRANCH  61  85
BRANCH  73  96
ATOM     96  C   UNL A   1      44.146  28.521  27.615  1.00  0.00     0.064 A 
ATOM     97  C   UNL A   1      45.415  27.970  27.391  1.00  0.00     0.173 A 
ATOM     98  C   UNL A   1      43.085  28.100  26.803  1.00  0.00     0.173 A 
ATOM     99  F   UNL A   1      46.459  28.357  28.138  1.00  0.00    -0.203 F 
ATOM    100  C   UNL A   1      45.614  27.031  26.383  1.00  0.00     0.198 A 
ATOM    101  C   UNL A   1      43.286  27.153  25.803  1.00  0.00     0.198 A 
ATOM    102  F   UNL A   1      41.854  28.602  26.984  1.00  0.00    -0.203 F 
ATOM    103  F   UNL A   1      46.838  26.528  26.171  1.00  0.00    -0.200 F 
ATOM    104  C   UNL A   1      44.550  26.620  25.594  1.00  0.00     0.200 A 
ATOM    105  F   UNL A   1      42.257  26.755  25.042  1.00  0.00    -0.200 F 
ATOM    106  F   UNL A   1      44.743  25.713  24.627  1.00  0.00    -0.200 F 
ENDBRANCH  73  96
ENDBRANCH  47  48
ENDBRANCH  39  42
ENDBRANCH  37  38
ENDBRANCH  36  37
ENDBRANCH   1  36
TORSDOF 14
ENDMDL
MODEL 3
REMARK VINA RESULT:     -10.6      6.293     11.188
REMARK SMILES COc1cc2c(cc1OC)[C@]13CCN4C(=O)C(=O)[C@@H](C[C@@H]41)[C@H]1[C@@H]3N2C(=O)C[C@H]1OCC(=O)NCCCNC(=O)c1ccc(-c2c3nc(c(-c4c(F)c(F)c(F)c(F)c4F)c4ccc([nH]4)c(-c4c(F)c(F)c(F)c(F)c4F)c4nc(c(-c5c(F)c(F)c(F)c(F)c5F)c5ccc2[nH]5)C=C4)C=C3)cc1
REMARK SMILES IDX 34 1 33 2 31 3 32 4 30 6 29 7 28 8 3 9 4 10 8 11 5 12 7 13
REMARK SMILES IDX 6 14 24 15 11 16 23 17 25 18 12 19 21 20 22 21 26 22 27 23
REMARK SMILES IDX 13 24 14 25 20 26 19 27 15 28 17 29 16 30 18 31 2 32 1 33
REMARK SMILES IDX 9 34 10 35 35 36 36 37 37 38 38 39 39 41 40 42 41 43 102 44
REMARK SMILES IDX 42 45 101 46 43 47 44 48 45 49 95 50 46 51 100 52 94 53
REMARK SMILES IDX 96 54 47 55 99 56 93 57 92 58 48 60 80 61 60 62 79 63 61 64
REMARK SMILES IDX 64 65 78 66 97 67 62 68 63 69 77 71 98 72 65 73 49 74 50 75
REMARK SMILES IDX 58 76 51 77 52 78 56 79 59 80 53 81 54 82 57 83 55 84 81 85
REMARK SMILES IDX 82 86 90 87 83 88 84 89 88 90 91 91 85 92 86 93 89 94 87 95
REMARK SMILES IDX 66 96 67 97 75 98 68 99 69 100 73 101 76 102 70 103 71 104
REMARK SMILES IDX 74 105 72 106
REMARK H PARENT 33 5 37 40 96 59 64 70
REMARK Flexibility Score: inf
ROOT
ATOM      1  C   UNL A   1      31.449  30.327  25.360  1.00  0.00     0.117 C 
ENDROOT
BRANCH   1   2
ATOM      2  N   UNL A   1      32.801  29.866  25.107  1.00  0.00    -0.354 N 
ATOM      3  C   UNL A   1      33.293  29.221  24.008  1.00  0.00     0.246 C 
ATOM      4  O   UNL A   1      34.482  28.905  23.993  1.00  0.00    -0.272 OA
ATOM      5  H   UNL A   1      33.452  30.041  25.825  1.00  0.00     0.163 HD
BRANCH   3   6
ATOM      6  C   UNL A   1      32.357  28.883  22.841  1.00  0.00     0.260 C 
BRANCH   6   7
ATOM      7  O   UNL A   1      31.781  27.583  22.850  1.00  0.00    -0.367 OA
BRANCH   7   8
ATOM      8  C   UNL A   1      32.692  26.510  22.590  1.00  0.00     0.134 C 
ATOM      9  C   UNL A   1      32.191  20.453  22.992  1.00  0.00     0.162 A 
ATOM     10  C   UNL A   1      32.597  21.627  22.373  1.00  0.00     0.077 A 
ATOM     11  C   UNL A   1      32.473  20.246  24.343  1.00  0.00     0.161 A 
ATOM     12  C   UNL A   1      33.193  22.627  23.142  1.00  0.00     0.052 A 
ATOM     13  C   UNL A   1      33.021  21.296  25.096  1.00  0.00     0.057 A 
ATOM     14  C   UNL A   1      33.362  22.535  24.518  1.00  0.00    -0.010 A 
ATOM     15  N   UNL A   1      33.583  23.880  22.693  1.00  0.00    -0.307 N 
ATOM     16  C   UNL A   1      34.048  23.834  25.127  1.00  0.00     0.041 C 
ATOM     17  C   UNL A   1      34.040  24.695  23.829  1.00  0.00     0.110 C 
ATOM     18  C   UNL A   1      33.168  24.354  21.460  1.00  0.00     0.229 C 
ATOM     19  C   UNL A   1      35.115  23.151  26.036  1.00  0.00     0.038 C 
ATOM     20  C   UNL A   1      33.619  24.842  26.331  1.00  0.00     0.099 C 
ATOM     21  C   UNL A   1      33.032  25.866  23.947  1.00  0.00     0.054 C 
ATOM     22  O   UNL A   1      33.352  23.779  20.390  1.00  0.00    -0.274 OA
ATOM     23  C   UNL A   1      32.209  25.516  21.564  1.00  0.00     0.133 C 
ATOM     24  C   UNL A   1      34.264  22.969  27.407  1.00  0.00     0.121 C 
ATOM     25  N   UNL A   1      33.119  23.867  27.186  1.00  0.00    -0.332 N 
ATOM     26  C   UNL A   1      32.625  25.988  26.274  1.00  0.00     0.038 C 
ATOM     27  C   UNL A   1      31.876  25.667  25.027  1.00  0.00     0.076 C 
ATOM     28  C   UNL A   1      31.792  23.491  26.801  1.00  0.00     0.290 C 
ATOM     29  C   UNL A   1      31.218  24.291  25.431  1.00  0.00     0.223 C 
ATOM     30  O   UNL A   1      31.174  22.588  27.331  1.00  0.00    -0.266 OA
ATOM     31  O   UNL A   1      30.343  23.790  24.736  1.00  0.00    -0.288 OA
BRANCH   9  32
ATOM     32  O   UNL A   1      31.567  19.517  22.208  1.00  0.00    -0.493 OA
ATOM     33  C   UNL A   1      32.492  18.500  21.812  1.00  0.00     0.278 C 
ENDBRANCH   9  32
BRANCH  11  34
ATOM     34  O   UNL A   1      32.168  19.015  24.864  1.00  0.00    -0.493 OA
ATOM     35  C   UNL A   1      33.269  18.234  25.316  1.00  0.00     0.278 C 
ENDBRANCH  11  34
ENDBRANCH   7   8
ENDBRANCH   6   7
ENDBRANCH   3   6
ENDBRANCH   1   2
BRANCH   1  36
ATOM     36  C   UNL A   1      31.363  31.258  26.571  1.00  0.00     0.042 C 
BRANCH  36  37
ATOM     37  C   UNL A   1      32.603  32.117  26.829  1.00  0.00     0.118 C 
BRANCH  37  38
ATOM     38  N   UNL A   1      32.300  33.462  27.286  1.00  0.00    -0.352 N 
ATOM     39  C   UNL A   1      32.950  34.248  28.208  1.00  0.00     0.251 C 
ATOM     40  H   UNL A   1      31.507  33.874  26.872  1.00  0.00     0.163 HD
ATOM     41  O   UNL A   1      32.466  35.336  28.511  1.00  0.00    -0.269 OA
BRANCH  39  42
ATOM     42  C   UNL A   1      34.194  33.793  28.879  1.00  0.00     0.039 A 
ATOM     43  C   UNL A   1      35.453  34.292  28.537  1.00  0.00     0.014 A 
ATOM     44  C   UNL A   1      34.080  32.863  29.920  1.00  0.00     0.014 A 
ATOM     45  C   UNL A   1      36.598  33.777  29.150  1.00  0.00     0.010 A 
ATOM     46  C   UNL A   1      35.223  32.375  30.562  1.00  0.00     0.010 A 
ATOM     47  C   UNL A   1      36.494  32.798  30.150  1.00  0.00    -0.014 A 
BRANCH  47  48
ATOM     48  C   UNL A   1      37.729  32.201  30.716  1.00  0.00     0.031 A 
ATOM     49  C   UNL A   1      38.177  32.572  32.101  1.00  0.00     0.074 A 
ATOM     50  C   UNL A   1      38.411  31.274  30.018  1.00  0.00     0.049 A 
ATOM     51  N   UNL A   1      39.124  32.040  32.834  1.00  0.00    -0.248 NA
ATOM     52  C   UNL A   1      37.469  33.686  32.752  1.00  0.00     0.031 C 
ATOM     53  C   UNL A   1      38.091  30.835  28.660  1.00  0.00     0.029 A 
ATOM     54  N   UNL A   1      39.497  30.514  30.371  1.00  0.00    -0.354 N 
ATOM     55  C   UNL A   1      39.119  32.743  34.029  1.00  0.00     0.074 A 
ATOM     56  C   UNL A   1      38.101  33.766  33.915  1.00  0.00     0.031 C 
ATOM     57  C   UNL A   1      38.932  29.846  28.312  1.00  0.00     0.029 A 
ATOM     58  C   UNL A   1      39.851  29.591  29.419  1.00  0.00     0.049 A 
ATOM     59  H   UNL A   1      39.975  30.619  31.226  1.00  0.00     0.167 HD
ATOM     60  C   UNL A   1      39.876  32.541  35.132  1.00  0.00     0.037 A 
ATOM     61  C   UNL A   1      40.795  28.632  29.447  1.00  0.00     0.037 A 
ATOM     62  C   UNL A   1      40.871  31.514  35.266  1.00  0.00     0.049 A 
ATOM     63  C   UNL A   1      41.655  28.461  30.665  1.00  0.00     0.074 A 
ATOM     64  C   UNL A   1      41.619  31.173  36.380  1.00  0.00     0.029 A 
ATOM     65  N   UNL A   1      41.265  30.666  34.244  1.00  0.00    -0.354 N 
ATOM     66  N   UNL A   1      41.587  29.081  31.816  1.00  0.00    -0.248 NA
ATOM     67  C   UNL A   1      42.727  27.458  30.583  1.00  0.00     0.031 C 
ATOM     68  C   UNL A   1      42.489  30.135  36.023  1.00  0.00     0.029 A 
ATOM     69  C   UNL A   1      42.270  29.824  34.691  1.00  0.00     0.049 A 
ATOM     70  H   UNL A   1      40.888  30.664  33.335  1.00  0.00     0.167 HD
ATOM     71  C   UNL A   1      42.597  28.538  32.599  1.00  0.00     0.074 A 
ATOM     72  C   UNL A   1      43.263  27.537  31.794  1.00  0.00     0.031 C 
ATOM     73  C   UNL A   1      42.934  28.844  33.874  1.00  0.00     0.037 A 
BRANCH  60  74
ATOM     74  C   UNL A   1      39.641  33.446  36.299  1.00  0.00     0.064 A 
ATOM     75  C   UNL A   1      40.270  34.696  36.382  1.00  0.00     0.173 A 
ATOM     76  C   UNL A   1      38.756  33.078  37.321  1.00  0.00     0.173 A 
ATOM     77  F   UNL A   1      41.137  35.080  35.433  1.00  0.00    -0.203 F 
ATOM     78  C   UNL A   1      40.027  35.546  37.457  1.00  0.00     0.198 A 
ATOM     79  C   UNL A   1      38.507  33.935  38.389  1.00  0.00     0.198 A 
ATOM     80  F   UNL A   1      38.138  31.888  37.284  1.00  0.00    -0.203 F 
ATOM     81  F   UNL A   1      40.655  36.727  37.531  1.00  0.00    -0.200 F 
ATOM     82  C   UNL A   1      39.143  35.166  38.457  1.00  0.00     0.200 A 
ATOM     83  F   UNL A   1      37.658  33.567  39.359  1.00  0.00    -0.200 F 
ATOM     84  F   UNL A   1      38.912  35.985  39.493  1.00  0.00    -0.200 F 
ENDBRANCH  60  74
BRANCH  61  85
ATOM     85  C   UNL A   1      40.944  27.722  28.289  1.00  0.00     0.064 A 
ATOM     86  C   UNL A   1      40.246  26.507  28.246  1.00  0.00     0.173 A 
ATOM     87  C   UNL A   1      41.770  28.049  27.208  1.00  0.00     0.173 A 
ATOM     88  F   UNL A   1      39.458  26.151  29.270  1.00  0.00    -0.203 F 
ATOM     89  C   UNL A   1      40.371  25.651  27.156  1.00  0.00     0.198 A 
ATOM     90  C   UNL A   1      41.889  27.194  26.114  1.00  0.00     0.198 A 
ATOM     91  F   UNL A   1      42.461  29.198  27.216  1.00  0.00    -0.203 F 
ATOM     92  F   UNL A   1      39.705  24.488  27.141  1.00  0.00    -0.200 F 
ATOM     93  C   UNL A   1      41.190  25.996  26.090  1.00  0.00     0.200 A 
ATOM     94  F   UNL A   1      42.681  27.529  25.087  1.00  0.00    -0.200 F 
ATOM     95  F   UNL A   1      41.309  25.170  25.041  1.00  0.00    -0.200 F 
ENDBRANCH  61  85
BRANCH  73  96
ATOM     96  C   UNL A   1      44.079  28.095  34.477  1.00  0.00     0.064 A 
ATOM     97  C   UNL A   1      43.878  26.865  35.116  1.00  0.00     0.173 A 
ATOM     98  C   UNL A   1      45.389  28.584  34.372  1.00  0.00     0.173 A 
ATOM     99  F   UNL A   1      42.638  26.369  35.249  1.00  0.00    -0.203 F 
ATOM    100  C   UNL A   1      44.952  26.149  35.637  1.00  0.00     0.198 A 
ATOM    101  C   UNL A   1      46.461  27.861  34.885  1.00  0.00     0.198 A 
ATOM    102  F   UNL A   1      45.625  29.757  33.767  1.00  0.00    -0.203 F 
ATOM    103  F   UNL A   1      44.739  24.982  36.262  1.00  0.00    -0.200 F 
ATOM    104  C   UNL A   1      46.242  26.645  35.516  1.00  0.00     0.200 A 
ATOM    105  F   UNL A   1      47.708  28.339  34.767  1.00  0.00    -0.200 F 
ATOM    106  F   UNL A   1      47.276  25.953  36.015  1.00  0.00    -0.200 F 
ENDBRANCH  73  96
ENDBRANCH  47  48
ENDBRANCH  39  42
ENDBRANCH  37  38
ENDBRANCH  36  37
ENDBRANCH   1  36
TORSDOF 14
ENDMDL
