MODEL 1
REMARK VINA RESULT:     -11.6      0.000      0.000
REMARK SMILES C[NH+](C)[C@H](CC(=O)Nc1cccc(Cl)c1)C(=O)NCCCNC(=O)c1ccc(-c2c3nc(c(-c4c(F)c(F)c(F)c(F)c4F)c4ccc([nH]4)c(-c4c(F)c(F)c(F)c(F)c4F)c4nc(c(-c5c(F)c(F)c(F)c(F)c5F)c5ccc2[nH]5)C=C4)C=C3)cc1
REMARK SMILES IDX 19 1 18 2 16 3 17 4 4 6 2 7 1 8 3 9 5 11 6 12 7 13 8 14 9 16
REMARK SMILES IDX 10 17 15 18 11 19 13 20 12 21 14 22 20 23 21 24 22 25 23 26
REMARK SMILES IDX 24 28 25 29 26 30 87 31 27 32 86 33 28 34 29 35 30 36 80 37
REMARK SMILES IDX 31 38 85 39 79 40 81 41 32 42 84 43 78 44 77 45 33 47 65 48
REMARK SMILES IDX 45 49 64 50 46 51 49 52 63 53 82 54 47 55 48 56 62 58 83 59
REMARK SMILES IDX 50 60 34 61 35 62 43 63 36 64 37 65 41 66 44 67 38 68 39 69
REMARK SMILES IDX 42 70 40 71 66 72 67 73 75 74 68 75 69 76 73 77 76 78 70 79
REMARK SMILES IDX 71 80 74 81 72 82 51 83 52 84 60 85 53 86 54 87 58 88 61 89
REMARK SMILES IDX 55 90 56 91 59 92 57 93
REMARK H PARENT 18 5 2 10 8 15 22 27 81 46 49 57
REMARK Flexibility Score: inf
ROOT
ATOM      1  C   UNL A   1      37.202  21.174  24.645  1.00  0.00     0.118 C 
ENDROOT
BRANCH   1   2
ATOM      2  N   UNL A   1      36.408  21.581  25.791  1.00  0.00    -0.351 N 
ATOM      3  C   UNL A   1      35.169  22.112  25.933  1.00  0.00     0.278 C 
ATOM      4  O   UNL A   1      34.744  22.137  27.098  1.00  0.00    -0.268 OA
ATOM      5  H   UNL A   1      36.869  21.441  26.650  1.00  0.00     0.163 HD
BRANCH   3   6
ATOM      6  C   UNL A   1      34.310  22.715  24.798  1.00  0.00     0.283 C 
BRANCH   6   7
ATOM      7  N   UNL A   1      34.167  24.201  24.856  1.00  0.00    -0.329 N 
ATOM      8  C   UNL A   1      33.197  24.767  25.774  1.00  0.00     0.333 C 
ATOM      9  C   UNL A   1      34.074  24.850  23.553  1.00  0.00     0.333 C 
ATOM     10  H   UNL A   1      35.067  24.427  25.280  1.00  0.00     0.348 HD
ENDBRANCH   6   7
BRANCH   6  11
ATOM     11  C   UNL A   1      33.208  21.817  24.199  1.00  0.00     0.175 C 
BRANCH  11  12
ATOM     12  C   UNL A   1      32.256  21.126  25.125  1.00  0.00     0.230 C 
ATOM     13  O   UNL A   1      31.392  21.798  25.702  1.00  0.00    -0.274 OA
ATOM     14  N   UNL A   1      32.229  19.786  25.348  1.00  0.00    -0.326 N 
ATOM     15  H   UNL A   1      31.428  19.518  25.853  1.00  0.00     0.169 HD
BRANCH  14  16
ATOM     16  C   UNL A   1      33.045  18.681  25.047  1.00  0.00     0.042 A 
ATOM     17  C   UNL A   1      34.364  18.728  24.604  1.00  0.00     0.026 A 
ATOM     18  C   UNL A   1      32.469  17.421  25.278  1.00  0.00     0.046 A 
ATOM     19  C   UNL A   1      35.104  17.549  24.428  1.00  0.00     0.004 A 
ATOM     20  C   UNL A   1      33.207  16.248  25.101  1.00  0.00     0.043 A 
ATOM     21  C   UNL A   1      34.527  16.308  24.680  1.00  0.00     0.020 A 
ATOM     22  Cl  UNL A   1      32.479  14.726  25.435  1.00  0.00    -0.084 Cl
ENDBRANCH  14  16
ENDBRANCH  11  12
ENDBRANCH   6  11
ENDBRANCH   3   6
ENDBRANCH   1   2
BRANCH   1  23
ATOM     23  C   UNL A   1      38.102  19.961  24.885  1.00  0.00     0.042 C 
BRANCH  23  24
ATOM     24  C   UNL A   1      39.015  20.031  26.100  1.00  0.00     0.118 C 
BRANCH  24  25
ATOM     25  N   UNL A   1      40.159  19.146  25.994  1.00  0.00    -0.352 N 
ATOM     26  C   UNL A   1      41.503  19.423  26.035  1.00  0.00     0.251 C 
ATOM     27  H   UNL A   1      39.937  18.194  25.873  1.00  0.00     0.163 HD
ATOM     28  O   UNL A   1      42.308  18.548  25.722  1.00  0.00    -0.269 OA
BRANCH  26  29
ATOM     29  C   UNL A   1      42.007  20.763  26.423  1.00  0.00     0.039 A 
ATOM     30  C   UNL A   1      42.179  21.040  27.784  1.00  0.00     0.014 A 
ATOM     31  C   UNL A   1      42.232  21.771  25.483  1.00  0.00     0.014 A 
ATOM     32  C   UNL A   1      42.614  22.304  28.194  1.00  0.00     0.010 A 
ATOM     33  C   UNL A   1      42.741  23.006  25.886  1.00  0.00     0.010 A 
ATOM     34  C   UNL A   1      42.918  23.294  27.247  1.00  0.00    -0.014 A 
BRANCH  34  35
ATOM     35  C   UNL A   1      43.372  24.647  27.668  1.00  0.00     0.031 A 
ATOM     36  C   UNL A   1      42.364  25.702  28.038  1.00  0.00     0.074 A 
ATOM     37  C   UNL A   1      44.685  24.946  27.677  1.00  0.00     0.049 A 
ATOM     38  N   UNL A   1      42.556  26.956  28.364  1.00  0.00    -0.248 NA
ATOM     39  C   UNL A   1      40.949  25.301  28.013  1.00  0.00     0.031 C 
ATOM     40  C   UNL A   1      45.765  24.033  27.307  1.00  0.00     0.029 A 
ATOM     41  N   UNL A   1      45.334  26.111  28.009  1.00  0.00    -0.354 N 
ATOM     42  C   UNL A   1      41.291  27.496  28.557  1.00  0.00     0.074 A 
ATOM     43  C   UNL A   1      40.336  26.447  28.273  1.00  0.00     0.031 C 
ATOM     44  C   UNL A   1      46.943  24.663  27.450  1.00  0.00     0.029 A 
ATOM     45  C   UNL A   1      46.700  26.033  27.893  1.00  0.00     0.049 A 
ATOM     46  H   UNL A   1      44.864  26.925  28.300  1.00  0.00     0.167 HD
ATOM     47  C   UNL A   1      40.954  28.746  28.952  1.00  0.00     0.037 A 
ATOM     48  C   UNL A   1      47.650  26.961  28.117  1.00  0.00     0.037 A 
ATOM     49  C   UNL A   1      41.899  29.780  29.284  1.00  0.00     0.049 A 
ATOM     50  C   UNL A   1      47.251  28.333  28.585  1.00  0.00     0.074 A 
ATOM     51  C   UNL A   1      41.652  31.058  29.756  1.00  0.00     0.029 A 
ATOM     52  N   UNL A   1      43.276  29.650  29.183  1.00  0.00    -0.354 N 
ATOM     53  N   UNL A   1      46.053  28.815  28.810  1.00  0.00    -0.248 NA
ATOM     54  C   UNL A   1      48.338  29.290  28.837  1.00  0.00     0.031 C 
ATOM     55  C   UNL A   1      42.880  31.711  29.916  1.00  0.00     0.029 A 
ATOM     56  C   UNL A   1      43.891  30.828  29.575  1.00  0.00     0.049 A 
ATOM     57  H   UNL A   1      43.746  28.841  28.879  1.00  0.00     0.167 HD
ATOM     58  C   UNL A   1      46.243  30.117  29.250  1.00  0.00     0.074 A 
ATOM     59  C   UNL A   1      47.672  30.350  29.273  1.00  0.00     0.031 C 
ATOM     60  C   UNL A   1      45.314  31.040  29.603  1.00  0.00     0.037 A 
BRANCH  47  61
ATOM     61  C   UNL A   1      39.492  29.067  29.060  1.00  0.00     0.064 A 
ATOM     62  C   UNL A   1      38.743  29.461  27.942  1.00  0.00     0.173 A 
ATOM     63  C   UNL A   1      38.827  28.945  30.289  1.00  0.00     0.173 A 
ATOM     64  F   UNL A   1      39.338  29.605  26.748  1.00  0.00    -0.203 F 
ATOM     65  C   UNL A   1      37.386  29.747  28.056  1.00  0.00     0.198 A 
ATOM     66  C   UNL A   1      37.464  29.206  30.393  1.00  0.00     0.198 A 
ATOM     67  F   UNL A   1      39.497  28.565  31.386  1.00  0.00    -0.203 F 
ATOM     68  F   UNL A   1      36.699  30.164  26.983  1.00  0.00    -0.200 F 
ATOM     69  C   UNL A   1      36.746  29.613  29.278  1.00  0.00     0.200 A 
ATOM     70  F   UNL A   1      36.844  29.066  31.574  1.00  0.00    -0.200 F 
ATOM     71  F   UNL A   1      35.437  29.884  29.385  1.00  0.00    -0.200 F 
ENDBRANCH  47  61
BRANCH  48  72
ATOM     72  C   UNL A   1      49.080  26.612  27.931  1.00  0.00     0.064 A 
ATOM     73  C   UNL A   1      49.892  26.306  29.032  1.00  0.00     0.173 A 
ATOM     74  C   UNL A   1      49.663  26.579  26.657  1.00  0.00     0.173 A 
ATOM     75  F   UNL A   1      49.382  26.348  30.271  1.00  0.00    -0.203 F 
ATOM     76  C   UNL A   1      51.239  25.993  28.866  1.00  0.00     0.198 A 
ATOM     77  C   UNL A   1      51.005  26.244  26.491  1.00  0.00     0.198 A 
ATOM     78  F   UNL A   1      48.926  26.863  25.574  1.00  0.00    -0.203 F 
ATOM     79  F   UNL A   1      52.003  25.742  29.938  1.00  0.00    -0.200 F 
ATOM     80  C   UNL A   1      51.793  25.958  27.596  1.00  0.00     0.200 A 
ATOM     81  F   UNL A   1      51.535  26.202  25.261  1.00  0.00    -0.200 F 
ATOM     82  F   UNL A   1      53.089  25.655  27.436  1.00  0.00    -0.200 F 
ENDBRANCH  48  72
BRANCH  60  83
ATOM     83  C   UNL A   1      45.814  32.373  30.072  1.00  0.00     0.064 A 
ATOM     84  C   UNL A   1      45.995  33.441  29.183  1.00  0.00     0.173 A 
ATOM     85  C   UNL A   1      46.077  32.594  31.432  1.00  0.00     0.173 A 
ATOM     86  F   UNL A   1      45.771  33.273  27.871  1.00  0.00    -0.203 F 
ATOM     87  C   UNL A   1      46.442  34.679  29.636  1.00  0.00     0.198 A 
ATOM     88  C   UNL A   1      46.503  33.840  31.885  1.00  0.00     0.198 A 
ATOM     89  F   UNL A   1      45.914  31.603  32.322  1.00  0.00    -0.203 F 
ATOM     90  F   UNL A   1      46.647  35.677  28.764  1.00  0.00    -0.200 F 
ATOM     91  C   UNL A   1      46.690  34.879  30.987  1.00  0.00     0.200 A 
ATOM     92  F   UNL A   1      46.733  34.034  33.191  1.00  0.00    -0.200 F 
ATOM     93  F   UNL A   1      47.117  36.073  31.421  1.00  0.00    -0.200 F 
ENDBRANCH  60  83
ENDBRANCH  34  35
ENDBRANCH  26  29
ENDBRANCH  24  25
ENDBRANCH  23  24
ENDBRANCH   1  23
TORSDOF 14
ENDMDL
MODEL 2
REMARK VINA RESULT:     -11.5      3.226      8.868
REMARK SMILES C[NH+](C)[C@H](CC(=O)Nc1cccc(Cl)c1)C(=O)NCCCNC(=O)c1ccc(-c2c3nc(c(-c4c(F)c(F)c(F)c(F)c4F)c4ccc([nH]4)c(-c4c(F)c(F)c(F)c(F)c4F)c4nc(c(-c5c(F)c(F)c(F)c(F)c5F)c5ccc2[nH]5)C=C4)C=C3)cc1
REMARK SMILES IDX 19 1 18 2 16 3 17 4 4 6 2 7 1 8 3 9 5 11 6 12 7 13 8 14 9 16
REMARK SMILES IDX 10 17 15 18 11 19 13 20 12 21 14 22 20 23 21 24 22 25 23 26
REMARK SMILES IDX 24 28 25 29 26 30 87 31 27 32 86 33 28 34 29 35 30 36 80 37
REMARK SMILES IDX 31 38 85 39 79 40 81 41 32 42 84 43 78 44 77 45 33 47 65 48
REMARK SMILES IDX 45 49 64 50 46 51 49 52 63 53 82 54 47 55 48 56 62 58 83 59
REMARK SMILES IDX 50 60 34 61 35 62 43 63 36 64 37 65 41 66 44 67 38 68 39 69
REMARK SMILES IDX 42 70 40 71 66 72 67 73 75 74 68 75 69 76 73 77 76 78 70 79
REMARK SMILES IDX 71 80 74 81 72 82 51 83 52 84 60 85 53 86 54 87 58 88 61 89
REMARK SMILES IDX 55 90 56 91 59 92 57 93
REMARK H PARENT 18 5 2 10 8 15 22 27 81 46 49 57
REMARK Flexibility Score: inf
ROOT
ATOM      1  C   UNL A   1      34.595  23.747  25.619  1.00  0.00     0.118 C 
ENDROOT
BRANCH   1   2
ATOM      2  N   UNL A   1      33.949  23.336  26.852  1.00  0.00    -0.351 N 
ATOM      3  C   UNL A   1      32.871  22.564  27.134  1.00  0.00     0.278 C 
ATOM      4  O   UNL A   1      32.742  22.267  28.332  1.00  0.00    -0.268 OA
ATOM      5  H   UNL A   1      34.388  23.695  27.658  1.00  0.00     0.163 HD
BRANCH   3   6
ATOM      6  C   UNL A   1      31.807  22.093  26.117  1.00  0.00     0.283 C 
BRANCH   6   7
ATOM      7  N   UNL A   1      32.207  20.896  25.317  1.00  0.00    -0.329 N 
ATOM      8  C   UNL A   1      33.268  20.047  25.826  1.00  0.00     0.333 C 
ATOM      9  C   UNL A   1      32.403  21.158  23.895  1.00  0.00     0.333 C 
ATOM     10  H   UNL A   1      31.364  20.336  25.443  1.00  0.00     0.348 HD
ENDBRANCH   6   7
BRANCH   6  11
ATOM     11  C   UNL A   1      30.855  23.165  25.549  1.00  0.00     0.175 C 
BRANCH  11  12
ATOM     12  C   UNL A   1      30.370  24.254  26.455  1.00  0.00     0.230 C 
ATOM     13  O   UNL A   1      29.438  24.012  27.233  1.00  0.00    -0.274 OA
ATOM     14  N   UNL A   1      30.916  25.497  26.533  1.00  0.00    -0.326 N 
ATOM     15  H   UNL A   1      30.564  26.000  27.302  1.00  0.00     0.169 HD
BRANCH  14  16
ATOM     16  C   UNL A   1      31.850  26.252  25.802  1.00  0.00     0.042 A 
ATOM     17  C   UNL A   1      31.940  26.334  24.415  1.00  0.00     0.026 A 
ATOM     18  C   UNL A   1      32.731  27.033  26.570  1.00  0.00     0.046 A 
ATOM     19  C   UNL A   1      32.860  27.199  23.806  1.00  0.00     0.004 A 
ATOM     20  C   UNL A   1      33.647  27.893  25.961  1.00  0.00     0.043 A 
ATOM     21  C   UNL A   1      33.712  27.983  24.578  1.00  0.00     0.020 A 
ATOM     22  Cl  UNL A   1      34.679  28.866  26.935  1.00  0.00    -0.084 Cl
ENDBRANCH  14  16
ENDBRANCH  11  12
ENDBRANCH   6  11
ENDBRANCH   3   6
ENDBRANCH   1   2
BRANCH   1  23
ATOM     23  C   UNL A   1      36.016  24.286  25.787  1.00  0.00     0.042 C 
BRANCH  23  24
ATOM     24  C   UNL A   1      37.064  23.727  24.834  1.00  0.00     0.118 C 
BRANCH  24  25
ATOM     25  N   UNL A   1      37.860  22.674  25.434  1.00  0.00    -0.352 N 
ATOM     26  C   UNL A   1      38.980  22.749  26.226  1.00  0.00     0.251 C 
ATOM     27  H   UNL A   1      37.550  21.759  25.244  1.00  0.00     0.163 HD
ATOM     28  O   UNL A   1      39.620  21.726  26.462  1.00  0.00    -0.269 OA
BRANCH  26  29
ATOM     29  C   UNL A   1      39.451  24.041  26.782  1.00  0.00     0.039 A 
ATOM     30  C   UNL A   1      39.093  24.371  28.093  1.00  0.00     0.014 A 
ATOM     31  C   UNL A   1      40.165  24.962  26.012  1.00  0.00     0.014 A 
ATOM     32  C   UNL A   1      39.483  25.597  28.641  1.00  0.00     0.010 A 
ATOM     33  C   UNL A   1      40.622  26.151  26.583  1.00  0.00     0.010 A 
ATOM     34  C   UNL A   1      40.269  26.491  27.898  1.00  0.00    -0.014 A 
BRANCH  34  35
ATOM     35  C   UNL A   1      40.684  27.803  28.462  1.00  0.00     0.031 A 
ATOM     36  C   UNL A   1      42.123  28.048  28.826  1.00  0.00     0.074 A 
ATOM     37  C   UNL A   1      39.765  28.761  28.690  1.00  0.00     0.049 A 
ATOM     38  N   UNL A   1      42.670  29.097  29.391  1.00  0.00    -0.248 NA
ATOM     39  C   UNL A   1      43.072  26.961  28.541  1.00  0.00     0.031 C 
ATOM     40  C   UNL A   1      38.333  28.643  28.419  1.00  0.00     0.029 A 
ATOM     41  N   UNL A   1      39.902  30.027  29.208  1.00  0.00    -0.354 N 
ATOM     42  C   UNL A   1      44.013  28.785  29.551  1.00  0.00     0.074 A 
ATOM     43  C   UNL A   1      44.195  27.435  29.062  1.00  0.00     0.031 C 
ATOM     44  C   UNL A   1      37.725  29.794  28.753  1.00  0.00     0.029 A 
ATOM     45  C   UNL A   1      38.720  30.719  29.289  1.00  0.00     0.049 A 
ATOM     46  H   UNL A   1      40.767  30.400  29.494  1.00  0.00     0.167 HD
ATOM     47  C   UNL A   1      45.011  29.557  30.043  1.00  0.00     0.037 A 
ATOM     48  C   UNL A   1      38.465  31.961  29.747  1.00  0.00     0.037 A 
ATOM     49  C   UNL A   1      44.847  30.917  30.486  1.00  0.00     0.049 A 
ATOM     50  C   UNL A   1      39.595  32.809  30.260  1.00  0.00     0.074 A 
ATOM     51  C   UNL A   1      45.813  31.799  30.941  1.00  0.00     0.029 A 
ATOM     52  N   UNL A   1      43.637  31.593  30.524  1.00  0.00    -0.354 N 
ATOM     53  N   UNL A   1      40.869  32.518  30.360  1.00  0.00    -0.248 NA
ATOM     54  C   UNL A   1      39.252  34.163  30.719  1.00  0.00     0.031 C 
ATOM     55  C   UNL A   1      45.182  33.002  31.279  1.00  0.00     0.029 A 
ATOM     56  C   UNL A   1      43.830  32.879  31.002  1.00  0.00     0.049 A 
ATOM     57  H   UNL A   1      42.771  31.215  30.250  1.00  0.00     0.167 HD
ATOM     58  C   UNL A   1      41.481  33.655  30.868  1.00  0.00     0.074 A 
ATOM     59  C   UNL A   1      40.441  34.648  31.046  1.00  0.00     0.031 C 
ATOM     60  C   UNL A   1      42.788  33.858  31.164  1.00  0.00     0.037 A 
BRANCH  47  61
ATOM     61  C   UNL A   1      46.381  28.950  30.121  1.00  0.00     0.064 A 
ATOM     62  C   UNL A   1      47.284  29.037  29.052  1.00  0.00     0.173 A 
ATOM     63  C   UNL A   1      46.807  28.306  31.292  1.00  0.00     0.173 A 
ATOM     64  F   UNL A   1      46.918  29.633  27.907  1.00  0.00    -0.203 F 
ATOM     65  C   UNL A   1      48.555  28.477  29.142  1.00  0.00     0.198 A 
ATOM     66  C   UNL A   1      48.088  27.770  31.388  1.00  0.00     0.198 A 
ATOM     67  F   UNL A   1      45.983  28.202  32.345  1.00  0.00    -0.203 F 
ATOM     68  F   UNL A   1      49.386  28.534  28.092  1.00  0.00    -0.200 F 
ATOM     69  C   UNL A   1      48.959  27.851  30.311  1.00  0.00     0.200 A 
ATOM     70  F   UNL A   1      48.481  27.173  32.522  1.00  0.00    -0.200 F 
ATOM     71  F   UNL A   1      50.185  27.316  30.398  1.00  0.00    -0.200 F 
ENDBRANCH  47  61
BRANCH  48  72
ATOM     72  C   UNL A   1      37.079  32.490  29.710  1.00  0.00     0.064 A 
ATOM     73  C   UNL A   1      36.203  32.280  30.783  1.00  0.00     0.173 A 
ATOM     74  C   UNL A   1      36.603  33.212  28.607  1.00  0.00     0.173 A 
ATOM     75  F   UNL A   1      36.609  31.574  31.849  1.00  0.00    -0.203 F 
ATOM     76  C   UNL A   1      34.896  32.760  30.748  1.00  0.00     0.198 A 
ATOM     77  C   UNL A   1      35.302  33.710  28.583  1.00  0.00     0.198 A 
ATOM     78  F   UNL A   1      37.405  33.440  27.556  1.00  0.00    -0.203 F 
ATOM     79  F   UNL A   1      34.066  32.512  31.771  1.00  0.00    -0.200 F 
ATOM     80  C   UNL A   1      34.448  33.478  29.651  1.00  0.00     0.200 A 
ATOM     81  F   UNL A   1      34.876  34.412  27.525  1.00  0.00    -0.200 F 
ATOM     82  F   UNL A   1      33.191  33.942  29.618  1.00  0.00    -0.200 F 
ENDBRANCH  48  72
BRANCH  60  83
ATOM     83  C   UNL A   1      43.174  35.211  31.680  1.00  0.00     0.064 A 
ATOM     84  C   UNL A   1      43.091  35.526  33.043  1.00  0.00     0.173 A 
ATOM     85  C   UNL A   1      43.668  36.190  30.806  1.00  0.00     0.173 A 
ATOM     86  F   UNL A   1      42.610  34.627  33.915  1.00  0.00    -0.203 F 
ATOM     87  C   UNL A   1      43.471  36.781  33.511  1.00  0.00     0.198 A 
ATOM     88  C   UNL A   1      44.068  37.437  31.279  1.00  0.00     0.198 A 
ATOM     89  F   UNL A   1      43.770  35.934  29.492  1.00  0.00    -0.203 F 
ATOM     90  F   UNL A   1      43.347  37.076  34.812  1.00  0.00    -0.200 F 
ATOM     91  C   UNL A   1      43.964  37.733  32.630  1.00  0.00     0.200 A 
ATOM     92  F   UNL A   1      44.552  38.352  30.429  1.00  0.00    -0.200 F 
ATOM     93  F   UNL A   1      44.332  38.939  33.083  1.00  0.00    -0.200 F 
ENDBRANCH  60  83
ENDBRANCH  34  35
ENDBRANCH  26  29
ENDBRANCH  24  25
ENDBRANCH  23  24
ENDBRANCH   1  23
TORSDOF 14
ENDMDL
MODEL 3
REMARK VINA RESULT:     -11.5      6.376     10.392
REMARK SMILES C[NH+](C)[C@H](CC(=O)Nc1cccc(Cl)c1)C(=O)NCCCNC(=O)c1ccc(-c2c3nc(c(-c4c(F)c(F)c(F)c(F)c4F)c4ccc([nH]4)c(-c4c(F)c(F)c(F)c(F)c4F)c4nc(c(-c5c(F)c(F)c(F)c(F)c5F)c5ccc2[nH]5)C=C4)C=C3)cc1
REMARK SMILES IDX 19 1 18 2 16 3 17 4 4 6 2 7 1 8 3 9 5 11 6 12 7 13 8 14 9 16
REMARK SMILES IDX 10 17 15 18 11 19 13 20 12 21 14 22 20 23 21 24 22 25 23 26
REMARK SMILES IDX 24 28 25 29 26 30 87 31 27 32 86 33 28 34 29 35 30 36 80 37
REMARK SMILES IDX 31 38 85 39 79 40 81 41 32 42 84 43 78 44 77 45 33 47 65 48
REMARK SMILES IDX 45 49 64 50 46 51 49 52 63 53 82 54 47 55 48 56 62 58 83 59
REMARK SMILES IDX 50 60 34 61 35 62 43 63 36 64 37 65 41 66 44 67 38 68 39 69
REMARK SMILES IDX 42 70 40 71 66 72 67 73 75 74 68 75 69 76 73 77 76 78 70 79
REMARK SMILES IDX 71 80 74 81 72 82 51 83 52 84 60 85 53 86 54 87 58 88 61 89
REMARK SMILES IDX 55 90 56 91 59 92 57 93
REMARK H PARENT 18 5 2 10 8 15 22 27 81 46 49 57
REMARK Flexibility Score: inf
ROOT
ATOM      1  C   UNL A   1      31.139  30.777  25.962  1.00  0.00     0.118 C 
ENDROOT
BRANCH   1   2
ATOM      2  N   UNL A   1      32.206  30.271  25.118  1.00  0.00    -0.351 N 
ATOM      3  C   UNL A   1      32.331  29.190  24.310  1.00  0.00     0.278 C 
ATOM      4  O   UNL A   1      33.335  29.199  23.580  1.00  0.00    -0.268 OA
ATOM      5  H   UNL A   1      33.015  30.834  25.137  1.00  0.00     0.163 HD
BRANCH   3   6
ATOM      6  C   UNL A   1      31.379  27.974  24.276  1.00  0.00     0.283 C 
BRANCH   6   7
ATOM      7  N   UNL A   1      31.889  26.772  25.002  1.00  0.00    -0.329 N 
ATOM      8  C   UNL A   1      31.855  25.489  24.326  1.00  0.00     0.333 C 
ATOM      9  C   UNL A   1      31.399  26.640  26.370  1.00  0.00     0.333 C 
ATOM     10  H   UNL A   1      32.880  27.012  25.022  1.00  0.00     0.348 HD
ENDBRANCH   6   7
BRANCH   6  11
ATOM     11  C   UNL A   1      30.444  27.847  23.056  1.00  0.00     0.175 C 
BRANCH  11  12
ATOM     12  C   UNL A   1      28.963  27.847  23.276  1.00  0.00     0.230 C 
ATOM     13  O   UNL A   1      28.438  26.854  23.796  1.00  0.00    -0.274 OA
ATOM     14  N   UNL A   1      28.139  28.890  22.996  1.00  0.00    -0.326 N 
ATOM     15  H   UNL A   1      27.239  28.752  23.369  1.00  0.00     0.169 HD
BRANCH  14  16
ATOM     16  C   UNL A   1      28.234  30.115  22.312  1.00  0.00     0.042 A 
ATOM     17  C   UNL A   1      27.854  30.356  20.994  1.00  0.00     0.026 A 
ATOM     18  C   UNL A   1      28.711  31.197  23.071  1.00  0.00     0.046 A 
ATOM     19  C   UNL A   1      27.913  31.648  20.455  1.00  0.00     0.004 A 
ATOM     20  C   UNL A   1      28.771  32.484  22.531  1.00  0.00     0.043 A 
ATOM     21  C   UNL A   1      28.368  32.716  21.224  1.00  0.00     0.020 A 
ATOM     22  Cl  UNL A   1      29.319  33.792  23.505  1.00  0.00    -0.084 Cl
ENDBRANCH  14  16
ENDBRANCH  11  12
ENDBRANCH   6  11
ENDBRANCH   3   6
ENDBRANCH   1   2
BRANCH   1  23
ATOM     23  C   UNL A   1      31.285  32.241  26.376  1.00  0.00     0.042 C 
BRANCH  23  24
ATOM     24  C   UNL A   1      32.527  32.591  27.184  1.00  0.00     0.118 C 
BRANCH  24  25
ATOM     25  N   UNL A   1      32.562  33.985  27.582  1.00  0.00    -0.352 N 
ATOM     26  C   UNL A   1      33.323  34.616  28.535  1.00  0.00     0.251 C 
ATOM     27  H   UNL A   1      31.942  34.572  27.092  1.00  0.00     0.163 HD
ATOM     28  O   UNL A   1      33.050  35.773  28.853  1.00  0.00    -0.269 OA
BRANCH  26  29
ATOM     29  C   UNL A   1      34.450  33.928  29.209  1.00  0.00     0.039 A 
ATOM     30  C   UNL A   1      35.755  34.285  28.855  1.00  0.00     0.014 A 
ATOM     31  C   UNL A   1      34.245  32.886  30.118  1.00  0.00     0.014 A 
ATOM     32  C   UNL A   1      36.845  33.632  29.438  1.00  0.00     0.010 A 
ATOM     33  C   UNL A   1      35.331  32.289  30.758  1.00  0.00     0.010 A 
ATOM     34  C   UNL A   1      36.644  32.640  30.411  1.00  0.00    -0.014 A 
BRANCH  34  35
ATOM     35  C   UNL A   1      37.793  31.929  31.033  1.00  0.00     0.031 A 
ATOM     36  C   UNL A   1      38.227  32.274  32.433  1.00  0.00     0.074 A 
ATOM     37  C   UNL A   1      38.476  31.005  30.331  1.00  0.00     0.049 A 
ATOM     38  N   UNL A   1      39.242  31.816  33.123  1.00  0.00    -0.248 NA
ATOM     39  C   UNL A   1      37.430  33.285  33.142  1.00  0.00     0.031 C 
ATOM     40  C   UNL A   1      38.186  30.602  28.955  1.00  0.00     0.029 A 
ATOM     41  N   UNL A   1      39.562  30.238  30.681  1.00  0.00    -0.354 N 
ATOM     42  C   UNL A   1      39.220  32.501  34.331  1.00  0.00     0.074 A 
ATOM     43  C   UNL A   1      38.115  33.434  34.266  1.00  0.00     0.031 C 
ATOM     44  C   UNL A   1      39.058  29.649  28.583  1.00  0.00     0.029 A 
ATOM     45  C   UNL A   1      39.985  29.396  29.683  1.00  0.00     0.049 A 
ATOM     46  H   UNL A   1      39.995  30.290  31.563  1.00  0.00     0.167 HD
ATOM     47  C   UNL A   1      40.032  32.355  35.405  1.00  0.00     0.037 A 
ATOM     48  C   UNL A   1      41.007  28.519  29.656  1.00  0.00     0.037 A 
ATOM     49  C   UNL A   1      41.101  31.396  35.494  1.00  0.00     0.049 A 
ATOM     50  C   UNL A   1      41.876  28.354  30.872  1.00  0.00     0.074 A 
ATOM     51  C   UNL A   1      41.936  31.131  36.567  1.00  0.00     0.029 A 
ATOM     52  N   UNL A   1      41.478  30.538  34.472  1.00  0.00    -0.354 N 
ATOM     53  N   UNL A   1      41.811  28.974  32.025  1.00  0.00    -0.248 NA
ATOM     54  C   UNL A   1      42.956  27.360  30.786  1.00  0.00     0.031 C 
ATOM     55  C   UNL A   1      42.837  30.130  36.183  1.00  0.00     0.029 A 
ATOM     56  C   UNL A   1      42.539  29.750  34.885  1.00  0.00     0.049 A 
ATOM     57  H   UNL A   1      41.053  30.496  33.585  1.00  0.00     0.167 HD
ATOM     58  C   UNL A   1      42.823  28.432  32.806  1.00  0.00     0.074 A 
ATOM     59  C   UNL A   1      43.480  27.423  32.001  1.00  0.00     0.031 C 
ATOM     60  C   UNL A   1      43.176  28.744  34.077  1.00  0.00     0.037 A 
BRANCH  47  61
ATOM     61  C   UNL A   1      39.788  33.252  36.583  1.00  0.00     0.064 A 
ATOM     62  C   UNL A   1      40.450  34.481  36.719  1.00  0.00     0.173 A 
ATOM     63  C   UNL A   1      38.857  32.893  37.568  1.00  0.00     0.173 A 
ATOM     64  F   UNL A   1      41.359  34.862  35.808  1.00  0.00    -0.203 F 
ATOM     65  C   UNL A   1      40.207  35.306  37.813  1.00  0.00     0.198 A 
ATOM     66  C   UNL A   1      38.598  33.734  38.647  1.00  0.00     0.198 A 
ATOM     67  F   UNL A   1      38.193  31.731  37.481  1.00  0.00    -0.203 F 
ATOM     68  F   UNL A   1      40.883  36.456  37.945  1.00  0.00    -0.200 F 
ATOM     69  C   UNL A   1      39.278  34.936  38.772  1.00  0.00     0.200 A 
ATOM     70  F   UNL A   1      37.691  33.379  39.569  1.00  0.00    -0.200 F 
ATOM     71  F   UNL A   1      39.041  35.735  39.823  1.00  0.00    -0.200 F 
ENDBRANCH  47  61
BRANCH  48  72
ATOM     72  C   UNL A   1      41.246  27.702  28.440  1.00  0.00     0.064 A 
ATOM     73  C   UNL A   1      42.174  28.112  27.473  1.00  0.00     0.173 A 
ATOM     74  C   UNL A   1      40.556  26.503  28.220  1.00  0.00     0.173 A 
ATOM     75  F   UNL A   1      42.840  29.265  27.631  1.00  0.00    -0.203 F 
ATOM     76  C   UNL A   1      42.391  27.359  26.321  1.00  0.00     0.198 A 
ATOM     77  C   UNL A   1      40.791  25.739  27.078  1.00  0.00     0.198 A 
ATOM     78  F   UNL A   1      39.660  26.068  29.118  1.00  0.00    -0.203 F 
ATOM     79  F   UNL A   1      43.255  27.793  25.393  1.00  0.00    -0.200 F 
ATOM     80  C   UNL A   1      41.703  26.171  26.127  1.00  0.00     0.200 A 
ATOM     81  F   UNL A   1      40.131  24.587  26.898  1.00  0.00    -0.200 F 
ATOM     82  F   UNL A   1      41.915  25.446  25.021  1.00  0.00    -0.200 F 
ENDBRANCH  48  72
BRANCH  60  83
ATOM     83  C   UNL A   1      44.304  27.967  34.686  1.00  0.00     0.064 A 
ATOM     84  C   UNL A   1      45.625  28.434  34.637  1.00  0.00     0.173 A 
ATOM     85  C   UNL A   1      44.054  26.763  35.360  1.00  0.00     0.173 A 
ATOM     86  F   UNL A   1      45.915  29.573  33.991  1.00  0.00    -0.203 F 
ATOM     87  C   UNL A   1      46.660  27.711  35.224  1.00  0.00     0.198 A 
ATOM     88  C   UNL A   1      45.088  26.053  35.965  1.00  0.00     0.198 A 
ATOM     89  F   UNL A   1      42.805  26.278  35.438  1.00  0.00    -0.203 F 
ATOM     90  F   UNL A   1      47.921  28.154  35.133  1.00  0.00    -0.200 F 
ATOM     91  C   UNL A   1      46.390  26.525  35.893  1.00  0.00     0.200 A 
ATOM     92  F   UNL A   1      44.824  24.913  36.618  1.00  0.00    -0.200 F 
ATOM     93  F   UNL A   1      47.387  25.832  36.460  1.00  0.00    -0.200 F 
ENDBRANCH  60  83
ENDBRANCH  34  35
ENDBRANCH  26  29
ENDBRANCH  24  25
ENDBRANCH  23  24
ENDBRANCH   1  23
TORSDOF 14
ENDMDL
