MODEL 1
REMARK VINA RESULT:     -14.8      0.000      0.000
REMARK SMILES Cc1cccc(C(=O)Nc2cc(C(=O)NCCCNC(=O)c3ccc(-c4c5nc(c(-c6c(F)c(F)c(F)c(F)c6F)c6ccc([nH]6)c(-c6c(F)c(F)c(F)c(F)c6F)c6nc(c(-c7c(F)c(F)c(F)c(F)c7F)c7ccc4[nH]7)C=C6)C=C5)cc3)ccc2N2CC[NH+](CC(=O)NC(C)(C)C)CC2)c1
REMARK SMILES IDX 16 1 15 2 13 3 14 4 12 6 10 7 11 8 87 9 86 10 85 11 9 12
REMARK SMILES IDX 7 13 8 14 6 16 1 17 2 18 3 19 102 20 4 21 5 22 88 23 89 24
REMARK SMILES IDX 101 25 90 26 100 27 91 28 92 30 93 31 94 32 95 33 96 35
REMARK SMILES IDX 97 36 98 37 99 38 17 39 18 40 19 41 20 42 21 44 22 45 23 46
REMARK SMILES IDX 84 47 24 48 83 49 25 50 26 51 27 52 77 53 28 54 82 55 76 56
REMARK SMILES IDX 78 57 29 58 81 59 75 60 74 61 30 63 62 64 42 65 61 66 43 67
REMARK SMILES IDX 46 68 60 69 79 70 44 71 45 72 59 74 80 75 47 76 31 77 32 78
REMARK SMILES IDX 40 79 33 80 34 81 38 82 41 83 35 84 36 85 39 86 37 87 63 88
REMARK SMILES IDX 64 89 72 90 65 91 66 92 70 93 73 94 67 95 68 96 71 97 69 98
REMARK SMILES IDX 48 99 49 100 57 101 50 102 51 103 55 104 58 105 52 106
REMARK SMILES IDX 53 107 56 108 54 109
REMARK H PARENT 15 5 9 15 91 29 95 34 19 43 78 62 46 73
REMARK Flexibility Score: inf
ROOT
ATOM      1  C   UNL A   1      34.047  31.622  27.998  1.00  0.00     0.118 C 
ENDROOT
BRANCH   1   2
ATOM      2  N   UNL A   1      32.895  31.989  27.166  1.00  0.00    -0.352 N 
ATOM      3  C   UNL A   1      31.887  31.283  26.534  1.00  0.00     0.251 C 
ATOM      4  O   UNL A   1      30.954  31.944  26.073  1.00  0.00    -0.269 OA
ATOM      5  H   UNL A   1      32.823  32.960  27.024  1.00  0.00     0.163 HD
BRANCH   3   6
ATOM      6  C   UNL A   1      31.851  29.799  26.362  1.00  0.00     0.042 A 
ATOM      7  C   UNL A   1      31.795  27.826  24.949  1.00  0.00     0.065 A 
ATOM      8  C   UNL A   1      31.785  29.200  25.124  1.00  0.00     0.042 A 
ATOM      9  C   UNL A   1      31.797  26.942  26.051  1.00  0.00     0.061 A 
ATOM     10  C   UNL A   1      31.838  27.538  27.318  1.00  0.00     0.029 A 
ATOM     11  C   UNL A   1      31.888  28.944  27.472  1.00  0.00     0.016 A 
BRANCH   7  12
ATOM     12  N   UNL A   1      31.805  27.326  23.633  1.00  0.00    -0.320 N 
ATOM     13  C   UNL A   1      30.940  27.549  22.574  1.00  0.00     0.255 C 
ATOM     14  O   UNL A   1      31.195  27.009  21.495  1.00  0.00    -0.269 OA
ATOM     15  H   UNL A   1      32.551  26.716  23.430  1.00  0.00     0.170 HD
BRANCH  13  16
ATOM     16  C   UNL A   1      29.743  28.451  22.645  1.00  0.00     0.040 A 
ATOM     17  C   UNL A   1      28.754  32.132  22.569  1.00  0.00     0.044 C 
ATOM     18  C   UNL A   1      28.646  30.633  22.625  1.00  0.00    -0.050 A 
ATOM     19  C   UNL A   1      27.470  30.042  23.095  1.00  0.00     0.003 A 
ATOM     20  C   UNL A   1      29.750  29.816  22.322  1.00  0.00     0.017 A 
ATOM     21  C   UNL A   1      27.408  28.664  23.292  1.00  0.00     0.001 A 
ATOM     22  C   UNL A   1      28.542  27.876  23.086  1.00  0.00     0.014 A 
ENDBRANCH  13  16
ENDBRANCH   7  12
BRANCH   9  23
ATOM     23  N   UNL A   1      31.866  25.572  25.852  1.00  0.00    -0.359 N 
ATOM     24  C   UNL A   1      30.775  24.609  26.091  1.00  0.00     0.178 C 
ATOM     25  C   UNL A   1      33.173  24.952  26.066  1.00  0.00     0.178 C 
ATOM     26  C   UNL A   1      31.039  23.261  25.321  1.00  0.00     0.284 C 
ATOM     27  C   UNL A   1      33.362  23.868  24.995  1.00  0.00     0.284 C 
ATOM     28  N   UNL A   1      32.427  22.757  25.159  1.00  0.00    -0.324 N 
ATOM     29  H   UNL A   1      32.395  22.212  24.296  1.00  0.00     0.348 HD
BRANCH  28  30
ATOM     30  C   UNL A   1      32.896  21.741  26.120  1.00  0.00     0.363 C 
BRANCH  30  31
ATOM     31  C   UNL A   1      34.208  21.050  25.770  1.00  0.00     0.275 C 
ATOM     32  O   UNL A   1      35.279  21.650  25.943  1.00  0.00    -0.268 OA
ATOM     33  N   UNL A   1      34.310  19.795  25.249  1.00  0.00    -0.347 N 
ATOM     34  H   UNL A   1      35.254  19.517  25.225  1.00  0.00     0.164 HD
BRANCH  33  35
ATOM     35  C   UNL A   1      33.446  18.707  24.706  1.00  0.00     0.032 C 
ATOM     36  C   UNL A   1      32.528  19.215  23.576  1.00  0.00     0.034 C 
ATOM     37  C   UNL A   1      34.402  17.687  24.047  1.00  0.00     0.034 C 
ATOM     38  C   UNL A   1      32.615  17.956  25.749  1.00  0.00     0.034 C 
ENDBRANCH  33  35
ENDBRANCH  30  31
ENDBRANCH  28  30
ENDBRANCH   9  23
ENDBRANCH   3   6
ENDBRANCH   1   2
BRANCH   1  39
ATOM     39  C   UNL A   1      34.845  32.812  28.546  1.00  0.00     0.042 C 
BRANCH  39  40
ATOM     40  C   UNL A   1      34.998  32.823  30.048  1.00  0.00     0.118 C 
BRANCH  40  41
ATOM     41  N   UNL A   1      33.968  33.566  30.771  1.00  0.00    -0.352 N 
ATOM     42  C   UNL A   1      34.053  34.064  32.070  1.00  0.00     0.251 C 
ATOM     43  H   UNL A   1      33.125  33.733  30.289  1.00  0.00     0.163 HD
ATOM     44  O   UNL A   1      33.142  34.651  32.601  1.00  0.00    -0.269 OA
BRANCH  42  45
ATOM     45  C   UNL A   1      35.378  33.937  32.728  1.00  0.00     0.039 A 
ATOM     46  C   UNL A   1      36.375  34.811  32.291  1.00  0.00     0.014 A 
ATOM     47  C   UNL A   1      35.690  32.734  33.357  1.00  0.00     0.014 A 
ATOM     48  C   UNL A   1      37.686  34.351  32.232  1.00  0.00     0.010 A 
ATOM     49  C   UNL A   1      36.967  32.237  33.183  1.00  0.00     0.010 A 
ATOM     50  C   UNL A   1      37.947  33.018  32.554  1.00  0.00    -0.014 A 
BRANCH  50  51
ATOM     51  C   UNL A   1      39.194  32.351  32.195  1.00  0.00     0.031 A 
ATOM     52  C   UNL A   1      39.149  31.151  31.333  1.00  0.00     0.074 A 
ATOM     53  C   UNL A   1      40.393  32.820  32.617  1.00  0.00     0.049 A 
ATOM     54  N   UNL A   1      40.034  30.212  31.348  1.00  0.00    -0.248 NA
ATOM     55  C   UNL A   1      38.053  30.893  30.407  1.00  0.00     0.031 C 
ATOM     56  C   UNL A   1      41.712  32.393  32.151  1.00  0.00     0.029 A 
ATOM     57  N   UNL A   1      40.669  33.664  33.708  1.00  0.00    -0.354 N 
ATOM     58  C   UNL A   1      39.780  29.380  30.283  1.00  0.00     0.074 A 
ATOM     59  C   UNL A   1      38.507  29.819  29.759  1.00  0.00     0.031 C 
ATOM     60  C   UNL A   1      42.625  32.697  33.087  1.00  0.00     0.029 A 
ATOM     61  C   UNL A   1      41.910  33.223  34.232  1.00  0.00     0.049 A 
ATOM     62  H   UNL A   1      40.114  34.407  34.038  1.00  0.00     0.167 HD
ATOM     63  C   UNL A   1      40.733  28.490  29.884  1.00  0.00     0.037 A 
ATOM     64  C   UNL A   1      42.041  32.778  35.515  1.00  0.00     0.037 A 
ATOM     65  C   UNL A   1      41.898  28.524  30.763  1.00  0.00     0.049 A 
ATOM     66  C   UNL A   1      42.533  31.355  35.626  1.00  0.00     0.074 A 
ATOM     67  C   UNL A   1      43.121  29.170  30.673  1.00  0.00     0.029 A 
ATOM     68  N   UNL A   1      41.777  28.097  32.081  1.00  0.00    -0.354 N 
ATOM     69  N   UNL A   1      42.553  30.519  34.626  1.00  0.00    -0.248 NA
ATOM     70  C   UNL A   1      42.984  30.743  36.873  1.00  0.00     0.031 C 
ATOM     71  C   UNL A   1      43.720  29.164  31.954  1.00  0.00     0.029 A 
ATOM     72  C   UNL A   1      42.869  28.505  32.824  1.00  0.00     0.049 A 
ATOM     73  H   UNL A   1      41.021  27.576  32.435  1.00  0.00     0.167 HD
ATOM     74  C   UNL A   1      42.947  29.284  35.070  1.00  0.00     0.074 A 
ATOM     75  C   UNL A   1      43.239  29.484  36.477  1.00  0.00     0.031 C 
ATOM     76  C   UNL A   1      42.972  28.199  34.243  1.00  0.00     0.037 A 
BRANCH  63  77
ATOM     77  C   UNL A   1      40.718  27.828  28.524  1.00  0.00     0.064 A 
ATOM     78  C   UNL A   1      40.044  26.605  28.318  1.00  0.00     0.173 A 
ATOM     79  C   UNL A   1      41.408  28.316  27.401  1.00  0.00     0.173 A 
ATOM     80  F   UNL A   1      39.245  26.077  29.253  1.00  0.00    -0.203 F 
ATOM     81  C   UNL A   1      40.173  25.868  27.137  1.00  0.00     0.198 A 
ATOM     82  C   UNL A   1      41.592  27.552  26.243  1.00  0.00     0.198 A 
ATOM     83  F   UNL A   1      41.885  29.567  27.371  1.00  0.00    -0.203 F 
ATOM     84  F   UNL A   1      39.517  24.707  27.004  1.00  0.00    -0.200 F 
ATOM     85  C   UNL A   1      40.985  26.319  26.118  1.00  0.00     0.200 A 
ATOM     86  F   UNL A   1      42.364  28.020  25.252  1.00  0.00    -0.200 F 
ATOM     87  F   UNL A   1      41.157  25.586  25.009  1.00  0.00    -0.200 F 
ENDBRANCH  63  77
BRANCH  64  88
ATOM     88  C   UNL A   1      41.090  33.439  36.444  1.00  0.00     0.064 A 
ATOM     89  C   UNL A   1      39.903  32.746  36.756  1.00  0.00     0.173 A 
ATOM     90  C   UNL A   1      41.519  34.432  37.332  1.00  0.00     0.173 A 
ATOM     91  F   UNL A   1      39.445  31.795  35.925  1.00  0.00    -0.203 F 
ATOM     92  C   UNL A   1      39.278  32.912  37.987  1.00  0.00     0.198 A 
ATOM     93  C   UNL A   1      40.871  34.613  38.554  1.00  0.00     0.198 A 
ATOM     94  F   UNL A   1      42.641  35.123  37.085  1.00  0.00    -0.203 F 
ATOM     95  F   UNL A   1      38.249  32.120  38.325  1.00  0.00    -0.200 F 
ATOM     96  C   UNL A   1      39.786  33.818  38.901  1.00  0.00     0.200 A 
ATOM     97  F   UNL A   1      41.366  35.483  39.446  1.00  0.00    -0.200 F 
ATOM     98  F   UNL A   1      39.264  33.888  40.134  1.00  0.00    -0.200 F 
ENDBRANCH  64  88
BRANCH  76  99
ATOM     99  C   UNL A   1      43.185  26.768  34.670  1.00  0.00     0.064 A 
ATOM    100  C   UNL A   1      42.142  25.879  34.976  1.00  0.00     0.173 A 
ATOM    101  C   UNL A   1      44.484  26.205  34.656  1.00  0.00     0.173 A 
ATOM    102  F   UNL A   1      40.860  26.256  34.898  1.00  0.00    -0.203 F 
ATOM    103  C   UNL A   1      42.386  24.544  35.317  1.00  0.00     0.198 A 
ATOM    104  C   UNL A   1      44.717  24.860  34.940  1.00  0.00     0.198 A 
ATOM    105  F   UNL A   1      45.561  26.938  34.341  1.00  0.00    -0.203 F 
ATOM    106  F   UNL A   1      41.360  23.747  35.648  1.00  0.00    -0.200 F 
ATOM    107  C   UNL A   1      43.670  24.034  35.292  1.00  0.00     0.200 A 
ATOM    108  F   UNL A   1      45.962  24.367  34.855  1.00  0.00    -0.200 F 
ATOM    109  F   UNL A   1      43.894  22.745  35.582  1.00  0.00    -0.200 F 
ENDBRANCH  76  99
ENDBRANCH  50  51
ENDBRANCH  42  45
ENDBRANCH  40  41
ENDBRANCH  39  40
ENDBRANCH   1  39
TORSDOF 16
ENDMDL
MODEL 2
REMARK VINA RESULT:     -14.5      4.583     11.065
REMARK SMILES Cc1cccc(C(=O)Nc2cc(C(=O)NCCCNC(=O)c3ccc(-c4c5nc(c(-c6c(F)c(F)c(F)c(F)c6F)c6ccc([nH]6)c(-c6c(F)c(F)c(F)c(F)c6F)c6nc(c(-c7c(F)c(F)c(F)c(F)c7F)c7ccc4[nH]7)C=C6)C=C5)cc3)ccc2N2CC[NH+](CC(=O)NC(C)(C)C)CC2)c1
REMARK SMILES IDX 16 1 15 2 13 3 14 4 12 6 10 7 11 8 87 9 86 10 85 11 9 12
REMARK SMILES IDX 7 13 8 14 6 16 1 17 2 18 3 19 102 20 4 21 5 22 88 23 89 24
REMARK SMILES IDX 101 25 90 26 100 27 91 28 92 30 93 31 94 32 95 33 96 35
REMARK SMILES IDX 97 36 98 37 99 38 17 39 18 40 19 41 20 42 21 44 22 45 23 46
REMARK SMILES IDX 84 47 24 48 83 49 25 50 26 51 27 52 77 53 28 54 82 55 76 56
REMARK SMILES IDX 78 57 29 58 81 59 75 60 74 61 30 63 62 64 42 65 61 66 43 67
REMARK SMILES IDX 46 68 60 69 79 70 44 71 45 72 59 74 80 75 47 76 31 77 32 78
REMARK SMILES IDX 40 79 33 80 34 81 38 82 41 83 35 84 36 85 39 86 37 87 63 88
REMARK SMILES IDX 64 89 72 90 65 91 66 92 70 93 73 94 67 95 68 96 71 97 69 98
REMARK SMILES IDX 48 99 49 100 57 101 50 102 51 103 55 104 58 105 52 106
REMARK SMILES IDX 53 107 56 108 54 109
REMARK H PARENT 15 5 9 15 91 29 95 34 19 43 78 62 46 73
REMARK Flexibility Score: inf
ROOT
ATOM      1  C   UNL A   1      39.502  21.850  26.125  1.00  0.00     0.118 C 
ENDROOT
BRANCH   1   2
ATOM      2  N   UNL A   1      38.755  20.645  25.745  1.00  0.00    -0.352 N 
ATOM      3  C   UNL A   1      37.586  20.405  25.045  1.00  0.00     0.251 C 
ATOM      4  O   UNL A   1      37.355  19.234  24.739  1.00  0.00    -0.269 OA
ATOM      5  H   UNL A   1      39.183  19.817  26.061  1.00  0.00     0.163 HD
BRANCH   3   6
ATOM      6  C   UNL A   1      36.591  21.446  24.646  1.00  0.00     0.042 A 
ATOM      7  C   UNL A   1      34.355  22.388  24.727  1.00  0.00     0.065 A 
ATOM      8  C   UNL A   1      35.276  21.407  25.054  1.00  0.00     0.042 A 
ATOM      9  C   UNL A   1      34.695  23.466  23.880  1.00  0.00     0.061 A 
ATOM     10  C   UNL A   1      36.024  23.506  23.436  1.00  0.00     0.029 A 
ATOM     11  C   UNL A   1      36.964  22.524  23.831  1.00  0.00     0.016 A 
BRANCH   7  12
ATOM     12  N   UNL A   1      33.059  22.285  25.266  1.00  0.00    -0.320 N 
ATOM     13  C   UNL A   1      32.136  21.253  25.214  1.00  0.00     0.255 C 
ATOM     14  O   UNL A   1      31.067  21.402  25.809  1.00  0.00    -0.269 OA
ATOM     15  H   UNL A   1      32.756  23.080  25.764  1.00  0.00     0.170 HD
BRANCH  13  16
ATOM     16  C   UNL A   1      32.382  19.943  24.524  1.00  0.00     0.040 A 
ATOM     17  C   UNL A   1      34.087  16.569  25.018  1.00  0.00     0.044 C 
ATOM     18  C   UNL A   1      33.283  17.677  24.395  1.00  0.00    -0.050 A 
ATOM     19  C   UNL A   1      33.034  17.661  23.019  1.00  0.00     0.003 A 
ATOM     20  C   UNL A   1      32.875  18.789  25.152  1.00  0.00     0.017 A 
ATOM     21  C   UNL A   1      32.420  18.750  22.405  1.00  0.00     0.001 A 
ATOM     22  C   UNL A   1      32.113  19.892  23.149  1.00  0.00     0.014 A 
ENDBRANCH  13  16
ENDBRANCH   7  12
BRANCH   9  23
ATOM     23  N   UNL A   1      33.775  24.468  23.613  1.00  0.00    -0.359 N 
ATOM     24  C   UNL A   1      33.116  24.712  22.317  1.00  0.00     0.178 C 
ATOM     25  C   UNL A   1      33.936  25.711  24.366  1.00  0.00     0.178 C 
ATOM     26  C   UNL A   1      31.817  25.584  22.505  1.00  0.00     0.284 C 
ATOM     27  C   UNL A   1      32.536  26.229  24.726  1.00  0.00     0.284 C 
ATOM     28  N   UNL A   1      31.775  26.640  23.548  1.00  0.00    -0.324 N 
ATOM     29  H   UNL A   1      30.787  26.710  23.792  1.00  0.00     0.348 HD
BRANCH  28  30
ATOM     30  C   UNL A   1      32.063  28.023  23.125  1.00  0.00     0.363 C 
BRANCH  30  31
ATOM     31  C   UNL A   1      31.572  29.121  24.061  1.00  0.00     0.275 C 
ATOM     32  O   UNL A   1      32.218  29.381  25.087  1.00  0.00    -0.268 OA
ATOM     33  N   UNL A   1      30.438  29.853  23.873  1.00  0.00    -0.347 N 
ATOM     34  H   UNL A   1      30.395  30.581  24.534  1.00  0.00     0.164 HD
BRANCH  33  35
ATOM     35  C   UNL A   1      29.243  29.903  22.982  1.00  0.00     0.032 C 
ATOM     36  C   UNL A   1      28.424  28.598  23.049  1.00  0.00     0.034 C 
ATOM     37  C   UNL A   1      28.326  31.007  23.555  1.00  0.00     0.034 C 
ATOM     38  C   UNL A   1      29.535  30.256  21.521  1.00  0.00     0.034 C 
ENDBRANCH  33  35
ENDBRANCH  30  31
ENDBRANCH  28  30
ENDBRANCH   9  23
ENDBRANCH   3   6
ENDBRANCH   1   2
BRANCH   1  39
ATOM     39  C   UNL A   1      40.672  21.600  27.085  1.00  0.00     0.042 C 
BRANCH  39  40
ATOM     40  C   UNL A   1      42.015  22.049  26.561  1.00  0.00     0.118 C 
BRANCH  40  41
ATOM     41  N   UNL A   1      42.646  21.137  25.609  1.00  0.00    -0.352 N 
ATOM     42  C   UNL A   1      43.849  21.334  24.933  1.00  0.00     0.251 C 
ATOM     43  H   UNL A   1      42.170  20.294  25.426  1.00  0.00     0.163 HD
ATOM     44  O   UNL A   1      44.288  20.534  24.142  1.00  0.00    -0.269 OA
BRANCH  42  45
ATOM     45  C   UNL A   1      44.626  22.535  25.329  1.00  0.00     0.039 A 
ATOM     46  C   UNL A   1      45.346  22.444  26.521  1.00  0.00     0.014 A 
ATOM     47  C   UNL A   1      44.252  23.768  24.798  1.00  0.00     0.014 A 
ATOM     48  C   UNL A   1      45.450  23.573  27.326  1.00  0.00     0.010 A 
ATOM     49  C   UNL A   1      44.249  24.855  25.651  1.00  0.00     0.010 A 
ATOM     50  C   UNL A   1      44.783  24.737  26.942  1.00  0.00    -0.014 A 
BRANCH  50  51
ATOM     51  C   UNL A   1      44.535  25.842  27.862  1.00  0.00     0.031 A 
ATOM     52  C   UNL A   1      43.173  26.406  27.965  1.00  0.00     0.074 A 
ATOM     53  C   UNL A   1      45.523  26.348  28.639  1.00  0.00     0.049 A 
ATOM     54  N   UNL A   1      42.914  27.623  28.308  1.00  0.00    -0.248 NA
ATOM     55  C   UNL A   1      41.980  25.637  27.631  1.00  0.00     0.031 C 
ATOM     56  C   UNL A   1      45.367  27.284  29.752  1.00  0.00     0.029 A 
ATOM     57  N   UNL A   1      46.914  26.259  28.456  1.00  0.00    -0.354 N 
ATOM     58  C   UNL A   1      41.556  27.726  28.495  1.00  0.00     0.074 A 
ATOM     59  C   UNL A   1      41.015  26.475  28.013  1.00  0.00     0.031 C 
ATOM     60  C   UNL A   1      46.533  27.915  29.959  1.00  0.00     0.029 A 
ATOM     61  C   UNL A   1      47.444  27.492  28.914  1.00  0.00     0.049 A 
ATOM     62  H   UNL A   1      47.416  25.497  28.087  1.00  0.00     0.167 HD
ATOM     63  C   UNL A   1      41.048  28.808  29.152  1.00  0.00     0.037 A 
ATOM     64  C   UNL A   1      48.152  28.327  28.101  1.00  0.00     0.037 A 
ATOM     65  C   UNL A   1      42.095  29.766  29.492  1.00  0.00     0.049 A 
ATOM     66  C   UNL A   1      47.541  29.699  27.944  1.00  0.00     0.074 A 
ATOM     67  C   UNL A   1      42.824  29.985  30.650  1.00  0.00     0.029 A 
ATOM     68  N   UNL A   1      42.756  30.451  28.478  1.00  0.00    -0.354 N 
ATOM     69  N   UNL A   1      46.319  29.988  28.293  1.00  0.00    -0.248 NA
ATOM     70  C   UNL A   1      48.230  30.833  27.334  1.00  0.00     0.031 C 
ATOM     71  C   UNL A   1      43.951  30.774  30.321  1.00  0.00     0.029 A 
ATOM     72  C   UNL A   1      43.904  31.046  28.965  1.00  0.00     0.049 A 
ATOM     73  H   UNL A   1      42.448  30.505  27.545  1.00  0.00     0.167 HD
ATOM     74  C   UNL A   1      46.031  31.275  27.924  1.00  0.00     0.074 A 
ATOM     75  C   UNL A   1      47.271  31.774  27.359  1.00  0.00     0.031 C 
ATOM     76  C   UNL A   1      44.785  31.808  28.093  1.00  0.00     0.037 A 
BRANCH  63  77
ATOM     77  C   UNL A   1      39.657  28.827  29.745  1.00  0.00     0.064 A 
ATOM     78  C   UNL A   1      38.535  29.165  28.959  1.00  0.00     0.173 A 
ATOM     79  C   UNL A   1      39.374  28.589  31.102  1.00  0.00     0.173 A 
ATOM     80  F   UNL A   1      38.625  29.300  27.630  1.00  0.00    -0.203 F 
ATOM     81  C   UNL A   1      37.271  29.386  29.511  1.00  0.00     0.198 A 
ATOM     82  C   UNL A   1      38.126  28.873  31.668  1.00  0.00     0.198 A 
ATOM     83  F   UNL A   1      40.283  28.029  31.910  1.00  0.00    -0.203 F 
ATOM     84  F   UNL A   1      36.245  29.717  28.714  1.00  0.00    -0.200 F 
ATOM     85  C   UNL A   1      37.077  29.286  30.873  1.00  0.00     0.200 A 
ATOM     86  F   UNL A   1      37.951  28.744  32.991  1.00  0.00    -0.200 F 
ATOM     87  F   UNL A   1      35.880  29.556  31.412  1.00  0.00    -0.200 F 
ENDBRANCH  63  77
BRANCH  64  88
ATOM     88  C   UNL A   1      48.908  27.592  27.055  1.00  0.00     0.064 A 
ATOM     89  C   UNL A   1      48.321  27.500  25.777  1.00  0.00     0.173 A 
ATOM     90  C   UNL A   1      50.293  27.421  27.151  1.00  0.00     0.173 A 
ATOM     91  F   UNL A   1      46.992  27.642  25.639  1.00  0.00    -0.203 F 
ATOM     92  C   UNL A   1      49.104  27.422  24.631  1.00  0.00     0.198 A 
ATOM     93  C   UNL A   1      51.072  27.316  25.998  1.00  0.00     0.198 A 
ATOM     94  F   UNL A   1      50.906  27.498  28.341  1.00  0.00    -0.203 F 
ATOM     95  F   UNL A   1      48.529  27.503  23.422  1.00  0.00    -0.200 F 
ATOM     96  C   UNL A   1      50.483  27.370  24.742  1.00  0.00     0.200 A 
ATOM     97  F   UNL A   1      52.408  27.274  26.101  1.00  0.00    -0.200 F 
ATOM     98  F   UNL A   1      51.244  27.424  23.640  1.00  0.00    -0.200 F 
ENDBRANCH  64  88
BRANCH  76  99
ATOM     99  C   UNL A   1      44.308  33.127  27.539  1.00  0.00     0.064 A 
ATOM    100  C   UNL A   1      43.974  33.336  26.192  1.00  0.00     0.173 A 
ATOM    101  C   UNL A   1      44.042  34.213  28.409  1.00  0.00     0.173 A 
ATOM    102  F   UNL A   1      44.056  32.346  25.293  1.00  0.00    -0.203 F 
ATOM    103  C   UNL A   1      43.484  34.563  25.733  1.00  0.00     0.198 A 
ATOM    104  C   UNL A   1      43.500  35.415  27.958  1.00  0.00     0.198 A 
ATOM    105  F   UNL A   1      44.279  34.128  29.726  1.00  0.00    -0.203 F 
ATOM    106  F   UNL A   1      43.226  34.728  24.428  1.00  0.00    -0.200 F 
ATOM    107  C   UNL A   1      43.240  35.598  26.616  1.00  0.00     0.200 A 
ATOM    108  F   UNL A   1      43.216  36.388  28.836  1.00  0.00    -0.200 F 
ATOM    109  F   UNL A   1      42.734  36.759  26.178  1.00  0.00    -0.200 F 
ENDBRANCH  76  99
ENDBRANCH  50  51
ENDBRANCH  42  45
ENDBRANCH  40  41
ENDBRANCH  39  40
ENDBRANCH   1  39
TORSDOF 16
ENDMDL
MODEL 3
REMARK VINA RESULT:     -14.5      3.002      4.432
REMARK SMILES Cc1cccc(C(=O)Nc2cc(C(=O)NCCCNC(=O)c3ccc(-c4c5nc(c(-c6c(F)c(F)c(F)c(F)c6F)c6ccc([nH]6)c(-c6c(F)c(F)c(F)c(F)c6F)c6nc(c(-c7c(F)c(F)c(F)c(F)c7F)c7ccc4[nH]7)C=C6)C=C5)cc3)ccc2N2CC[NH+](CC(=O)NC(C)(C)C)CC2)c1
REMARK SMILES IDX 16 1 15 2 13 3 14 4 12 6 10 7 11 8 87 9 86 10 85 11 9 12
REMARK SMILES IDX 7 13 8 14 6 16 1 17 2 18 3 19 102 20 4 21 5 22 88 23 89 24
REMARK SMILES IDX 101 25 90 26 100 27 91 28 92 30 93 31 94 32 95 33 96 35
REMARK SMILES IDX 97 36 98 37 99 38 17 39 18 40 19 41 20 42 21 44 22 45 23 46
REMARK SMILES IDX 84 47 24 48 83 49 25 50 26 51 27 52 77 53 28 54 82 55 76 56
REMARK SMILES IDX 78 57 29 58 81 59 75 60 74 61 30 63 62 64 42 65 61 66 43 67
REMARK SMILES IDX 46 68 60 69 79 70 44 71 45 72 59 74 80 75 47 76 31 77 32 78
REMARK SMILES IDX 40 79 33 80 34 81 38 82 41 83 35 84 36 85 39 86 37 87 63 88
REMARK SMILES IDX 64 89 72 90 65 91 66 92 70 93 73 94 67 95 68 96 71 97 69 98
REMARK SMILES IDX 48 99 49 100 57 101 50 102 51 103 55 104 58 105 52 106
REMARK SMILES IDX 53 107 56 108 54 109
REMARK H PARENT 15 5 9 15 91 29 95 34 19 43 78 62 46 73
REMARK Flexibility Score: inf
ROOT
ATOM      1  C   UNL A   1      33.975  31.538  27.885  1.00  0.00     0.118 C 
ENDROOT
BRANCH   1   2
ATOM      2  N   UNL A   1      32.798  31.882  27.078  1.00  0.00    -0.352 N 
ATOM      3  C   UNL A   1      31.785  31.157  26.477  1.00  0.00     0.251 C 
ATOM      4  O   UNL A   1      30.832  31.800  26.034  1.00  0.00    -0.269 OA
ATOM      5  H   UNL A   1      32.709  32.850  26.931  1.00  0.00     0.163 HD
BRANCH   3   6
ATOM      6  C   UNL A   1      31.767  29.671  26.318  1.00  0.00     0.042 A 
ATOM      7  C   UNL A   1      31.754  27.685  24.921  1.00  0.00     0.065 A 
ATOM      8  C   UNL A   1      31.728  29.061  25.083  1.00  0.00     0.042 A 
ATOM      9  C   UNL A   1      31.745  26.811  26.030  1.00  0.00     0.061 A 
ATOM     10  C   UNL A   1      31.760  27.418  27.293  1.00  0.00     0.029 A 
ATOM     11  C   UNL A   1      31.793  28.826  27.435  1.00  0.00     0.016 A 
BRANCH   7  12
ATOM     12  N   UNL A   1      31.791  27.175  23.609  1.00  0.00    -0.320 N 
ATOM     13  C   UNL A   1      30.958  27.402  22.526  1.00  0.00     0.255 C 
ATOM     14  O   UNL A   1      31.233  26.850  21.458  1.00  0.00    -0.269 OA
ATOM     15  H   UNL A   1      32.532  26.551  23.432  1.00  0.00     0.170 HD
BRANCH  13  16
ATOM     16  C   UNL A   1      29.774  28.324  22.557  1.00  0.00     0.040 A 
ATOM     17  C   UNL A   1      28.814  31.987  22.114  1.00  0.00     0.044 C 
ATOM     18  C   UNL A   1      28.697  30.506  22.346  1.00  0.00    -0.050 A 
ATOM     19  C   UNL A   1      27.543  29.989  22.944  1.00  0.00     0.003 A 
ATOM     20  C   UNL A   1      29.775  29.644  22.080  1.00  0.00     0.017 A 
ATOM     21  C   UNL A   1      27.481  28.644  23.301  1.00  0.00     0.001 A 
ATOM     22  C   UNL A   1      28.595  27.821  23.126  1.00  0.00     0.014 A 
ENDBRANCH  13  16
ENDBRANCH   7  12
BRANCH   9  23
ATOM     23  N   UNL A   1      31.831  25.441  25.845  1.00  0.00    -0.359 N 
ATOM     24  C   UNL A   1      30.769  24.461  26.141  1.00  0.00     0.178 C 
ATOM     25  C   UNL A   1      33.156  24.846  26.010  1.00  0.00     0.178 C 
ATOM     26  C   UNL A   1      31.025  23.108  25.376  1.00  0.00     0.284 C 
ATOM     27  C   UNL A   1      33.320  23.753  24.945  1.00  0.00     0.284 C 
ATOM     28  N   UNL A   1      32.413  22.627  25.161  1.00  0.00    -0.324 N 
ATOM     29  H   UNL A   1      32.355  22.072  24.307  1.00  0.00     0.348 HD
BRANCH  28  30
ATOM     30  C   UNL A   1      32.941  21.631  26.113  1.00  0.00     0.363 C 
BRANCH  30  31
ATOM     31  C   UNL A   1      34.259  20.973  25.725  1.00  0.00     0.275 C 
ATOM     32  O   UNL A   1      35.322  21.587  25.900  1.00  0.00    -0.268 OA
ATOM     33  N   UNL A   1      34.375  19.735  25.167  1.00  0.00    -0.347 N 
ATOM     34  H   UNL A   1      35.323  19.475  25.122  1.00  0.00     0.164 HD
BRANCH  33  35
ATOM     35  C   UNL A   1      33.521  18.649  24.606  1.00  0.00     0.032 C 
ATOM     36  C   UNL A   1      32.603  18.030  25.679  1.00  0.00     0.034 C 
ATOM     37  C   UNL A   1      32.580  19.326  23.584  1.00  0.00     0.034 C 
ATOM     38  C   UNL A   1      34.280  17.540  23.872  1.00  0.00     0.034 C 
ENDBRANCH  33  35
ENDBRANCH  30  31
ENDBRANCH  28  30
ENDBRANCH   9  23
ENDBRANCH   3   6
ENDBRANCH   1   2
BRANCH   1  39
ATOM     39  C   UNL A   1      34.963  32.693  28.100  1.00  0.00     0.042 C 
BRANCH  39  40
ATOM     40  C   UNL A   1      35.751  32.609  29.385  1.00  0.00     0.118 C 
BRANCH  40  41
ATOM     41  N   UNL A   1      35.591  31.362  30.130  1.00  0.00    -0.352 N 
ATOM     42  C   UNL A   1      36.471  30.280  30.149  1.00  0.00     0.251 C 
ATOM     43  H   UNL A   1      34.776  31.277  30.677  1.00  0.00     0.163 HD
ATOM     44  O   UNL A   1      36.249  29.274  30.779  1.00  0.00    -0.269 OA
BRANCH  42  45
ATOM     45  C   UNL A   1      37.761  30.481  29.443  1.00  0.00     0.039 A 
ATOM     46  C   UNL A   1      37.907  29.826  28.218  1.00  0.00     0.014 A 
ATOM     47  C   UNL A   1      38.866  30.882  30.189  1.00  0.00     0.014 A 
ATOM     48  C   UNL A   1      39.158  29.325  27.875  1.00  0.00     0.010 A 
ATOM     49  C   UNL A   1      40.078  30.280  29.908  1.00  0.00     0.010 A 
ATOM     50  C   UNL A   1      40.204  29.443  28.790  1.00  0.00    -0.014 A 
BRANCH  50  51
ATOM     51  C   UNL A   1      41.432  28.661  28.687  1.00  0.00     0.031 A 
ATOM     52  C   UNL A   1      41.343  27.198  28.488  1.00  0.00     0.074 A 
ATOM     53  C   UNL A   1      42.651  29.249  28.748  1.00  0.00     0.049 A 
ATOM     54  N   UNL A   1      42.244  26.358  28.869  1.00  0.00    -0.248 NA
ATOM     55  C   UNL A   1      40.184  26.561  27.876  1.00  0.00     0.031 C 
ATOM     56  C   UNL A   1      43.938  28.629  28.434  1.00  0.00     0.029 A 
ATOM     57  N   UNL A   1      42.994  30.497  29.297  1.00  0.00    -0.354 N 
ATOM     58  C   UNL A   1      41.924  25.131  28.336  1.00  0.00     0.074 A 
ATOM     59  C   UNL A   1      40.607  25.301  27.768  1.00  0.00     0.031 C 
ATOM     60  C   UNL A   1      44.914  29.315  29.048  1.00  0.00     0.029 A 
ATOM     61  C   UNL A   1      44.281  30.327  29.869  1.00  0.00     0.049 A 
ATOM     62  H   UNL A   1      42.453  31.319  29.286  1.00  0.00     0.167 HD
ATOM     63  C   UNL A   1      42.861  24.139  28.324  1.00  0.00     0.037 A 
ATOM     64  C   UNL A   1      44.519  30.526  31.197  1.00  0.00     0.037 A 
ATOM     65  C   UNL A   1      44.089  24.556  28.994  1.00  0.00     0.049 A 
ATOM     66  C   UNL A   1      45.045  29.309  31.919  1.00  0.00     0.074 A 
ATOM     67  C   UNL A   1      45.289  25.061  28.520  1.00  0.00     0.029 A 
ATOM     68  N   UNL A   1      44.078  24.792  30.364  1.00  0.00    -0.354 N 
ATOM     69  N   UNL A   1      45.003  28.103  31.423  1.00  0.00    -0.248 NA
ATOM     70  C   UNL A   1      45.602  29.338  33.269  1.00  0.00     0.031 C 
ATOM     71  C   UNL A   1      45.985  25.640  29.607  1.00  0.00     0.029 A 
ATOM     72  C   UNL A   1      45.216  25.477  30.746  1.00  0.00     0.049 A 
ATOM     73  H   UNL A   1      43.361  24.510  30.977  1.00  0.00     0.167 HD
ATOM     74  C   UNL A   1      45.454  27.210  32.359  1.00  0.00     0.074 A 
ATOM     75  C   UNL A   1      45.849  28.035  33.485  1.00  0.00     0.031 C 
ATOM     76  C   UNL A   1      45.434  25.863  32.132  1.00  0.00     0.037 A 
BRANCH  63  77
ATOM     77  C   UNL A   1      42.752  22.921  27.434  1.00  0.00     0.064 A 
ATOM     78  C   UNL A   1      41.862  21.871  27.742  1.00  0.00     0.173 A 
ATOM     79  C   UNL A   1      43.552  22.700  26.299  1.00  0.00     0.173 A 
ATOM     80  F   UNL A   1      40.952  21.986  28.718  1.00  0.00    -0.203 F 
ATOM     81  C   UNL A   1      41.875  20.651  27.060  1.00  0.00     0.198 A 
ATOM     82  C   UNL A   1      43.614  21.459  25.656  1.00  0.00     0.198 A 
ATOM     83  F   UNL A   1      44.261  23.694  25.748  1.00  0.00    -0.203 F 
ATOM     84  F   UNL A   1      41.012  19.686  27.406  1.00  0.00    -0.200 F 
ATOM     85  C   UNL A   1      42.785  20.428  26.047  1.00  0.00     0.200 A 
ATOM     86  F   UNL A   1      44.487  21.271  24.656  1.00  0.00    -0.200 F 
ATOM     87  F   UNL A   1      42.841  19.239  25.432  1.00  0.00    -0.200 F 
ENDBRANCH  63  77
BRANCH  64  88
ATOM     88  C   UNL A   1      43.630  31.562  31.783  1.00  0.00     0.064 A 
ATOM     89  C   UNL A   1      43.703  32.859  31.240  1.00  0.00     0.173 A 
ATOM     90  C   UNL A   1      42.466  31.207  32.475  1.00  0.00     0.173 A 
ATOM     91  F   UNL A   1      44.807  33.249  30.582  1.00  0.00    -0.203 F 
ATOM     92  C   UNL A   1      42.593  33.697  31.231  1.00  0.00     0.198 A 
ATOM     93  C   UNL A   1      41.364  32.064  32.485  1.00  0.00     0.198 A 
ATOM     94  F   UNL A   1      42.341  29.986  33.012  1.00  0.00    -0.203 F 
ATOM     95  F   UNL A   1      42.639  34.859  30.562  1.00  0.00    -0.200 F 
ATOM     96  C   UNL A   1      41.411  33.281  31.820  1.00  0.00     0.200 A 
ATOM     97  F   UNL A   1      40.215  31.661  33.047  1.00  0.00    -0.200 F 
ATOM     98  F   UNL A   1      40.306  34.030  31.701  1.00  0.00    -0.200 F 
ENDBRANCH  64  88
BRANCH  76  99
ATOM     99  C   UNL A   1      45.707  24.792  33.157  1.00  0.00     0.064 A 
ATOM    100  C   UNL A   1      44.724  23.929  33.668  1.00  0.00     0.173 A 
ATOM    101  C   UNL A   1      47.034  24.515  33.565  1.00  0.00     0.173 A 
ATOM    102  F   UNL A   1      43.450  24.005  33.260  1.00  0.00    -0.203 F 
ATOM    103  C   UNL A   1      45.033  22.915  34.580  1.00  0.00     0.198 A 
ATOM    104  C   UNL A   1      47.345  23.466  34.429  1.00  0.00     0.198 A 
ATOM    105  F   UNL A   1      48.069  25.241  33.118  1.00  0.00    -0.203 F 
ATOM    106  F   UNL A   1      44.051  22.148  35.077  1.00  0.00    -0.200 F 
ATOM    107  C   UNL A   1      46.343  22.679  34.953  1.00  0.00     0.200 A 
ATOM    108  F   UNL A   1      48.627  23.215  34.736  1.00  0.00    -0.200 F 
ATOM    109  F   UNL A   1      46.639  21.680  35.797  1.00  0.00    -0.200 F 
ENDBRANCH  76  99
ENDBRANCH  50  51
ENDBRANCH  42  45
ENDBRANCH  40  41
ENDBRANCH  39  40
ENDBRANCH   1  39
TORSDOF 16
ENDMDL
