MODEL 1
REMARK VINA RESULT:     -14.5      0.000      0.000
REMARK SMILES Cc1ccc(S(=O)(=O)n2cc(C(=O)C(=O)NCC(=O)NCCCNC(=O)c3ccc(-c4c5nc(c(-c6c(F)c(F)c(F)c(F)c6F)c6ccc([nH]6)c(-c6c(F)c(F)c(F)c(F)c6F)c6nc(c(-c7c(F)c(F)c(F)c(F)c7F)c7ccc4[nH]7)C=C6)C=C5)cc3)c3ccccc32)cc1
REMARK SMILES IDX 18 1 19 2 20 3 17 5 16 6 14 7 15 8 12 10 13 11 11 12 9 13
REMARK SMILES IDX 10 14 95 15 90 16 94 17 91 18 93 19 92 20 6 21 7 22 8 23
REMARK SMILES IDX 5 24 1 25 2 26 3 27 97 28 4 29 96 30 21 31 22 32 23 33 24 34
REMARK SMILES IDX 25 35 26 37 27 38 28 39 89 40 29 41 88 42 30 43 31 44 32 45
REMARK SMILES IDX 82 46 33 47 87 48 81 49 83 50 34 51 86 52 80 53 79 54 35 56
REMARK SMILES IDX 67 57 47 58 66 59 48 60 51 61 65 62 84 63 49 64 50 65 64 67
REMARK SMILES IDX 85 68 52 69 36 70 37 71 45 72 38 73 39 74 43 75 46 76 40 77
REMARK SMILES IDX 41 78 44 79 42 80 68 81 69 82 77 83 70 84 71 85 75 86 78 87
REMARK SMILES IDX 72 88 73 89 76 90 74 91 53 92 54 93 62 94 55 95 56 96 60 97
REMARK SMILES IDX 63 98 57 99 58 100 61 101 59 102
REMARK H PARENT 20 4 16 9 24 36 83 55 51 66
REMARK Flexibility Score: inf
ROOT
ATOM      1  C   UNL A   1      30.458  29.356  23.088  1.00  0.00     0.239 C 
ATOM      2  O   UNL A   1      29.935  29.942  22.139  1.00  0.00    -0.273 OA
ATOM      3  N   UNL A   1      30.801  30.086  24.193  1.00  0.00    -0.355 N 
ATOM      4  H   UNL A   1      30.608  31.050  24.145  1.00  0.00     0.163 HD
ENDROOT
BRANCH   1   5
ATOM      5  C   UNL A   1      30.681  27.840  23.071  1.00  0.00     0.216 C 
BRANCH   5   6
ATOM      6  N   UNL A   1      31.809  27.450  22.230  1.00  0.00    -0.340 N 
ATOM      7  C   UNL A   1      33.082  27.026  22.548  1.00  0.00     0.292 C 
ATOM      8  O   UNL A   1      33.855  26.771  21.629  1.00  0.00    -0.265 OA
ATOM      9  H   UNL A   1      31.628  27.500  21.263  1.00  0.00     0.164 HD
BRANCH   7  10
ATOM     10  C   UNL A   1      33.549  26.908  24.021  1.00  0.00     0.252 C 
ATOM     11  O   UNL A   1      34.023  27.904  24.559  1.00  0.00    -0.283 OA
BRANCH  10  12
ATOM     12  C   UNL A   1      33.454  25.643  24.772  1.00  0.00     0.054 A 
ATOM     13  N   UNL A   1      33.898  23.627  25.630  1.00  0.00    -0.240 N 
ATOM     14  C   UNL A   1      34.430  24.672  24.919  1.00  0.00     0.117 A 
ATOM     15  C   UNL A   1      32.595  23.885  26.000  1.00  0.00     0.065 A 
ATOM     16  C   UNL A   1      32.291  25.148  25.470  1.00  0.00     0.012 A 
ATOM     17  C   UNL A   1      31.645  23.125  26.707  1.00  0.00     0.028 A 
ATOM     18  C   UNL A   1      30.993  25.664  25.683  1.00  0.00     0.011 A 
ATOM     19  C   UNL A   1      30.363  23.655  26.874  1.00  0.00     0.002 A 
ATOM     20  C   UNL A   1      30.041  24.910  26.376  1.00  0.00     0.001 A 
BRANCH  13  21
ATOM     21  S   UNL A   1      34.715  22.156  25.903  1.00  0.00     0.268 S 
ATOM     22  O   UNL A   1      34.416  21.800  27.271  1.00  0.00    -0.201 OA
ATOM     23  O   UNL A   1      36.078  22.374  25.444  1.00  0.00    -0.201 OA
BRANCH  21  24
ATOM     24  C   UNL A   1      33.998  20.921  24.849  1.00  0.00     0.088 A 
ATOM     25  C   UNL A   1      32.240  17.704  22.594  1.00  0.00     0.044 C 
ATOM     26  C   UNL A   1      32.863  18.833  23.362  1.00  0.00    -0.051 A 
ATOM     27  C   UNL A   1      33.912  18.577  24.252  1.00  0.00     0.005 A 
ATOM     28  C   UNL A   1      32.409  20.148  23.202  1.00  0.00     0.005 A 
ATOM     29  C   UNL A   1      34.475  19.613  24.998  1.00  0.00     0.022 A 
ATOM     30  C   UNL A   1      32.981  21.195  23.932  1.00  0.00     0.022 A 
ENDBRANCH  21  24
ENDBRANCH  13  21
ENDBRANCH  10  12
ENDBRANCH   7  10
ENDBRANCH   5   6
ENDBRANCH   1   5
BRANCH   3  31
ATOM     31  C   UNL A   1      31.412  29.625  25.424  1.00  0.00     0.117 C 
BRANCH  31  32
ATOM     32  C   UNL A   1      31.983  30.782  26.231  1.00  0.00     0.042 C 
BRANCH  32  33
ATOM     33  C   UNL A   1      33.019  30.332  27.246  1.00  0.00     0.118 C 
BRANCH  33  34
ATOM     34  N   UNL A   1      33.907  31.414  27.676  1.00  0.00    -0.352 N 
ATOM     35  C   UNL A   1      35.150  31.376  28.281  1.00  0.00     0.251 C 
ATOM     36  H   UNL A   1      33.561  32.320  27.505  1.00  0.00     0.163 HD
ATOM     37  O   UNL A   1      35.698  32.418  28.625  1.00  0.00    -0.269 OA
BRANCH  35  38
ATOM     38  C   UNL A   1      35.903  30.103  28.322  1.00  0.00     0.039 A 
ATOM     39  C   UNL A   1      36.126  29.567  29.597  1.00  0.00     0.014 A 
ATOM     40  C   UNL A   1      36.707  29.747  27.250  1.00  0.00     0.014 A 
ATOM     41  C   UNL A   1      37.347  28.973  29.867  1.00  0.00     0.010 A 
ATOM     42  C   UNL A   1      37.976  29.324  27.542  1.00  0.00     0.010 A 
ATOM     43  C   UNL A   1      38.304  29.014  28.865  1.00  0.00    -0.014 A 
BRANCH  43  44
ATOM     44  C   UNL A   1      39.690  28.664  29.054  1.00  0.00     0.031 A 
ATOM     45  C   UNL A   1      40.056  27.277  28.751  1.00  0.00     0.074 A 
ATOM     46  C   UNL A   1      40.585  29.650  29.277  1.00  0.00     0.049 A 
ATOM     47  N   UNL A   1      41.180  26.755  29.073  1.00  0.00    -0.248 NA
ATOM     48  C   UNL A   1      39.144  26.329  28.107  1.00  0.00     0.031 C 
ATOM     49  C   UNL A   1      42.034  29.608  29.114  1.00  0.00     0.029 A 
ATOM     50  N   UNL A   1      40.348  30.891  29.894  1.00  0.00    -0.354 N 
ATOM     51  C   UNL A   1      41.278  25.567  28.391  1.00  0.00     0.074 A 
ATOM     52  C   UNL A   1      39.937  25.263  27.968  1.00  0.00     0.031 C 
ATOM     53  C   UNL A   1      42.583  30.577  29.872  1.00  0.00     0.029 A 
ATOM     54  C   UNL A   1      41.511  31.143  30.670  1.00  0.00     0.049 A 
ATOM     55  H   UNL A   1      39.550  31.462  29.805  1.00  0.00     0.167 HD
ATOM     56  C   UNL A   1      42.527  25.093  28.141  1.00  0.00     0.037 A 
ATOM     57  C   UNL A   1      41.439  31.096  32.037  1.00  0.00     0.037 A 
ATOM     58  C   UNL A   1      43.513  25.859  28.909  1.00  0.00     0.049 A 
ATOM     59  C   UNL A   1      42.252  29.969  32.652  1.00  0.00     0.074 A 
ATOM     60  C   UNL A   1      44.431  26.851  28.621  1.00  0.00     0.029 A 
ATOM     61  N   UNL A   1      43.379  25.856  30.285  1.00  0.00    -0.354 N 
ATOM     62  N   UNL A   1      42.822  29.019  31.960  1.00  0.00    -0.248 NA
ATOM     63  C   UNL A   1      42.431  29.780  34.090  1.00  0.00     0.031 C 
ATOM     64  C   UNL A   1      44.800  27.476  29.858  1.00  0.00     0.029 A 
ATOM     65  C   UNL A   1      44.137  26.833  30.890  1.00  0.00     0.049 A 
ATOM     66  H   UNL A   1      42.806  25.227  30.778  1.00  0.00     0.167 HD
ATOM     67  C   UNL A   1      43.393  28.103  32.799  1.00  0.00     0.074 A 
ATOM     68  C   UNL A   1      43.102  28.615  34.129  1.00  0.00     0.031 C 
ATOM     69  C   UNL A   1      44.033  26.986  32.336  1.00  0.00     0.037 A 
BRANCH  56  70
ATOM     70  C   UNL A   1      42.907  24.060  27.110  1.00  0.00     0.064 A 
ATOM     71  C   UNL A   1      42.588  22.707  27.345  1.00  0.00     0.173 A 
ATOM     72  C   UNL A   1      43.666  24.292  25.943  1.00  0.00     0.173 A 
ATOM     73  F   UNL A   1      41.858  22.340  28.409  1.00  0.00    -0.203 F 
ATOM     74  C   UNL A   1      43.019  21.676  26.507  1.00  0.00     0.198 A 
ATOM     75  C   UNL A   1      44.058  23.265  25.080  1.00  0.00     0.198 A 
ATOM     76  F   UNL A   1      44.113  25.504  25.602  1.00  0.00    -0.203 F 
ATOM     77  F   UNL A   1      42.733  20.404  26.818  1.00  0.00    -0.200 F 
ATOM     78  C   UNL A   1      43.750  21.955  25.371  1.00  0.00     0.200 A 
ATOM     79  F   UNL A   1      44.763  23.560  23.978  1.00  0.00    -0.200 F 
ATOM     80  F   UNL A   1      44.166  20.968  24.567  1.00  0.00    -0.200 F 
ENDBRANCH  56  70
BRANCH  57  81
ATOM     81  C   UNL A   1      40.113  31.592  32.521  1.00  0.00     0.064 A 
ATOM     82  C   UNL A   1      39.774  32.930  32.217  1.00  0.00     0.173 A 
ATOM     83  C   UNL A   1      39.061  30.704  32.776  1.00  0.00     0.173 A 
ATOM     84  F   UNL A   1      40.745  33.830  31.986  1.00  0.00    -0.203 F 
ATOM     85  C   UNL A   1      38.456  33.300  31.964  1.00  0.00     0.198 A 
ATOM     86  C   UNL A   1      37.736  31.096  32.568  1.00  0.00     0.198 A 
ATOM     87  F   UNL A   1      39.312  29.425  33.088  1.00  0.00    -0.203 F 
ATOM     88  F   UNL A   1      38.185  34.523  31.482  1.00  0.00    -0.200 F 
ATOM     89  C   UNL A   1      37.441  32.370  32.102  1.00  0.00     0.200 A 
ATOM     90  F   UNL A   1      36.748  30.200  32.710  1.00  0.00    -0.200 F 
ATOM     91  F   UNL A   1      36.190  32.685  31.739  1.00  0.00    -0.200 F 
ENDBRANCH  57  81
BRANCH  69  92
ATOM     92  C   UNL A   1      44.600  25.906  33.224  1.00  0.00     0.064 A 
ATOM     93  C   UNL A   1      45.949  25.530  33.187  1.00  0.00     0.173 A 
ATOM     94  C   UNL A   1      43.774  25.135  34.078  1.00  0.00     0.173 A 
ATOM     95  F   UNL A   1      46.808  26.133  32.352  1.00  0.00    -0.203 F 
ATOM     96  C   UNL A   1      46.446  24.502  33.995  1.00  0.00     0.198 A 
ATOM     97  C   UNL A   1      44.256  24.063  34.822  1.00  0.00     0.198 A 
ATOM     98  F   UNL A   1      42.475  25.414  34.255  1.00  0.00    -0.203 F 
ATOM     99  F   UNL A   1      47.758  24.228  33.986  1.00  0.00    -0.200 F 
ATOM    100  C   UNL A   1      45.599  23.762  34.800  1.00  0.00     0.200 A 
ATOM    101  F   UNL A   1      43.409  23.341  35.570  1.00  0.00    -0.200 F 
ATOM    102  F   UNL A   1      46.075  22.765  35.557  1.00  0.00    -0.200 F 
ENDBRANCH  69  92
ENDBRANCH  43  44
ENDBRANCH  35  38
ENDBRANCH  33  34
ENDBRANCH  32  33
ENDBRANCH  31  32
ENDBRANCH   3  31
TORSDOF 15
ENDMDL
MODEL 2
REMARK VINA RESULT:     -14.2      3.222      5.074
REMARK SMILES Cc1ccc(S(=O)(=O)n2cc(C(=O)C(=O)NCC(=O)NCCCNC(=O)c3ccc(-c4c5nc(c(-c6c(F)c(F)c(F)c(F)c6F)c6ccc([nH]6)c(-c6c(F)c(F)c(F)c(F)c6F)c6nc(c(-c7c(F)c(F)c(F)c(F)c7F)c7ccc4[nH]7)C=C6)C=C5)cc3)c3ccccc32)cc1
REMARK SMILES IDX 18 1 19 2 20 3 17 5 16 6 14 7 15 8 12 10 13 11 11 12 9 13
REMARK SMILES IDX 10 14 95 15 90 16 94 17 91 18 93 19 92 20 6 21 7 22 8 23
REMARK SMILES IDX 5 24 1 25 2 26 3 27 97 28 4 29 96 30 21 31 22 32 23 33 24 34
REMARK SMILES IDX 25 35 26 37 27 38 28 39 89 40 29 41 88 42 30 43 31 44 32 45
REMARK SMILES IDX 82 46 33 47 87 48 81 49 83 50 34 51 86 52 80 53 79 54 35 56
REMARK SMILES IDX 67 57 47 58 66 59 48 60 51 61 65 62 84 63 49 64 50 65 64 67
REMARK SMILES IDX 85 68 52 69 36 70 37 71 45 72 38 73 39 74 43 75 46 76 40 77
REMARK SMILES IDX 41 78 44 79 42 80 68 81 69 82 77 83 70 84 71 85 75 86 78 87
REMARK SMILES IDX 72 88 73 89 76 90 74 91 53 92 54 93 62 94 55 95 56 96 60 97
REMARK SMILES IDX 63 98 57 99 58 100 61 101 59 102
REMARK H PARENT 20 4 16 9 24 36 83 55 51 66
REMARK Flexibility Score: inf
ROOT
ATOM      1  C   UNL A   1      34.717  33.573  27.982  1.00  0.00     0.239 C 
ATOM      2  O   UNL A   1      35.879  33.457  27.588  1.00  0.00    -0.273 OA
ATOM      3  N   UNL A   1      34.236  34.830  28.227  1.00  0.00    -0.355 N 
ATOM      4  H   UNL A   1      34.870  35.567  28.074  1.00  0.00     0.163 HD
ENDROOT
BRANCH   1   5
ATOM      5  C   UNL A   1      33.803  32.354  28.152  1.00  0.00     0.216 C 
BRANCH   5   6
ATOM      6  N   UNL A   1      34.545  31.098  28.175  1.00  0.00    -0.340 N 
ATOM      7  C   UNL A   1      34.286  29.873  27.597  1.00  0.00     0.292 C 
ATOM      8  O   UNL A   1      35.085  28.960  27.791  1.00  0.00    -0.265 OA
ATOM      9  H   UNL A   1      35.380  31.131  28.697  1.00  0.00     0.164 HD
BRANCH   7  10
ATOM     10  C   UNL A   1      33.007  29.630  26.756  1.00  0.00     0.252 C 
ATOM     11  O   UNL A   1      32.174  30.530  26.699  1.00  0.00    -0.283 OA
BRANCH  10  12
ATOM     12  C   UNL A   1      32.766  28.360  26.049  1.00  0.00     0.054 A 
ATOM     13  N   UNL A   1      32.243  26.235  25.586  1.00  0.00    -0.240 N 
ATOM     14  C   UNL A   1      32.216  27.198  26.563  1.00  0.00     0.117 A 
ATOM     15  C   UNL A   1      32.767  26.731  24.411  1.00  0.00     0.065 A 
ATOM     16  C   UNL A   1      33.105  28.066  24.677  1.00  0.00     0.012 A 
ATOM     17  C   UNL A   1      33.014  26.135  23.160  1.00  0.00     0.028 A 
ATOM     18  C   UNL A   1      33.690  28.825  23.637  1.00  0.00     0.011 A 
ATOM     19  C   UNL A   1      33.619  26.907  22.165  1.00  0.00     0.002 A 
ATOM     20  C   UNL A   1      33.947  28.236  22.396  1.00  0.00     0.001 A 
BRANCH  13  21
ATOM     21  S   UNL A   1      31.802  24.610  25.847  1.00  0.00     0.268 S 
ATOM     22  O   UNL A   1      30.894  24.283  24.771  1.00  0.00    -0.201 OA
ATOM     23  O   UNL A   1      31.402  24.533  27.243  1.00  0.00    -0.201 OA
BRANCH  21  24
ATOM     24  C   UNL A   1      33.254  23.606  25.661  1.00  0.00     0.088 A 
ATOM     25  C   UNL A   1      36.672  21.119  24.852  1.00  0.00     0.044 C 
ATOM     26  C   UNL A   1      35.481  21.980  25.155  1.00  0.00    -0.051 A 
ATOM     27  C   UNL A   1      34.210  21.592  24.717  1.00  0.00     0.005 A 
ATOM     28  C   UNL A   1      35.621  23.174  25.873  1.00  0.00     0.005 A 
ATOM     29  C   UNL A   1      33.100  22.402  24.962  1.00  0.00     0.022 A 
ATOM     30  C   UNL A   1      34.511  23.982  26.139  1.00  0.00     0.022 A 
ENDBRANCH  21  24
ENDBRANCH  13  21
ENDBRANCH  10  12
ENDBRANCH   7  10
ENDBRANCH   5   6
ENDBRANCH   1   5
BRANCH   3  31
ATOM     31  C   UNL A   1      32.915  35.217  28.683  1.00  0.00     0.117 C 
BRANCH  31  32
ATOM     32  C   UNL A   1      32.990  36.249  29.798  1.00  0.00     0.042 C 
BRANCH  32  33
ATOM     33  C   UNL A   1      32.527  35.700  31.136  1.00  0.00     0.118 C 
BRANCH  33  34
ATOM     34  N   UNL A   1      33.344  36.163  32.258  1.00  0.00    -0.352 N 
ATOM     35  C   UNL A   1      34.260  35.490  33.046  1.00  0.00     0.251 C 
ATOM     36  H   UNL A   1      33.222  37.112  32.491  1.00  0.00     0.163 HD
ATOM     37  O   UNL A   1      34.792  36.059  33.993  1.00  0.00    -0.269 OA
BRANCH  35  38
ATOM     38  C   UNL A   1      34.751  34.161  32.620  1.00  0.00     0.039 A 
ATOM     39  C   UNL A   1      35.026  33.252  33.652  1.00  0.00     0.014 A 
ATOM     40  C   UNL A   1      35.329  34.011  31.369  1.00  0.00     0.014 A 
ATOM     41  C   UNL A   1      36.133  32.429  33.539  1.00  0.00     0.010 A 
ATOM     42  C   UNL A   1      36.519  33.335  31.313  1.00  0.00     0.010 A 
ATOM     43  C   UNL A   1      36.946  32.611  32.431  1.00  0.00    -0.014 A 
BRANCH  43  44
ATOM     44  C   UNL A   1      38.250  32.017  32.275  1.00  0.00     0.031 A 
ATOM     45  C   UNL A   1      38.294  30.716  31.601  1.00  0.00     0.074 A 
ATOM     46  C   UNL A   1      39.341  32.763  32.550  1.00  0.00     0.049 A 
ATOM     47  N   UNL A   1      39.330  29.963  31.582  1.00  0.00    -0.248 NA
ATOM     48  C   UNL A   1      37.134  30.117  30.936  1.00  0.00     0.031 C 
ATOM     49  C   UNL A   1      40.717  32.544  32.118  1.00  0.00     0.029 A 
ATOM     50  N   UNL A   1      39.438  33.824  33.468  1.00  0.00    -0.354 N 
ATOM     51  C   UNL A   1      39.098  28.991  30.639  1.00  0.00     0.074 A 
ATOM     52  C   UNL A   1      37.678  29.016  30.412  1.00  0.00     0.031 C 
ATOM     53  C   UNL A   1      41.544  33.188  32.963  1.00  0.00     0.029 A 
ATOM     54  C   UNL A   1      40.725  33.686  34.053  1.00  0.00     0.049 A 
ATOM     55  H   UNL A   1      38.761  34.513  33.661  1.00  0.00     0.167 HD
ATOM     56  C   UNL A   1      40.185  28.413  30.062  1.00  0.00     0.037 A 
ATOM     57  C   UNL A   1      40.838  33.299  35.362  1.00  0.00     0.037 A 
ATOM     58  C   UNL A   1      41.398  28.795  30.790  1.00  0.00     0.049 A 
ATOM     59  C   UNL A   1      41.496  31.941  35.542  1.00  0.00     0.074 A 
ATOM     60  C   UNL A   1      42.441  29.674  30.573  1.00  0.00     0.029 A 
ATOM     61  N   UNL A   1      41.461  28.457  32.129  1.00  0.00    -0.354 N 
ATOM     62  N   UNL A   1      41.768  31.126  34.558  1.00  0.00    -0.248 NA
ATOM     63  C   UNL A   1      41.836  31.362  36.840  1.00  0.00     0.031 C 
ATOM     64  C   UNL A   1      43.094  29.895  31.830  1.00  0.00     0.029 A 
ATOM     65  C   UNL A   1      42.471  29.117  32.791  1.00  0.00     0.049 A 
ATOM     66  H   UNL A   1      40.852  27.817  32.562  1.00  0.00     0.167 HD
ATOM     67  C   UNL A   1      42.263  29.949  35.044  1.00  0.00     0.074 A 
ATOM     68  C   UNL A   1      42.267  30.138  36.487  1.00  0.00     0.031 C 
ATOM     69  C   UNL A   1      42.603  28.905  34.228  1.00  0.00     0.037 A 
BRANCH  56  70
ATOM     70  C   UNL A   1      40.209  27.636  28.770  1.00  0.00     0.064 A 
ATOM     71  C   UNL A   1      39.597  26.366  28.722  1.00  0.00     0.173 A 
ATOM     72  C   UNL A   1      40.889  28.007  27.590  1.00  0.00     0.173 A 
ATOM     73  F   UNL A   1      38.903  25.889  29.765  1.00  0.00    -0.203 F 
ATOM     74  C   UNL A   1      39.689  25.529  27.607  1.00  0.00     0.198 A 
ATOM     75  C   UNL A   1      40.941  27.188  26.459  1.00  0.00     0.198 A 
ATOM     76  F   UNL A   1      41.579  29.146  27.483  1.00  0.00    -0.203 F 
ATOM     77  F   UNL A   1      39.137  24.308  27.647  1.00  0.00    -0.200 F 
ATOM     78  C   UNL A   1      40.356  25.942  26.473  1.00  0.00     0.200 A 
ATOM     79  F   UNL A   1      41.591  27.612  25.365  1.00  0.00    -0.200 F 
ATOM     80  F   UNL A   1      40.448  25.140  25.404  1.00  0.00    -0.200 F 
ENDBRANCH  56  70
BRANCH  57  81
ATOM     81  C   UNL A   1      39.715  33.850  36.183  1.00  0.00     0.064 A 
ATOM     82  C   UNL A   1      38.692  32.951  36.562  1.00  0.00     0.173 A 
ATOM     83  C   UNL A   1      39.892  34.992  36.972  1.00  0.00     0.173 A 
ATOM     84  F   UNL A   1      38.462  31.850  35.828  1.00  0.00    -0.203 F 
ATOM     85  C   UNL A   1      38.038  33.078  37.785  1.00  0.00     0.198 A 
ATOM     86  C   UNL A   1      39.196  35.139  38.175  1.00  0.00     0.198 A 
ATOM     87  F   UNL A   1      40.833  35.895  36.660  1.00  0.00    -0.203 F 
ATOM     88  F   UNL A   1      37.219  32.104  38.210  1.00  0.00    -0.200 F 
ATOM     89  C   UNL A   1      38.320  34.153  38.609  1.00  0.00     0.200 A 
ATOM     90  F   UNL A   1      39.460  36.185  38.972  1.00  0.00    -0.200 F 
ATOM     91  F   UNL A   1      37.788  34.214  39.837  1.00  0.00    -0.200 F 
ENDBRANCH  57  81
BRANCH  69  92
ATOM     92  C   UNL A   1      43.070  27.559  34.724  1.00  0.00     0.064 A 
ATOM     93  C   UNL A   1      44.419  27.268  34.960  1.00  0.00     0.173 A 
ATOM     94  C   UNL A   1      42.174  26.473  34.882  1.00  0.00     0.173 A 
ATOM     95  F   UNL A   1      45.367  28.194  34.759  1.00  0.00    -0.203 F 
ATOM     96  C   UNL A   1      44.833  26.002  35.387  1.00  0.00     0.198 A 
ATOM     97  C   UNL A   1      42.597  25.195  35.232  1.00  0.00     0.198 A 
ATOM     98  F   UNL A   1      40.848  26.617  34.743  1.00  0.00    -0.203 F 
ATOM     99  F   UNL A   1      46.124  25.789  35.677  1.00  0.00    -0.200 F 
ATOM    100  C   UNL A   1      43.925  24.964  35.510  1.00  0.00     0.200 A 
ATOM    101  F   UNL A   1      41.702  24.199  35.314  1.00  0.00    -0.200 F 
ATOM    102  F   UNL A   1      44.327  23.748  35.899  1.00  0.00    -0.200 F 
ENDBRANCH  69  92
ENDBRANCH  43  44
ENDBRANCH  35  38
ENDBRANCH  33  34
ENDBRANCH  32  33
ENDBRANCH  31  32
ENDBRANCH   3  31
TORSDOF 15
ENDMDL
MODEL 3
REMARK VINA RESULT:     -14.1      2.272      3.579
REMARK SMILES Cc1ccc(S(=O)(=O)n2cc(C(=O)C(=O)NCC(=O)NCCCNC(=O)c3ccc(-c4c5nc(c(-c6c(F)c(F)c(F)c(F)c6F)c6ccc([nH]6)c(-c6c(F)c(F)c(F)c(F)c6F)c6nc(c(-c7c(F)c(F)c(F)c(F)c7F)c7ccc4[nH]7)C=C6)C=C5)cc3)c3ccccc32)cc1
REMARK SMILES IDX 18 1 19 2 20 3 17 5 16 6 14 7 15 8 12 10 13 11 11 12 9 13
REMARK SMILES IDX 10 14 95 15 90 16 94 17 91 18 93 19 92 20 6 21 7 22 8 23
REMARK SMILES IDX 5 24 1 25 2 26 3 27 97 28 4 29 96 30 21 31 22 32 23 33 24 34
REMARK SMILES IDX 25 35 26 37 27 38 28 39 89 40 29 41 88 42 30 43 31 44 32 45
REMARK SMILES IDX 82 46 33 47 87 48 81 49 83 50 34 51 86 52 80 53 79 54 35 56
REMARK SMILES IDX 67 57 47 58 66 59 48 60 51 61 65 62 84 63 49 64 50 65 64 67
REMARK SMILES IDX 85 68 52 69 36 70 37 71 45 72 38 73 39 74 43 75 46 76 40 77
REMARK SMILES IDX 41 78 44 79 42 80 68 81 69 82 77 83 70 84 71 85 75 86 78 87
REMARK SMILES IDX 72 88 73 89 76 90 74 91 53 92 54 93 62 94 55 95 56 96 60 97
REMARK SMILES IDX 63 98 57 99 58 100 61 101 59 102
REMARK H PARENT 20 4 16 9 24 36 83 55 51 66
REMARK Flexibility Score: inf
ROOT
ATOM      1  C   UNL A   1      33.412  28.614  24.401  1.00  0.00     0.239 C 
ATOM      2  O   UNL A   1      33.750  28.150  23.311  1.00  0.00    -0.273 OA
ATOM      3  N   UNL A   1      34.351  28.695  25.393  1.00  0.00    -0.355 N 
ATOM      4  H   UNL A   1      35.247  28.362  25.161  1.00  0.00     0.163 HD
ENDROOT
BRANCH   1   5
ATOM      5  C   UNL A   1      31.992  29.139  24.644  1.00  0.00     0.216 C 
BRANCH   5   6
ATOM      6  N   UNL A   1      31.298  29.467  23.402  1.00  0.00    -0.340 N 
ATOM      7  C   UNL A   1      30.281  28.824  22.727  1.00  0.00     0.292 C 
ATOM      8  O   UNL A   1      29.882  29.316  21.675  1.00  0.00    -0.265 OA
ATOM      9  H   UNL A   1      31.612  30.294  22.969  1.00  0.00     0.164 HD
BRANCH   7  10
ATOM     10  C   UNL A   1      29.677  27.496  23.250  1.00  0.00     0.252 C 
ATOM     11  O   UNL A   1      28.470  27.458  23.470  1.00  0.00    -0.283 OA
BRANCH  10  12
ATOM     12  C   UNL A   1      30.507  26.304  23.499  1.00  0.00     0.054 A 
ATOM     13  N   UNL A   1      31.968  24.627  23.262  1.00  0.00    -0.240 N 
ATOM     14  C   UNL A   1      31.504  25.785  22.690  1.00  0.00     0.117 A 
ATOM     15  C   UNL A   1      31.331  24.371  24.458  1.00  0.00     0.065 A 
ATOM     16  C   UNL A   1      30.406  25.411  24.629  1.00  0.00     0.012 A 
ATOM     17  C   UNL A   1      31.445  23.315  25.382  1.00  0.00     0.028 A 
ATOM     18  C   UNL A   1      29.588  25.392  25.782  1.00  0.00     0.011 A 
ATOM     19  C   UNL A   1      30.601  23.314  26.495  1.00  0.00     0.002 A 
ATOM     20  C   UNL A   1      29.689  24.341  26.698  1.00  0.00     0.001 A 
BRANCH  13  21
ATOM     21  S   UNL A   1      33.093  23.588  22.514  1.00  0.00     0.268 S 
ATOM     22  O   UNL A   1      33.374  24.190  21.230  1.00  0.00    -0.201 OA
ATOM     23  O   UNL A   1      32.530  22.253  22.632  1.00  0.00    -0.201 OA
BRANCH  21  24
ATOM     24  C   UNL A   1      34.589  23.614  23.468  1.00  0.00     0.088 A 
ATOM     25  C   UNL A   1      38.001  23.670  26.089  1.00  0.00     0.044 C 
ATOM     26  C   UNL A   1      36.823  23.661  25.160  1.00  0.00    -0.051 A 
ATOM     27  C   UNL A   1      35.734  24.505  25.405  1.00  0.00     0.005 A 
ATOM     28  C   UNL A   1      36.795  22.816  24.044  1.00  0.00     0.005 A 
ATOM     29  C   UNL A   1      34.618  24.480  24.568  1.00  0.00     0.022 A 
ATOM     30  C   UNL A   1      35.687  22.798  23.190  1.00  0.00     0.022 A 
ENDBRANCH  21  24
ENDBRANCH  13  21
ENDBRANCH  10  12
ENDBRANCH   7  10
ENDBRANCH   5   6
ENDBRANCH   1   5
BRANCH   3  31
ATOM     31  C   UNL A   1      34.197  29.208  26.741  1.00  0.00     0.117 C 
BRANCH  31  32
ATOM     32  C   UNL A   1      35.529  29.661  27.321  1.00  0.00     0.042 C 
BRANCH  32  33
ATOM     33  C   UNL A   1      35.395  30.222  28.725  1.00  0.00     0.118 C 
BRANCH  33  34
ATOM     34  N   UNL A   1      34.527  31.399  28.790  1.00  0.00    -0.352 N 
ATOM     35  C   UNL A   1      34.676  32.595  29.469  1.00  0.00     0.251 C 
ATOM     36  H   UNL A   1      33.698  31.326  28.263  1.00  0.00     0.163 HD
ATOM     37  O   UNL A   1      33.781  33.432  29.441  1.00  0.00    -0.269 OA
BRANCH  35  38
ATOM     38  C   UNL A   1      35.991  32.946  30.047  1.00  0.00     0.039 A 
ATOM     39  C   UNL A   1      36.963  33.379  29.135  1.00  0.00     0.014 A 
ATOM     40  C   UNL A   1      36.355  32.437  31.285  1.00  0.00     0.014 A 
ATOM     41  C   UNL A   1      38.274  32.973  29.313  1.00  0.00     0.010 A 
ATOM     42  C   UNL A   1      37.604  31.884  31.383  1.00  0.00     0.010 A 
ATOM     43  C   UNL A   1      38.528  32.096  30.355  1.00  0.00    -0.014 A 
BRANCH  43  44
ATOM     44  C   UNL A   1      39.772  31.392  30.538  1.00  0.00     0.031 A 
ATOM     45  C   UNL A   1      39.848  30.046  29.961  1.00  0.00     0.074 A 
ATOM     46  C   UNL A   1      40.837  32.068  31.020  1.00  0.00     0.049 A 
ATOM     47  N   UNL A   1      40.786  29.216  30.222  1.00  0.00    -0.248 NA
ATOM     48  C   UNL A   1      38.819  29.494  29.077  1.00  0.00     0.031 C 
ATOM     49  C   UNL A   1      42.249  31.712  30.932  1.00  0.00     0.029 A 
ATOM     50  N   UNL A   1      40.821  33.182  31.879  1.00  0.00    -0.354 N 
ATOM     51  C   UNL A   1      40.686  28.200  29.304  1.00  0.00     0.074 A 
ATOM     52  C   UNL A   1      39.363  28.319  28.752  1.00  0.00     0.031 C 
ATOM     53  C   UNL A   1      42.918  32.348  31.911  1.00  0.00     0.029 A 
ATOM     54  C   UNL A   1      41.923  32.986  32.754  1.00  0.00     0.049 A 
ATOM     55  H   UNL A   1      40.185  33.934  31.873  1.00  0.00     0.167 HD
ATOM     56  C   UNL A   1      41.817  27.498  29.026  1.00  0.00     0.037 A 
ATOM     57  C   UNL A   1      41.699  32.686  34.071  1.00  0.00     0.037 A 
ATOM     58  C   UNL A   1      42.863  27.835  29.995  1.00  0.00     0.049 A 
ATOM     59  C   UNL A   1      42.171  31.297  34.469  1.00  0.00     0.074 A 
ATOM     60  C   UNL A   1      44.005  28.612  29.981  1.00  0.00     0.029 A 
ATOM     61  N   UNL A   1      42.589  27.591  31.328  1.00  0.00    -0.354 N 
ATOM     62  N   UNL A   1      42.582  30.395  33.619  1.00  0.00    -0.248 NA
ATOM     63  C   UNL A   1      42.151  30.789  35.839  1.00  0.00     0.031 C 
ATOM     64  C   UNL A   1      44.373  28.871  31.343  1.00  0.00     0.029 A 
ATOM     65  C   UNL A   1      43.478  28.215  32.172  1.00  0.00     0.049 A 
ATOM     66  H   UNL A   1      41.841  27.033  31.640  1.00  0.00     0.167 HD
ATOM     67  C   UNL A   1      42.843  29.221  34.268  1.00  0.00     0.074 A 
ATOM     68  C   UNL A   1      42.536  29.512  35.660  1.00  0.00     0.031 C 
ATOM     69  C   UNL A   1      43.260  28.097  33.609  1.00  0.00     0.037 A 
BRANCH  56  70
ATOM     70  C   UNL A   1      42.062  26.630  27.817  1.00  0.00     0.064 A 
ATOM     71  C   UNL A   1      41.449  25.362  27.748  1.00  0.00     0.173 A 
ATOM     72  C   UNL A   1      42.949  26.914  26.757  1.00  0.00     0.173 A 
ATOM     73  F   UNL A   1      40.571  24.962  28.679  1.00  0.00    -0.203 F 
ATOM     74  C   UNL A   1      41.728  24.447  26.729  1.00  0.00     0.198 A 
ATOM     75  C   UNL A   1      43.192  26.016  25.714  1.00  0.00     0.198 A 
ATOM     76  F   UNL A   1      43.665  28.041  26.698  1.00  0.00    -0.203 F 
ATOM     77  F   UNL A   1      41.159  23.234  26.753  1.00  0.00    -0.200 F 
ATOM     78  C   UNL A   1      42.595  24.776  25.709  1.00  0.00     0.200 A 
ATOM     79  F   UNL A   1      44.035  26.360  24.729  1.00  0.00    -0.200 F 
ATOM     80  F   UNL A   1      42.866  23.900  24.733  1.00  0.00    -0.200 F 
ENDBRANCH  56  70
BRANCH  57  81
ATOM     81  C   UNL A   1      40.475  33.381  34.579  1.00  0.00     0.064 A 
ATOM     82  C   UNL A   1      39.336  32.582  34.826  1.00  0.00     0.173 A 
ATOM     83  C   UNL A   1      40.569  34.596  35.267  1.00  0.00     0.173 A 
ATOM     84  F   UNL A   1      39.182  31.416  34.176  1.00  0.00    -0.203 F 
ATOM     85  C   UNL A   1      38.458  32.879  35.865  1.00  0.00     0.198 A 
ATOM     86  C   UNL A   1      39.656  34.913  36.276  1.00  0.00     0.198 A 
ATOM     87  F   UNL A   1      41.615  35.411  35.067  1.00  0.00    -0.203 F 
ATOM     88  F   UNL A   1      37.503  32.001  36.206  1.00  0.00    -0.200 F 
ATOM     89  C   UNL A   1      38.643  34.027  36.615  1.00  0.00     0.200 A 
ATOM     90  F   UNL A   1      39.826  36.029  37.000  1.00  0.00    -0.200 F 
ATOM     91  F   UNL A   1      37.878  34.253  37.693  1.00  0.00    -0.200 F 
ENDBRANCH  57  81
BRANCH  69  92
ATOM     92  C   UNL A   1      43.476  26.758  34.269  1.00  0.00     0.064 A 
ATOM     93  C   UNL A   1      44.735  26.151  34.353  1.00  0.00     0.173 A 
ATOM     94  C   UNL A   1      42.392  25.986  34.754  1.00  0.00     0.173 A 
ATOM     95  F   UNL A   1      45.822  26.752  33.848  1.00  0.00    -0.203 F 
ATOM     96  C   UNL A   1      44.906  24.893  34.939  1.00  0.00     0.198 A 
ATOM     97  C   UNL A   1      42.554  24.702  35.266  1.00  0.00     0.198 A 
ATOM     98  F   UNL A   1      41.138  26.459  34.787  1.00  0.00    -0.203 F 
ATOM     99  F   UNL A   1      46.138  24.385  35.069  1.00  0.00    -0.200 F 
ATOM    100  C   UNL A   1      43.816  24.165  35.382  1.00  0.00     0.200 A 
ATOM    101  F   UNL A   1      41.479  24.005  35.660  1.00  0.00    -0.200 F 
ATOM    102  F   UNL A   1      43.980  22.952  35.925  1.00  0.00    -0.200 F 
ENDBRANCH  69  92
ENDBRANCH  43  44
ENDBRANCH  35  38
ENDBRANCH  33  34
ENDBRANCH  32  33
ENDBRANCH  31  32
ENDBRANCH   3  31
TORSDOF 15
ENDMDL
