MODEL 1
REMARK VINA RESULT:     -13.3      0.000      0.000
REMARK SMILES C[C@H]1C[N@H+]2CCCC[C@@H]2CN1c1ccc(C(=O)NCCCNC(=O)c2ccc(-c3c4nc(c(-c5c(F)c(F)c(F)c(F)c5F)c5ccc([nH]5)c(-c5c(F)c(F)c(F)c(F)c5F)c5nc(c(-c6c(F)c(F)c(F)c(F)c6F)c6ccc3[nH]6)C=C5)C=C4)cc2)cc1Cl
REMARK SMILES IDX 20 1 19 2 18 3 16 4 17 5 15 7 12 8 13 9 89 10 14 11 88 12
REMARK SMILES IDX 90 13 11 14 1 15 2 16 3 17 4 18 10 19 5 20 9 21 6 23 8 24
REMARK SMILES IDX 7 25 21 26 22 27 23 28 24 30 25 31 26 32 87 33 27 34 86 35
REMARK SMILES IDX 28 36 29 37 30 38 80 39 31 40 85 41 79 42 81 43 32 44 84 45
REMARK SMILES IDX 78 46 77 47 33 49 65 50 45 51 64 52 46 53 49 54 63 55 82 56
REMARK SMILES IDX 47 57 48 58 62 60 83 61 50 62 34 63 35 64 43 65 36 66 37 67
REMARK SMILES IDX 41 68 44 69 38 70 39 71 42 72 40 73 66 74 67 75 75 76 68 77
REMARK SMILES IDX 69 78 73 79 76 80 70 81 71 82 74 83 72 84 51 85 52 86 60 87
REMARK SMILES IDX 53 88 54 89 58 90 61 91 55 92 56 93 59 94 57 95
REMARK H PARENT 18 6 4 22 22 29 81 48 49 59
REMARK Flexibility Score: inf
ROOT
ATOM      1  C   UNL A   1      37.733  19.572  24.915  1.00  0.00     0.042 C 
ENDROOT
BRANCH   1   2
ATOM      2  C   UNL A   1      36.455  20.409  25.003  1.00  0.00     0.118 C 
BRANCH   2   3
ATOM      3  N   UNL A   1      35.266  19.577  24.923  1.00  0.00    -0.352 N 
ATOM      4  C   UNL A   1      33.934  19.883  24.801  1.00  0.00     0.251 C 
ATOM      5  O   UNL A   1      33.144  18.952  24.652  1.00  0.00    -0.269 OA
ATOM      6  H   UNL A   1      35.451  18.611  24.965  1.00  0.00     0.163 HD
BRANCH   4   7
ATOM      7  C   UNL A   1      33.412  21.276  24.808  1.00  0.00     0.041 A 
ATOM      8  C   UNL A   1      32.435  23.940  24.985  1.00  0.00     0.056 A 
ATOM      9  C   UNL A   1      32.464  23.107  26.109  1.00  0.00     0.028 A 
ATOM     10  C   UNL A   1      32.924  23.410  23.774  1.00  0.00     0.065 A 
ATOM     11  C   UNL A   1      32.945  21.793  26.025  1.00  0.00     0.016 A 
ATOM     12  C   UNL A   1      33.429  22.110  23.695  1.00  0.00     0.036 A 
ATOM     13  Cl  UNL A   1      32.971  24.355  22.319  1.00  0.00    -0.082 Cl
BRANCH   8  14
ATOM     14  N   UNL A   1      31.955  25.228  25.069  1.00  0.00    -0.356 N 
ATOM     15  C   UNL A   1      34.214  26.183  25.599  1.00  0.00     0.037 C 
ATOM     16  C   UNL A   1      32.694  26.372  25.630  1.00  0.00     0.134 C 
ATOM     17  C   UNL A   1      32.346  27.655  24.803  1.00  0.00     0.287 C 
ATOM     18  N   UNL A   1      30.897  27.901  24.582  1.00  0.00    -0.329 N 
ATOM     19  C   UNL A   1      30.508  25.433  24.914  1.00  0.00     0.182 C 
ATOM     20  C   UNL A   1      30.724  29.030  23.653  1.00  0.00     0.262 C 
ATOM     21  C   UNL A   1      30.260  26.676  24.025  1.00  0.00     0.203 C 
ATOM     22  H   UNL A   1      30.452  28.130  25.470  1.00  0.00     0.348 HD
ATOM     23  C   UNL A   1      29.246  29.320  23.381  1.00  0.00     0.062 C 
ATOM     24  C   UNL A   1      28.755  26.904  23.836  1.00  0.00     0.067 C 
ATOM     25  C   UNL A   1      28.505  28.078  22.896  1.00  0.00     0.012 C 
ENDBRANCH   8  14
ENDBRANCH   4   7
ENDBRANCH   2   3
ENDBRANCH   1   2
BRANCH   1  26
ATOM     26  C   UNL A   1      38.901  20.152  25.709  1.00  0.00     0.118 C 
BRANCH  26  27
ATOM     27  N   UNL A   1      39.986  19.195  25.861  1.00  0.00    -0.352 N 
ATOM     28  C   UNL A   1      41.326  19.401  26.072  1.00  0.00     0.251 C 
ATOM     29  H   UNL A   1      39.716  18.250  25.804  1.00  0.00     0.163 HD
ATOM     30  O   UNL A   1      42.105  18.460  25.956  1.00  0.00    -0.269 OA
BRANCH  28  31
ATOM     31  C   UNL A   1      41.846  20.739  26.432  1.00  0.00     0.039 A 
ATOM     32  C   UNL A   1      42.095  21.657  25.406  1.00  0.00     0.014 A 
ATOM     33  C   UNL A   1      42.151  21.075  27.753  1.00  0.00     0.014 A 
ATOM     34  C   UNL A   1      42.605  22.922  25.708  1.00  0.00     0.010 A 
ATOM     35  C   UNL A   1      42.598  22.359  28.061  1.00  0.00     0.010 A 
ATOM     36  C   UNL A   1      42.838  23.292  27.041  1.00  0.00    -0.014 A 
BRANCH  36  37
ATOM     37  C   UNL A   1      43.338  24.648  27.386  1.00  0.00     0.031 A 
ATOM     38  C   UNL A   1      42.406  25.675  27.966  1.00  0.00     0.074 A 
ATOM     39  C   UNL A   1      44.616  24.973  27.117  1.00  0.00     0.049 A 
ATOM     40  N   UNL A   1      42.632  26.932  28.254  1.00  0.00    -0.248 NA
ATOM     41  C   UNL A   1      41.028  25.236  28.237  1.00  0.00     0.031 C 
ATOM     42  C   UNL A   1      45.607  24.077  26.517  1.00  0.00     0.029 A 
ATOM     43  N   UNL A   1      45.300  26.148  27.301  1.00  0.00    -0.354 N 
ATOM     44  C   UNL A   1      41.425  27.437  28.722  1.00  0.00     0.074 A 
ATOM     45  C   UNL A   1      40.458  26.364  28.638  1.00  0.00     0.031 C 
ATOM     46  C   UNL A   1      46.772  24.732  26.394  1.00  0.00     0.029 A 
ATOM     47  C   UNL A   1      46.603  26.100  26.873  1.00  0.00     0.049 A 
ATOM     48  H   UNL A   1      44.893  26.951  27.702  1.00  0.00     0.167 HD
ATOM     49  C   UNL A   1      41.155  28.676  29.197  1.00  0.00     0.037 A 
ATOM     50  C   UNL A   1      47.553  27.055  26.859  1.00  0.00     0.037 A 
ATOM     51  C   UNL A   1      42.127  29.734  29.304  1.00  0.00     0.049 A 
ATOM     52  C   UNL A   1      47.228  28.421  27.397  1.00  0.00     0.074 A 
ATOM     53  C   UNL A   1      41.965  31.007  29.820  1.00  0.00     0.029 A 
ATOM     54  N   UNL A   1      43.447  29.636  28.886  1.00  0.00    -0.354 N 
ATOM     55  N   UNL A   1      46.099  28.870  27.889  1.00  0.00    -0.248 NA
ATOM     56  C   UNL A   1      48.314  29.412  27.386  1.00  0.00     0.031 C 
ATOM     57  C   UNL A   1      43.176  31.694  29.681  1.00  0.00     0.029 A 
ATOM     58  C   UNL A   1      44.105  30.832  29.119  1.00  0.00     0.049 A 
ATOM     59  H   UNL A   1      43.855  28.836  28.483  1.00  0.00     0.167 HD
ATOM     60  C   UNL A   1      46.343  30.183  28.267  1.00  0.00     0.074 A 
ATOM     61  C   UNL A   1      47.732  30.455  27.962  1.00  0.00     0.031 C 
ATOM     62  C   UNL A   1      45.491  31.084  28.816  1.00  0.00     0.037 A 
BRANCH  49  63
ATOM     63  C   UNL A   1      39.751  28.958  29.644  1.00  0.00     0.064 A 
ATOM     64  C   UNL A   1      38.789  29.472  28.761  1.00  0.00     0.173 A 
ATOM     65  C   UNL A   1      39.349  28.675  30.959  1.00  0.00     0.173 A 
ATOM     66  F   UNL A   1      39.124  29.770  27.496  1.00  0.00    -0.203 F 
ATOM     67  C   UNL A   1      37.485  29.718  29.184  1.00  0.00     0.198 A 
ATOM     68  C   UNL A   1      38.037  28.895  31.371  1.00  0.00     0.198 A 
ATOM     69  F   UNL A   1      40.227  28.176  31.842  1.00  0.00    -0.203 F 
ATOM     70  F   UNL A   1      36.596  30.252  28.336  1.00  0.00    -0.200 F 
ATOM     71  C   UNL A   1      37.109  29.423  30.487  1.00  0.00     0.200 A 
ATOM     72  F   UNL A   1      37.671  28.598  32.625  1.00  0.00    -0.200 F 
ATOM     73  F   UNL A   1      35.852  29.653  30.890  1.00  0.00    -0.200 F 
ENDBRANCH  49  63
BRANCH  50  74
ATOM     74  C   UNL A   1      48.908  26.744  26.335  1.00  0.00     0.064 A 
ATOM     75  C   UNL A   1      49.235  26.994  24.995  1.00  0.00     0.173 A 
ATOM     76  C   UNL A   1      49.900  26.195  27.159  1.00  0.00     0.173 A 
ATOM     77  F   UNL A   1      48.312  27.500  24.164  1.00  0.00    -0.203 F 
ATOM     78  C   UNL A   1      50.499  26.691  24.495  1.00  0.00     0.198 A 
ATOM     79  C   UNL A   1      51.173  25.916  26.664  1.00  0.00     0.198 A 
ATOM     80  F   UNL A   1      49.639  25.942  28.449  1.00  0.00    -0.203 F 
ATOM     81  F   UNL A   1      50.772  26.900  23.200  1.00  0.00    -0.200 F 
ATOM     82  C   UNL A   1      51.469  26.157  25.331  1.00  0.00     0.200 A 
ATOM     83  F   UNL A   1      52.110  25.413  27.478  1.00  0.00    -0.200 F 
ATOM     84  F   UNL A   1      52.685  25.869  24.850  1.00  0.00    -0.200 F 
ENDBRANCH  50  74
BRANCH  62  85
ATOM     85  C   UNL A   1      46.046  32.435  29.153  1.00  0.00     0.064 A 
ATOM     86  C   UNL A   1      45.989  33.501  28.243  1.00  0.00     0.173 A 
ATOM     87  C   UNL A   1      46.606  32.678  30.417  1.00  0.00     0.173 A 
ATOM     88  F   UNL A   1      45.478  33.314  27.017  1.00  0.00    -0.203 F 
ATOM     89  C   UNL A   1      46.495  34.754  28.577  1.00  0.00     0.198 A 
ATOM     90  C   UNL A   1      47.086  33.940  30.757  1.00  0.00     0.198 A 
ATOM     91  F   UNL A   1      46.678  31.693  31.324  1.00  0.00    -0.203 F 
ATOM     92  F   UNL A   1      46.471  35.746  27.676  1.00  0.00    -0.200 F 
ATOM     93  C   UNL A   1      47.036  34.974  29.835  1.00  0.00     0.200 A 
ATOM     94  F   UNL A   1      47.597  34.153  31.977  1.00  0.00    -0.200 F 
ATOM     95  F   UNL A   1      47.516  36.183  30.157  1.00  0.00    -0.200 F 
ENDBRANCH  62  85
ENDBRANCH  36  37
ENDBRANCH  28  31
ENDBRANCH  26  27
ENDBRANCH   1  26
TORSDOF 11
ENDMDL
MODEL 2
REMARK VINA RESULT:     -13.2      1.165      2.060
REMARK SMILES C[C@H]1C[N@H+]2CCCC[C@@H]2CN1c1ccc(C(=O)NCCCNC(=O)c2ccc(-c3c4nc(c(-c5c(F)c(F)c(F)c(F)c5F)c5ccc([nH]5)c(-c5c(F)c(F)c(F)c(F)c5F)c5nc(c(-c6c(F)c(F)c(F)c(F)c6F)c6ccc3[nH]6)C=C5)C=C4)cc2)cc1Cl
REMARK SMILES IDX 20 1 19 2 18 3 16 4 17 5 15 7 12 8 13 9 89 10 14 11 88 12
REMARK SMILES IDX 90 13 11 14 1 15 2 16 3 17 4 18 10 19 5 20 9 21 6 23 8 24
REMARK SMILES IDX 7 25 21 26 22 27 23 28 24 30 25 31 26 32 87 33 27 34 86 35
REMARK SMILES IDX 28 36 29 37 30 38 80 39 31 40 85 41 79 42 81 43 32 44 84 45
REMARK SMILES IDX 78 46 77 47 33 49 65 50 45 51 64 52 46 53 49 54 63 55 82 56
REMARK SMILES IDX 47 57 48 58 62 60 83 61 50 62 34 63 35 64 43 65 36 66 37 67
REMARK SMILES IDX 41 68 44 69 38 70 39 71 42 72 40 73 66 74 67 75 75 76 68 77
REMARK SMILES IDX 69 78 73 79 76 80 70 81 71 82 74 83 72 84 51 85 52 86 60 87
REMARK SMILES IDX 53 88 54 89 58 90 61 91 55 92 56 93 59 94 57 95
REMARK H PARENT 18 6 4 22 22 29 81 48 49 59
REMARK Flexibility Score: inf
ROOT
ATOM      1  C   UNL A   1      38.122  19.329  25.047  1.00  0.00     0.042 C 
ENDROOT
BRANCH   1   2
ATOM      2  C   UNL A   1      36.948  20.292  24.866  1.00  0.00     0.118 C 
BRANCH   2   3
ATOM      3  N   UNL A   1      35.673  19.600  24.955  1.00  0.00    -0.352 N 
ATOM      4  C   UNL A   1      34.376  20.049  24.914  1.00  0.00     0.251 C 
ATOM      5  O   UNL A   1      33.479  19.207  24.910  1.00  0.00    -0.269 OA
ATOM      6  H   UNL A   1      35.754  18.625  25.064  1.00  0.00     0.163 HD
BRANCH   4   7
ATOM      7  C   UNL A   1      34.012  21.489  24.845  1.00  0.00     0.041 A 
ATOM      8  C   UNL A   1      33.362  24.241  24.555  1.00  0.00     0.056 A 
ATOM      9  C   UNL A   1      34.218  23.604  23.651  1.00  0.00     0.028 A 
ATOM     10  C   UNL A   1      32.826  23.461  25.599  1.00  0.00     0.065 A 
ATOM     11  C   UNL A   1      34.540  22.248  23.791  1.00  0.00     0.016 A 
ATOM     12  C   UNL A   1      33.124  22.102  25.724  1.00  0.00     0.036 A 
ATOM     13  Cl  UNL A   1      31.727  24.128  26.764  1.00  0.00    -0.082 Cl
BRANCH   8  14
ATOM     14  N   UNL A   1      33.053  25.577  24.419  1.00  0.00    -0.356 N 
ATOM     15  C   UNL A   1      31.056  25.109  22.973  1.00  0.00     0.037 C 
ATOM     16  C   UNL A   1      32.098  26.129  23.443  1.00  0.00     0.134 C 
ATOM     17  C   UNL A   1      31.341  27.332  24.100  1.00  0.00     0.287 C 
ATOM     18  N   UNL A   1      32.201  28.343  24.767  1.00  0.00    -0.329 N 
ATOM     19  C   UNL A   1      33.959  26.557  25.031  1.00  0.00     0.182 C 
ATOM     20  C   UNL A   1      31.358  29.314  25.483  1.00  0.00     0.262 C 
ATOM     21  C   UNL A   1      33.125  27.666  25.718  1.00  0.00     0.203 C 
ATOM     22  H   UNL A   1      32.753  28.837  24.065  1.00  0.00     0.348 HD
ATOM     23  C   UNL A   1      32.196  30.375  26.199  1.00  0.00     0.062 C 
ATOM     24  C   UNL A   1      34.050  28.697  26.378  1.00  0.00     0.067 C 
ATOM     25  C   UNL A   1      33.234  29.748  27.123  1.00  0.00     0.012 C 
ENDBRANCH   8  14
ENDBRANCH   4   7
ENDBRANCH   2   3
ENDBRANCH   1   2
BRANCH   1  26
ATOM     26  C   UNL A   1      39.274  19.914  25.861  1.00  0.00     0.118 C 
BRANCH  26  27
ATOM     27  N   UNL A   1      40.410  19.008  25.927  1.00  0.00    -0.352 N 
ATOM     28  C   UNL A   1      41.745  19.272  26.109  1.00  0.00     0.251 C 
ATOM     29  H   UNL A   1      40.186  18.054  25.826  1.00  0.00     0.163 HD
ATOM     30  O   UNL A   1      42.566  18.380  25.918  1.00  0.00    -0.269 OA
BRANCH  28  31
ATOM     31  C   UNL A   1      42.208  20.614  26.527  1.00  0.00     0.039 A 
ATOM     32  C   UNL A   1      42.669  21.498  25.544  1.00  0.00     0.014 A 
ATOM     33  C   UNL A   1      42.256  20.987  27.872  1.00  0.00     0.014 A 
ATOM     34  C   UNL A   1      43.132  22.765  25.904  1.00  0.00     0.010 A 
ATOM     35  C   UNL A   1      42.657  22.274  28.226  1.00  0.00     0.010 A 
ATOM     36  C   UNL A   1      43.107  23.173  27.247  1.00  0.00    -0.014 A 
BRANCH  36  37
ATOM     37  C   UNL A   1      43.554  24.532  27.645  1.00  0.00     0.031 A 
ATOM     38  C   UNL A   1      42.545  25.589  27.996  1.00  0.00     0.074 A 
ATOM     39  C   UNL A   1      44.867  24.831  27.629  1.00  0.00     0.049 A 
ATOM     40  N   UNL A   1      42.733  26.852  28.286  1.00  0.00    -0.248 NA
ATOM     41  C   UNL A   1      41.132  25.178  27.996  1.00  0.00     0.031 C 
ATOM     42  C   UNL A   1      45.939  23.904  27.267  1.00  0.00     0.029 A 
ATOM     43  N   UNL A   1      45.522  26.003  27.913  1.00  0.00    -0.354 N 
ATOM     44  C   UNL A   1      41.468  27.388  28.487  1.00  0.00     0.074 A 
ATOM     45  C   UNL A   1      40.516  26.326  28.241  1.00  0.00     0.031 C 
ATOM     46  C   UNL A   1      47.119  24.538  27.361  1.00  0.00     0.029 A 
ATOM     47  C   UNL A   1      46.884  25.924  27.756  1.00  0.00     0.049 A 
ATOM     48  H   UNL A   1      45.059  26.824  28.199  1.00  0.00     0.167 HD
ATOM     49  C   UNL A   1      41.132  28.646  28.861  1.00  0.00     0.037 A 
ATOM     50  C   UNL A   1      47.835  26.865  27.905  1.00  0.00     0.037 A 
ATOM     51  C   UNL A   1      42.083  29.694  29.130  1.00  0.00     0.049 A 
ATOM     52  C   UNL A   1      47.436  28.252  28.327  1.00  0.00     0.074 A 
ATOM     53  C   UNL A   1      41.846  30.986  29.565  1.00  0.00     0.029 A 
ATOM     54  N   UNL A   1      43.457  29.565  28.989  1.00  0.00    -0.354 N 
ATOM     55  N   UNL A   1      46.241  28.731  28.569  1.00  0.00    -0.248 NA
ATOM     56  C   UNL A   1      48.521  29.228  28.505  1.00  0.00     0.031 C 
ATOM     57  C   UNL A   1      43.073  31.651  29.653  1.00  0.00     0.029 A 
ATOM     58  C   UNL A   1      44.079  30.759  29.314  1.00  0.00     0.049 A 
ATOM     59  H   UNL A   1      43.922  28.747  28.700  1.00  0.00     0.167 HD
ATOM     60  C   UNL A   1      46.429  30.053  28.949  1.00  0.00     0.074 A 
ATOM     61  C   UNL A   1      47.856  30.296  28.922  1.00  0.00     0.031 C 
ATOM     62  C   UNL A   1      45.502  30.982  29.289  1.00  0.00     0.037 A 
BRANCH  49  63
ATOM     63  C   UNL A   1      39.672  28.961  29.009  1.00  0.00     0.064 A 
ATOM     64  C   UNL A   1      38.894  29.364  27.912  1.00  0.00     0.173 A 
ATOM     65  C   UNL A   1      39.032  28.820  30.250  1.00  0.00     0.173 A 
ATOM     66  F   UNL A   1      39.460  29.525  26.706  1.00  0.00    -0.203 F 
ATOM     67  C   UNL A   1      37.537  29.642  28.059  1.00  0.00     0.198 A 
ATOM     68  C   UNL A   1      37.670  29.071  30.386  1.00  0.00     0.198 A 
ATOM     69  F   UNL A   1      39.727  28.431  31.329  1.00  0.00    -0.203 F 
ATOM     70  F   UNL A   1      36.825  30.070  27.007  1.00  0.00    -0.200 F 
ATOM     71  C   UNL A   1      36.925  29.488  29.294  1.00  0.00     0.200 A 
ATOM     72  F   UNL A   1      37.076  28.910  31.577  1.00  0.00    -0.200 F 
ATOM     73  F   UNL A   1      35.618  29.749  29.431  1.00  0.00    -0.200 F 
ENDBRANCH  49  63
BRANCH  50  74
ATOM     74  C   UNL A   1      49.262  26.519  27.674  1.00  0.00     0.064 A 
ATOM     75  C   UNL A   1      49.770  26.397  26.373  1.00  0.00     0.173 A 
ATOM     76  C   UNL A   1      50.144  26.307  28.743  1.00  0.00     0.173 A 
ATOM     77  F   UNL A   1      48.959  26.571  25.319  1.00  0.00    -0.203 F 
ATOM     78  C   UNL A   1      51.102  26.058  26.150  1.00  0.00     0.198 A 
ATOM     79  C   UNL A   1      51.483  25.993  28.518  1.00  0.00     0.198 A 
ATOM     80  F   UNL A   1      49.708  26.416  30.006  1.00  0.00    -0.203 F 
ATOM     81  F   UNL A   1      51.551  25.906  24.897  1.00  0.00    -0.200 F 
ATOM     82  C   UNL A   1      51.959  25.862  27.223  1.00  0.00     0.200 A 
ATOM     83  F   UNL A   1      52.310  25.818  29.557  1.00  0.00    -0.200 F 
ATOM     84  F   UNL A   1      53.241  25.540  27.008  1.00  0.00    -0.200 F 
ENDBRANCH  50  74
BRANCH  62  85
ATOM     85  C   UNL A   1      46.004  32.337  29.691  1.00  0.00     0.064 A 
ATOM     86  C   UNL A   1      46.353  32.627  31.019  1.00  0.00     0.173 A 
ATOM     87  C   UNL A   1      46.175  33.344  28.730  1.00  0.00     0.173 A 
ATOM     88  F   UNL A   1      46.192  31.701  31.976  1.00  0.00    -0.203 F 
ATOM     89  C   UNL A   1      46.834  33.885  31.373  1.00  0.00     0.198 A 
ATOM     90  C   UNL A   1      46.682  34.592  29.084  1.00  0.00     0.198 A 
ATOM     91  F   UNL A   1      45.862  33.114  27.447  1.00  0.00    -0.203 F 
ATOM     92  F   UNL A   1      47.119  34.155  32.654  1.00  0.00    -0.200 F 
ATOM     93  C   UNL A   1      47.004  34.864  30.404  1.00  0.00     0.200 A 
ATOM     94  F   UNL A   1      46.856  35.532  28.144  1.00  0.00    -0.200 F 
ATOM     95  F   UNL A   1      47.472  36.071  30.746  1.00  0.00    -0.200 F 
ENDBRANCH  62  85
ENDBRANCH  36  37
ENDBRANCH  28  31
ENDBRANCH  26  27
ENDBRANCH   1  26
TORSDOF 11
ENDMDL
MODEL 3
REMARK VINA RESULT:     -13.2      0.070      1.121
REMARK SMILES C[C@H]1C[N@H+]2CCCC[C@@H]2CN1c1ccc(C(=O)NCCCNC(=O)c2ccc(-c3c4nc(c(-c5c(F)c(F)c(F)c(F)c5F)c5ccc([nH]5)c(-c5c(F)c(F)c(F)c(F)c5F)c5nc(c(-c6c(F)c(F)c(F)c(F)c6F)c6ccc3[nH]6)C=C5)C=C4)cc2)cc1Cl
REMARK SMILES IDX 20 1 19 2 18 3 16 4 17 5 15 7 12 8 13 9 89 10 14 11 88 12
REMARK SMILES IDX 90 13 11 14 1 15 2 16 3 17 4 18 10 19 5 20 9 21 6 23 8 24
REMARK SMILES IDX 7 25 21 26 22 27 23 28 24 30 25 31 26 32 87 33 27 34 86 35
REMARK SMILES IDX 28 36 29 37 30 38 80 39 31 40 85 41 79 42 81 43 32 44 84 45
REMARK SMILES IDX 78 46 77 47 33 49 65 50 45 51 64 52 46 53 49 54 63 55 82 56
REMARK SMILES IDX 47 57 48 58 62 60 83 61 50 62 34 63 35 64 43 65 36 66 37 67
REMARK SMILES IDX 41 68 44 69 38 70 39 71 42 72 40 73 66 74 67 75 75 76 68 77
REMARK SMILES IDX 69 78 73 79 76 80 70 81 71 82 74 83 72 84 51 85 52 86 60 87
REMARK SMILES IDX 53 88 54 89 58 90 61 91 55 92 56 93 59 94 57 95
REMARK H PARENT 18 6 4 22 22 29 81 48 49 59
REMARK Flexibility Score: inf
ROOT
ATOM      1  C   UNL A   1      37.746  19.527  24.933  1.00  0.00     0.042 C 
ENDROOT
BRANCH   1   2
ATOM      2  C   UNL A   1      36.477  20.376  25.006  1.00  0.00     0.118 C 
BRANCH   2   3
ATOM      3  N   UNL A   1      35.280  19.555  24.927  1.00  0.00    -0.352 N 
ATOM      4  C   UNL A   1      33.950  19.873  24.810  1.00  0.00     0.251 C 
ATOM      5  O   UNL A   1      33.151  18.949  24.661  1.00  0.00    -0.269 OA
ATOM      6  H   UNL A   1      35.457  18.588  24.965  1.00  0.00     0.163 HD
BRANCH   4   7
ATOM      7  C   UNL A   1      33.440  21.270  24.825  1.00  0.00     0.041 A 
ATOM      8  C   UNL A   1      32.475  23.938  25.015  1.00  0.00     0.056 A 
ATOM      9  C   UNL A   1      32.417  23.071  26.112  1.00  0.00     0.028 A 
ATOM     10  C   UNL A   1      33.044  23.440  23.825  1.00  0.00     0.065 A 
ATOM     11  C   UNL A   1      32.893  21.756  26.021  1.00  0.00     0.016 A 
ATOM     12  C   UNL A   1      33.543  22.138  23.742  1.00  0.00     0.036 A 
ATOM     13  Cl  UNL A   1      33.201  24.428  22.408  1.00  0.00    -0.082 Cl
BRANCH   8  14
ATOM     14  N   UNL A   1      32.000  25.228  25.106  1.00  0.00    -0.356 N 
ATOM     15  C   UNL A   1      34.237  26.151  25.771  1.00  0.00     0.037 C 
ATOM     16  C   UNL A   1      32.719  26.352  25.730  1.00  0.00     0.134 C 
ATOM     17  C   UNL A   1      32.422  27.656  24.917  1.00  0.00     0.287 C 
ATOM     18  N   UNL A   1      30.988  27.920  24.629  1.00  0.00    -0.329 N 
ATOM     19  C   UNL A   1      30.565  25.448  24.883  1.00  0.00     0.182 C 
ATOM     20  C   UNL A   1      30.870  29.072  23.720  1.00  0.00     0.262 C 
ATOM     21  C   UNL A   1      30.372  26.714  24.012  1.00  0.00     0.203 C 
ATOM     22  H   UNL A   1      30.500  28.132  25.499  1.00  0.00     0.348 HD
ATOM     23  C   UNL A   1      29.411  29.381  23.381  1.00  0.00     0.062 C 
ATOM     24  C   UNL A   1      28.879  26.958  23.753  1.00  0.00     0.067 C 
ATOM     25  C   UNL A   1      28.686  28.157  22.830  1.00  0.00     0.012 C 
ENDBRANCH   8  14
ENDBRANCH   4   7
ENDBRANCH   2   3
ENDBRANCH   1   2
BRANCH   1  26
ATOM     26  C   UNL A   1      38.925  20.119  25.702  1.00  0.00     0.118 C 
BRANCH  26  27
ATOM     27  N   UNL A   1      40.008  19.162  25.863  1.00  0.00    -0.352 N 
ATOM     28  C   UNL A   1      41.348  19.367  26.079  1.00  0.00     0.251 C 
ATOM     29  H   UNL A   1      39.737  18.216  25.808  1.00  0.00     0.163 HD
ATOM     30  O   UNL A   1      42.126  18.425  25.970  1.00  0.00    -0.269 OA
BRANCH  28  31
ATOM     31  C   UNL A   1      41.868  20.706  26.436  1.00  0.00     0.039 A 
ATOM     32  C   UNL A   1      42.097  21.629  25.409  1.00  0.00     0.014 A 
ATOM     33  C   UNL A   1      42.191  21.039  27.753  1.00  0.00     0.014 A 
ATOM     34  C   UNL A   1      42.607  22.895  25.707  1.00  0.00     0.010 A 
ATOM     35  C   UNL A   1      42.638  22.324  28.059  1.00  0.00     0.010 A 
ATOM     36  C   UNL A   1      42.858  23.261  27.039  1.00  0.00    -0.014 A 
BRANCH  36  37
ATOM     37  C   UNL A   1      43.357  24.618  27.381  1.00  0.00     0.031 A 
ATOM     38  C   UNL A   1      42.426  25.645  27.961  1.00  0.00     0.074 A 
ATOM     39  C   UNL A   1      44.635  24.943  27.110  1.00  0.00     0.049 A 
ATOM     40  N   UNL A   1      42.651  26.902  28.246  1.00  0.00    -0.248 NA
ATOM     41  C   UNL A   1      41.048  25.206  28.234  1.00  0.00     0.031 C 
ATOM     42  C   UNL A   1      45.625  24.048  26.510  1.00  0.00     0.029 A 
ATOM     43  N   UNL A   1      45.318  26.120  27.291  1.00  0.00    -0.354 N 
ATOM     44  C   UNL A   1      41.445  27.407  28.715  1.00  0.00     0.074 A 
ATOM     45  C   UNL A   1      40.478  26.334  28.634  1.00  0.00     0.031 C 
ATOM     46  C   UNL A   1      46.790  24.703  26.383  1.00  0.00     0.029 A 
ATOM     47  C   UNL A   1      46.621  26.072  26.861  1.00  0.00     0.049 A 
ATOM     48  H   UNL A   1      44.912  26.922  27.691  1.00  0.00     0.167 HD
ATOM     49  C   UNL A   1      41.175  28.647  29.189  1.00  0.00     0.037 A 
ATOM     50  C   UNL A   1      47.570  27.027  26.844  1.00  0.00     0.037 A 
ATOM     51  C   UNL A   1      42.146  29.706  29.293  1.00  0.00     0.049 A 
ATOM     52  C   UNL A   1      47.245  28.394  27.380  1.00  0.00     0.074 A 
ATOM     53  C   UNL A   1      41.984  30.980  29.807  1.00  0.00     0.029 A 
ATOM     54  N   UNL A   1      43.465  29.609  28.873  1.00  0.00    -0.354 N 
ATOM     55  N   UNL A   1      46.117  28.842  27.874  1.00  0.00    -0.248 NA
ATOM     56  C   UNL A   1      48.330  29.386  27.366  1.00  0.00     0.031 C 
ATOM     57  C   UNL A   1      43.194  31.667  29.666  1.00  0.00     0.029 A 
ATOM     58  C   UNL A   1      44.123  30.805  29.103  1.00  0.00     0.049 A 
ATOM     59  H   UNL A   1      43.873  28.808  28.471  1.00  0.00     0.167 HD
ATOM     60  C   UNL A   1      46.360  30.156  28.249  1.00  0.00     0.074 A 
ATOM     61  C   UNL A   1      47.748  30.429  27.942  1.00  0.00     0.031 C 
ATOM     62  C   UNL A   1      45.508  31.057  28.798  1.00  0.00     0.037 A 
BRANCH  49  63
ATOM     63  C   UNL A   1      39.771  28.928  29.638  1.00  0.00     0.064 A 
ATOM     64  C   UNL A   1      38.802  29.425  28.751  1.00  0.00     0.173 A 
ATOM     65  C   UNL A   1      39.376  28.663  30.958  1.00  0.00     0.173 A 
ATOM     66  F   UNL A   1      39.131  29.706  27.481  1.00  0.00    -0.203 F 
ATOM     67  C   UNL A   1      37.499  29.671  29.176  1.00  0.00     0.198 A 
ATOM     68  C   UNL A   1      38.065  28.883  31.372  1.00  0.00     0.198 A 
ATOM     69  F   UNL A   1      40.260  28.182  31.845  1.00  0.00    -0.203 F 
ATOM     70  F   UNL A   1      36.604  30.188  28.324  1.00  0.00    -0.200 F 
ATOM     71  C   UNL A   1      37.130  29.393  30.484  1.00  0.00     0.200 A 
ATOM     72  F   UNL A   1      37.705  28.602  32.633  1.00  0.00    -0.200 F 
ATOM     73  F   UNL A   1      35.873  29.623  30.890  1.00  0.00    -0.200 F 
ENDBRANCH  49  63
BRANCH  50  74
ATOM     74  C   UNL A   1      48.924  26.716  26.318  1.00  0.00     0.064 A 
ATOM     75  C   UNL A   1      49.909  26.165  27.150  1.00  0.00     0.173 A 
ATOM     76  C   UNL A   1      49.261  26.958  24.979  1.00  0.00     0.173 A 
ATOM     77  F   UNL A   1      49.640  25.935  28.444  1.00  0.00    -0.203 F 
ATOM     78  C   UNL A   1      51.185  25.886  26.668  1.00  0.00     0.198 A 
ATOM     79  C   UNL A   1      50.530  26.654  24.491  1.00  0.00     0.198 A 
ATOM     80  F   UNL A   1      48.353  27.479  24.141  1.00  0.00    -0.203 F 
ATOM     81  F   UNL A   1      52.120  25.400  27.495  1.00  0.00    -0.200 F 
ATOM     82  C   UNL A   1      51.493  26.125  25.336  1.00  0.00     0.200 A 
ATOM     83  F   UNL A   1      50.819  26.873  23.201  1.00  0.00    -0.200 F 
ATOM     84  F   UNL A   1      52.719  25.852  24.871  1.00  0.00    -0.200 F 
ENDBRANCH  50  74
BRANCH  62  85
ATOM     85  C   UNL A   1      46.063  32.410  29.133  1.00  0.00     0.064 A 
ATOM     86  C   UNL A   1      46.006  33.474  28.220  1.00  0.00     0.173 A 
ATOM     87  C   UNL A   1      46.623  32.655  30.395  1.00  0.00     0.173 A 
ATOM     88  F   UNL A   1      45.494  33.284  26.994  1.00  0.00    -0.203 F 
ATOM     89  C   UNL A   1      46.511  34.728  28.552  1.00  0.00     0.198 A 
ATOM     90  C   UNL A   1      47.102  33.918  30.733  1.00  0.00     0.198 A 
ATOM     91  F   UNL A   1      46.695  31.672  31.305  1.00  0.00    -0.203 F 
ATOM     92  F   UNL A   1      46.486  35.718  27.648  1.00  0.00    -0.200 F 
ATOM     93  C   UNL A   1      47.052  34.951  29.809  1.00  0.00     0.200 A 
ATOM     94  F   UNL A   1      47.614  34.134  31.952  1.00  0.00    -0.200 F 
ATOM     95  F   UNL A   1      47.532  36.160  30.128  1.00  0.00    -0.200 F 
ENDBRANCH  62  85
ENDBRANCH  36  37
ENDBRANCH  28  31
ENDBRANCH  26  27
ENDBRANCH   1  26
TORSDOF 11
ENDMDL
