MODEL 1
REMARK VINA RESULT:     -13.6      0.000      0.000
REMARK SMILES CC(=O)N1CC[NH+]([C@@H](C(=O)NCCCNC(=O)c2ccc(-c3c4nc(c(-c5c(F)c(F)c(F)c(F)c5F)c5ccc([nH]5)c(-c5c(F)c(F)c(F)c(F)c5F)c5nc(c(-c6c(F)c(F)c(F)c(F)c6F)c6ccc3[nH]6)C=C5)C=C4)cc2)c2c[nH]c3ccc(Cl)cc23)CC1
REMARK SMILES IDX 13 1 12 2 11 3 9 4 10 5 8 7 7 8 1 9 2 10 3 11 4 12 5 13
REMARK SMILES IDX 92 14 6 15 91 16 81 18 82 19 90 20 83 21 84 22 89 23 85 25
REMARK SMILES IDX 87 26 86 27 88 28 14 29 15 30 16 31 17 33 18 34 19 35 80 36
REMARK SMILES IDX 20 37 79 38 21 39 22 40 23 41 73 42 24 43 78 44 72 45 74 46
REMARK SMILES IDX 25 47 77 48 71 49 70 50 26 52 58 53 38 54 57 55 39 56 42 57
REMARK SMILES IDX 56 58 75 59 40 60 41 61 55 63 76 64 43 65 27 66 28 67 36 68
REMARK SMILES IDX 29 69 30 70 34 71 37 72 31 73 32 74 35 75 33 76 59 77 60 78
REMARK SMILES IDX 68 79 61 80 62 81 66 82 69 83 63 84 64 85 67 86 65 87 44 88
REMARK SMILES IDX 45 89 53 90 46 91 47 92 51 93 54 94 48 95 49 96 52 97 50 98
REMARK H PARENT 11 6 7 17 83 24 15 32 74 51 42 62
REMARK Flexibility Score: inf
ROOT
ATOM      1  C   UNL A   1      31.227  32.222  26.501  1.00  0.00     0.042 C 
ENDROOT
BRANCH   1   2
ATOM      2  C   UNL A   1      31.251  30.835  25.810  1.00  0.00     0.118 C 
BRANCH   2   3
ATOM      3  N   UNL A   1      32.546  30.174  25.765  1.00  0.00    -0.351 N 
ATOM      4  C   UNL A   1      33.040  29.014  25.226  1.00  0.00     0.283 C 
ATOM      5  O   UNL A   1      34.263  28.922  25.361  1.00  0.00    -0.268 OA
ATOM      6  H   UNL A   1      33.239  30.686  26.239  1.00  0.00     0.163 HD
BRANCH   4   7
ATOM      7  C   UNL A   1      32.160  27.943  24.520  1.00  0.00     0.307 C 
BRANCH   7   8
ATOM      8  N   UNL A   1      32.827  26.627  24.199  1.00  0.00    -0.318 N 
ATOM      9  C   UNL A   1      30.522  22.268  25.940  1.00  0.00     0.114 C 
ATOM     10  C   UNL A   1      31.388  23.313  26.583  1.00  0.00     0.219 C 
ATOM     11  O   UNL A   1      31.692  23.223  27.771  1.00  0.00    -0.275 OA
ATOM     12  N   UNL A   1      31.837  24.333  25.760  1.00  0.00    -0.332 N 
ATOM     13  C   UNL A   1      32.733  25.323  26.347  1.00  0.00     0.181 C 
ATOM     14  C   UNL A   1      31.190  24.706  24.501  1.00  0.00     0.181 C 
ATOM     15  C   UNL A   1      33.600  25.956  25.266  1.00  0.00     0.285 C 
ATOM     16  C   UNL A   1      32.023  25.600  23.550  1.00  0.00     0.285 C 
ATOM     17  H   UNL A   1      33.479  27.024  23.523  1.00  0.00     0.349 HD
ENDBRANCH   7   8
BRANCH   7  18
ATOM     18  C   UNL A   1      31.442  28.365  23.212  1.00  0.00     0.044 A 
ATOM     19  C   UNL A   1      32.082  29.117  22.229  1.00  0.00     0.094 A 
ATOM     20  C   UNL A   1      30.022  28.485  22.916  1.00  0.00     0.011 A 
ATOM     21  N   UNL A   1      31.147  29.945  21.663  1.00  0.00    -0.361 N 
ATOM     22  C   UNL A   1      29.899  29.658  22.160  1.00  0.00     0.046 A 
ATOM     23  C   UNL A   1      28.823  27.896  23.378  1.00  0.00     0.031 A 
ATOM     24  H   UNL A   1      31.343  30.644  20.998  1.00  0.00     0.166 HD
ATOM     25  C   UNL A   1      28.700  30.380  22.060  1.00  0.00     0.028 A 
ATOM     26  C   UNL A   1      27.604  28.562  23.209  1.00  0.00     0.041 A 
ATOM     27  C   UNL A   1      27.553  29.820  22.623  1.00  0.00     0.022 A 
ATOM     28  Cl  UNL A   1      26.151  27.834  23.784  1.00  0.00    -0.084 Cl
ENDBRANCH   7  18
ENDBRANCH   4   7
ENDBRANCH   2   3
ENDBRANCH   1   2
BRANCH   1  29
ATOM     29  C   UNL A   1      32.546  32.779  27.072  1.00  0.00     0.118 C 
BRANCH  29  30
ATOM     30  N   UNL A   1      32.407  34.126  27.587  1.00  0.00    -0.352 N 
ATOM     31  C   UNL A   1      33.043  34.781  28.614  1.00  0.00     0.251 C 
ATOM     32  H   UNL A   1      31.734  34.670  27.117  1.00  0.00     0.163 HD
ATOM     33  O   UNL A   1      32.625  35.893  28.930  1.00  0.00    -0.269 OA
BRANCH  31  34
ATOM     34  C   UNL A   1      34.200  34.219  29.368  1.00  0.00     0.039 A 
ATOM     35  C   UNL A   1      35.480  34.435  28.836  1.00  0.00     0.014 A 
ATOM     36  C   UNL A   1      34.071  33.376  30.475  1.00  0.00     0.014 A 
ATOM     37  C   UNL A   1      36.610  33.826  29.400  1.00  0.00     0.010 A 
ATOM     38  C   UNL A   1      35.212  32.791  31.063  1.00  0.00     0.010 A 
ATOM     39  C   UNL A   1      36.493  32.995  30.524  1.00  0.00    -0.014 A 
BRANCH  39  40
ATOM     40  C   UNL A   1      37.710  32.337  31.093  1.00  0.00     0.031 A 
ATOM     41  C   UNL A   1      38.232  32.706  32.459  1.00  0.00     0.074 A 
ATOM     42  C   UNL A   1      38.348  31.374  30.398  1.00  0.00     0.049 A 
ATOM     43  N   UNL A   1      39.229  32.186  33.137  1.00  0.00    -0.248 NA
ATOM     44  C   UNL A   1      37.550  33.807  33.153  1.00  0.00     0.031 C 
ATOM     45  C   UNL A   1      37.986  30.924  29.055  1.00  0.00     0.029 A 
ATOM     46  N   UNL A   1      39.434  30.595  30.728  1.00  0.00    -0.354 N 
ATOM     47  C   UNL A   1      39.294  32.893  34.331  1.00  0.00     0.074 A 
ATOM     48  C   UNL A   1      38.264  33.909  34.266  1.00  0.00     0.031 C 
ATOM     49  C   UNL A   1      38.822  29.942  28.680  1.00  0.00     0.029 A 
ATOM     50  C   UNL A   1      39.792  29.701  29.747  1.00  0.00     0.049 A 
ATOM     51  H   UNL A   1      39.910  30.671  31.586  1.00  0.00     0.167 HD
ATOM     52  C   UNL A   1      40.116  32.705  35.394  1.00  0.00     0.037 A 
ATOM     53  C   UNL A   1      40.782  28.788  29.706  1.00  0.00     0.037 A 
ATOM     54  C   UNL A   1      41.142  31.696  35.479  1.00  0.00     0.049 A 
ATOM     55  C   UNL A   1      41.685  28.598  30.895  1.00  0.00     0.074 A 
ATOM     56  C   UNL A   1      41.987  31.410  36.539  1.00  0.00     0.029 A 
ATOM     57  N   UNL A   1      41.471  30.812  34.463  1.00  0.00    -0.354 N 
ATOM     58  N   UNL A   1      41.683  29.226  32.045  1.00  0.00    -0.248 NA
ATOM     59  C   UNL A   1      42.722  27.561  30.783  1.00  0.00     0.031 C 
ATOM     60  C   UNL A   1      42.854  30.382  36.150  1.00  0.00     0.029 A 
ATOM     61  C   UNL A   1      42.519  29.996  34.864  1.00  0.00     0.049 A 
ATOM     62  H   UNL A   1      41.026  30.770  33.586  1.00  0.00     0.167 HD
ATOM     63  C   UNL A   1      42.697  28.649  32.797  1.00  0.00     0.074 A 
ATOM     64  C   UNL A   1      43.283  27.606  31.983  1.00  0.00     0.031 C 
ATOM     65  C   UNL A   1      43.105  28.959  34.053  1.00  0.00     0.037 A 
BRANCH  52  66
ATOM     66  C   UNL A   1      39.940  33.620  36.572  1.00  0.00     0.064 A 
ATOM     67  C   UNL A   1      40.652  34.825  36.677  1.00  0.00     0.173 A 
ATOM     68  C   UNL A   1      39.016  33.315  37.583  1.00  0.00     0.173 A 
ATOM     69  F   UNL A   1      41.549  35.162  35.739  1.00  0.00    -0.203 F 
ATOM     70  C   UNL A   1      40.469  35.674  37.766  1.00  0.00     0.198 A 
ATOM     71  C   UNL A   1      38.815  34.179  38.657  1.00  0.00     0.198 A 
ATOM     72  F   UNL A   1      38.298  32.183  37.524  1.00  0.00    -0.203 F 
ATOM     73  F   UNL A   1      41.192  36.798  37.866  1.00  0.00    -0.200 F 
ATOM     74  C   UNL A   1      39.547  35.353  38.751  1.00  0.00     0.200 A 
ATOM     75  F   UNL A   1      37.913  33.877  39.600  1.00  0.00    -0.200 F 
ATOM     76  F   UNL A   1      39.367  36.174  39.795  1.00  0.00    -0.200 F 
ENDBRANCH  52  66
BRANCH  53  77
ATOM     77  C   UNL A   1      40.960  27.954  28.488  1.00  0.00     0.064 A 
ATOM     78  C   UNL A   1      41.761  28.389  27.423  1.00  0.00     0.173 A 
ATOM     79  C   UNL A   1      40.328  26.709  28.367  1.00  0.00     0.173 A 
ATOM     80  F   UNL A   1      42.365  29.585  27.484  1.00  0.00    -0.203 F 
ATOM     81  C   UNL A   1      41.914  27.612  26.276  1.00  0.00     0.198 A 
ATOM     82  C   UNL A   1      40.503  25.923  27.230  1.00  0.00     0.198 A 
ATOM     83  F   UNL A   1      39.552  26.250  29.359  1.00  0.00    -0.203 F 
ATOM     84  F   UNL A   1      42.654  28.067  25.256  1.00  0.00    -0.200 F 
ATOM     85  C   UNL A   1      41.290  26.377  26.184  1.00  0.00     0.200 A 
ATOM     86  F   UNL A   1      39.909  24.724  27.149  1.00  0.00    -0.200 F 
ATOM     87  F   UNL A   1      41.444  25.628  25.083  1.00  0.00    -0.200 F 
ENDBRANCH  53  77
BRANCH  65  88
ATOM     88  C   UNL A   1      44.228  28.149  34.635  1.00  0.00     0.064 A 
ATOM     89  C   UNL A   1      45.564  28.569  34.541  1.00  0.00     0.173 A 
ATOM     90  C   UNL A   1      43.965  26.947  35.310  1.00  0.00     0.173 A 
ATOM     91  F   UNL A   1      45.872  29.702  33.892  1.00  0.00    -0.203 F 
ATOM     92  C   UNL A   1      46.596  27.802  35.078  1.00  0.00     0.198 A 
ATOM     93  C   UNL A   1      44.997  26.196  35.868  1.00  0.00     0.198 A 
ATOM     94  F   UNL A   1      42.705  26.501  35.432  1.00  0.00    -0.203 F 
ATOM     95  F   UNL A   1      47.868  28.198  34.933  1.00  0.00    -0.200 F 
ATOM     96  C   UNL A   1      46.312  26.619  35.744  1.00  0.00     0.200 A 
ATOM     97  F   UNL A   1      44.720  25.058  36.519  1.00  0.00    -0.200 F 
ATOM     98  F   UNL A   1      47.306  25.882  36.258  1.00  0.00    -0.200 F 
ENDBRANCH  65  88
ENDBRANCH  39  40
ENDBRANCH  31  34
ENDBRANCH  29  30
ENDBRANCH   1  29
TORSDOF 12
ENDMDL
MODEL 2
REMARK VINA RESULT:     -13.5      0.173      1.574
REMARK SMILES CC(=O)N1CC[NH+]([C@@H](C(=O)NCCCNC(=O)c2ccc(-c3c4nc(c(-c5c(F)c(F)c(F)c(F)c5F)c5ccc([nH]5)c(-c5c(F)c(F)c(F)c(F)c5F)c5nc(c(-c6c(F)c(F)c(F)c(F)c6F)c6ccc3[nH]6)C=C5)C=C4)cc2)c2c[nH]c3ccc(Cl)cc23)CC1
REMARK SMILES IDX 13 1 12 2 11 3 9 4 10 5 8 7 7 8 1 9 2 10 3 11 4 12 5 13
REMARK SMILES IDX 92 14 6 15 91 16 81 18 82 19 90 20 83 21 84 22 89 23 85 25
REMARK SMILES IDX 87 26 86 27 88 28 14 29 15 30 16 31 17 33 18 34 19 35 80 36
REMARK SMILES IDX 20 37 79 38 21 39 22 40 23 41 73 42 24 43 78 44 72 45 74 46
REMARK SMILES IDX 25 47 77 48 71 49 70 50 26 52 58 53 38 54 57 55 39 56 42 57
REMARK SMILES IDX 56 58 75 59 40 60 41 61 55 63 76 64 43 65 27 66 28 67 36 68
REMARK SMILES IDX 29 69 30 70 34 71 37 72 31 73 32 74 35 75 33 76 59 77 60 78
REMARK SMILES IDX 68 79 61 80 62 81 66 82 69 83 63 84 64 85 67 86 65 87 44 88
REMARK SMILES IDX 45 89 53 90 46 91 47 92 51 93 54 94 48 95 49 96 52 97 50 98
REMARK H PARENT 11 6 7 17 83 24 15 32 74 51 42 62
REMARK Flexibility Score: inf
ROOT
ATOM      1  C   UNL A   1      31.218  32.227  26.447  1.00  0.00     0.042 C 
ENDROOT
BRANCH   1   2
ATOM      2  C   UNL A   1      31.238  30.845  25.744  1.00  0.00     0.118 C 
BRANCH   2   3
ATOM      3  N   UNL A   1      32.535  30.190  25.677  1.00  0.00    -0.351 N 
ATOM      4  C   UNL A   1      33.026  29.036  25.123  1.00  0.00     0.283 C 
ATOM      5  O   UNL A   1      34.251  28.947  25.241  1.00  0.00    -0.268 OA
ATOM      6  H   UNL A   1      33.233  30.702  26.145  1.00  0.00     0.163 HD
BRANCH   4   7
ATOM      7  C   UNL A   1      32.140  27.966  24.422  1.00  0.00     0.307 C 
BRANCH   7   8
ATOM      8  N   UNL A   1      32.815  26.666  24.056  1.00  0.00    -0.318 N 
ATOM      9  C   UNL A   1      30.656  22.245  25.827  1.00  0.00     0.114 C 
ATOM     10  C   UNL A   1      31.530  23.296  26.450  1.00  0.00     0.219 C 
ATOM     11  O   UNL A   1      31.884  23.196  27.622  1.00  0.00    -0.275 OA
ATOM     12  N   UNL A   1      31.928  24.335  25.623  1.00  0.00    -0.332 N 
ATOM     13  C   UNL A   1      32.831  25.332  26.188  1.00  0.00     0.181 C 
ATOM     14  C   UNL A   1      31.225  24.713  24.396  1.00  0.00     0.181 C 
ATOM     15  C   UNL A   1      33.642  25.995  25.081  1.00  0.00     0.285 C 
ATOM     16  C   UNL A   1      32.004  25.634  23.425  1.00  0.00     0.285 C 
ATOM     17  H   UNL A   1      33.433  27.083  23.360  1.00  0.00     0.349 HD
ENDBRANCH   7   8
BRANCH   7  18
ATOM     18  C   UNL A   1      31.379  28.403  23.144  1.00  0.00     0.044 A 
ATOM     19  C   UNL A   1      31.983  29.174  22.153  1.00  0.00     0.094 A 
ATOM     20  C   UNL A   1      29.950  28.518  22.895  1.00  0.00     0.011 A 
ATOM     21  N   UNL A   1      31.025  30.004  21.630  1.00  0.00    -0.361 N 
ATOM     22  C   UNL A   1      29.795  29.702  22.161  1.00  0.00     0.046 A 
ATOM     23  C   UNL A   1      28.769  27.914  23.385  1.00  0.00     0.031 A 
ATOM     24  H   UNL A   1      31.195  30.715  20.969  1.00  0.00     0.166 HD
ATOM     25  C   UNL A   1      28.590  30.417  22.110  1.00  0.00     0.028 A 
ATOM     26  C   UNL A   1      27.542  28.575  23.265  1.00  0.00     0.041 A 
ATOM     27  C   UNL A   1      27.464  29.841  22.701  1.00  0.00     0.022 A 
ATOM     28  Cl  UNL A   1      26.112  27.829  23.874  1.00  0.00    -0.084 Cl
ENDBRANCH   7  18
ENDBRANCH   4   7
ENDBRANCH   2   3
ENDBRANCH   1   2
BRANCH   1  29
ATOM     29  C   UNL A   1      32.515  32.730  27.110  1.00  0.00     0.118 C 
BRANCH  29  30
ATOM     30  N   UNL A   1      32.392  34.079  27.625  1.00  0.00    -0.352 N 
ATOM     31  C   UNL A   1      33.032  34.725  28.654  1.00  0.00     0.251 C 
ATOM     32  H   UNL A   1      31.730  34.632  27.151  1.00  0.00     0.163 HD
ATOM     33  O   UNL A   1      32.628  35.843  28.968  1.00  0.00    -0.269 OA
BRANCH  31  34
ATOM     34  C   UNL A   1      34.177  34.147  29.416  1.00  0.00     0.039 A 
ATOM     35  C   UNL A   1      35.465  34.385  28.917  1.00  0.00     0.014 A 
ATOM     36  C   UNL A   1      34.030  33.270  30.494  1.00  0.00     0.014 A 
ATOM     37  C   UNL A   1      36.587  33.766  29.486  1.00  0.00     0.010 A 
ATOM     38  C   UNL A   1      35.162  32.675  31.088  1.00  0.00     0.010 A 
ATOM     39  C   UNL A   1      36.453  32.901  30.581  1.00  0.00    -0.014 A 
BRANCH  39  40
ATOM     40  C   UNL A   1      37.662  32.233  31.156  1.00  0.00     0.031 A 
ATOM     41  C   UNL A   1      38.167  32.581  32.533  1.00  0.00     0.074 A 
ATOM     42  C   UNL A   1      38.307  31.279  30.455  1.00  0.00     0.049 A 
ATOM     43  N   UNL A   1      39.155  32.049  33.215  1.00  0.00    -0.248 NA
ATOM     44  C   UNL A   1      37.478  33.672  33.235  1.00  0.00     0.031 C 
ATOM     45  C   UNL A   1      37.961  30.850  29.100  1.00  0.00     0.029 A 
ATOM     46  N   UNL A   1      39.387  30.493  30.786  1.00  0.00    -0.354 N 
ATOM     47  C   UNL A   1      39.206  32.738  34.421  1.00  0.00     0.074 A 
ATOM     48  C   UNL A   1      38.178  33.757  34.359  1.00  0.00     0.031 C 
ATOM     49  C   UNL A   1      38.800  29.872  28.721  1.00  0.00     0.029 A 
ATOM     50  C   UNL A   1      39.756  29.614  29.797  1.00  0.00     0.049 A 
ATOM     51  H   UNL A   1      39.853  30.557  31.651  1.00  0.00     0.167 HD
ATOM     52  C   UNL A   1      40.015  32.533  35.491  1.00  0.00     0.037 A 
ATOM     53  C   UNL A   1      40.746  28.700  29.754  1.00  0.00     0.037 A 
ATOM     54  C   UNL A   1      41.038  31.521  35.574  1.00  0.00     0.049 A 
ATOM     55  C   UNL A   1      41.634  28.491  30.951  1.00  0.00     0.074 A 
ATOM     56  C   UNL A   1      41.869  31.218  36.640  1.00  0.00     0.029 A 
ATOM     57  N   UNL A   1      41.378  30.652  34.549  1.00  0.00    -0.354 N 
ATOM     58  N   UNL A   1      41.618  29.102  32.110  1.00  0.00    -0.248 NA
ATOM     59  C   UNL A   1      42.670  27.454  30.837  1.00  0.00     0.031 C 
ATOM     60  C   UNL A   1      42.740  30.195  36.246  1.00  0.00     0.029 A 
ATOM     61  C   UNL A   1      42.420  29.828  34.951  1.00  0.00     0.049 A 
ATOM     62  H   UNL A   1      40.944  30.624  33.666  1.00  0.00     0.167 HD
ATOM     63  C   UNL A   1      42.622  28.512  32.866  1.00  0.00     0.074 A 
ATOM     64  C   UNL A   1      43.216  27.480  32.044  1.00  0.00     0.031 C 
ATOM     65  C   UNL A   1      43.015  28.803  34.131  1.00  0.00     0.037 A 
BRANCH  52  66
ATOM     66  C   UNL A   1      39.825  33.431  36.681  1.00  0.00     0.064 A 
ATOM     67  C   UNL A   1      40.511  34.650  36.795  1.00  0.00     0.173 A 
ATOM     68  C   UNL A   1      38.915  33.093  37.694  1.00  0.00     0.173 A 
ATOM     69  F   UNL A   1      41.394  35.018  35.855  1.00  0.00    -0.203 F 
ATOM     70  C   UNL A   1      40.314  35.482  37.894  1.00  0.00     0.198 A 
ATOM     71  C   UNL A   1      38.701  33.941  38.778  1.00  0.00     0.198 A 
ATOM     72  F   UNL A   1      38.222  31.946  37.627  1.00  0.00    -0.203 F 
ATOM     73  F   UNL A   1      41.012  36.621  38.002  1.00  0.00    -0.200 F 
ATOM     74  C   UNL A   1      39.406  35.130  38.881  1.00  0.00     0.200 A 
ATOM     75  F   UNL A   1      37.812  33.608  39.723  1.00  0.00    -0.200 F 
ATOM     76  F   UNL A   1      39.215  35.935  39.935  1.00  0.00    -0.200 F 
ENDBRANCH  52  66
BRANCH  53  77
ATOM     77  C   UNL A   1      40.937  27.885  28.526  1.00  0.00     0.064 A 
ATOM     78  C   UNL A   1      40.246  26.680  28.341  1.00  0.00     0.173 A 
ATOM     79  C   UNL A   1      41.821  28.294  27.518  1.00  0.00     0.173 A 
ATOM     80  F   UNL A   1      39.409  26.235  29.291  1.00  0.00    -0.203 F 
ATOM     81  C   UNL A   1      40.439  25.909  27.196  1.00  0.00     0.198 A 
ATOM     82  C   UNL A   1      41.994  27.535  26.362  1.00  0.00     0.198 A 
ATOM     83  F   UNL A   1      42.506  29.440  27.649  1.00  0.00    -0.203 F 
ATOM     84  F   UNL A   1      39.794  24.743  27.060  1.00  0.00    -0.200 F 
ATOM     85  C   UNL A   1      41.307  26.342  26.205  1.00  0.00     0.200 A 
ATOM     86  F   UNL A   1      42.824  27.962  25.400  1.00  0.00    -0.200 F 
ATOM     87  F   UNL A   1      41.487  25.603  25.101  1.00  0.00    -0.200 F 
ENDBRANCH  53  77
BRANCH  65  88
ATOM     88  C   UNL A   1      44.129  27.983  34.715  1.00  0.00     0.064 A 
ATOM     89  C   UNL A   1      43.880  26.778  35.390  1.00  0.00     0.173 A 
ATOM     90  C   UNL A   1      45.464  28.396  34.584  1.00  0.00     0.173 A 
ATOM     91  F   UNL A   1      42.621  26.346  35.557  1.00  0.00    -0.203 F 
ATOM     92  C   UNL A   1      44.924  26.032  35.935  1.00  0.00     0.198 A 
ATOM     93  C   UNL A   1      46.506  27.634  35.107  1.00  0.00     0.198 A 
ATOM     94  F   UNL A   1      45.759  29.538  33.945  1.00  0.00    -0.203 F 
ATOM     95  F   UNL A   1      44.657  24.910  36.618  1.00  0.00    -0.200 F 
ATOM     96  C   UNL A   1      46.235  26.458  35.790  1.00  0.00     0.200 A 
ATOM     97  F   UNL A   1      47.774  28.043  34.959  1.00  0.00    -0.200 F 
ATOM     98  F   UNL A   1      47.237  25.740  36.316  1.00  0.00    -0.200 F 
ENDBRANCH  65  88
ENDBRANCH  39  40
ENDBRANCH  31  34
ENDBRANCH  29  30
ENDBRANCH   1  29
TORSDOF 12
ENDMDL
MODEL 3
REMARK VINA RESULT:     -13.5      1.867      2.853
REMARK SMILES CC(=O)N1CC[NH+]([C@@H](C(=O)NCCCNC(=O)c2ccc(-c3c4nc(c(-c5c(F)c(F)c(F)c(F)c5F)c5ccc([nH]5)c(-c5c(F)c(F)c(F)c(F)c5F)c5nc(c(-c6c(F)c(F)c(F)c(F)c6F)c6ccc3[nH]6)C=C5)C=C4)cc2)c2c[nH]c3ccc(Cl)cc23)CC1
REMARK SMILES IDX 13 1 12 2 11 3 9 4 10 5 8 7 7 8 1 9 2 10 3 11 4 12 5 13
REMARK SMILES IDX 92 14 6 15 91 16 81 18 82 19 90 20 83 21 84 22 89 23 85 25
REMARK SMILES IDX 87 26 86 27 88 28 14 29 15 30 16 31 17 33 18 34 19 35 80 36
REMARK SMILES IDX 20 37 79 38 21 39 22 40 23 41 73 42 24 43 78 44 72 45 74 46
REMARK SMILES IDX 25 47 77 48 71 49 70 50 26 52 58 53 38 54 57 55 39 56 42 57
REMARK SMILES IDX 56 58 75 59 40 60 41 61 55 63 76 64 43 65 27 66 28 67 36 68
REMARK SMILES IDX 29 69 30 70 34 71 37 72 31 73 32 74 35 75 33 76 59 77 60 78
REMARK SMILES IDX 68 79 61 80 62 81 66 82 69 83 63 84 64 85 67 86 65 87 44 88
REMARK SMILES IDX 45 89 53 90 46 91 47 92 51 93 54 94 48 95 49 96 52 97 50 98
REMARK H PARENT 11 6 7 17 83 24 15 32 74 51 42 62
REMARK Flexibility Score: inf
ROOT
ATOM      1  C   UNL A   1      31.979  28.626  26.426  1.00  0.00     0.042 C 
ENDROOT
BRANCH   1   2
ATOM      2  C   UNL A   1      32.423  27.148  26.286  1.00  0.00     0.118 C 
BRANCH   2   3
ATOM      3  N   UNL A   1      31.387  26.153  26.517  1.00  0.00    -0.351 N 
ATOM      4  C   UNL A   1      30.888  25.075  25.833  1.00  0.00     0.283 C 
ATOM      5  O   UNL A   1      30.055  24.448  26.492  1.00  0.00    -0.268 OA
ATOM      6  H   UNL A   1      30.931  26.287  27.379  1.00  0.00     0.163 HD
BRANCH   4   7
ATOM      7  C   UNL A   1      31.329  24.684  24.392  1.00  0.00     0.307 C 
BRANCH   7   8
ATOM      8  N   UNL A   1      32.661  23.986  24.260  1.00  0.00    -0.318 N 
ATOM      9  C   UNL A   1      32.612  18.882  23.125  1.00  0.00     0.114 C 
ATOM     10  C   UNL A   1      32.395  19.668  24.387  1.00  0.00     0.219 C 
ATOM     11  O   UNL A   1      32.153  19.091  25.444  1.00  0.00    -0.275 OA
ATOM     12  N   UNL A   1      32.519  21.044  24.285  1.00  0.00    -0.332 N 
ATOM     13  C   UNL A   1      32.377  21.823  25.510  1.00  0.00     0.181 C 
ATOM     14  C   UNL A   1      32.392  21.781  23.026  1.00  0.00     0.181 C 
ATOM     15  C   UNL A   1      33.124  23.144  25.384  1.00  0.00     0.285 C 
ATOM     16  C   UNL A   1      32.917  23.237  23.037  1.00  0.00     0.285 C 
ATOM     17  H   UNL A   1      33.207  24.848  24.250  1.00  0.00     0.349 HD
ENDBRANCH   7   8
BRANCH   7  18
ATOM     18  C   UNL A   1      31.351  25.809  23.326  1.00  0.00     0.044 A 
ATOM     19  C   UNL A   1      32.535  26.232  22.726  1.00  0.00     0.094 A 
ATOM     20  C   UNL A   1      30.390  26.869  23.059  1.00  0.00     0.011 A 
ATOM     21  N   UNL A   1      32.426  27.579  22.494  1.00  0.00    -0.361 N 
ATOM     22  C   UNL A   1      31.161  28.013  22.808  1.00  0.00     0.046 A 
ATOM     23  C   UNL A   1      29.000  27.062  23.225  1.00  0.00     0.031 A 
ATOM     24  H   UNL A   1      33.151  28.153  22.154  1.00  0.00     0.166 HD
ATOM     25  C   UNL A   1      30.665  29.316  22.958  1.00  0.00     0.028 A 
ATOM     26  C   UNL A   1      28.475  28.358  23.291  1.00  0.00     0.041 A 
ATOM     27  C   UNL A   1      29.304  29.469  23.231  1.00  0.00     0.022 A 
ATOM     28  Cl  UNL A   1      26.778  28.577  23.501  1.00  0.00    -0.084 Cl
ENDBRANCH   7  18
ENDBRANCH   4   7
ENDBRANCH   2   3
ENDBRANCH   1   2
BRANCH   1  29
ATOM     29  C   UNL A   1      32.850  29.718  25.774  1.00  0.00     0.118 C 
BRANCH  29  30
ATOM     30  N   UNL A   1      32.591  31.037  26.316  1.00  0.00    -0.352 N 
ATOM     31  C   UNL A   1      33.270  31.793  27.240  1.00  0.00     0.251 C 
ATOM     32  H   UNL A   1      31.782  31.468  25.958  1.00  0.00     0.163 HD
ATOM     33  O   UNL A   1      32.744  32.835  27.626  1.00  0.00    -0.269 OA
BRANCH  31  34
ATOM     34  C   UNL A   1      34.598  31.420  27.807  1.00  0.00     0.039 A 
ATOM     35  C   UNL A   1      34.740  30.117  28.307  1.00  0.00     0.014 A 
ATOM     36  C   UNL A   1      35.644  32.326  28.001  1.00  0.00     0.014 A 
ATOM     37  C   UNL A   1      35.904  29.724  28.984  1.00  0.00     0.010 A 
ATOM     38  C   UNL A   1      36.828  31.921  28.651  1.00  0.00     0.010 A 
ATOM     39  C   UNL A   1      36.967  30.620  29.165  1.00  0.00    -0.014 A 
BRANCH  39  40
ATOM     40  C   UNL A   1      38.188  30.186  29.911  1.00  0.00     0.031 A 
ATOM     41  C   UNL A   1      38.440  30.636  31.328  1.00  0.00     0.074 A 
ATOM     42  C   UNL A   1      39.077  29.353  29.332  1.00  0.00     0.049 A 
ATOM     43  N   UNL A   1      39.407  30.298  32.149  1.00  0.00    -0.248 NA
ATOM     44  C   UNL A   1      37.485  31.597  31.897  1.00  0.00     0.031 C 
ATOM     45  C   UNL A   1      38.991  28.852  27.962  1.00  0.00     0.029 A 
ATOM     46  N   UNL A   1      40.225  28.777  29.826  1.00  0.00    -0.354 N 
ATOM     47  C   UNL A   1      39.178  31.001  33.326  1.00  0.00     0.074 A 
ATOM     48  C   UNL A   1      38.006  31.819  33.096  1.00  0.00     0.031 C 
ATOM     49  C   UNL A   1      40.031  28.034  27.727  1.00  0.00     0.029 A 
ATOM     50  C   UNL A   1      40.868  27.964  28.924  1.00  0.00     0.049 A 
ATOM     51  H   UNL A   1      40.555  28.933  30.740  1.00  0.00     0.167 HD
ATOM     52  C   UNL A   1      39.863  30.958  34.496  1.00  0.00     0.037 A 
ATOM     53  C   UNL A   1      41.999  27.241  29.040  1.00  0.00     0.037 A 
ATOM     54  C   UNL A   1      41.028  30.145  34.744  1.00  0.00     0.049 A 
ATOM     55  C   UNL A   1      42.745  27.209  30.347  1.00  0.00     0.074 A 
ATOM     56  C   UNL A   1      41.753  30.009  35.917  1.00  0.00     0.029 A 
ATOM     57  N   UNL A   1      41.646  29.337  33.803  1.00  0.00    -0.354 N 
ATOM     58  N   UNL A   1      42.471  27.823  31.472  1.00  0.00    -0.248 NA
ATOM     59  C   UNL A   1      43.953  26.372  30.403  1.00  0.00     0.031 C 
ATOM     60  C   UNL A   1      42.832  29.152  35.674  1.00  0.00     0.029 A 
ATOM     61  C   UNL A   1      42.754  28.717  34.363  1.00  0.00     0.049 A 
ATOM     62  H   UNL A   1      41.343  29.221  32.873  1.00  0.00     0.167 HD
ATOM     63  C   UNL A   1      43.455  27.431  32.370  1.00  0.00     0.074 A 
ATOM     64  C   UNL A   1      44.323  26.511  31.668  1.00  0.00     0.031 C 
ATOM     65  C   UNL A   1      43.622  27.804  33.663  1.00  0.00     0.037 A 
BRANCH  52  66
ATOM     66  C   UNL A   1      39.365  31.822  35.618  1.00  0.00     0.064 A 
ATOM     67  C   UNL A   1      38.437  31.342  36.557  1.00  0.00     0.173 A 
ATOM     68  C   UNL A   1      39.852  33.127  35.788  1.00  0.00     0.173 A 
ATOM     69  F   UNL A   1      37.938  30.103  36.438  1.00  0.00    -0.203 F 
ATOM     70  C   UNL A   1      37.994  32.147  37.603  1.00  0.00     0.198 A 
ATOM     71  C   UNL A   1      39.428  33.920  36.851  1.00  0.00     0.198 A 
ATOM     72  F   UNL A   1      40.751  33.630  34.928  1.00  0.00    -0.203 F 
ATOM     73  F   UNL A   1      37.076  31.682  38.461  1.00  0.00    -0.200 F 
ATOM     74  C   UNL A   1      38.494  33.432  37.753  1.00  0.00     0.200 A 
ATOM     75  F   UNL A   1      39.923  35.155  37.005  1.00  0.00    -0.200 F 
ATOM     76  F   UNL A   1      38.071  34.203  38.764  1.00  0.00    -0.200 F 
ENDBRANCH  52  66
BRANCH  53  77
ATOM     77  C   UNL A   1      42.490  26.456  27.877  1.00  0.00     0.064 A 
ATOM     78  C   UNL A   1      43.410  27.001  26.972  1.00  0.00     0.173 A 
ATOM     79  C   UNL A   1      42.043  25.147  27.649  1.00  0.00     0.173 A 
ATOM     80  F   UNL A   1      43.846  28.260  27.136  1.00  0.00    -0.203 F 
ATOM     81  C   UNL A   1      43.857  26.269  25.873  1.00  0.00     0.198 A 
ATOM     82  C   UNL A   1      42.511  24.408  26.564  1.00  0.00     0.198 A 
ATOM     83  F   UNL A   1      41.163  24.581  28.487  1.00  0.00    -0.203 F 
ATOM     84  F   UNL A   1      44.708  26.827  25.001  1.00  0.00    -0.200 F 
ATOM     85  C   UNL A   1      43.413  24.971  25.675  1.00  0.00     0.200 A 
ATOM     86  F   UNL A   1      42.089  23.149  26.383  1.00  0.00    -0.200 F 
ATOM     87  F   UNL A   1      43.849  24.266  24.622  1.00  0.00    -0.200 F 
ENDBRANCH  53  77
BRANCH  65  88
ATOM     88  C   UNL A   1      44.776  27.203  34.413  1.00  0.00     0.064 A 
ATOM     89  C   UNL A   1      46.028  27.835  34.467  1.00  0.00     0.173 A 
ATOM     90  C   UNL A   1      44.625  25.988  35.100  1.00  0.00     0.173 A 
ATOM     91  F   UNL A   1      46.230  28.990  33.814  1.00  0.00    -0.203 F 
ATOM     92  C   UNL A   1      47.092  27.261  35.159  1.00  0.00     0.198 A 
ATOM     93  C   UNL A   1      45.685  25.430  35.812  1.00  0.00     0.198 A 
ATOM     94  F   UNL A   1      43.449  25.343  35.084  1.00  0.00    -0.203 F 
ATOM     95  F   UNL A   1      48.292  27.859  35.156  1.00  0.00    -0.200 F 
ATOM     96  C   UNL A   1      46.919  26.062  35.834  1.00  0.00     0.200 A 
ATOM     97  F   UNL A   1      45.514  24.276  36.471  1.00  0.00    -0.200 F 
ATOM     98  F   UNL A   1      47.945  25.510  36.497  1.00  0.00    -0.200 F 
ENDBRANCH  65  88
ENDBRANCH  39  40
ENDBRANCH  31  34
ENDBRANCH  29  30
ENDBRANCH   1  29
TORSDOF 12
ENDMDL
