MODEL 1
REMARK VINA RESULT:     -12.0      0.000      0.000
REMARK SMILES O=C(CC1(C[S@](=O)C[C@H]2Cc3ccccc3S2)CC1)NCCCNC(=O)c1ccc(-c2c3nc(c(-c4c(F)c(F)c(F)c(F)c4F)c4ccc([nH]4)c(-c4c(F)c(F)c(F)c(F)c4F)c4nc(c(-c5c(F)c(F)c(F)c(F)c5F)c5ccc2[nH]5)C=C4)C=C3)cc1
REMARK SMILES IDX 1 1 2 2 20 3 3 5 4 6 18 7 19 8 5 9 6 10 7 11 8 12 9 13 10 14
REMARK SMILES IDX 17 15 11 16 16 17 12 18 15 19 13 20 14 21 21 22 22 23 23 24
REMARK SMILES IDX 24 25 25 26 26 28 27 29 28 30 89 31 29 32 88 33 30 34 31 35
REMARK SMILES IDX 32 36 82 37 33 38 87 39 81 40 83 41 34 42 86 43 80 44 79 45
REMARK SMILES IDX 35 47 67 48 47 49 66 50 48 51 51 52 65 53 84 54 49 55 50 56
REMARK SMILES IDX 64 58 85 59 52 60 36 61 37 62 45 63 38 64 39 65 43 66 46 67
REMARK SMILES IDX 40 68 41 69 44 70 42 71 68 72 69 73 77 74 70 75 71 76 75 77
REMARK SMILES IDX 78 78 72 79 73 80 76 81 74 82 53 83 54 84 62 85 55 86 56 87
REMARK SMILES IDX 60 88 63 89 57 90 58 91 61 92 59 93
REMARK H PARENT 20 4 24 27 83 46 51 57
REMARK Flexibility Score: inf
ROOT
ATOM      1  O   UNL A   1      33.348  27.690  26.480  1.00  0.00    -0.275 OA
ATOM      2  C   UNL A   1      32.490  28.151  25.736  1.00  0.00     0.220 C 
ATOM      3  N   UNL A   1      31.802  29.317  25.979  1.00  0.00    -0.356 N 
ATOM      4  H   UNL A   1      31.094  29.578  25.346  1.00  0.00     0.163 HD
ENDROOT
BRANCH   2   5
ATOM      5  C   UNL A   1      32.052  27.454  24.460  1.00  0.00     0.108 C 
BRANCH   5   6
ATOM      6  C   UNL A   1      30.833  26.570  24.666  1.00  0.00    -0.009 C 
ATOM      7  C   UNL A   1      29.578  26.886  23.862  1.00  0.00     0.009 C 
ATOM      8  C   UNL A   1      30.400  25.683  23.512  1.00  0.00     0.009 C 
BRANCH   6   9
ATOM      9  C   UNL A   1      30.649  26.032  26.075  1.00  0.00     0.112 C 
BRANCH   9  10
ATOM     10  S   UNL A   1      30.612  24.230  26.092  1.00  0.00     0.023 S 
ATOM     11  O   UNL A   1      29.890  23.752  27.312  1.00  0.00    -0.260 OA
BRANCH  10  12
ATOM     12  C   UNL A   1      32.374  23.843  26.193  1.00  0.00     0.120 C 
BRANCH  12  13
ATOM     13  C   UNL A   1      33.273  23.758  24.952  1.00  0.00     0.068 C 
ATOM     14  C   UNL A   1      34.628  24.491  25.058  1.00  0.00     0.052 C 
ATOM     15  S   UNL A   1      33.615  22.094  24.285  1.00  0.00    -0.121 SA
ATOM     16  C   UNL A   1      35.713  23.459  25.119  1.00  0.00    -0.033 A 
ATOM     17  C   UNL A   1      35.318  22.173  24.746  1.00  0.00     0.011 A 
ATOM     18  C   UNL A   1      37.028  23.708  25.502  1.00  0.00     0.005 A 
ATOM     19  C   UNL A   1      36.208  21.112  24.787  1.00  0.00     0.015 A 
ATOM     20  C   UNL A   1      37.931  22.644  25.546  1.00  0.00     0.000 A 
ATOM     21  C   UNL A   1      37.521  21.351  25.197  1.00  0.00     0.001 A 
ENDBRANCH  12  13
ENDBRANCH  10  12
ENDBRANCH   9  10
ENDBRANCH   6   9
ENDBRANCH   5   6
ENDBRANCH   2   5
BRANCH   3  22
ATOM     22  C   UNL A   1      32.060  30.181  27.109  1.00  0.00     0.117 C 
BRANCH  22  23
ATOM     23  C   UNL A   1      31.860  31.649  26.757  1.00  0.00     0.042 C 
BRANCH  23  24
ATOM     24  C   UNL A   1      32.961  32.580  27.257  1.00  0.00     0.118 C 
BRANCH  24  25
ATOM     25  N   UNL A   1      32.497  33.916  27.611  1.00  0.00    -0.352 N 
ATOM     26  C   UNL A   1      33.001  34.786  28.550  1.00  0.00     0.251 C 
ATOM     27  H   UNL A   1      31.714  34.239  27.108  1.00  0.00     0.163 HD
ATOM     28  O   UNL A   1      32.435  35.851  28.777  1.00  0.00    -0.269 OA
BRANCH  26  29
ATOM     29  C   UNL A   1      34.201  34.404  29.325  1.00  0.00     0.039 A 
ATOM     30  C   UNL A   1      35.480  34.651  28.827  1.00  0.00     0.014 A 
ATOM     31  C   UNL A   1      34.034  33.732  30.540  1.00  0.00     0.014 A 
ATOM     32  C   UNL A   1      36.582  34.071  29.448  1.00  0.00     0.010 A 
ATOM     33  C   UNL A   1      35.149  33.212  31.201  1.00  0.00     0.010 A 
ATOM     34  C   UNL A   1      36.425  33.323  30.628  1.00  0.00    -0.014 A 
BRANCH  34  35
ATOM     35  C   UNL A   1      37.600  32.628  31.214  1.00  0.00     0.031 A 
ATOM     36  C   UNL A   1      38.063  32.954  32.609  1.00  0.00     0.074 A 
ATOM     37  C   UNL A   1      38.208  31.649  30.518  1.00  0.00     0.049 A 
ATOM     38  N   UNL A   1      39.047  32.428  33.298  1.00  0.00    -0.248 NA
ATOM     39  C   UNL A   1      37.328  34.007  33.329  1.00  0.00     0.031 C 
ATOM     40  C   UNL A   1      37.840  31.227  29.165  1.00  0.00     0.029 A 
ATOM     41  N   UNL A   1      39.240  30.812  30.860  1.00  0.00    -0.354 N 
ATOM     42  C   UNL A   1      39.058  33.095  34.517  1.00  0.00     0.074 A 
ATOM     43  C   UNL A   1      38.002  34.083  34.468  1.00  0.00     0.031 C 
ATOM     44  C   UNL A   1      38.597  30.177  28.814  1.00  0.00     0.029 A 
ATOM     45  C   UNL A   1      39.537  29.885  29.893  1.00  0.00     0.049 A 
ATOM     46  H   UNL A   1      39.721  30.872  31.717  1.00  0.00     0.167 HD
ATOM     47  C   UNL A   1      39.865  32.891  35.585  1.00  0.00     0.037 A 
ATOM     48  C   UNL A   1      40.464  28.910  29.874  1.00  0.00     0.037 A 
ATOM     49  C   UNL A   1      40.896  31.889  35.648  1.00  0.00     0.049 A 
ATOM     50  C   UNL A   1      41.372  28.731  31.057  1.00  0.00     0.074 A 
ATOM     51  C   UNL A   1      41.750  31.595  36.697  1.00  0.00     0.029 A 
ATOM     52  N   UNL A   1      41.209  31.012  34.620  1.00  0.00    -0.354 N 
ATOM     53  N   UNL A   1      41.375  29.372  32.200  1.00  0.00    -0.248 NA
ATOM     54  C   UNL A   1      42.414  27.700  30.943  1.00  0.00     0.031 C 
ATOM     55  C   UNL A   1      42.602  30.562  36.294  1.00  0.00     0.029 A 
ATOM     56  C   UNL A   1      42.254  30.187  35.006  1.00  0.00     0.049 A 
ATOM     57  H   UNL A   1      40.755  30.979  33.747  1.00  0.00     0.167 HD
ATOM     58  C   UNL A   1      42.410  28.822  32.943  1.00  0.00     0.074 A 
ATOM     59  C   UNL A   1      43.001  27.780  32.130  1.00  0.00     0.031 C 
ATOM     60  C   UNL A   1      42.835  29.158  34.184  1.00  0.00     0.037 A 
BRANCH  47  61
ATOM     61  C   UNL A   1      39.673  33.770  36.785  1.00  0.00     0.064 A 
ATOM     62  C   UNL A   1      40.258  35.043  36.862  1.00  0.00     0.173 A 
ATOM     63  C   UNL A   1      38.840  33.364  37.838  1.00  0.00     0.173 A 
ATOM     64  F   UNL A   1      41.073  35.470  35.885  1.00  0.00    -0.203 F 
ATOM     65  C   UNL A   1      40.023  35.872  37.955  1.00  0.00     0.198 A 
ATOM     66  C   UNL A   1      38.591  34.205  38.920  1.00  0.00     0.198 A 
ATOM     67  F   UNL A   1      38.254  32.158  37.809  1.00  0.00    -0.203 F 
ATOM     68  F   UNL A   1      40.615  37.073  38.021  1.00  0.00    -0.200 F 
ATOM     69  C   UNL A   1      39.184  35.456  38.979  1.00  0.00     0.200 A 
ATOM     70  F   UNL A   1      37.770  33.806  39.902  1.00  0.00    -0.200 F 
ATOM     71  F   UNL A   1      38.950  36.262  40.023  1.00  0.00    -0.200 F 
ENDBRANCH  47  61
BRANCH  48  72
ATOM     72  C   UNL A   1      40.568  28.023  28.690  1.00  0.00     0.064 A 
ATOM     73  C   UNL A   1      39.891  26.797  28.651  1.00  0.00     0.173 A 
ATOM     74  C   UNL A   1      41.316  28.395  27.563  1.00  0.00     0.173 A 
ATOM     75  F   UNL A   1      39.180  26.390  29.713  1.00  0.00    -0.203 F 
ATOM     76  C   UNL A   1      39.960  25.974  27.529  1.00  0.00     0.198 A 
ATOM     77  C   UNL A   1      41.365  27.583  26.433  1.00  0.00     0.198 A 
ATOM     78  F   UNL A   1      41.980  29.560  27.553  1.00  0.00    -0.203 F 
ATOM     79  F   UNL A   1      39.325  24.794  27.525  1.00  0.00    -0.200 F 
ATOM     80  C   UNL A   1      40.690  26.372  26.418  1.00  0.00     0.200 A 
ATOM     81  F   UNL A   1      42.059  27.977  25.357  1.00  0.00    -0.200 F 
ATOM     82  F   UNL A   1      40.744  25.586  25.333  1.00  0.00    -0.200 F 
ENDBRANCH  48  72
BRANCH  60  83
ATOM     83  C   UNL A   1      43.995  28.393  34.745  1.00  0.00     0.064 A 
ATOM     84  C   UNL A   1      43.806  27.185  35.431  1.00  0.00     0.173 A 
ATOM     85  C   UNL A   1      45.310  28.839  34.541  1.00  0.00     0.173 A 
ATOM     86  F   UNL A   1      42.566  26.728  35.662  1.00  0.00    -0.203 F 
ATOM     87  C   UNL A   1      44.893  26.456  35.904  1.00  0.00     0.198 A 
ATOM     88  C   UNL A   1      46.395  28.095  34.996  1.00  0.00     0.198 A 
ATOM     89  F   UNL A   1      45.541  29.986  33.884  1.00  0.00    -0.203 F 
ATOM     90  F   UNL A   1      44.689  25.318  36.583  1.00  0.00    -0.200 F 
ATOM     91  C   UNL A   1      46.185  26.907  35.680  1.00  0.00     0.200 A 
ATOM     92  F   UNL A   1      47.643  28.526  34.769  1.00  0.00    -0.200 F 
ATOM     93  F   UNL A   1      47.230  26.196  36.126  1.00  0.00    -0.200 F 
ENDBRANCH  60  83
ENDBRANCH  34  35
ENDBRANCH  26  29
ENDBRANCH  24  25
ENDBRANCH  23  24
ENDBRANCH  22  23
ENDBRANCH   3  22
TORSDOF 15
ENDMDL
MODEL 2
REMARK VINA RESULT:     -11.9      1.045      2.083
REMARK SMILES O=C(CC1(C[S@](=O)C[C@H]2Cc3ccccc3S2)CC1)NCCCNC(=O)c1ccc(-c2c3nc(c(-c4c(F)c(F)c(F)c(F)c4F)c4ccc([nH]4)c(-c4c(F)c(F)c(F)c(F)c4F)c4nc(c(-c5c(F)c(F)c(F)c(F)c5F)c5ccc2[nH]5)C=C4)C=C3)cc1
REMARK SMILES IDX 1 1 2 2 20 3 3 5 4 6 18 7 19 8 5 9 6 10 7 11 8 12 9 13 10 14
REMARK SMILES IDX 17 15 11 16 16 17 12 18 15 19 13 20 14 21 21 22 22 23 23 24
REMARK SMILES IDX 24 25 25 26 26 28 27 29 28 30 89 31 29 32 88 33 30 34 31 35
REMARK SMILES IDX 32 36 82 37 33 38 87 39 81 40 83 41 34 42 86 43 80 44 79 45
REMARK SMILES IDX 35 47 67 48 47 49 66 50 48 51 51 52 65 53 84 54 49 55 50 56
REMARK SMILES IDX 64 58 85 59 52 60 36 61 37 62 45 63 38 64 39 65 43 66 46 67
REMARK SMILES IDX 40 68 41 69 44 70 42 71 68 72 69 73 77 74 70 75 71 76 75 77
REMARK SMILES IDX 78 78 72 79 73 80 76 81 74 82 53 83 54 84 62 85 55 86 56 87
REMARK SMILES IDX 60 88 63 89 57 90 58 91 61 92 59 93
REMARK H PARENT 20 4 24 27 83 46 51 57
REMARK Flexibility Score: inf
ROOT
ATOM      1  O   UNL A   1      32.546  27.336  27.009  1.00  0.00    -0.275 OA
ATOM      2  C   UNL A   1      32.978  28.083  26.138  1.00  0.00     0.220 C 
ATOM      3  N   UNL A   1      32.782  29.444  26.121  1.00  0.00    -0.356 N 
ATOM      4  H   UNL A   1      33.125  29.953  25.351  1.00  0.00     0.163 HD
ENDROOT
BRANCH   2   5
ATOM      5  C   UNL A   1      33.758  27.577  24.938  1.00  0.00     0.108 C 
BRANCH   5   6
ATOM      6  C   UNL A   1      33.228  28.127  23.624  1.00  0.00    -0.009 C 
ATOM      7  C   UNL A   1      34.195  28.890  22.728  1.00  0.00     0.009 C 
ATOM      8  C   UNL A   1      33.752  27.513  22.338  1.00  0.00     0.009 C 
BRANCH   6   9
ATOM      9  C   UNL A   1      31.779  28.584  23.645  1.00  0.00     0.112 C 
BRANCH   9  10
ATOM     10  S   UNL A   1      30.733  27.506  22.649  1.00  0.00     0.023 S 
ATOM     11  O   UNL A   1      29.651  28.312  22.002  1.00  0.00    -0.260 OA
BRANCH  10  12
ATOM     12  C   UNL A   1      30.052  26.410  23.914  1.00  0.00     0.120 C 
BRANCH  12  13
ATOM     13  C   UNL A   1      30.480  24.942  24.052  1.00  0.00     0.068 C 
ATOM     14  C   UNL A   1      31.620  24.490  23.114  1.00  0.00     0.052 C 
ATOM     15  S   UNL A   1      30.897  24.351  25.727  1.00  0.00    -0.121 SA
ATOM     16  C   UNL A   1      32.843  24.251  23.948  1.00  0.00    -0.033 A 
ATOM     17  C   UNL A   1      32.605  24.162  25.321  1.00  0.00     0.011 A 
ATOM     18  C   UNL A   1      34.134  24.114  23.446  1.00  0.00     0.005 A 
ATOM     19  C   UNL A   1      33.647  23.977  26.215  1.00  0.00     0.015 A 
ATOM     20  C   UNL A   1      35.189  23.927  24.341  1.00  0.00     0.000 A 
ATOM     21  C   UNL A   1      34.948  23.866  25.720  1.00  0.00     0.001 A 
ENDBRANCH  12  13
ENDBRANCH  10  12
ENDBRANCH   9  10
ENDBRANCH   6   9
ENDBRANCH   5   6
ENDBRANCH   2   5
BRANCH   3  22
ATOM     22  C   UNL A   1      32.101  30.170  27.170  1.00  0.00     0.117 C 
BRANCH  22  23
ATOM     23  C   UNL A   1      31.877  31.629  26.795  1.00  0.00     0.042 C 
BRANCH  23  24
ATOM     24  C   UNL A   1      32.980  32.581  27.248  1.00  0.00     0.118 C 
BRANCH  24  25
ATOM     25  N   UNL A   1      32.507  33.911  27.611  1.00  0.00    -0.352 N 
ATOM     26  C   UNL A   1      33.009  34.780  28.553  1.00  0.00     0.251 C 
ATOM     27  H   UNL A   1      31.720  34.232  27.114  1.00  0.00     0.163 HD
ATOM     28  O   UNL A   1      32.437  35.840  28.789  1.00  0.00    -0.269 OA
BRANCH  26  29
ATOM     29  C   UNL A   1      34.216  34.403  29.320  1.00  0.00     0.039 A 
ATOM     30  C   UNL A   1      35.491  34.632  28.803  1.00  0.00     0.014 A 
ATOM     31  C   UNL A   1      34.059  33.754  30.549  1.00  0.00     0.014 A 
ATOM     32  C   UNL A   1      36.596  34.056  29.421  1.00  0.00     0.010 A 
ATOM     33  C   UNL A   1      35.178  33.237  31.206  1.00  0.00     0.010 A 
ATOM     34  C   UNL A   1      36.448  33.330  30.615  1.00  0.00    -0.014 A 
BRANCH  34  35
ATOM     35  C   UNL A   1      37.625  32.637  31.199  1.00  0.00     0.031 A 
ATOM     36  C   UNL A   1      38.093  32.966  32.592  1.00  0.00     0.074 A 
ATOM     37  C   UNL A   1      38.231  31.656  30.503  1.00  0.00     0.049 A 
ATOM     38  N   UNL A   1      39.079  32.443  33.279  1.00  0.00    -0.248 NA
ATOM     39  C   UNL A   1      37.360  34.021  33.311  1.00  0.00     0.031 C 
ATOM     40  C   UNL A   1      37.860  31.231  29.153  1.00  0.00     0.029 A 
ATOM     41  N   UNL A   1      39.265  30.821  30.844  1.00  0.00    -0.354 N 
ATOM     42  C   UNL A   1      39.094  33.112  34.496  1.00  0.00     0.074 A 
ATOM     43  C   UNL A   1      38.037  34.100  34.448  1.00  0.00     0.031 C 
ATOM     44  C   UNL A   1      38.615  30.180  28.802  1.00  0.00     0.029 A 
ATOM     45  C   UNL A   1      39.559  29.891  29.879  1.00  0.00     0.049 A 
ATOM     46  H   UNL A   1      39.749  30.883  31.700  1.00  0.00     0.167 HD
ATOM     47  C   UNL A   1      39.904  32.911  35.562  1.00  0.00     0.037 A 
ATOM     48  C   UNL A   1      40.487  28.917  29.859  1.00  0.00     0.037 A 
ATOM     49  C   UNL A   1      40.936  31.910  35.624  1.00  0.00     0.049 A 
ATOM     50  C   UNL A   1      41.399  28.741  31.040  1.00  0.00     0.074 A 
ATOM     51  C   UNL A   1      41.794  31.619  36.671  1.00  0.00     0.029 A 
ATOM     52  N   UNL A   1      41.246  31.031  34.598  1.00  0.00    -0.354 N 
ATOM     53  N   UNL A   1      41.405  29.385  32.181  1.00  0.00    -0.248 NA
ATOM     54  C   UNL A   1      42.441  27.711  30.925  1.00  0.00     0.031 C 
ATOM     55  C   UNL A   1      42.645  30.586  36.268  1.00  0.00     0.029 A 
ATOM     56  C   UNL A   1      42.293  30.207  34.982  1.00  0.00     0.049 A 
ATOM     57  H   UNL A   1      40.789  30.995  33.726  1.00  0.00     0.167 HD
ATOM     58  C   UNL A   1      42.443  28.838  32.922  1.00  0.00     0.074 A 
ATOM     59  C   UNL A   1      43.032  27.793  32.110  1.00  0.00     0.031 C 
ATOM     60  C   UNL A   1      42.872  29.177  34.161  1.00  0.00     0.037 A 
BRANCH  47  61
ATOM     61  C   UNL A   1      39.716  33.793  36.761  1.00  0.00     0.064 A 
ATOM     62  C   UNL A   1      40.305  35.064  36.835  1.00  0.00     0.173 A 
ATOM     63  C   UNL A   1      38.881  33.392  37.815  1.00  0.00     0.173 A 
ATOM     64  F   UNL A   1      41.121  35.487  35.858  1.00  0.00    -0.203 F 
ATOM     65  C   UNL A   1      40.074  35.896  37.927  1.00  0.00     0.198 A 
ATOM     66  C   UNL A   1      38.635  34.236  38.894  1.00  0.00     0.198 A 
ATOM     67  F   UNL A   1      38.290  32.188  37.788  1.00  0.00    -0.203 F 
ATOM     68  F   UNL A   1      40.670  37.095  37.991  1.00  0.00    -0.200 F 
ATOM     69  C   UNL A   1      39.233  35.485  38.951  1.00  0.00     0.200 A 
ATOM     70  F   UNL A   1      37.813  33.842  39.877  1.00  0.00    -0.200 F 
ATOM     71  F   UNL A   1      39.002  36.293  39.995  1.00  0.00    -0.200 F 
ENDBRANCH  47  61
BRANCH  48  72
ATOM     72  C   UNL A   1      40.588  28.027  28.676  1.00  0.00     0.064 A 
ATOM     73  C   UNL A   1      39.893  26.812  28.633  1.00  0.00     0.173 A 
ATOM     74  C   UNL A   1      41.351  28.386  27.556  1.00  0.00     0.173 A 
ATOM     75  F   UNL A   1      39.166  26.417  29.689  1.00  0.00    -0.203 F 
ATOM     76  C   UNL A   1      39.959  25.987  27.513  1.00  0.00     0.198 A 
ATOM     77  C   UNL A   1      41.398  27.572  26.428  1.00  0.00     0.198 A 
ATOM     78  F   UNL A   1      42.033  29.541  27.551  1.00  0.00    -0.203 F 
ATOM     79  F   UNL A   1      39.305  24.817  27.504  1.00  0.00    -0.200 F 
ATOM     80  C   UNL A   1      40.704  26.372  26.407  1.00  0.00     0.200 A 
ATOM     81  F   UNL A   1      42.107  27.954  25.357  1.00  0.00    -0.200 F 
ATOM     82  F   UNL A   1      40.755  25.584  25.324  1.00  0.00    -0.200 F 
ENDBRANCH  48  72
BRANCH  60  83
ATOM     83  C   UNL A   1      44.034  28.414  34.720  1.00  0.00     0.064 A 
ATOM     84  C   UNL A   1      45.349  28.877  34.568  1.00  0.00     0.173 A 
ATOM     85  C   UNL A   1      43.827  27.244  35.467  1.00  0.00     0.173 A 
ATOM     86  F   UNL A   1      45.595  29.983  33.850  1.00  0.00    -0.203 F 
ATOM     87  C   UNL A   1      46.417  28.189  35.136  1.00  0.00     0.198 A 
ATOM     88  C   UNL A   1      44.897  26.572  36.052  1.00  0.00     0.198 A 
ATOM     89  F   UNL A   1      42.587  26.767  35.645  1.00  0.00    -0.203 F 
ATOM     90  F   UNL A   1      47.669  28.633  34.953  1.00  0.00    -0.200 F 
ATOM     91  C   UNL A   1      46.190  27.043  35.882  1.00  0.00     0.200 A 
ATOM     92  F   UNL A   1      44.676  25.471  36.783  1.00  0.00    -0.200 F 
ATOM     93  F   UNL A   1      47.220  26.389  36.437  1.00  0.00    -0.200 F 
ENDBRANCH  60  83
ENDBRANCH  34  35
ENDBRANCH  26  29
ENDBRANCH  24  25
ENDBRANCH  23  24
ENDBRANCH  22  23
ENDBRANCH   3  22
TORSDOF 15
ENDMDL
MODEL 3
REMARK VINA RESULT:     -11.9      1.079      1.828
REMARK SMILES O=C(CC1(C[S@](=O)C[C@H]2Cc3ccccc3S2)CC1)NCCCNC(=O)c1ccc(-c2c3nc(c(-c4c(F)c(F)c(F)c(F)c4F)c4ccc([nH]4)c(-c4c(F)c(F)c(F)c(F)c4F)c4nc(c(-c5c(F)c(F)c(F)c(F)c5F)c5ccc2[nH]5)C=C4)C=C3)cc1
REMARK SMILES IDX 1 1 2 2 20 3 3 5 4 6 18 7 19 8 5 9 6 10 7 11 8 12 9 13 10 14
REMARK SMILES IDX 17 15 11 16 16 17 12 18 15 19 13 20 14 21 21 22 22 23 23 24
REMARK SMILES IDX 24 25 25 26 26 28 27 29 28 30 89 31 29 32 88 33 30 34 31 35
REMARK SMILES IDX 32 36 82 37 33 38 87 39 81 40 83 41 34 42 86 43 80 44 79 45
REMARK SMILES IDX 35 47 67 48 47 49 66 50 48 51 51 52 65 53 84 54 49 55 50 56
REMARK SMILES IDX 64 58 85 59 52 60 36 61 37 62 45 63 38 64 39 65 43 66 46 67
REMARK SMILES IDX 40 68 41 69 44 70 42 71 68 72 69 73 77 74 70 75 71 76 75 77
REMARK SMILES IDX 78 78 72 79 73 80 76 81 74 82 53 83 54 84 62 85 55 86 56 87
REMARK SMILES IDX 60 88 63 89 57 90 58 91 61 92 59 93
REMARK H PARENT 20 4 24 27 83 46 51 57
REMARK Flexibility Score: inf
ROOT
ATOM      1  O   UNL A   1      32.971  29.222  24.563  1.00  0.00    -0.275 OA
ATOM      2  C   UNL A   1      32.033  28.760  25.202  1.00  0.00     0.220 C 
ATOM      3  N   UNL A   1      31.741  29.101  26.503  1.00  0.00    -0.356 N 
ATOM      4  H   UNL A   1      30.997  28.636  26.949  1.00  0.00     0.163 HD
ENDROOT
BRANCH   2   5
ATOM      5  C   UNL A   1      31.093  27.710  24.636  1.00  0.00     0.108 C 
BRANCH   5   6
ATOM      6  C   UNL A   1      30.563  28.081  23.261  1.00  0.00    -0.009 C 
ATOM      7  C   UNL A   1      29.075  28.377  23.126  1.00  0.00     0.009 C 
ATOM      8  C   UNL A   1      30.063  29.501  23.056  1.00  0.00     0.009 C 
BRANCH   6   9
ATOM      9  C   UNL A   1      31.254  27.403  22.091  1.00  0.00     0.112 C 
BRANCH   9  10
ATOM     10  S   UNL A   1      32.562  26.296  22.650  1.00  0.00     0.023 S 
ATOM     11  O   UNL A   1      33.652  26.246  21.626  1.00  0.00    -0.260 OA
BRANCH  10  12
ATOM     12  C   UNL A   1      31.680  24.720  22.728  1.00  0.00     0.120 C 
BRANCH  12  13
ATOM     13  C   UNL A   1      32.260  23.483  23.428  1.00  0.00     0.068 C 
ATOM     14  C   UNL A   1      33.496  22.854  22.751  1.00  0.00     0.052 C 
ATOM     15  S   UNL A   1      32.642  23.637  25.205  1.00  0.00    -0.121 SA
ATOM     16  C   UNL A   1      34.688  23.108  23.625  1.00  0.00    -0.033 A 
ATOM     17  C   UNL A   1      34.382  23.523  24.922  1.00  0.00     0.011 A 
ATOM     18  C   UNL A   1      36.013  22.953  23.229  1.00  0.00     0.005 A 
ATOM     19  C   UNL A   1      35.384  23.828  25.829  1.00  0.00     0.015 A 
ATOM     20  C   UNL A   1      37.028  23.258  24.137  1.00  0.00     0.000 A 
ATOM     21  C   UNL A   1      36.715  23.700  25.429  1.00  0.00     0.001 A 
ENDBRANCH  12  13
ENDBRANCH  10  12
ENDBRANCH   9  10
ENDBRANCH   6   9
ENDBRANCH   5   6
ENDBRANCH   2   5
BRANCH   3  22
ATOM     22  C   UNL A   1      32.467  30.103  27.251  1.00  0.00     0.117 C 
BRANCH  22  23
ATOM     23  C   UNL A   1      31.999  31.512  26.911  1.00  0.00     0.042 C 
BRANCH  23  24
ATOM     24  C   UNL A   1      33.064  32.593  27.072  1.00  0.00     0.118 C 
BRANCH  24  25
ATOM     25  N   UNL A   1      32.542  33.884  27.503  1.00  0.00    -0.352 N 
ATOM     26  C   UNL A   1      32.995  34.709  28.507  1.00  0.00     0.251 C 
ATOM     27  H   UNL A   1      31.756  34.210  27.006  1.00  0.00     0.163 HD
ATOM     28  O   UNL A   1      32.385  35.734  28.792  1.00  0.00    -0.269 OA
BRANCH  26  29
ATOM     29  C   UNL A   1      34.195  34.322  29.279  1.00  0.00     0.039 A 
ATOM     30  C   UNL A   1      35.475  34.575  28.784  1.00  0.00     0.014 A 
ATOM     31  C   UNL A   1      34.028  33.639  30.488  1.00  0.00     0.014 A 
ATOM     32  C   UNL A   1      36.577  33.991  29.401  1.00  0.00     0.010 A 
ATOM     33  C   UNL A   1      35.144  33.115  31.146  1.00  0.00     0.010 A 
ATOM     34  C   UNL A   1      36.420  33.233  30.574  1.00  0.00    -0.014 A 
BRANCH  34  35
ATOM     35  C   UNL A   1      37.596  32.535  31.155  1.00  0.00     0.031 A 
ATOM     36  C   UNL A   1      38.072  32.865  32.545  1.00  0.00     0.074 A 
ATOM     37  C   UNL A   1      38.194  31.549  30.459  1.00  0.00     0.049 A 
ATOM     38  N   UNL A   1      39.058  32.338  33.229  1.00  0.00    -0.248 NA
ATOM     39  C   UNL A   1      37.348  33.926  33.264  1.00  0.00     0.031 C 
ATOM     40  C   UNL A   1      37.814  31.122  29.111  1.00  0.00     0.029 A 
ATOM     41  N   UNL A   1      39.223  30.709  30.797  1.00  0.00    -0.354 N 
ATOM     42  C   UNL A   1      39.082  33.011  34.444  1.00  0.00     0.074 A 
ATOM     43  C   UNL A   1      38.031  34.004  34.398  1.00  0.00     0.031 C 
ATOM     44  C   UNL A   1      38.562  30.067  28.760  1.00  0.00     0.029 A 
ATOM     45  C   UNL A   1      39.509  29.775  29.833  1.00  0.00     0.049 A 
ATOM     46  H   UNL A   1      39.711  30.770  31.650  1.00  0.00     0.167 HD
ATOM     47  C   UNL A   1      39.896  32.808  35.507  1.00  0.00     0.037 A 
ATOM     48  C   UNL A   1      40.431  28.796  29.812  1.00  0.00     0.037 A 
ATOM     49  C   UNL A   1      40.922  31.801  35.567  1.00  0.00     0.049 A 
ATOM     50  C   UNL A   1      41.346  28.617  30.989  1.00  0.00     0.074 A 
ATOM     51  C   UNL A   1      41.782  31.508  36.611  1.00  0.00     0.029 A 
ATOM     52  N   UNL A   1      41.222  30.917  34.542  1.00  0.00    -0.354 N 
ATOM     53  N   UNL A   1      41.361  29.264  32.128  1.00  0.00    -0.248 NA
ATOM     54  C   UNL A   1      42.382  27.581  30.873  1.00  0.00     0.031 C 
ATOM     55  C   UNL A   1      42.626  30.468  36.207  1.00  0.00     0.029 A 
ATOM     56  C   UNL A   1      42.266  30.088  34.923  1.00  0.00     0.049 A 
ATOM     57  H   UNL A   1      40.761  30.882  33.672  1.00  0.00     0.167 HD
ATOM     58  C   UNL A   1      42.399  28.713  32.866  1.00  0.00     0.074 A 
ATOM     59  C   UNL A   1      42.979  27.663  32.055  1.00  0.00     0.031 C 
ATOM     60  C   UNL A   1      42.835  29.053  34.102  1.00  0.00     0.037 A 
BRANCH  47  61
ATOM     61  C   UNL A   1      39.717  33.694  36.704  1.00  0.00     0.064 A 
ATOM     62  C   UNL A   1      40.348  34.944  36.791  1.00  0.00     0.173 A 
ATOM     63  C   UNL A   1      38.852  33.320  37.743  1.00  0.00     0.173 A 
ATOM     64  F   UNL A   1      41.195  35.339  35.828  1.00  0.00    -0.203 F 
ATOM     65  C   UNL A   1      40.128  35.782  37.880  1.00  0.00     0.198 A 
ATOM     66  C   UNL A   1      38.617  34.171  38.820  1.00  0.00     0.198 A 
ATOM     67  F   UNL A   1      38.220  32.137  37.704  1.00  0.00    -0.203 F 
ATOM     68  F   UNL A   1      40.764  36.959  37.957  1.00  0.00    -0.200 F 
ATOM     69  C   UNL A   1      39.256  35.398  38.890  1.00  0.00     0.200 A 
ATOM     70  F   UNL A   1      37.766  33.803  39.788  1.00  0.00    -0.200 F 
ATOM     71  F   UNL A   1      39.036  36.213  39.931  1.00  0.00    -0.200 F 
ENDBRANCH  47  61
BRANCH  48  72
ATOM     72  C   UNL A   1      40.521  27.901  28.631  1.00  0.00     0.064 A 
ATOM     73  C   UNL A   1      41.325  28.240  27.535  1.00  0.00     0.173 A 
ATOM     74  C   UNL A   1      39.835  26.679  28.588  1.00  0.00     0.173 A 
ATOM     75  F   UNL A   1      41.984  29.409  27.524  1.00  0.00    -0.203 F 
ATOM     76  C   UNL A   1      41.438  27.390  26.438  1.00  0.00     0.198 A 
ATOM     77  C   UNL A   1      39.966  25.819  27.501  1.00  0.00     0.198 A 
ATOM     78  F   UNL A   1      39.054  26.311  29.615  1.00  0.00    -0.203 F 
ATOM     79  F   UNL A   1      42.193  27.746  25.390  1.00  0.00    -0.200 F 
ATOM     80  C   UNL A   1      40.766  26.176  26.426  1.00  0.00     0.200 A 
ATOM     81  F   UNL A   1      39.327  24.641  27.500  1.00  0.00    -0.200 F 
ATOM     82  F   UNL A   1      40.886  25.351  25.376  1.00  0.00    -0.200 F 
ENDBRANCH  48  72
BRANCH  60  83
ATOM     83  C   UNL A   1      43.996  28.284  34.659  1.00  0.00     0.064 A 
ATOM     84  C   UNL A   1      43.806  27.077  35.345  1.00  0.00     0.173 A 
ATOM     85  C   UNL A   1      45.311  28.727  34.450  1.00  0.00     0.173 A 
ATOM     86  F   UNL A   1      42.566  26.622  35.580  1.00  0.00    -0.203 F 
ATOM     87  C   UNL A   1      44.893  26.344  35.813  1.00  0.00     0.198 A 
ATOM     88  C   UNL A   1      46.395  27.980  34.900  1.00  0.00     0.198 A 
ATOM     89  F   UNL A   1      45.542  29.873  33.792  1.00  0.00    -0.203 F 
ATOM     90  F   UNL A   1      44.688  25.207  36.493  1.00  0.00    -0.200 F 
ATOM     91  C   UNL A   1      46.186  26.792  35.584  1.00  0.00     0.200 A 
ATOM     92  F   UNL A   1      47.644  28.407  34.668  1.00  0.00    -0.200 F 
ATOM     93  F   UNL A   1      47.230  26.078  36.026  1.00  0.00    -0.200 F 
ENDBRANCH  60  83
ENDBRANCH  34  35
ENDBRANCH  26  29
ENDBRANCH  24  25
ENDBRANCH  23  24
ENDBRANCH  22  23
ENDBRANCH   3  22
TORSDOF 15
ENDMDL
