MODEL 1
REMARK VINA RESULT:     -12.7      0.000      0.000
REMARK SMILES O=C(NCCCNC(=O)[C@@H]1CC(=O)N(c2ccc(Cl)cc2C(=O)c2ccccc2)C1)c1ccc(-c2c3nc(c(-c4c(F)c(F)c(F)c(F)c4F)c4ccc([nH]4)c(-c4c(F)c(F)c(F)c(F)c4F)c4nc(c(-c5c(F)c(F)c(F)c(F)c5F)c5ccc2[nH]5)C=C4)C=C3)cc1
REMARK SMILES IDX 5 1 4 2 3 3 1 4 2 5 31 7 32 8 93 9 33 10 92 11 34 12 35 13
REMARK SMILES IDX 36 14 86 15 37 16 91 17 85 18 87 19 38 20 90 21 84 22 83 23
REMARK SMILES IDX 39 25 71 26 51 27 70 28 52 29 55 30 69 31 88 32 53 33 54 34
REMARK SMILES IDX 68 36 89 37 56 38 40 39 41 40 49 41 42 42 43 43 47 44 50 45
REMARK SMILES IDX 44 46 45 47 48 48 46 49 72 50 73 51 81 52 74 53 75 54 79 55
REMARK SMILES IDX 82 56 76 57 77 58 80 59 78 60 57 61 58 62 66 63 59 64 60 65
REMARK SMILES IDX 64 66 67 67 61 68 62 69 65 70 63 71 6 72 7 73 8 74 9 76
REMARK SMILES IDX 10 77 11 78 30 79 12 80 14 81 13 82 15 83 16 84 21 85 17 86
REMARK SMILES IDX 20 87 18 88 19 89 22 90 23 91 24 92 25 93 29 94 26 95 28 96
REMARK SMILES IDX 27 97
REMARK H PARENT 3 6 87 24 55 35 7 75
REMARK Flexibility Score: inf
ROOT
ATOM      1  C   UNL A   1      35.163  22.512  26.609  1.00  0.00     0.042 C 
ENDROOT
BRANCH   1   2
ATOM      2  C   UNL A   1      36.399  23.260  26.112  1.00  0.00     0.118 C 
BRANCH   2   3
ATOM      3  N   UNL A   1      37.597  22.439  25.999  1.00  0.00    -0.352 N 
ATOM      4  O   UNL A   1      39.781  21.898  26.054  1.00  0.00    -0.269 OA
ATOM      5  C   UNL A   1      38.915  22.725  26.288  1.00  0.00     0.251 C 
ATOM      6  H   UNL A   1      37.439  21.527  25.662  1.00  0.00     0.163 HD
BRANCH   5   7
ATOM      7  C   UNL A   1      39.294  24.050  26.836  1.00  0.00     0.039 A 
ATOM      8  C   UNL A   1      39.924  25.009  26.043  1.00  0.00     0.014 A 
ATOM      9  C   UNL A   1      39.002  24.338  28.173  1.00  0.00     0.014 A 
ATOM     10  C   UNL A   1      40.428  26.166  26.627  1.00  0.00     0.010 A 
ATOM     11  C   UNL A   1      39.420  25.549  28.736  1.00  0.00     0.010 A 
ATOM     12  C   UNL A   1      40.174  26.457  27.977  1.00  0.00    -0.014 A 
BRANCH  12  13
ATOM     13  C   UNL A   1      40.646  27.745  28.549  1.00  0.00     0.031 A 
ATOM     14  C   UNL A   1      42.091  27.959  28.903  1.00  0.00     0.074 A 
ATOM     15  C   UNL A   1      39.751  28.735  28.731  1.00  0.00     0.049 A 
ATOM     16  N   UNL A   1      42.665  29.016  29.426  1.00  0.00    -0.248 NA
ATOM     17  C   UNL A   1      43.020  26.846  28.646  1.00  0.00     0.031 C 
ATOM     18  C   UNL A   1      38.320  28.636  28.437  1.00  0.00     0.029 A 
ATOM     19  N   UNL A   1      39.905  30.016  29.198  1.00  0.00    -0.354 N 
ATOM     20  C   UNL A   1      44.004  28.687  29.588  1.00  0.00     0.074 A 
ATOM     21  C   UNL A   1      44.163  27.328  29.117  1.00  0.00     0.031 C 
ATOM     22  C   UNL A   1      37.734  29.813  28.695  1.00  0.00     0.029 A 
ATOM     23  C   UNL A   1      38.730  30.725  29.242  1.00  0.00     0.049 A 
ATOM     24  H   UNL A   1      40.773  30.390  29.474  1.00  0.00     0.167 HD
ATOM     25  C   UNL A   1      45.004  29.454  30.083  1.00  0.00     0.037 A 
ATOM     26  C   UNL A   1      38.471  31.962  29.706  1.00  0.00     0.037 A 
ATOM     27  C   UNL A   1      44.843  30.819  30.516  1.00  0.00     0.049 A 
ATOM     28  C   UNL A   1      39.598  32.778  30.269  1.00  0.00     0.074 A 
ATOM     29  C   UNL A   1      45.813  31.706  30.952  1.00  0.00     0.029 A 
ATOM     30  N   UNL A   1      43.631  31.491  30.578  1.00  0.00    -0.354 N 
ATOM     31  N   UNL A   1      40.869  32.473  30.364  1.00  0.00    -0.248 NA
ATOM     32  C   UNL A   1      39.255  34.102  30.803  1.00  0.00     0.031 C 
ATOM     33  C   UNL A   1      45.181  32.895  31.330  1.00  0.00     0.029 A 
ATOM     34  C   UNL A   1      43.823  32.767  31.085  1.00  0.00     0.049 A 
ATOM     35  H   UNL A   1      42.762  31.118  30.302  1.00  0.00     0.167 HD
ATOM     36  C   UNL A   1      41.477  33.565  30.963  1.00  0.00     0.074 A 
ATOM     37  C   UNL A   1      40.441  34.553  31.185  1.00  0.00     0.031 C 
ATOM     38  C   UNL A   1      42.777  33.732  31.307  1.00  0.00     0.037 A 
BRANCH  25  39
ATOM     39  C   UNL A   1      46.371  28.845  30.210  1.00  0.00     0.064 A 
ATOM     40  C   UNL A   1      46.766  28.142  31.358  1.00  0.00     0.173 A 
ATOM     41  C   UNL A   1      47.265  28.891  29.129  1.00  0.00     0.173 A 
ATOM     42  F   UNL A   1      45.952  28.074  32.422  1.00  0.00    -0.203 F 
ATOM     43  C   UNL A   1      48.011  27.519  31.422  1.00  0.00     0.198 A 
ATOM     44  C   UNL A   1      48.499  28.248  29.188  1.00  0.00     0.198 A 
ATOM     45  F   UNL A   1      46.932  29.544  28.005  1.00  0.00    -0.203 F 
ATOM     46  F   UNL A   1      48.378  26.875  32.538  1.00  0.00    -0.200 F 
ATOM     47  C   UNL A   1      48.871  27.564  30.335  1.00  0.00     0.200 A 
ATOM     48  F   UNL A   1      49.323  28.282  28.132  1.00  0.00    -0.200 F 
ATOM     49  F   UNL A   1      50.062  26.950  30.394  1.00  0.00    -0.200 F 
ENDBRANCH  25  39
BRANCH  26  50
ATOM     50  C   UNL A   1      37.077  32.476  29.691  1.00  0.00     0.064 A 
ATOM     51  C   UNL A   1      36.209  32.250  30.767  1.00  0.00     0.173 A 
ATOM     52  C   UNL A   1      36.592  33.217  28.603  1.00  0.00     0.173 A 
ATOM     53  F   UNL A   1      36.621  31.530  31.820  1.00  0.00    -0.203 F 
ATOM     54  C   UNL A   1      34.903  32.736  30.749  1.00  0.00     0.198 A 
ATOM     55  C   UNL A   1      35.298  33.731  28.602  1.00  0.00     0.198 A 
ATOM     56  F   UNL A   1      37.385  33.465  27.550  1.00  0.00    -0.203 F 
ATOM     57  F   UNL A   1      34.079  32.472  31.772  1.00  0.00    -0.200 F 
ATOM     58  C   UNL A   1      34.451  33.483  29.670  1.00  0.00     0.200 A 
ATOM     59  F   UNL A   1      34.873  34.468  27.566  1.00  0.00    -0.200 F 
ATOM     60  F   UNL A   1      33.199  33.959  29.660  1.00  0.00    -0.200 F 
ENDBRANCH  26  50
BRANCH  38  61
ATOM     61  C   UNL A   1      43.149  35.030  31.957  1.00  0.00     0.064 A 
ATOM     62  C   UNL A   1      43.610  36.117  31.200  1.00  0.00     0.173 A 
ATOM     63  C   UNL A   1      43.011  35.201  33.342  1.00  0.00     0.173 A 
ATOM     64  F   UNL A   1      43.777  35.994  29.874  1.00  0.00    -0.203 F 
ATOM     65  C   UNL A   1      43.936  37.324  31.811  1.00  0.00     0.198 A 
ATOM     66  C   UNL A   1      43.313  36.418  33.945  1.00  0.00     0.198 A 
ATOM     67  F   UNL A   1      42.571  34.191  34.107  1.00  0.00    -0.203 F 
ATOM     68  F   UNL A   1      44.415  38.337  31.075  1.00  0.00    -0.200 F 
ATOM     69  C   UNL A   1      43.780  37.477  33.180  1.00  0.00     0.200 A 
ATOM     70  F   UNL A   1      43.151  36.567  35.267  1.00  0.00    -0.200 F 
ATOM     71  F   UNL A   1      44.088  38.642  33.766  1.00  0.00    -0.200 F 
ENDBRANCH  38  61
ENDBRANCH  12  13
ENDBRANCH   5   7
ENDBRANCH   2   3
ENDBRANCH   1   2
BRANCH   1  72
ATOM     72  C   UNL A   1      34.427  21.677  25.569  1.00  0.00     0.117 C 
BRANCH  72  73
ATOM     73  N   UNL A   1      32.995  21.894  25.562  1.00  0.00    -0.356 N 
ATOM     74  C   UNL A   1      32.249  22.957  25.168  1.00  0.00     0.225 C 
ATOM     75  H   UNL A   1      32.470  21.136  25.905  1.00  0.00     0.163 HD
ATOM     76  O   UNL A   1      31.030  22.791  25.125  1.00  0.00    -0.275 OA
BRANCH  74  77
ATOM     77  C   UNL A   1      32.899  24.298  24.859  1.00  0.00     0.107 C 
ATOM     78  C   UNL A   1      32.886  25.158  26.116  1.00  0.00     0.116 C 
ATOM     79  C   UNL A   1      32.146  25.154  23.839  1.00  0.00     0.139 C 
ATOM     80  C   UNL A   1      31.609  25.941  25.984  1.00  0.00     0.227 C 
ATOM     81  N   UNL A   1      31.259  25.990  24.620  1.00  0.00    -0.311 N 
ATOM     82  O   UNL A   1      31.064  26.515  26.914  1.00  0.00    -0.274 OA
BRANCH  81  83
ATOM     83  C   UNL A   1      30.476  27.065  24.089  1.00  0.00     0.055 A 
ATOM     84  C   UNL A   1      29.105  26.768  23.870  1.00  0.00     0.028 A 
ATOM     85  C   UNL A   1      30.901  28.379  23.798  1.00  0.00     0.048 A 
ATOM     86  C   UNL A   1      28.193  27.699  23.369  1.00  0.00     0.023 A 
ATOM     87  C   UNL A   1      29.964  29.305  23.263  1.00  0.00     0.035 A 
ATOM     88  C   UNL A   1      28.632  28.967  23.051  1.00  0.00     0.041 A 
ATOM     89  Cl  UNL A   1      27.532  30.120  22.409  1.00  0.00    -0.084 Cl
BRANCH  85  90
ATOM     90  C   UNL A   1      32.245  28.988  23.991  1.00  0.00     0.195 C 
ATOM     91  O   UNL A   1      32.944  29.159  22.988  1.00  0.00    -0.289 OA
BRANCH  90  92
ATOM     92  C   UNL A   1      32.824  29.423  25.273  1.00  0.00     0.023 A 
ATOM     93  C   UNL A   1      33.972  28.737  25.708  1.00  0.00     0.012 A 
ATOM     94  C   UNL A   1      32.298  30.459  26.043  1.00  0.00     0.012 A 
ATOM     95  C   UNL A   1      34.621  29.117  26.879  1.00  0.00     0.001 A 
ATOM     96  C   UNL A   1      32.955  30.838  27.217  1.00  0.00     0.001 A 
ATOM     97  C   UNL A   1      34.115  30.175  27.629  1.00  0.00     0.000 A 
ENDBRANCH  90  92
ENDBRANCH  85  90
ENDBRANCH  81  83
ENDBRANCH  74  77
ENDBRANCH  72  73
ENDBRANCH   1  72
TORSDOF 13
ENDMDL
MODEL 2
REMARK VINA RESULT:     -12.7      3.928      7.346
REMARK SMILES O=C(NCCCNC(=O)[C@@H]1CC(=O)N(c2ccc(Cl)cc2C(=O)c2ccccc2)C1)c1ccc(-c2c3nc(c(-c4c(F)c(F)c(F)c(F)c4F)c4ccc([nH]4)c(-c4c(F)c(F)c(F)c(F)c4F)c4nc(c(-c5c(F)c(F)c(F)c(F)c5F)c5ccc2[nH]5)C=C4)C=C3)cc1
REMARK SMILES IDX 5 1 4 2 3 3 1 4 2 5 31 7 32 8 93 9 33 10 92 11 34 12 35 13
REMARK SMILES IDX 36 14 86 15 37 16 91 17 85 18 87 19 38 20 90 21 84 22 83 23
REMARK SMILES IDX 39 25 71 26 51 27 70 28 52 29 55 30 69 31 88 32 53 33 54 34
REMARK SMILES IDX 68 36 89 37 56 38 40 39 41 40 49 41 42 42 43 43 47 44 50 45
REMARK SMILES IDX 44 46 45 47 48 48 46 49 72 50 73 51 81 52 74 53 75 54 79 55
REMARK SMILES IDX 82 56 76 57 77 58 80 59 78 60 57 61 58 62 66 63 59 64 60 65
REMARK SMILES IDX 64 66 67 67 61 68 62 69 65 70 63 71 6 72 7 73 8 74 9 76
REMARK SMILES IDX 10 77 11 78 30 79 12 80 14 81 13 82 15 83 16 84 21 85 17 86
REMARK SMILES IDX 20 87 18 88 19 89 22 90 23 91 24 92 25 93 29 94 26 95 28 96
REMARK SMILES IDX 27 97
REMARK H PARENT 3 6 87 24 55 35 7 75
REMARK Flexibility Score: inf
ROOT
ATOM      1  C   UNL A   1      32.990  29.226  23.667  1.00  0.00     0.042 C 
ENDROOT
BRANCH   1   2
ATOM      2  C   UNL A   1      33.173  29.287  25.182  1.00  0.00     0.118 C 
BRANCH   2   3
ATOM      3  N   UNL A   1      32.638  30.488  25.809  1.00  0.00    -0.352 N 
ATOM      4  O   UNL A   1      32.463  32.192  27.268  1.00  0.00    -0.269 OA
ATOM      5  C   UNL A   1      33.115  31.246  26.858  1.00  0.00     0.251 C 
ATOM      6  H   UNL A   1      31.795  30.814  25.417  1.00  0.00     0.163 HD
BRANCH   5   7
ATOM      7  C   UNL A   1      34.393  30.891  27.521  1.00  0.00     0.039 A 
ATOM      8  C   UNL A   1      34.643  29.593  27.966  1.00  0.00     0.014 A 
ATOM      9  C   UNL A   1      35.365  31.883  27.692  1.00  0.00     0.014 A 
ATOM     10  C   UNL A   1      35.767  29.332  28.741  1.00  0.00     0.010 A 
ATOM     11  C   UNL A   1      36.546  31.593  28.386  1.00  0.00     0.010 A 
ATOM     12  C   UNL A   1      36.738  30.324  28.952  1.00  0.00    -0.014 A 
BRANCH  12  13
ATOM     13  C   UNL A   1      37.973  29.989  29.708  1.00  0.00     0.031 A 
ATOM     14  C   UNL A   1      39.016  29.071  29.133  1.00  0.00     0.074 A 
ATOM     15  C   UNL A   1      38.153  30.540  30.923  1.00  0.00     0.049 A 
ATOM     16  N   UNL A   1      40.141  28.664  29.668  1.00  0.00    -0.248 NA
ATOM     17  C   UNL A   1      38.770  28.532  27.786  1.00  0.00     0.031 C 
ATOM     18  C   UNL A   1      37.202  31.434  31.589  1.00  0.00     0.029 A 
ATOM     19  N   UNL A   1      39.192  30.442  31.814  1.00  0.00    -0.354 N 
ATOM     20  C   UNL A   1      40.718  27.803  28.744  1.00  0.00     0.074 A 
ATOM     21  C   UNL A   1      39.817  27.735  27.613  1.00  0.00     0.031 C 
ATOM     22  C   UNL A   1      37.714  31.829  32.762  1.00  0.00     0.029 A 
ATOM     23  C   UNL A   1      38.993  31.161  32.967  1.00  0.00     0.049 A 
ATOM     24  H   UNL A   1      40.001  29.908  31.644  1.00  0.00     0.167 HD
ATOM     25  C   UNL A   1      41.893  27.135  28.835  1.00  0.00     0.037 A 
ATOM     26  C   UNL A   1      39.737  31.247  34.085  1.00  0.00     0.037 A 
ATOM     27  C   UNL A   1      42.800  27.237  29.950  1.00  0.00     0.049 A 
ATOM     28  C   UNL A   1      41.023  30.476  34.164  1.00  0.00     0.074 A 
ATOM     29  C   UNL A   1      44.053  26.667  30.096  1.00  0.00     0.029 A 
ATOM     30  N   UNL A   1      42.547  27.948  31.114  1.00  0.00    -0.354 N 
ATOM     31  N   UNL A   1      41.581  29.710  33.258  1.00  0.00    -0.248 NA
ATOM     32  C   UNL A   1      41.775  30.568  35.421  1.00  0.00     0.031 C 
ATOM     33  C   UNL A   1      44.534  26.986  31.370  1.00  0.00     0.029 A 
ATOM     34  C   UNL A   1      43.602  27.797  32.000  1.00  0.00     0.049 A 
ATOM     35  H   UNL A   1      41.738  28.483  31.285  1.00  0.00     0.167 HD
ATOM     36  C   UNL A   1      42.748  29.232  33.833  1.00  0.00     0.074 A 
ATOM     37  C   UNL A   1      42.834  29.817  35.156  1.00  0.00     0.031 C 
ATOM     38  C   UNL A   1      43.664  28.379  33.315  1.00  0.00     0.037 A 
BRANCH  25  39
ATOM     39  C   UNL A   1      42.274  26.210  27.715  1.00  0.00     0.064 A 
ATOM     40  C   UNL A   1      43.222  26.570  26.746  1.00  0.00     0.173 A 
ATOM     41  C   UNL A   1      41.746  24.910  27.664  1.00  0.00     0.173 A 
ATOM     42  F   UNL A   1      43.752  27.803  26.745  1.00  0.00    -0.203 F 
ATOM     43  C   UNL A   1      43.618  25.668  25.761  1.00  0.00     0.198 A 
ATOM     44  C   UNL A   1      42.161  24.003  26.693  1.00  0.00     0.198 A 
ATOM     45  F   UNL A   1      40.842  24.513  28.573  1.00  0.00    -0.203 F 
ATOM     46  F   UNL A   1      44.505  26.042  24.830  1.00  0.00    -0.200 F 
ATOM     47  C   UNL A   1      43.094  24.383  25.741  1.00  0.00     0.200 A 
ATOM     48  F   UNL A   1      41.663  22.758  26.683  1.00  0.00    -0.200 F 
ATOM     49  F   UNL A   1      43.489  23.511  24.802  1.00  0.00    -0.200 F 
ENDBRANCH  25  39
BRANCH  26  50
ATOM     50  C   UNL A   1      39.255  32.063  35.229  1.00  0.00     0.064 A 
ATOM     51  C   UNL A   1      38.488  31.495  36.254  1.00  0.00     0.173 A 
ATOM     52  C   UNL A   1      39.566  33.428  35.325  1.00  0.00     0.173 A 
ATOM     53  F   UNL A   1      38.148  30.199  36.196  1.00  0.00    -0.203 F 
ATOM     54  C   UNL A   1      38.039  32.265  37.325  1.00  0.00     0.198 A 
ATOM     55  C   UNL A   1      39.146  34.188  36.413  1.00  0.00     0.198 A 
ATOM     56  F   UNL A   1      40.301  34.019  34.371  1.00  0.00    -0.203 F 
ATOM     57  F   UNL A   1      37.273  31.707  38.272  1.00  0.00    -0.200 F 
ATOM     58  C   UNL A   1      38.375  33.608  37.408  1.00  0.00     0.200 A 
ATOM     59  F   UNL A   1      39.490  35.481  36.497  1.00  0.00    -0.200 F 
ATOM     60  F   UNL A   1      37.953  34.344  38.445  1.00  0.00    -0.200 F 
ENDBRANCH  26  50
BRANCH  38  61
ATOM     61  C   UNL A   1      44.836  28.029  34.182  1.00  0.00     0.064 A 
ATOM     62  C   UNL A   1      45.995  28.818  34.191  1.00  0.00     0.173 A 
ATOM     63  C   UNL A   1      44.789  26.916  35.033  1.00  0.00     0.173 A 
ATOM     64  F   UNL A   1      46.095  29.881  33.378  1.00  0.00    -0.203 F 
ATOM     65  C   UNL A   1      47.072  28.495  35.012  1.00  0.00     0.198 A 
ATOM     66  C   UNL A   1      45.856  26.612  35.872  1.00  0.00     0.198 A 
ATOM     67  F   UNL A   1      43.700  26.133  35.062  1.00  0.00    -0.203 F 
ATOM     68  F   UNL A   1      48.186  29.239  34.975  1.00  0.00    -0.200 F 
ATOM     69  C   UNL A   1      46.999  27.399  35.857  1.00  0.00     0.200 A 
ATOM     70  F   UNL A   1      45.779  25.557  36.696  1.00  0.00    -0.200 F 
ATOM     71  F   UNL A   1      48.034  27.092  36.652  1.00  0.00    -0.200 F 
ENDBRANCH  38  61
ENDBRANCH  12  13
ENDBRANCH   5   7
ENDBRANCH   2   3
ENDBRANCH   1   2
BRANCH   1  72
ATOM     72  C   UNL A   1      31.625  28.757  23.179  1.00  0.00     0.117 C 
BRANCH  72  73
ATOM     73  N   UNL A   1      31.698  27.696  22.195  1.00  0.00    -0.356 N 
ATOM     74  C   UNL A   1      31.897  26.361  22.326  1.00  0.00     0.225 C 
ATOM     75  H   UNL A   1      31.583  27.999  21.266  1.00  0.00     0.163 HD
ATOM     76  O   UNL A   1      31.744  25.678  21.313  1.00  0.00    -0.275 OA
BRANCH  74  77
ATOM     77  C   UNL A   1      32.347  25.762  23.651  1.00  0.00     0.107 C 
ATOM     78  C   UNL A   1      33.859  25.583  23.627  1.00  0.00     0.116 C 
ATOM     79  C   UNL A   1      31.829  24.349  23.923  1.00  0.00     0.139 C 
ATOM     80  C   UNL A   1      34.030  24.174  23.129  1.00  0.00     0.227 C 
ATOM     81  N   UNL A   1      32.848  23.460  23.405  1.00  0.00    -0.311 N 
ATOM     82  O   UNL A   1      35.076  23.737  22.674  1.00  0.00    -0.274 OA
BRANCH  81  83
ATOM     83  C   UNL A   1      32.859  22.040  23.587  1.00  0.00     0.055 A 
ATOM     84  C   UNL A   1      32.207  21.291  22.572  1.00  0.00     0.028 A 
ATOM     85  C   UNL A   1      33.469  21.309  24.630  1.00  0.00     0.048 A 
ATOM     86  C   UNL A   1      32.131  19.897  22.581  1.00  0.00     0.023 A 
ATOM     87  C   UNL A   1      33.357  19.892  24.636  1.00  0.00     0.035 A 
ATOM     88  C   UNL A   1      32.697  19.200  23.628  1.00  0.00     0.041 A 
ATOM     89  Cl  UNL A   1      32.593  17.486  23.672  1.00  0.00    -0.084 Cl
BRANCH  85  90
ATOM     90  C   UNL A   1      34.270  21.815  25.777  1.00  0.00     0.195 C 
ATOM     91  O   UNL A   1      33.691  21.964  26.857  1.00  0.00    -0.289 OA
BRANCH  90  92
ATOM     92  C   UNL A   1      35.704  22.148  25.753  1.00  0.00     0.023 A 
ATOM     93  C   UNL A   1      36.051  23.461  26.119  1.00  0.00     0.012 A 
ATOM     94  C   UNL A   1      36.699  21.239  25.400  1.00  0.00     0.012 A 
ATOM     95  C   UNL A   1      37.385  23.848  26.181  1.00  0.00     0.001 A 
ATOM     96  C   UNL A   1      38.039  21.632  25.465  1.00  0.00     0.001 A 
ATOM     97  C   UNL A   1      38.380  22.929  25.861  1.00  0.00     0.000 A 
ENDBRANCH  90  92
ENDBRANCH  85  90
ENDBRANCH  81  83
ENDBRANCH  74  77
ENDBRANCH  72  73
ENDBRANCH   1  72
TORSDOF 13
ENDMDL
MODEL 3
REMARK VINA RESULT:     -12.6      2.227      7.400
REMARK SMILES O=C(NCCCNC(=O)[C@@H]1CC(=O)N(c2ccc(Cl)cc2C(=O)c2ccccc2)C1)c1ccc(-c2c3nc(c(-c4c(F)c(F)c(F)c(F)c4F)c4ccc([nH]4)c(-c4c(F)c(F)c(F)c(F)c4F)c4nc(c(-c5c(F)c(F)c(F)c(F)c5F)c5ccc2[nH]5)C=C4)C=C3)cc1
REMARK SMILES IDX 5 1 4 2 3 3 1 4 2 5 31 7 32 8 93 9 33 10 92 11 34 12 35 13
REMARK SMILES IDX 36 14 86 15 37 16 91 17 85 18 87 19 38 20 90 21 84 22 83 23
REMARK SMILES IDX 39 25 71 26 51 27 70 28 52 29 55 30 69 31 88 32 53 33 54 34
REMARK SMILES IDX 68 36 89 37 56 38 40 39 41 40 49 41 42 42 43 43 47 44 50 45
REMARK SMILES IDX 44 46 45 47 48 48 46 49 72 50 73 51 81 52 74 53 75 54 79 55
REMARK SMILES IDX 82 56 76 57 77 58 80 59 78 60 57 61 58 62 66 63 59 64 60 65
REMARK SMILES IDX 64 66 67 67 61 68 62 69 65 70 63 71 6 72 7 73 8 74 9 76
REMARK SMILES IDX 10 77 11 78 30 79 12 80 14 81 13 82 15 83 16 84 21 85 17 86
REMARK SMILES IDX 20 87 18 88 19 89 22 90 23 91 24 92 25 93 29 94 26 95 28 96
REMARK SMILES IDX 27 97
REMARK H PARENT 3 6 87 24 55 35 7 75
REMARK Flexibility Score: inf
ROOT
ATOM      1  C   UNL A   1      34.631  21.681  26.811  1.00  0.00     0.042 C 
ENDROOT
BRANCH   1   2
ATOM      2  C   UNL A   1      35.878  22.284  26.168  1.00  0.00     0.118 C 
BRANCH   2   3
ATOM      3  N   UNL A   1      36.912  21.315  25.827  1.00  0.00    -0.352 N 
ATOM      4  O   UNL A   1      38.974  20.484  25.478  1.00  0.00    -0.269 OA
ATOM      5  C   UNL A   1      38.287  21.411  25.876  1.00  0.00     0.251 C 
ATOM      6  H   UNL A   1      36.571  20.447  25.512  1.00  0.00     0.163 HD
BRANCH   5   7
ATOM      7  C   UNL A   1      38.937  22.651  26.365  1.00  0.00     0.039 A 
ATOM      8  C   UNL A   1      38.521  23.908  25.928  1.00  0.00     0.014 A 
ATOM      9  C   UNL A   1      39.983  22.548  27.289  1.00  0.00     0.014 A 
ATOM     10  C   UNL A   1      39.262  25.036  26.261  1.00  0.00     0.010 A 
ATOM     11  C   UNL A   1      40.665  23.697  27.704  1.00  0.00     0.010 A 
ATOM     12  C   UNL A   1      40.336  24.948  27.161  1.00  0.00    -0.014 A 
BRANCH  12  13
ATOM     13  C   UNL A   1      41.052  26.185  27.569  1.00  0.00     0.031 A 
ATOM     14  C   UNL A   1      40.357  27.272  28.341  1.00  0.00     0.074 A 
ATOM     15  C   UNL A   1      42.354  26.311  27.247  1.00  0.00     0.049 A 
ATOM     16  N   UNL A   1      40.831  28.420  28.759  1.00  0.00    -0.248 NA
ATOM     17  C   UNL A   1      38.943  27.052  28.688  1.00  0.00     0.031 C 
ATOM     18  C   UNL A   1      43.130  25.328  26.488  1.00  0.00     0.029 A 
ATOM     19  N   UNL A   1      43.258  27.307  27.519  1.00  0.00    -0.354 N 
ATOM     20  C   UNL A   1      39.776  29.068  29.386  1.00  0.00     0.074 A 
ATOM     21  C   UNL A   1      38.627  28.192  29.289  1.00  0.00     0.031 C 
ATOM     22  C   UNL A   1      44.397  25.750  26.385  1.00  0.00     0.029 A 
ATOM     23  C   UNL A   1      44.508  27.064  27.003  1.00  0.00     0.049 A 
ATOM     24  H   UNL A   1      43.033  28.115  28.033  1.00  0.00     0.167 HD
ATOM     25  C   UNL A   1      39.771  30.282  29.987  1.00  0.00     0.037 A 
ATOM     26  C   UNL A   1      45.615  27.829  26.995  1.00  0.00     0.037 A 
ATOM     27  C   UNL A   1      40.929  31.131  30.110  1.00  0.00     0.049 A 
ATOM     28  C   UNL A   1      45.571  29.179  27.650  1.00  0.00     0.074 A 
ATOM     29  C   UNL A   1      41.045  32.339  30.776  1.00  0.00     0.029 A 
ATOM     30  N   UNL A   1      42.168  30.866  29.545  1.00  0.00    -0.354 N 
ATOM     31  N   UNL A   1      44.580  29.754  28.287  1.00  0.00    -0.248 NA
ATOM     32  C   UNL A   1      46.791  29.993  27.574  1.00  0.00     0.031 C 
ATOM     33  C   UNL A   1      42.337  32.832  30.568  1.00  0.00     0.029 A 
ATOM     34  C   UNL A   1      43.042  31.908  29.812  1.00  0.00     0.049 A 
ATOM     35  H   UNL A   1      42.394  30.057  29.031  1.00  0.00     0.167 HD
ATOM     36  C   UNL A   1      45.055  30.992  28.690  1.00  0.00     0.074 A 
ATOM     37  C   UNL A   1      46.434  31.075  28.251  1.00  0.00     0.031 C 
ATOM     38  C   UNL A   1      44.407  31.976  29.357  1.00  0.00     0.037 A 
BRANCH  25  39
ATOM     39  C   UNL A   1      38.476  30.792  30.549  1.00  0.00     0.064 A 
ATOM     40  C   UNL A   1      38.204  30.770  31.925  1.00  0.00     0.173 A 
ATOM     41  C   UNL A   1      37.531  31.395  29.704  1.00  0.00     0.173 A 
ATOM     42  F   UNL A   1      39.070  30.199  32.775  1.00  0.00    -0.203 F 
ATOM     43  C   UNL A   1      37.028  31.320  32.431  1.00  0.00     0.198 A 
ATOM     44  C   UNL A   1      36.368  31.964  30.216  1.00  0.00     0.198 A 
ATOM     45  F   UNL A   1      37.747  31.450  28.380  1.00  0.00    -0.203 F 
ATOM     46  F   UNL A   1      36.777  31.264  33.746  1.00  0.00    -0.200 F 
ATOM     47  C   UNL A   1      36.116  31.924  31.578  1.00  0.00     0.200 A 
ATOM     48  F   UNL A   1      35.494  32.560  29.391  1.00  0.00    -0.200 F 
ATOM     49  F   UNL A   1      34.993  32.468  32.070  1.00  0.00    -0.200 F 
ENDBRANCH  25  39
BRANCH  26  50
ATOM     50  C   UNL A   1      46.839  27.346  26.304  1.00  0.00     0.064 A 
ATOM     51  C   UNL A   1      47.038  27.572  24.937  1.00  0.00     0.173 A 
ATOM     52  C   UNL A   1      47.840  26.658  27.006  1.00  0.00     0.173 A 
ATOM     53  F   UNL A   1      46.099  28.207  24.219  1.00  0.00    -0.203 F 
ATOM     54  C   UNL A   1      48.188  27.118  24.295  1.00  0.00     0.198 A 
ATOM     55  C   UNL A   1      49.004  26.235  26.371  1.00  0.00     0.198 A 
ATOM     56  F   UNL A   1      47.699  26.420  28.319  1.00  0.00    -0.203 F 
ATOM     57  F   UNL A   1      48.336  27.311  22.977  1.00  0.00    -0.200 F 
ATOM     58  C   UNL A   1      49.173  26.457  25.013  1.00  0.00     0.200 A 
ATOM     59  F   UNL A   1      49.961  25.614  27.074  1.00  0.00    -0.200 F 
ATOM     60  F   UNL A   1      50.284  26.030  24.396  1.00  0.00    -0.200 F 
ENDBRANCH  26  50
BRANCH  38  61
ATOM     61  C   UNL A   1      45.181  33.225  29.653  1.00  0.00     0.064 A 
ATOM     62  C   UNL A   1      45.955  33.343  30.816  1.00  0.00     0.173 A 
ATOM     63  C   UNL A   1      45.178  34.298  28.750  1.00  0.00     0.173 A 
ATOM     64  F   UNL A   1      45.973  32.351  31.719  1.00  0.00    -0.203 F 
ATOM     65  C   UNL A   1      46.685  34.500  31.073  1.00  0.00     0.198 A 
ATOM     66  C   UNL A   1      45.930  35.442  28.997  1.00  0.00     0.198 A 
ATOM     67  F   UNL A   1      44.456  34.230  27.622  1.00  0.00    -0.203 F 
ATOM     68  F   UNL A   1      47.385  34.609  32.211  1.00  0.00    -0.200 F 
ATOM     69  C   UNL A   1      46.679  35.544  30.161  1.00  0.00     0.200 A 
ATOM     70  F   UNL A   1      45.931  36.446  28.110  1.00  0.00    -0.200 F 
ATOM     71  F   UNL A   1      47.388  36.655  30.406  1.00  0.00    -0.200 F 
ENDBRANCH  38  61
ENDBRANCH  12  13
ENDBRANCH   5   7
ENDBRANCH   2   3
ENDBRANCH   1   2
BRANCH   1  72
ATOM     72  C   UNL A   1      33.609  21.085  25.852  1.00  0.00     0.117 C 
BRANCH  72  73
ATOM     73  N   UNL A   1      32.258  21.551  26.087  1.00  0.00    -0.356 N 
ATOM     74  C   UNL A   1      31.624  22.693  25.719  1.00  0.00     0.225 C 
ATOM     75  H   UNL A   1      31.700  20.928  26.606  1.00  0.00     0.163 HD
ATOM     76  O   UNL A   1      30.411  22.741  25.922  1.00  0.00    -0.275 OA
BRANCH  74  77
ATOM     77  C   UNL A   1      32.400  23.868  25.142  1.00  0.00     0.107 C 
ATOM     78  C   UNL A   1      32.658  24.883  26.248  1.00  0.00     0.116 C 
ATOM     79  C   UNL A   1      31.645  24.678  24.088  1.00  0.00     0.139 C 
ATOM     80  C   UNL A   1      31.488  25.821  26.132  1.00  0.00     0.227 C 
ATOM     81  N   UNL A   1      30.980  25.736  24.821  1.00  0.00    -0.311 N 
ATOM     82  O   UNL A   1      31.144  26.592  27.015  1.00  0.00    -0.274 OA
BRANCH  81  83
ATOM     83  C   UNL A   1      30.285  26.831  24.217  1.00  0.00     0.055 A 
ATOM     84  C   UNL A   1      28.896  26.627  24.002  1.00  0.00     0.028 A 
ATOM     85  C   UNL A   1      30.811  28.090  23.851  1.00  0.00     0.048 A 
ATOM     86  C   UNL A   1      28.061  27.592  23.435  1.00  0.00     0.023 A 
ATOM     87  C   UNL A   1      29.950  29.049  23.250  1.00  0.00     0.035 A 
ATOM     88  C   UNL A   1      28.598  28.801  23.045  1.00  0.00     0.041 A 
ATOM     89  Cl  UNL A   1      27.593  29.992  22.322  1.00  0.00    -0.084 Cl
BRANCH  85  90
ATOM     90  C   UNL A   1      32.196  28.605  24.021  1.00  0.00     0.195 C 
ATOM     91  O   UNL A   1      32.946  28.563  23.041  1.00  0.00    -0.289 OA
BRANCH  90  92
ATOM     92  C   UNL A   1      32.763  29.179  25.253  1.00  0.00     0.023 A 
ATOM     93  C   UNL A   1      33.949  28.594  25.730  1.00  0.00     0.012 A 
ATOM     94  C   UNL A   1      32.190  30.249  25.938  1.00  0.00     0.012 A 
ATOM     95  C   UNL A   1      34.587  29.106  26.855  1.00  0.00     0.001 A 
ATOM     96  C   UNL A   1      32.836  30.761  27.067  1.00  0.00     0.001 A 
ATOM     97  C   UNL A   1      34.033  30.197  27.518  1.00  0.00     0.000 A 
ENDBRANCH  90  92
ENDBRANCH  85  90
ENDBRANCH  81  83
ENDBRANCH  74  77
ENDBRANCH  72  73
ENDBRANCH   1  72
TORSDOF 13
ENDMDL
