MODEL 1
REMARK VINA RESULT:     -10.2      0.000      0.000
REMARK SMILES CCc1cccc(-c2ccc([C@@H](C)C(=O)NCCCNC(=O)c3ccc(-c4c5nc(c(-c6c(F)c(F)c(F)c(F)c6F)c6ccc([nH]6)c(-c6c(F)c(F)c(F)c(F)c6F)c6nc(c(-c7c(F)c(F)c(F)c(F)c7F)c7ccc4[nH]7)C=C6)C=C5)cc3)cc2)c1
REMARK SMILES IDX 17 1 16 2 14 3 15 4 12 6 13 7 11 8 8 9 9 10 87 11 10 12
REMARK SMILES IDX 86 13 7 14 3 15 4 16 88 17 5 18 6 19 2 20 1 21 18 22 19 23
REMARK SMILES IDX 20 24 21 25 22 27 23 28 24 29 85 30 25 31 84 32 26 33 27 34
REMARK SMILES IDX 28 35 78 36 29 37 83 38 77 39 79 40 30 41 82 42 76 43 75 44
REMARK SMILES IDX 31 46 63 47 43 48 62 49 44 50 47 51 61 52 80 53 45 54 46 55
REMARK SMILES IDX 60 57 81 58 48 59 32 60 33 61 41 62 34 63 35 64 39 65 42 66
REMARK SMILES IDX 36 67 37 68 40 69 38 70 64 71 65 72 73 73 66 74 67 75 71 76
REMARK SMILES IDX 74 77 68 78 69 79 72 80 70 81 49 82 50 83 58 84 51 85 52 86
REMARK SMILES IDX 56 87 59 88 53 89 54 90 57 91 55 92
REMARK H PARENT 16 5 20 26 79 45 47 56
REMARK Flexibility Score: inf
ROOT
ATOM      1  C   UNL A   1      34.039  35.340  29.178  1.00  0.00     0.117 C 
ENDROOT
BRANCH   1   2
ATOM      2  N   UNL A   1      33.958  35.449  30.621  1.00  0.00    -0.356 N 
ATOM      3  C   UNL A   1      34.429  34.654  31.620  1.00  0.00     0.227 C 
ATOM      4  O   UNL A   1      34.121  34.988  32.770  1.00  0.00    -0.274 OA
ATOM      5  H   UNL A   1      33.472  36.245  30.936  1.00  0.00     0.163 HD
BRANCH   3   6
ATOM      6  C   UNL A   1      35.294  33.405  31.390  1.00  0.00     0.105 C 
ATOM      7  C   UNL A   1      35.217  32.359  32.502  1.00  0.00     0.023 C 
BRANCH   6   8
ATOM      8  C   UNL A   1      36.688  33.730  30.876  1.00  0.00    -0.036 A 
ATOM      9  C   UNL A   1      39.387  34.230  30.063  1.00  0.00    -0.018 A 
ATOM     10  C   UNL A   1      38.468  33.583  29.222  1.00  0.00     0.009 A 
ATOM     11  C   UNL A   1      38.905  34.657  31.311  1.00  0.00     0.009 A 
ATOM     12  C   UNL A   1      37.138  33.364  29.607  1.00  0.00     0.005 A 
ATOM     13  C   UNL A   1      37.590  34.395  31.718  1.00  0.00     0.005 A 
BRANCH   9  14
ATOM     14  C   UNL A   1      40.799  34.437  29.655  1.00  0.00    -0.018 A 
ATOM     15  C   UNL A   1      43.171  33.755  29.714  1.00  0.00    -0.048 A 
ATOM     16  C   UNL A   1      43.485  34.796  28.835  1.00  0.00     0.004 A 
ATOM     17  C   UNL A   1      41.826  33.575  30.090  1.00  0.00     0.012 A 
ATOM     18  C   UNL A   1      42.493  35.664  28.389  1.00  0.00     0.001 A 
ATOM     19  C   UNL A   1      41.170  35.493  28.806  1.00  0.00     0.009 A 
BRANCH  15  20
ATOM     20  C   UNL A   1      44.224  32.797  30.222  1.00  0.00     0.032 C 
ATOM     21  C   UNL A   1      43.872  31.324  30.041  1.00  0.00     0.009 C 
ENDBRANCH  15  20
ENDBRANCH   9  14
ENDBRANCH   6   8
ENDBRANCH   3   6
ENDBRANCH   1   2
BRANCH   1  22
ATOM     22  C   UNL A   1      33.385  34.066  28.653  1.00  0.00     0.042 C 
BRANCH  22  23
ATOM     23  C   UNL A   1      34.356  33.098  27.991  1.00  0.00     0.118 C 
BRANCH  23  24
ATOM     24  N   UNL A   1      33.717  31.844  27.618  1.00  0.00    -0.352 N 
ATOM     25  C   UNL A   1      34.201  30.560  27.598  1.00  0.00     0.251 C 
ATOM     26  H   UNL A   1      32.779  31.932  27.331  1.00  0.00     0.163 HD
ATOM     27  O   UNL A   1      33.539  29.683  27.048  1.00  0.00    -0.269 OA
BRANCH  25  28
ATOM     28  C   UNL A   1      35.500  30.207  28.220  1.00  0.00     0.039 A 
ATOM     29  C   UNL A   1      36.666  30.352  27.458  1.00  0.00     0.014 A 
ATOM     30  C   UNL A   1      35.581  29.663  29.503  1.00  0.00     0.014 A 
ATOM     31  C   UNL A   1      37.905  29.986  27.992  1.00  0.00     0.010 A 
ATOM     32  C   UNL A   1      36.823  29.375  30.067  1.00  0.00     0.010 A 
ATOM     33  C   UNL A   1      37.996  29.510  29.310  1.00  0.00    -0.014 A 
BRANCH  33  34
ATOM     34  C   UNL A   1      39.298  29.096  29.894  1.00  0.00     0.031 A 
ATOM     35  C   UNL A   1      39.865  29.848  31.068  1.00  0.00     0.074 A 
ATOM     36  C   UNL A   1      39.996  28.087  29.339  1.00  0.00     0.049 A 
ATOM     37  N   UNL A   1      41.022  29.706  31.667  1.00  0.00    -0.248 NA
ATOM     38  C   UNL A   1      39.032  30.925  31.627  1.00  0.00     0.031 C 
ATOM     39  C   UNL A   1      39.577  27.309  28.173  1.00  0.00     0.029 A 
ATOM     40  N   UNL A   1      41.216  27.554  29.675  1.00  0.00    -0.354 N 
ATOM     41  C   UNL A   1      41.065  30.691  32.645  1.00  0.00     0.074 A 
ATOM     42  C   UNL A   1      39.840  31.453  32.534  1.00  0.00     0.031 C 
ATOM     43  C   UNL A   1      40.514  26.386  27.902  1.00  0.00     0.029 A 
ATOM     44  C   UNL A   1      41.613  26.529  28.852  1.00  0.00     0.049 A 
ATOM     45  H   UNL A   1      41.754  27.875  30.434  1.00  0.00     0.167 HD
ATOM     46  C   UNL A   1      42.027  30.926  33.569  1.00  0.00     0.037 A 
ATOM     47  C   UNL A   1      42.740  25.793  28.860  1.00  0.00     0.037 A 
ATOM     48  C   UNL A   1      43.224  30.139  33.708  1.00  0.00     0.049 A 
ATOM     49  C   UNL A   1      43.781  26.052  29.916  1.00  0.00     0.074 A 
ATOM     50  C   UNL A   1      44.232  30.256  34.649  1.00  0.00     0.029 A 
ATOM     51  N   UNL A   1      43.568  29.078  32.882  1.00  0.00    -0.354 N 
ATOM     52  N   UNL A   1      43.785  26.951  30.871  1.00  0.00    -0.248 NA
ATOM     53  C   UNL A   1      44.969  25.187  29.902  1.00  0.00     0.031 C 
ATOM     54  C   UNL A   1      45.202  29.287  34.374  1.00  0.00     0.029 A 
ATOM     55  C   UNL A   1      44.779  28.539  33.287  1.00  0.00     0.049 A 
ATOM     56  H   UNL A   1      43.033  28.757  32.121  1.00  0.00     0.167 HD
ATOM     57  C   UNL A   1      44.955  26.741  31.587  1.00  0.00     0.074 A 
ATOM     58  C   UNL A   1      45.632  25.623  30.964  1.00  0.00     0.031 C 
ATOM     59  C   UNL A   1      45.428  27.414  32.665  1.00  0.00     0.037 A 
BRANCH  46  60
ATOM     60  C   UNL A   1      41.823  32.081  34.507  1.00  0.00     0.064 A 
ATOM     61  C   UNL A   1      42.327  33.359  34.220  1.00  0.00     0.173 A 
ATOM     62  C   UNL A   1      41.089  31.915  35.691  1.00  0.00     0.173 A 
ATOM     63  F   UNL A   1      43.046  33.567  33.107  1.00  0.00    -0.203 F 
ATOM     64  C   UNL A   1      42.133  34.419  35.101  1.00  0.00     0.198 A 
ATOM     65  C   UNL A   1      40.871  32.985  36.554  1.00  0.00     0.198 A 
ATOM     66  F   UNL A   1      40.580  30.715  36.009  1.00  0.00    -0.203 F 
ATOM     67  F   UNL A   1      42.668  35.618  34.832  1.00  0.00    -0.200 F 
ATOM     68  C   UNL A   1      41.400  34.234  36.264  1.00  0.00     0.200 A 
ATOM     69  F   UNL A   1      40.152  32.808  37.671  1.00  0.00    -0.200 F 
ATOM     70  F   UNL A   1      41.209  35.257  37.108  1.00  0.00    -0.200 F 
ENDBRANCH  46  60
BRANCH  47  71
ATOM     71  C   UNL A   1      42.928  24.714  27.856  1.00  0.00     0.064 A 
ATOM     72  C   UNL A   1      42.548  23.395  28.141  1.00  0.00     0.173 A 
ATOM     73  C   UNL A   1      43.484  24.976  26.596  1.00  0.00     0.173 A 
ATOM     74  F   UNL A   1      42.030  23.093  29.341  1.00  0.00    -0.203 F 
ATOM     75  C   UNL A   1      42.735  22.375  27.212  1.00  0.00     0.198 A 
ATOM     76  C   UNL A   1      43.648  23.959  25.658  1.00  0.00     0.198 A 
ATOM     77  F   UNL A   1      43.860  26.222  26.274  1.00  0.00    -0.203 F 
ATOM     78  F   UNL A   1      42.402  21.116  27.527  1.00  0.00    -0.200 F 
ATOM     79  C   UNL A   1      43.280  22.659  25.969  1.00  0.00     0.200 A 
ATOM     80  F   UNL A   1      44.162  24.239  24.452  1.00  0.00    -0.200 F 
ATOM     81  F   UNL A   1      43.456  21.678  25.073  1.00  0.00    -0.200 F 
ENDBRANCH  47  71
BRANCH  59  82
ATOM     82  C   UNL A   1      46.714  26.933  33.267  1.00  0.00     0.064 A 
ATOM     83  C   UNL A   1      46.739  25.937  34.253  1.00  0.00     0.173 A 
ATOM     84  C   UNL A   1      47.941  27.446  32.818  1.00  0.00     0.173 A 
ATOM     85  F   UNL A   1      45.591  25.427  34.725  1.00  0.00    -0.203 F 
ATOM     86  C   UNL A   1      47.944  25.489  34.786  1.00  0.00     0.198 A 
ATOM     87  C   UNL A   1      49.145  26.976  33.333  1.00  0.00     0.198 A 
ATOM     88  F   UNL A   1      47.970  28.395  31.870  1.00  0.00    -0.203 F 
ATOM     89  F   UNL A   1      47.942  24.567  35.760  1.00  0.00    -0.200 F 
ATOM     90  C   UNL A   1      49.145  26.003  34.321  1.00  0.00     0.200 A 
ATOM     91  F   UNL A   1      50.305  27.465  32.874  1.00  0.00    -0.200 F 
ATOM     92  F   UNL A   1      50.305  25.566  34.831  1.00  0.00    -0.200 F 
ENDBRANCH  59  82
ENDBRANCH  33  34
ENDBRANCH  25  28
ENDBRANCH  23  24
ENDBRANCH  22  23
ENDBRANCH   1  22
TORSDOF 13
ENDMDL
MODEL 2
REMARK VINA RESULT:     -10.2      3.688     10.137
REMARK SMILES CCc1cccc(-c2ccc([C@@H](C)C(=O)NCCCNC(=O)c3ccc(-c4c5nc(c(-c6c(F)c(F)c(F)c(F)c6F)c6ccc([nH]6)c(-c6c(F)c(F)c(F)c(F)c6F)c6nc(c(-c7c(F)c(F)c(F)c(F)c7F)c7ccc4[nH]7)C=C6)C=C5)cc3)cc2)c1
REMARK SMILES IDX 17 1 16 2 14 3 15 4 12 6 13 7 11 8 8 9 9 10 87 11 10 12
REMARK SMILES IDX 86 13 7 14 3 15 4 16 88 17 5 18 6 19 2 20 1 21 18 22 19 23
REMARK SMILES IDX 20 24 21 25 22 27 23 28 24 29 85 30 25 31 84 32 26 33 27 34
REMARK SMILES IDX 28 35 78 36 29 37 83 38 77 39 79 40 30 41 82 42 76 43 75 44
REMARK SMILES IDX 31 46 63 47 43 48 62 49 44 50 47 51 61 52 80 53 45 54 46 55
REMARK SMILES IDX 60 57 81 58 48 59 32 60 33 61 41 62 34 63 35 64 39 65 42 66
REMARK SMILES IDX 36 67 37 68 40 69 38 70 64 71 65 72 73 73 66 74 67 75 71 76
REMARK SMILES IDX 74 77 68 78 69 79 72 80 70 81 49 82 50 83 58 84 51 85 52 86
REMARK SMILES IDX 56 87 59 88 53 89 54 90 57 91 55 92
REMARK H PARENT 16 5 20 26 79 45 47 56
REMARK Flexibility Score: inf
ROOT
ATOM      1  C   UNL A   1      31.182  30.930  26.448  1.00  0.00     0.117 C 
ENDROOT
BRANCH   1   2
ATOM      2  N   UNL A   1      31.814  30.341  25.284  1.00  0.00    -0.356 N 
ATOM      3  C   UNL A   1      32.698  29.316  25.151  1.00  0.00     0.227 C 
ATOM      4  O   UNL A   1      33.114  29.103  24.005  1.00  0.00    -0.274 OA
ATOM      5  H   UNL A   1      31.554  30.761  24.432  1.00  0.00     0.163 HD
BRANCH   3   6
ATOM      6  C   UNL A   1      33.186  28.443  26.318  1.00  0.00     0.105 C 
ATOM      7  C   UNL A   1      34.416  28.981  27.050  1.00  0.00     0.023 C 
BRANCH   6   8
ATOM      8  C   UNL A   1      33.202  26.959  25.987  1.00  0.00    -0.036 A 
ATOM      9  C   UNL A   1      33.394  24.146  25.492  1.00  0.00    -0.018 A 
ATOM     10  C   UNL A   1      32.239  24.724  26.044  1.00  0.00     0.009 A 
ATOM     11  C   UNL A   1      34.438  25.023  25.157  1.00  0.00     0.009 A 
ATOM     12  C   UNL A   1      32.133  26.105  26.259  1.00  0.00     0.005 A 
ATOM     13  C   UNL A   1      34.353  26.397  25.418  1.00  0.00     0.005 A 
BRANCH   9  14
ATOM     14  C   UNL A   1      33.505  22.680  25.288  1.00  0.00    -0.018 A 
ATOM     15  C   UNL A   1      34.886  20.655  24.987  1.00  0.00    -0.048 A 
ATOM     16  C   UNL A   1      33.725  19.876  24.954  1.00  0.00     0.004 A 
ATOM     17  C   UNL A   1      34.759  22.044  25.181  1.00  0.00     0.012 A 
ATOM     18  C   UNL A   1      32.473  20.476  25.057  1.00  0.00     0.001 A 
ATOM     19  C   UNL A   1      32.366  21.861  25.209  1.00  0.00     0.009 A 
BRANCH  15  20
ATOM     20  C   UNL A   1      36.261  20.039  24.873  1.00  0.00     0.032 C 
ATOM     21  C   UNL A   1      37.403  21.050  24.849  1.00  0.00     0.009 C 
ENDBRANCH  15  20
ENDBRANCH   9  14
ENDBRANCH   6   8
ENDBRANCH   3   6
ENDBRANCH   1   2
BRANCH   1  22
ATOM     22  C   UNL A   1      31.308  32.450  26.471  1.00  0.00     0.042 C 
BRANCH  22  23
ATOM     23  C   UNL A   1      32.570  32.957  27.157  1.00  0.00     0.118 C 
BRANCH  23  24
ATOM     24  N   UNL A   1      32.431  34.328  27.627  1.00  0.00    -0.352 N 
ATOM     25  C   UNL A   1      33.032  34.986  28.669  1.00  0.00     0.251 C 
ATOM     26  H   UNL A   1      31.796  34.875  27.108  1.00  0.00     0.163 HD
ATOM     27  O   UNL A   1      32.603  36.088  29.004  1.00  0.00    -0.269 OA
BRANCH  25  28
ATOM     28  C   UNL A   1      34.181  34.400  29.401  1.00  0.00     0.039 A 
ATOM     29  C   UNL A   1      35.471  34.614  28.901  1.00  0.00     0.014 A 
ATOM     30  C   UNL A   1      34.005  33.581  30.518  1.00  0.00     0.014 A 
ATOM     31  C   UNL A   1      36.576  34.039  29.535  1.00  0.00     0.010 A 
ATOM     32  C   UNL A   1      35.111  33.076  31.200  1.00  0.00     0.010 A 
ATOM     33  C   UNL A   1      36.407  33.279  30.702  1.00  0.00    -0.014 A 
BRANCH  33  34
ATOM     34  C   UNL A   1      37.562  32.641  31.385  1.00  0.00     0.031 A 
ATOM     35  C   UNL A   1      38.277  31.490  30.729  1.00  0.00     0.074 A 
ATOM     36  C   UNL A   1      37.931  33.052  32.613  1.00  0.00     0.049 A 
ATOM     37  N   UNL A   1      39.245  30.740  31.193  1.00  0.00    -0.248 NA
ATOM     38  C   UNL A   1      37.823  31.113  29.381  1.00  0.00     0.031 C 
ATOM     39  C   UNL A   1      37.292  34.126  33.373  1.00  0.00     0.029 A 
ATOM     40  N   UNL A   1      38.929  32.604  33.443  1.00  0.00    -0.354 N 
ATOM     41  C   UNL A   1      39.491  29.789  30.211  1.00  0.00     0.074 A 
ATOM     42  C   UNL A   1      38.544  30.028  29.144  1.00  0.00     0.031 C 
ATOM     43  C   UNL A   1      37.924  34.266  34.550  1.00  0.00     0.029 A 
ATOM     44  C   UNL A   1      38.988  33.272  34.641  1.00  0.00     0.049 A 
ATOM     45  H   UNL A   1      39.543  31.873  33.202  1.00  0.00     0.167 HD
ATOM     46  C   UNL A   1      40.436  28.819  30.188  1.00  0.00     0.037 A 
ATOM     47  C   UNL A   1      39.808  33.097  35.695  1.00  0.00     0.037 A 
ATOM     48  C   UNL A   1      41.408  28.612  31.229  1.00  0.00     0.049 A 
ATOM     49  C   UNL A   1      40.870  32.034  35.633  1.00  0.00     0.074 A 
ATOM     50  C   UNL A   1      42.445  27.697  31.275  1.00  0.00     0.029 A 
ATOM     51  N   UNL A   1      41.464  29.342  32.409  1.00  0.00    -0.354 N 
ATOM     52  N   UNL A   1      41.129  31.176  34.675  1.00  0.00    -0.248 NA
ATOM     53  C   UNL A   1      41.762  31.919  36.796  1.00  0.00     0.031 C 
ATOM     54  C   UNL A   1      43.110  27.851  32.496  1.00  0.00     0.029 A 
ATOM     55  C   UNL A   1      42.513  28.890  33.193  1.00  0.00     0.049 A 
ATOM     56  H   UNL A   1      40.850  30.071  32.652  1.00  0.00     0.167 HD
ATOM     57  C   UNL A   1      42.228  30.445  35.104  1.00  0.00     0.074 A 
ATOM     58  C   UNL A   1      42.594  30.965  36.404  1.00  0.00     0.031 C 
ATOM     59  C   UNL A   1      42.875  29.433  34.477  1.00  0.00     0.037 A 
BRANCH  46  60
ATOM     60  C   UNL A   1      40.469  27.908  28.994  1.00  0.00     0.064 A 
ATOM     61  C   UNL A   1      39.707  26.731  28.947  1.00  0.00     0.173 A 
ATOM     62  C   UNL A   1      41.248  28.232  27.873  1.00  0.00     0.173 A 
ATOM     63  F   UNL A   1      38.956  26.371  29.998  1.00  0.00    -0.203 F 
ATOM     64  C   UNL A   1      39.750  25.895  27.835  1.00  0.00     0.198 A 
ATOM     65  C   UNL A   1      41.264  27.408  26.751  1.00  0.00     0.198 A 
ATOM     66  F   UNL A   1      41.990  29.349  27.864  1.00  0.00    -0.203 F 
ATOM     67  F   UNL A   1      39.054  24.749  27.834  1.00  0.00    -0.200 F 
ATOM     68  C   UNL A   1      40.522  26.236  26.735  1.00  0.00     0.200 A 
ATOM     69  F   UNL A   1      42.001  27.746  25.684  1.00  0.00    -0.200 F 
ATOM     70  F   UNL A   1      40.558  25.433  25.663  1.00  0.00    -0.200 F 
ENDBRANCH  46  60
BRANCH  47  71
ATOM     71  C   UNL A   1      39.678  33.975  36.887  1.00  0.00     0.064 A 
ATOM     72  C   UNL A   1      40.342  35.208  36.944  1.00  0.00     0.173 A 
ATOM     73  C   UNL A   1      38.891  33.605  37.986  1.00  0.00     0.173 A 
ATOM     74  F   UNL A   1      41.123  35.595  35.924  1.00  0.00    -0.203 F 
ATOM     75  C   UNL A   1      40.240  36.030  38.064  1.00  0.00     0.198 A 
ATOM     76  C   UNL A   1      38.769  34.439  39.096  1.00  0.00     0.198 A 
ATOM     77  F   UNL A   1      38.233  32.437  37.978  1.00  0.00    -0.203 F 
ATOM     78  F   UNL A   1      40.919  37.184  38.110  1.00  0.00    -0.200 F 
ATOM     79  C   UNL A   1      39.449  35.647  39.137  1.00  0.00     0.200 A 
ATOM     80  F   UNL A   1      37.993  34.072  40.125  1.00  0.00    -0.200 F 
ATOM     81  F   UNL A   1      39.347  36.440  40.212  1.00  0.00    -0.200 F 
ENDBRANCH  47  71
BRANCH  59  82
ATOM     82  C   UNL A   1      44.073  28.851  35.166  1.00  0.00     0.064 A 
ATOM     83  C   UNL A   1      43.962  27.764  36.044  1.00  0.00     0.173 A 
ATOM     84  C   UNL A   1      45.354  29.362  34.909  1.00  0.00     0.173 A 
ATOM     85  F   UNL A   1      42.756  27.250  36.333  1.00  0.00    -0.203 F 
ATOM     86  C   UNL A   1      45.088  27.225  36.660  1.00  0.00     0.198 A 
ATOM     87  C   UNL A   1      46.481  28.803  35.504  1.00  0.00     0.198 A 
ATOM     88  F   UNL A   1      45.514  30.396  34.070  1.00  0.00    -0.203 F 
ATOM     89  F   UNL A   1      44.954  26.213  37.529  1.00  0.00    -0.200 F 
ATOM     90  C   UNL A   1      46.346  27.739  36.383  1.00  0.00     0.200 A 
ATOM     91  F   UNL A   1      47.697  29.293  35.227  1.00  0.00    -0.200 F 
ATOM     92  F   UNL A   1      47.430  27.214  36.972  1.00  0.00    -0.200 F 
ENDBRANCH  59  82
ENDBRANCH  33  34
ENDBRANCH  25  28
ENDBRANCH  23  24
ENDBRANCH  22  23
ENDBRANCH   1  22
TORSDOF 13
ENDMDL
MODEL 3
REMARK VINA RESULT:     -10.2      4.409     10.219
REMARK SMILES CCc1cccc(-c2ccc([C@@H](C)C(=O)NCCCNC(=O)c3ccc(-c4c5nc(c(-c6c(F)c(F)c(F)c(F)c6F)c6ccc([nH]6)c(-c6c(F)c(F)c(F)c(F)c6F)c6nc(c(-c7c(F)c(F)c(F)c(F)c7F)c7ccc4[nH]7)C=C6)C=C5)cc3)cc2)c1
REMARK SMILES IDX 17 1 16 2 14 3 15 4 12 6 13 7 11 8 8 9 9 10 87 11 10 12
REMARK SMILES IDX 86 13 7 14 3 15 4 16 88 17 5 18 6 19 2 20 1 21 18 22 19 23
REMARK SMILES IDX 20 24 21 25 22 27 23 28 24 29 85 30 25 31 84 32 26 33 27 34
REMARK SMILES IDX 28 35 78 36 29 37 83 38 77 39 79 40 30 41 82 42 76 43 75 44
REMARK SMILES IDX 31 46 63 47 43 48 62 49 44 50 47 51 61 52 80 53 45 54 46 55
REMARK SMILES IDX 60 57 81 58 48 59 32 60 33 61 41 62 34 63 35 64 39 65 42 66
REMARK SMILES IDX 36 67 37 68 40 69 38 70 64 71 65 72 73 73 66 74 67 75 71 76
REMARK SMILES IDX 74 77 68 78 69 79 72 80 70 81 49 82 50 83 58 84 51 85 52 86
REMARK SMILES IDX 56 87 59 88 53 89 54 90 57 91 55 92
REMARK H PARENT 16 5 20 26 79 45 47 56
REMARK Flexibility Score: inf
ROOT
ATOM      1  C   UNL A   1      35.024  21.877  25.075  1.00  0.00     0.117 C 
ENDROOT
BRANCH   1   2
ATOM      2  N   UNL A   1      33.707  21.311  25.289  1.00  0.00    -0.356 N 
ATOM      3  C   UNL A   1      32.470  21.711  24.889  1.00  0.00     0.227 C 
ATOM      4  O   UNL A   1      31.519  21.039  25.308  1.00  0.00    -0.274 OA
ATOM      5  H   UNL A   1      33.708  20.484  25.824  1.00  0.00     0.163 HD
BRANCH   3   6
ATOM      6  C   UNL A   1      32.210  22.916  23.971  1.00  0.00     0.105 C 
ATOM      7  C   UNL A   1      32.715  22.750  22.538  1.00  0.00     0.023 C 
BRANCH   6   8
ATOM      8  C   UNL A   1      32.516  24.249  24.636  1.00  0.00    -0.036 A 
ATOM      9  C   UNL A   1      33.023  26.852  25.716  1.00  0.00    -0.018 A 
ATOM     10  C   UNL A   1      32.130  25.957  26.327  1.00  0.00     0.009 A 
ATOM     11  C   UNL A   1      33.687  26.391  24.568  1.00  0.00     0.009 A 
ATOM     12  C   UNL A   1      31.903  24.672  25.817  1.00  0.00     0.005 A 
ATOM     13  C   UNL A   1      33.424  25.126  24.027  1.00  0.00     0.005 A 
BRANCH   9  14
ATOM     14  C   UNL A   1      33.240  28.219  26.252  1.00  0.00    -0.018 A 
ATOM     15  C   UNL A   1      32.439  30.521  26.643  1.00  0.00    -0.048 A 
ATOM     16  C   UNL A   1      33.627  30.812  27.322  1.00  0.00     0.004 A 
ATOM     17  C   UNL A   1      32.252  29.219  26.142  1.00  0.00     0.012 A 
ATOM     18  C   UNL A   1      34.620  29.845  27.447  1.00  0.00     0.001 A 
ATOM     19  C   UNL A   1      34.433  28.570  26.907  1.00  0.00     0.009 A 
BRANCH  15  20
ATOM     20  C   UNL A   1      31.341  31.548  26.485  1.00  0.00     0.032 C 
ATOM     21  C   UNL A   1      31.746  32.966  26.873  1.00  0.00     0.009 C 
ENDBRANCH  15  20
ENDBRANCH   9  14
ENDBRANCH   6   8
ENDBRANCH   3   6
ENDBRANCH   1   2
BRANCH   1  22
ATOM     22  C   UNL A   1      35.397  22.899  26.144  1.00  0.00     0.042 C 
BRANCH  22  23
ATOM     23  C   UNL A   1      36.748  23.566  25.919  1.00  0.00     0.118 C 
BRANCH  23  24
ATOM     24  N   UNL A   1      37.856  22.634  26.075  1.00  0.00    -0.352 N 
ATOM     25  C   UNL A   1      39.166  22.847  26.423  1.00  0.00     0.251 C 
ATOM     26  H   UNL A   1      37.626  21.693  25.900  1.00  0.00     0.163 HD
ATOM     27  O   UNL A   1      39.973  21.930  26.290  1.00  0.00    -0.269 OA
BRANCH  25  28
ATOM     28  C   UNL A   1      39.630  24.153  26.950  1.00  0.00     0.039 A 
ATOM     29  C   UNL A   1      39.457  24.423  28.313  1.00  0.00     0.014 A 
ATOM     30  C   UNL A   1      40.155  25.142  26.116  1.00  0.00     0.014 A 
ATOM     31  C   UNL A   1      39.838  25.661  28.840  1.00  0.00     0.010 A 
ATOM     32  C   UNL A   1      40.611  26.344  26.653  1.00  0.00     0.010 A 
ATOM     33  C   UNL A   1      40.435  26.627  28.016  1.00  0.00    -0.014 A 
BRANCH  33  34
ATOM     34  C   UNL A   1      40.831  27.957  28.546  1.00  0.00     0.031 A 
ATOM     35  C   UNL A   1      42.271  28.226  28.896  1.00  0.00     0.074 A 
ATOM     36  C   UNL A   1      39.897  28.901  28.767  1.00  0.00     0.049 A 
ATOM     37  N   UNL A   1      42.807  29.283  29.453  1.00  0.00    -0.248 NA
ATOM     38  C   UNL A   1      43.232  27.149  28.608  1.00  0.00     0.031 C 
ATOM     39  C   UNL A   1      38.464  28.749  28.511  1.00  0.00     0.029 A 
ATOM     40  N   UNL A   1      40.012  30.172  29.273  1.00  0.00    -0.354 N 
ATOM     41  C   UNL A   1      44.155  28.985  29.609  1.00  0.00     0.074 A 
ATOM     42  C   UNL A   1      44.349  27.634  29.129  1.00  0.00     0.031 C 
ATOM     43  C   UNL A   1      37.836  29.888  28.843  1.00  0.00     0.029 A 
ATOM     44  C   UNL A   1      38.815  30.837  29.366  1.00  0.00     0.049 A 
ATOM     45  H   UNL A   1      40.872  30.569  29.542  1.00  0.00     0.167 HD
ATOM     46  C   UNL A   1      45.147  29.774  30.087  1.00  0.00     0.037 A 
ATOM     47  C   UNL A   1      38.538  32.072  29.827  1.00  0.00     0.037 A 
ATOM     48  C   UNL A   1      44.962  31.133  30.521  1.00  0.00     0.049 A 
ATOM     49  C   UNL A   1      39.662  32.941  30.323  1.00  0.00     0.074 A 
ATOM     50  C   UNL A   1      45.911  32.036  30.965  1.00  0.00     0.029 A 
ATOM     51  N   UNL A   1      43.738  31.787  30.557  1.00  0.00    -0.354 N 
ATOM     52  N   UNL A   1      40.942  32.668  30.414  1.00  0.00    -0.248 NA
ATOM     53  C   UNL A   1      39.305  34.294  30.773  1.00  0.00     0.031 C 
ATOM     54  C   UNL A   1      45.258  33.228  31.300  1.00  0.00     0.029 A 
ATOM     55  C   UNL A   1      43.908  33.080  31.025  1.00  0.00     0.049 A 
ATOM     56  H   UNL A   1      42.878  31.391  30.291  1.00  0.00     0.167 HD
ATOM     57  C   UNL A   1      41.544  33.820  30.899  1.00  0.00     0.074 A 
ATOM     58  C   UNL A   1      40.492  34.800  31.074  1.00  0.00     0.031 C 
ATOM     59  C   UNL A   1      42.851  34.047  31.175  1.00  0.00     0.037 A 
BRANCH  46  60
ATOM     60  C   UNL A   1      46.527  29.186  30.161  1.00  0.00     0.064 A 
ATOM     61  C   UNL A   1      46.982  28.519  31.309  1.00  0.00     0.173 A 
ATOM     62  C   UNL A   1      47.394  29.265  29.061  1.00  0.00     0.173 A 
ATOM     63  F   UNL A   1      46.196  28.427  32.392  1.00  0.00    -0.203 F 
ATOM     64  C   UNL A   1      48.265  27.982  31.364  1.00  0.00     0.198 A 
ATOM     65  C   UNL A   1      48.666  28.701  29.110  1.00  0.00     0.198 A 
ATOM     66  F   UNL A   1      47.007  29.886  27.937  1.00  0.00    -0.203 F 
ATOM     67  F   UNL A   1      48.696  27.395  32.490  1.00  0.00    -0.200 F 
ATOM     68  C   UNL A   1      49.104  28.067  30.263  1.00  0.00     0.200 A 
ATOM     69  F   UNL A   1      49.471  28.772  28.040  1.00  0.00    -0.200 F 
ATOM     70  F   UNL A   1      50.337  27.544  30.316  1.00  0.00    -0.200 F 
ENDBRANCH  46  60
BRANCH  47  71
ATOM     71  C   UNL A   1      37.140  32.574  29.806  1.00  0.00     0.064 A 
ATOM     72  C   UNL A   1      36.295  32.388  30.909  1.00  0.00     0.173 A 
ATOM     73  C   UNL A   1      36.622  33.250  28.692  1.00  0.00     0.173 A 
ATOM     74  F   UNL A   1      36.741  31.729  31.989  1.00  0.00    -0.203 F 
ATOM     75  C   UNL A   1      34.978  32.841  30.891  1.00  0.00     0.198 A 
ATOM     76  C   UNL A   1      35.312  33.725  28.685  1.00  0.00     0.198 A 
ATOM     77  F   UNL A   1      37.392  33.456  27.614  1.00  0.00    -0.203 F 
ATOM     78  F   UNL A   1      34.179  32.612  31.942  1.00  0.00    -0.200 F 
ATOM     79  C   UNL A   1      34.489  33.514  29.781  1.00  0.00     0.200 A 
ATOM     80  F   UNL A   1      34.848  34.387  27.616  1.00  0.00    -0.200 F 
ATOM     81  F   UNL A   1      33.224  33.953  29.766  1.00  0.00    -0.200 F 
ENDBRANCH  47  71
BRANCH  59  82
ATOM     82  C   UNL A   1      43.226  35.418  31.652  1.00  0.00     0.064 A 
ATOM     83  C   UNL A   1      43.196  35.760  33.011  1.00  0.00     0.173 A 
ATOM     84  C   UNL A   1      43.662  36.390  30.738  1.00  0.00     0.173 A 
ATOM     85  F   UNL A   1      42.772  34.870  33.921  1.00  0.00    -0.203 F 
ATOM     86  C   UNL A   1      43.567  37.033  33.436  1.00  0.00     0.198 A 
ATOM     87  C   UNL A   1      44.058  37.653  31.169  1.00  0.00     0.198 A 
ATOM     88  F   UNL A   1      43.716  36.110  29.427  1.00  0.00    -0.203 F 
ATOM     89  F   UNL A   1      43.489  37.351  34.736  1.00  0.00    -0.200 F 
ATOM     90  C   UNL A   1      44.004  37.975  32.517  1.00  0.00     0.200 A 
ATOM     91  F   UNL A   1      44.491  38.558  30.281  1.00  0.00    -0.200 F 
ATOM     92  F   UNL A   1      44.366  39.197  32.929  1.00  0.00    -0.200 F 
ENDBRANCH  59  82
ENDBRANCH  33  34
ENDBRANCH  25  28
ENDBRANCH  23  24
ENDBRANCH  22  23
ENDBRANCH   1  22
TORSDOF 13
ENDMDL
