MODEL 1
REMARK VINA RESULT:     -12.5      0.000      0.000
REMARK SMILES Cc1cc2c(c(C)c1Br)C=C(C(=O)NCCCNC(=O)c1ccc(-c3c4nc(c(-c5c(F)c(F)c(F)c(F)c5F)c5ccc([nH]5)c(-c5c(F)c(F)c(F)c(F)c5F)c5nc(c(-c6c(F)c(F)c(F)c(F)c6F)c6ccc3[nH]6)C=C5)C=C4)cc1)[C@@H](C(F)(F)F)O2
REMARK SMILES IDX 16 1 15 2 14 3 12 4 13 5 11 7 1 8 2 9 3 10 8 11 4 12 6 13
REMARK SMILES IDX 9 14 5 15 89 16 7 17 10 18 84 19 85 20 86 21 87 22 88 23
REMARK SMILES IDX 17 24 18 25 19 26 20 28 21 29 22 30 83 31 23 32 82 33 24 34
REMARK SMILES IDX 25 35 26 36 76 37 27 38 81 39 75 40 77 41 28 42 80 43 74 44
REMARK SMILES IDX 73 45 29 47 61 48 41 49 60 50 42 51 45 52 59 53 78 54 43 55
REMARK SMILES IDX 44 56 58 58 79 59 46 60 30 61 31 62 39 63 32 64 33 65 37 66
REMARK SMILES IDX 40 67 34 68 35 69 38 70 36 71 62 72 63 73 71 74 64 75 65 76
REMARK SMILES IDX 69 77 72 78 66 79 67 80 70 81 68 82 47 83 48 84 56 85 49 86
REMARK SMILES IDX 50 87 54 88 57 89 51 90 52 91 55 92 53 93
REMARK H PARENT 14 6 18 27 77 46 45 57
REMARK Flexibility Score: inf
ROOT
ATOM      1  C   UNL A   1      33.870  28.431  24.868  1.00  0.00     0.042 C 
ENDROOT
BRANCH   1   2
ATOM      2  C   UNL A   1      32.998  27.291  24.370  1.00  0.00     0.118 C 
BRANCH   2   3
ATOM      3  N   UNL A   1      32.167  26.742  25.430  1.00  0.00    -0.352 N 
ATOM      4  C   UNL A   1      31.974  25.538  26.020  1.00  0.00     0.251 C 
ATOM      5  O   UNL A   1      31.128  25.527  26.919  1.00  0.00    -0.270 OA
ATOM      6  H   UNL A   1      31.587  27.432  25.825  1.00  0.00     0.163 HD
BRANCH   4   7
ATOM      7  C   UNL A   1      32.691  24.282  25.657  1.00  0.00     0.067 C 
ATOM      8  C   UNL A   1      36.677  19.222  24.831  1.00  0.00     0.046 C 
ATOM      9  C   UNL A   1      36.101  20.581  25.128  1.00  0.00    -0.033 A 
ATOM     10  C   UNL A   1      34.713  20.693  24.999  1.00  0.00     0.051 A 
ATOM     11  C   UNL A   1      36.837  21.717  25.527  1.00  0.00     0.024 A 
ATOM     12  C   UNL A   1      34.066  21.893  25.256  1.00  0.00     0.128 A 
ATOM     13  C   UNL A   1      36.185  22.953  25.796  1.00  0.00    -0.026 A 
ATOM     14  Br  UNL A   1      38.736  21.567  25.720  1.00  0.00    -0.050 Br
ATOM     15  C   UNL A   1      34.776  23.025  25.666  1.00  0.00     0.021 A 
ATOM     16  O   UNL A   1      32.708  21.857  25.127  1.00  0.00    -0.475 OA
ATOM     17  C   UNL A   1      36.938  24.191  26.232  1.00  0.00     0.046 C 
ATOM     18  C   UNL A   1      33.993  24.224  25.989  1.00  0.00     0.026 C 
ATOM     19  C   UNL A   1      32.046  23.132  24.950  1.00  0.00     0.314 C 
BRANCH  19  20
ATOM     20  C   UNL A   1      31.832  23.399  23.448  1.00  0.00     0.429 C 
ATOM     21  F   UNL A   1      31.975  22.250  22.740  1.00  0.00    -0.167 F 
ATOM     22  F   UNL A   1      30.589  23.863  23.173  1.00  0.00    -0.167 F 
ATOM     23  F   UNL A   1      32.705  24.298  22.944  1.00  0.00    -0.167 F 
ENDBRANCH  19  20
ENDBRANCH   4   7
ENDBRANCH   2   3
ENDBRANCH   1   2
BRANCH   1  24
ATOM     24  C   UNL A   1      33.776  28.604  26.378  1.00  0.00     0.118 C 
BRANCH  24  25
ATOM     25  N   UNL A   1      33.721  30.013  26.759  1.00  0.00    -0.352 N 
ATOM     26  C   UNL A   1      34.506  30.725  27.628  1.00  0.00     0.251 C 
ATOM     27  H   UNL A   1      33.007  30.533  26.324  1.00  0.00     0.163 HD
ATOM     28  O   UNL A   1      34.133  31.823  28.037  1.00  0.00    -0.269 OA
BRANCH  26  29
ATOM     29  C   UNL A   1      35.799  30.173  28.073  1.00  0.00     0.039 A 
ATOM     30  C   UNL A   1      36.902  30.233  27.220  1.00  0.00     0.014 A 
ATOM     31  C   UNL A   1      35.911  29.576  29.331  1.00  0.00     0.014 A 
ATOM     32  C   UNL A   1      38.136  29.752  27.660  1.00  0.00     0.010 A 
ATOM     33  C   UNL A   1      37.157  29.194  29.805  1.00  0.00     0.010 A 
ATOM     34  C   UNL A   1      38.279  29.263  28.969  1.00  0.00    -0.014 A 
BRANCH  34  35
ATOM     35  C   UNL A   1      39.583  28.775  29.476  1.00  0.00     0.031 A 
ATOM     36  C   UNL A   1      40.295  29.549  30.552  1.00  0.00     0.074 A 
ATOM     37  C   UNL A   1      40.138  27.672  28.939  1.00  0.00     0.049 A 
ATOM     38  N   UNL A   1      41.475  29.337  31.077  1.00  0.00    -0.248 NA
ATOM     39  C   UNL A   1      39.602  30.730  31.096  1.00  0.00     0.031 C 
ATOM     40  C   UNL A   1      39.550  26.861  27.871  1.00  0.00     0.029 A 
ATOM     41  N   UNL A   1      41.322  27.039  29.220  1.00  0.00    -0.354 N 
ATOM     42  C   UNL A   1      41.657  30.351  32.009  1.00  0.00     0.074 A 
ATOM     43  C   UNL A   1      40.509  31.221  31.927  1.00  0.00     0.031 C 
ATOM     44  C   UNL A   1      40.353  25.815  27.620  1.00  0.00     0.029 A 
ATOM     45  C   UNL A   1      41.534  25.905  28.472  1.00  0.00     0.049 A 
ATOM     46  H   UNL A   1      41.962  27.366  29.895  1.00  0.00     0.167 HD
ATOM     47  C   UNL A   1      42.676  30.513  32.884  1.00  0.00     0.037 A 
ATOM     48  C   UNL A   1      42.566  25.041  28.480  1.00  0.00     0.037 A 
ATOM     49  C   UNL A   1      43.801  29.627  32.982  1.00  0.00     0.049 A 
ATOM     50  C   UNL A   1      43.711  25.285  29.428  1.00  0.00     0.074 A 
ATOM     51  C   UNL A   1      44.879  29.697  33.846  1.00  0.00     0.029 A 
ATOM     52  N   UNL A   1      43.987  28.499  32.197  1.00  0.00    -0.354 N 
ATOM     53  N   UNL A   1      43.853  26.225  30.331  1.00  0.00    -0.248 NA
ATOM     54  C   UNL A   1      44.840  24.346  29.359  1.00  0.00     0.031 C 
ATOM     55  C   UNL A   1      45.734  28.631  33.562  1.00  0.00     0.029 A 
ATOM     56  C   UNL A   1      45.167  27.870  32.552  1.00  0.00     0.049 A 
ATOM     57  H   UNL A   1      43.370  28.191  31.493  1.00  0.00     0.167 HD
ATOM     58  C   UNL A   1      45.064  25.970  30.960  1.00  0.00     0.074 A 
ATOM     59  C   UNL A   1      45.609  24.777  30.349  1.00  0.00     0.031 C 
ATOM     60  C   UNL A   1      45.674  26.664  31.951  1.00  0.00     0.037 A 
BRANCH  47  61
ATOM     61  C   UNL A   1      42.602  31.662  33.845  1.00  0.00     0.064 A 
ATOM     62  C   UNL A   1      43.132  32.918  33.511  1.00  0.00     0.173 A 
ATOM     63  C   UNL A   1      41.912  31.541  35.059  1.00  0.00     0.173 A 
ATOM     64  F   UNL A   1      43.816  33.079  32.368  1.00  0.00    -0.203 F 
ATOM     65  C   UNL A   1      42.973  34.010  34.357  1.00  0.00     0.198 A 
ATOM     66  C   UNL A   1      41.729  32.643  35.890  1.00  0.00     0.198 A 
ATOM     67  F   UNL A   1      41.384  30.362  35.423  1.00  0.00    -0.203 F 
ATOM     68  F   UNL A   1      43.505  35.195  34.027  1.00  0.00    -0.200 F 
ATOM     69  C   UNL A   1      42.259  33.875  35.539  1.00  0.00     0.200 A 
ATOM     70  F   UNL A   1      41.027  32.515  37.025  1.00  0.00    -0.200 F 
ATOM     71  F   UNL A   1      42.079  34.936  36.338  1.00  0.00    -0.200 F 
ENDBRANCH  47  61
BRANCH  48  72
ATOM     72  C   UNL A   1      42.561  23.848  27.592  1.00  0.00     0.064 A 
ATOM     73  C   UNL A   1      42.151  22.597  28.080  1.00  0.00     0.173 A 
ATOM     74  C   UNL A   1      42.991  23.915  26.259  1.00  0.00     0.173 A 
ATOM     75  F   UNL A   1      41.749  22.475  29.353  1.00  0.00    -0.203 F 
ATOM     76  C   UNL A   1      42.204  21.457  27.280  1.00  0.00     0.198 A 
ATOM     77  C   UNL A   1      43.012  22.780  25.449  1.00  0.00     0.198 A 
ATOM     78  F   UNL A   1      43.389  25.085  25.739  1.00  0.00    -0.203 F 
ATOM     79  F   UNL A   1      41.864  20.267  27.793  1.00  0.00    -0.200 F 
ATOM     80  C   UNL A   1      42.630  21.550  25.964  1.00  0.00     0.200 A 
ATOM     81  F   UNL A   1      43.410  22.877  24.175  1.00  0.00    -0.200 F 
ATOM     82  F   UNL A   1      42.684  20.454  25.197  1.00  0.00    -0.200 F 
ENDBRANCH  48  72
BRANCH  60  83
ATOM     83  C   UNL A   1      46.978  26.137  32.470  1.00  0.00     0.064 A 
ATOM     84  C   UNL A   1      47.027  25.217  33.526  1.00  0.00     0.173 A 
ATOM     85  C   UNL A   1      48.184  26.490  31.846  1.00  0.00     0.173 A 
ATOM     86  F   UNL A   1      45.902  24.857  34.161  1.00  0.00    -0.203 F 
ATOM     87  C   UNL A   1      48.239  24.680  33.948  1.00  0.00     0.198 A 
ATOM     88  C   UNL A   1      49.390  25.926  32.250  1.00  0.00     0.198 A 
ATOM     89  F   UNL A   1      48.189  27.358  30.823  1.00  0.00    -0.203 F 
ATOM     90  F   UNL A   1      48.267  23.829  34.983  1.00  0.00    -0.200 F 
ATOM     91  C   UNL A   1      49.418  25.026  33.304  1.00  0.00     0.200 A 
ATOM     92  F   UNL A   1      50.524  26.245  31.612  1.00  0.00    -0.200 F 
ATOM     93  F   UNL A   1      50.581  24.490  33.698  1.00  0.00    -0.200 F 
ENDBRANCH  60  83
ENDBRANCH  34  35
ENDBRANCH  26  29
ENDBRANCH  24  25
ENDBRANCH   1  24
TORSDOF 11
ENDMDL
MODEL 2
REMARK VINA RESULT:     -12.4      4.383      7.932
REMARK SMILES Cc1cc2c(c(C)c1Br)C=C(C(=O)NCCCNC(=O)c1ccc(-c3c4nc(c(-c5c(F)c(F)c(F)c(F)c5F)c5ccc([nH]5)c(-c5c(F)c(F)c(F)c(F)c5F)c5nc(c(-c6c(F)c(F)c(F)c(F)c6F)c6ccc3[nH]6)C=C5)C=C4)cc1)[C@@H](C(F)(F)F)O2
REMARK SMILES IDX 16 1 15 2 14 3 12 4 13 5 11 7 1 8 2 9 3 10 8 11 4 12 6 13
REMARK SMILES IDX 9 14 5 15 89 16 7 17 10 18 84 19 85 20 86 21 87 22 88 23
REMARK SMILES IDX 17 24 18 25 19 26 20 28 21 29 22 30 83 31 23 32 82 33 24 34
REMARK SMILES IDX 25 35 26 36 76 37 27 38 81 39 75 40 77 41 28 42 80 43 74 44
REMARK SMILES IDX 73 45 29 47 61 48 41 49 60 50 42 51 45 52 59 53 78 54 43 55
REMARK SMILES IDX 44 56 58 58 79 59 46 60 30 61 31 62 39 63 32 64 33 65 37 66
REMARK SMILES IDX 40 67 34 68 35 69 38 70 36 71 62 72 63 73 71 74 64 75 65 76
REMARK SMILES IDX 69 77 72 78 66 79 67 80 70 81 68 82 47 83 48 84 56 85 49 86
REMARK SMILES IDX 50 87 54 88 57 89 51 90 52 91 55 92 53 93
REMARK H PARENT 14 6 18 27 77 46 45 57
REMARK Flexibility Score: inf
ROOT
ATOM      1  C   UNL A   1      37.837  19.628  24.868  1.00  0.00     0.042 C 
ENDROOT
BRANCH   1   2
ATOM      2  C   UNL A   1      36.536  20.399  25.024  1.00  0.00     0.118 C 
BRANCH   2   3
ATOM      3  N   UNL A   1      35.377  19.523  24.952  1.00  0.00    -0.352 N 
ATOM      4  C   UNL A   1      34.030  19.655  24.956  1.00  0.00     0.251 C 
ATOM      5  O   UNL A   1      33.401  18.595  24.876  1.00  0.00    -0.270 OA
ATOM      6  H   UNL A   1      35.645  18.579  24.883  1.00  0.00     0.163 HD
BRANCH   4   7
ATOM      7  C   UNL A   1      33.296  20.949  25.052  1.00  0.00     0.067 C 
ATOM      8  C   UNL A   1      30.107  26.550  24.249  1.00  0.00     0.046 C 
ATOM      9  C   UNL A   1      30.978  25.337  24.058  1.00  0.00    -0.033 A 
ATOM     10  C   UNL A   1      30.981  24.420  25.115  1.00  0.00     0.051 A 
ATOM     11  C   UNL A   1      31.760  25.057  22.917  1.00  0.00     0.024 A 
ATOM     12  C   UNL A   1      31.738  23.258  25.050  1.00  0.00     0.128 A 
ATOM     13  C   UNL A   1      32.538  23.869  22.838  1.00  0.00    -0.026 A 
ATOM     14  Br  UNL A   1      31.748  26.300  21.462  1.00  0.00    -0.050 Br
ATOM     15  C   UNL A   1      32.508  22.958  23.923  1.00  0.00     0.021 A 
ATOM     16  O   UNL A   1      31.625  22.434  26.131  1.00  0.00    -0.475 OA
ATOM     17  C   UNL A   1      33.386  23.531  21.630  1.00  0.00     0.046 C 
ATOM     18  C   UNL A   1      33.210  21.669  23.918  1.00  0.00     0.026 C 
ATOM     19  C   UNL A   1      32.687  21.468  26.317  1.00  0.00     0.314 C 
BRANCH  19  20
ATOM     20  C   UNL A   1      33.734  22.033  27.295  1.00  0.00     0.429 C 
ATOM     21  F   UNL A   1      33.122  22.579  28.376  1.00  0.00    -0.167 F 
ATOM     22  F   UNL A   1      34.570  21.078  27.772  1.00  0.00    -0.167 F 
ATOM     23  F   UNL A   1      34.510  22.990  26.740  1.00  0.00    -0.167 F 
ENDBRANCH  19  20
ENDBRANCH   4   7
ENDBRANCH   2   3
ENDBRANCH   1   2
BRANCH   1  24
ATOM     24  C   UNL A   1      38.942  20.190  25.751  1.00  0.00     0.118 C 
BRANCH  24  25
ATOM     25  N   UNL A   1      39.998  19.208  25.987  1.00  0.00    -0.352 N 
ATOM     26  C   UNL A   1      41.350  19.380  26.127  1.00  0.00     0.251 C 
ATOM     27  H   UNL A   1      39.689  18.276  26.054  1.00  0.00     0.163 HD
ATOM     28  O   UNL A   1      42.106  18.415  26.032  1.00  0.00    -0.269 OA
BRANCH  26  29
ATOM     29  C   UNL A   1      41.898  20.723  26.392  1.00  0.00     0.039 A 
ATOM     30  C   UNL A   1      42.178  21.575  25.323  1.00  0.00     0.014 A 
ATOM     31  C   UNL A   1      42.152  21.130  27.704  1.00  0.00     0.014 A 
ATOM     32  C   UNL A   1      42.653  22.862  25.577  1.00  0.00     0.010 A 
ATOM     33  C   UNL A   1      42.524  22.441  27.960  1.00  0.00     0.010 A 
ATOM     34  C   UNL A   1      42.794  23.315  26.899  1.00  0.00    -0.014 A 
BRANCH  34  35
ATOM     35  C   UNL A   1      43.265  24.687  27.201  1.00  0.00     0.031 A 
ATOM     36  C   UNL A   1      42.302  25.692  27.773  1.00  0.00     0.074 A 
ATOM     37  C   UNL A   1      44.536  25.034  26.921  1.00  0.00     0.049 A 
ATOM     38  N   UNL A   1      42.491  26.960  28.035  1.00  0.00    -0.248 NA
ATOM     39  C   UNL A   1      40.939  25.217  28.068  1.00  0.00     0.031 C 
ATOM     40  C   UNL A   1      45.548  24.150  26.339  1.00  0.00     0.029 A 
ATOM     41  N   UNL A   1      45.197  26.224  27.091  1.00  0.00    -0.354 N 
ATOM     42  C   UNL A   1      41.278  27.425  28.526  1.00  0.00     0.074 A 
ATOM     43  C   UNL A   1      40.338  26.332  28.456  1.00  0.00     0.031 C 
ATOM     44  C   UNL A   1      46.710  24.814  26.243  1.00  0.00     0.029 A 
ATOM     45  C   UNL A   1      46.517  26.183  26.710  1.00  0.00     0.049 A 
ATOM     46  H   UNL A   1      44.766  27.034  27.452  1.00  0.00     0.167 HD
ATOM     47  C   UNL A   1      40.990  28.646  29.031  1.00  0.00     0.037 A 
ATOM     48  C   UNL A   1      47.459  27.145  26.738  1.00  0.00     0.037 A 
ATOM     49  C   UNL A   1      41.938  29.721  29.127  1.00  0.00     0.049 A 
ATOM     50  C   UNL A   1      47.087  28.510  27.254  1.00  0.00     0.074 A 
ATOM     51  C   UNL A   1      41.748  30.993  29.637  1.00  0.00     0.029 A 
ATOM     52  N   UNL A   1      43.260  29.645  28.716  1.00  0.00    -0.354 N 
ATOM     53  N   UNL A   1      45.948  28.926  27.752  1.00  0.00    -0.248 NA
ATOM     54  C   UNL A   1      48.133  29.542  27.212  1.00  0.00     0.031 C 
ATOM     55  C   UNL A   1      42.945  31.698  29.503  1.00  0.00     0.029 A 
ATOM     56  C   UNL A   1      43.895  30.852  28.954  1.00  0.00     0.049 A 
ATOM     57  H   UNL A   1      43.684  28.851  28.317  1.00  0.00     0.167 HD
ATOM     58  C   UNL A   1      46.151  30.250  28.116  1.00  0.00     0.074 A 
ATOM     59  C   UNL A   1      47.528  30.565  27.798  1.00  0.00     0.031 C 
ATOM     60  C   UNL A   1      45.276  31.131  28.659  1.00  0.00     0.037 A 
BRANCH  47  61
ATOM     61  C   UNL A   1      39.610  28.879  29.569  1.00  0.00     0.064 A 
ATOM     62  C   UNL A   1      39.309  28.632  30.917  1.00  0.00     0.173 A 
ATOM     63  C   UNL A   1      38.611  29.446  28.765  1.00  0.00     0.173 A 
ATOM     64  F   UNL A   1      40.226  28.074  31.722  1.00  0.00    -0.203 F 
ATOM     65  C   UNL A   1      38.059  28.945  31.441  1.00  0.00     0.198 A 
ATOM     66  C   UNL A   1      37.371  29.785  29.299  1.00  0.00     0.198 A 
ATOM     67  F   UNL A   1      38.850  29.703  27.470  1.00  0.00    -0.203 F 
ATOM     68  F   UNL A   1      37.788  28.682  32.727  1.00  0.00    -0.200 F 
ATOM     69  C   UNL A   1      37.096  29.535  30.635  1.00  0.00     0.200 A 
ATOM     70  F   UNL A   1      36.445  30.367  28.523  1.00  0.00    -0.200 F 
ATOM     71  F   UNL A   1      35.903  29.865  31.149  1.00  0.00    -0.200 F 
ENDBRANCH  47  61
BRANCH  48  72
ATOM     72  C   UNL A   1      48.850  26.855  26.300  1.00  0.00     0.064 A 
ATOM     73  C   UNL A   1      49.226  27.028  24.959  1.00  0.00     0.173 A 
ATOM     74  C   UNL A   1      49.821  26.371  27.188  1.00  0.00     0.173 A 
ATOM     75  F   UNL A   1      48.329  27.470  24.064  1.00  0.00    -0.203 F 
ATOM     76  C   UNL A   1      50.506  26.697  24.519  1.00  0.00     0.198 A 
ATOM     77  C   UNL A   1      51.111  26.072  26.754  1.00  0.00     0.198 A 
ATOM     78  F   UNL A   1      49.518  26.191  28.482  1.00  0.00    -0.203 F 
ATOM     79  F   UNL A   1      50.817  26.816  23.220  1.00  0.00    -0.200 F 
ATOM     80  C   UNL A   1      51.449  26.224  25.417  1.00  0.00     0.200 A 
ATOM     81  F   UNL A   1      52.024  25.628  27.628  1.00  0.00    -0.200 F 
ATOM     82  F   UNL A   1      52.678  25.902  24.994  1.00  0.00    -0.200 F 
ENDBRANCH  48  72
BRANCH  60  83
ATOM     83  C   UNL A   1      45.781  32.504  28.985  1.00  0.00     0.064 A 
ATOM     84  C   UNL A   1      45.643  33.568  28.083  1.00  0.00     0.173 A 
ATOM     85  C   UNL A   1      46.329  32.777  30.248  1.00  0.00     0.173 A 
ATOM     86  F   UNL A   1      45.135  33.355  26.860  1.00  0.00    -0.203 F 
ATOM     87  C   UNL A   1      46.049  34.853  28.428  1.00  0.00     0.198 A 
ATOM     88  C   UNL A   1      46.703  34.069  30.601  1.00  0.00     0.198 A 
ATOM     89  F   UNL A   1      46.470  31.794  31.151  1.00  0.00    -0.203 F 
ATOM     90  F   UNL A   1      45.942  35.849  27.538  1.00  0.00    -0.200 F 
ATOM     91  C   UNL A   1      46.568  35.105  29.690  1.00  0.00     0.200 A 
ATOM     92  F   UNL A   1      47.184  34.314  31.828  1.00  0.00    -0.200 F 
ATOM     93  F   UNL A   1      46.938  36.348  30.028  1.00  0.00    -0.200 F 
ENDBRANCH  60  83
ENDBRANCH  34  35
ENDBRANCH  26  29
ENDBRANCH  24  25
ENDBRANCH   1  24
TORSDOF 11
ENDMDL
MODEL 3
REMARK VINA RESULT:     -12.4      3.813      9.015
REMARK SMILES Cc1cc2c(c(C)c1Br)C=C(C(=O)NCCCNC(=O)c1ccc(-c3c4nc(c(-c5c(F)c(F)c(F)c(F)c5F)c5ccc([nH]5)c(-c5c(F)c(F)c(F)c(F)c5F)c5nc(c(-c6c(F)c(F)c(F)c(F)c6F)c6ccc3[nH]6)C=C5)C=C4)cc1)[C@@H](C(F)(F)F)O2
REMARK SMILES IDX 16 1 15 2 14 3 12 4 13 5 11 7 1 8 2 9 3 10 8 11 4 12 6 13
REMARK SMILES IDX 9 14 5 15 89 16 7 17 10 18 84 19 85 20 86 21 87 22 88 23
REMARK SMILES IDX 17 24 18 25 19 26 20 28 21 29 22 30 83 31 23 32 82 33 24 34
REMARK SMILES IDX 25 35 26 36 76 37 27 38 81 39 75 40 77 41 28 42 80 43 74 44
REMARK SMILES IDX 73 45 29 47 61 48 41 49 60 50 42 51 45 52 59 53 78 54 43 55
REMARK SMILES IDX 44 56 58 58 79 59 46 60 30 61 31 62 39 63 32 64 33 65 37 66
REMARK SMILES IDX 40 67 34 68 35 69 38 70 36 71 62 72 63 73 71 74 64 75 65 76
REMARK SMILES IDX 69 77 72 78 66 79 67 80 70 81 68 82 47 83 48 84 56 85 49 86
REMARK SMILES IDX 50 87 54 88 57 89 51 90 52 91 55 92 53 93
REMARK H PARENT 14 6 18 27 77 46 45 57
REMARK Flexibility Score: inf
ROOT
ATOM      1  C   UNL A   1      35.113  23.329  26.537  1.00  0.00     0.042 C 
ENDROOT
BRANCH   1   2
ATOM      2  C   UNL A   1      33.866  23.213  25.675  1.00  0.00     0.118 C 
BRANCH   2   3
ATOM      3  N   UNL A   1      34.118  23.624  24.302  1.00  0.00    -0.352 N 
ATOM      4  C   UNL A   1      33.855  24.698  23.522  1.00  0.00     0.251 C 
ATOM      5  O   UNL A   1      34.271  24.617  22.362  1.00  0.00    -0.270 OA
ATOM      6  H   UNL A   1      34.613  22.933  23.806  1.00  0.00     0.163 HD
BRANCH   4   7
ATOM      7  C   UNL A   1      33.120  25.918  23.963  1.00  0.00     0.067 C 
ATOM      8  C   UNL A   1      31.028  31.669  26.138  1.00  0.00     0.046 C 
ATOM      9  C   UNL A   1      31.836  30.429  25.866  1.00  0.00    -0.033 A 
ATOM     10  C   UNL A   1      31.268  29.520  24.966  1.00  0.00     0.051 A 
ATOM     11  C   UNL A   1      33.095  30.128  26.427  1.00  0.00     0.024 A 
ATOM     12  C   UNL A   1      31.924  28.344  24.628  1.00  0.00     0.128 A 
ATOM     13  C   UNL A   1      33.779  28.927  26.087  1.00  0.00    -0.026 A 
ATOM     14  Br  UNL A   1      33.884  31.374  27.647  1.00  0.00    -0.050 Br
ATOM     15  C   UNL A   1      33.178  28.036  25.163  1.00  0.00     0.021 A 
ATOM     16  O   UNL A   1      31.278  27.565  23.714  1.00  0.00    -0.475 OA
ATOM     17  C   UNL A   1      35.132  28.572  26.663  1.00  0.00     0.046 C 
ATOM     18  C   UNL A   1      33.825  26.809  24.684  1.00  0.00     0.026 C 
ATOM     19  C   UNL A   1      31.676  26.174  23.662  1.00  0.00     0.314 C 
BRANCH  19  20
ATOM     20  C   UNL A   1      30.726  25.331  24.533  1.00  0.00     0.429 C 
ATOM     21  F   UNL A   1      30.686  24.051  24.084  1.00  0.00    -0.167 F 
ATOM     22  F   UNL A   1      31.124  25.268  25.827  1.00  0.00    -0.167 F 
ATOM     23  F   UNL A   1      29.459  25.801  24.537  1.00  0.00    -0.167 F 
ENDBRANCH  19  20
ENDBRANCH   4   7
ENDBRANCH   2   3
ENDBRANCH   1   2
BRANCH   1  24
ATOM     24  C   UNL A   1      36.363  23.570  25.703  1.00  0.00     0.118 C 
BRANCH  24  25
ATOM     25  N   UNL A   1      37.412  22.600  26.007  1.00  0.00    -0.352 N 
ATOM     26  C   UNL A   1      38.709  22.795  26.402  1.00  0.00     0.251 C 
ATOM     27  H   UNL A   1      37.144  21.657  25.911  1.00  0.00     0.163 HD
ATOM     28  O   UNL A   1      39.519  21.872  26.331  1.00  0.00    -0.269 OA
BRANCH  26  29
ATOM     29  C   UNL A   1      39.133  24.111  26.911  1.00  0.00     0.039 A 
ATOM     30  C   UNL A   1      38.864  24.455  28.237  1.00  0.00     0.014 A 
ATOM     31  C   UNL A   1      39.781  25.014  26.066  1.00  0.00     0.014 A 
ATOM     32  C   UNL A   1      39.307  25.683  28.731  1.00  0.00     0.010 A 
ATOM     33  C   UNL A   1      40.311  26.187  26.583  1.00  0.00     0.010 A 
ATOM     34  C   UNL A   1      40.065  26.540  27.917  1.00  0.00    -0.014 A 
BRANCH  34  35
ATOM     35  C   UNL A   1      40.576  27.836  28.422  1.00  0.00     0.031 A 
ATOM     36  C   UNL A   1      42.060  28.044  28.558  1.00  0.00     0.074 A 
ATOM     37  C   UNL A   1      39.710  28.797  28.795  1.00  0.00     0.049 A 
ATOM     38  N   UNL A   1      42.708  29.069  29.050  1.00  0.00    -0.248 NA
ATOM     39  C   UNL A   1      42.933  26.947  28.105  1.00  0.00     0.031 C 
ATOM     40  C   UNL A   1      38.250  28.694  28.732  1.00  0.00     0.029 A 
ATOM     41  N   UNL A   1      39.929  30.054  29.298  1.00  0.00    -0.354 N 
ATOM     42  C   UNL A   1      44.054  28.739  28.959  1.00  0.00     0.074 A 
ATOM     43  C   UNL A   1      44.134  27.395  28.440  1.00  0.00     0.031 C 
ATOM     44  C   UNL A   1      37.709  29.853  29.137  1.00  0.00     0.029 A 
ATOM     45  C   UNL A   1      38.777  30.765  29.533  1.00  0.00     0.049 A 
ATOM     46  H   UNL A   1      40.829  30.414  29.476  1.00  0.00     0.167 HD
ATOM     47  C   UNL A   1      45.128  29.510  29.244  1.00  0.00     0.037 A 
ATOM     48  C   UNL A   1      38.609  32.012  30.012  1.00  0.00     0.037 A 
ATOM     49  C   UNL A   1      45.044  30.858  29.732  1.00  0.00     0.049 A 
ATOM     50  C   UNL A   1      39.827  32.822  30.373  1.00  0.00     0.074 A 
ATOM     51  C   UNL A   1      46.075  31.729  30.038  1.00  0.00     0.029 A 
ATOM     52  N   UNL A   1      43.859  31.537  29.971  1.00  0.00    -0.354 N 
ATOM     53  N   UNL A   1      41.095  32.513  30.246  1.00  0.00    -0.248 NA
ATOM     54  C   UNL A   1      39.590  34.155  30.945  1.00  0.00     0.031 C 
ATOM     55  C   UNL A   1      45.514  32.923  30.494  1.00  0.00     0.029 A 
ATOM     56  C   UNL A   1      44.134  32.814  30.429  1.00  0.00     0.049 A 
ATOM     57  H   UNL A   1      42.957  31.167  29.834  1.00  0.00     0.167 HD
ATOM     58  C   UNL A   1      41.803  33.623  30.684  1.00  0.00     0.074 A 
ATOM     59  C   UNL A   1      40.826  34.620  31.065  1.00  0.00     0.031 C 
ATOM     60  C   UNL A   1      43.144  33.800  30.771  1.00  0.00     0.037 A 
BRANCH  47  61
ATOM     61  C   UNL A   1      46.492  28.940  28.991  1.00  0.00     0.064 A 
ATOM     62  C   UNL A   1      47.168  28.215  29.984  1.00  0.00     0.173 A 
ATOM     63  C   UNL A   1      47.083  29.028  27.722  1.00  0.00     0.173 A 
ATOM     64  F   UNL A   1      46.651  28.118  31.218  1.00  0.00    -0.203 F 
ATOM     65  C   UNL A   1      48.386  27.598  29.716  1.00  0.00     0.198 A 
ATOM     66  C   UNL A   1      48.288  28.385  27.450  1.00  0.00     0.198 A 
ATOM     67  F   UNL A   1      46.475  29.708  26.738  1.00  0.00    -0.203 F 
ATOM     68  F   UNL A   1      49.023  26.928  30.687  1.00  0.00    -0.200 F 
ATOM     69  C   UNL A   1      48.937  27.671  28.446  1.00  0.00     0.200 A 
ATOM     70  F   UNL A   1      48.813  28.444  26.218  1.00  0.00    -0.200 F 
ATOM     71  F   UNL A   1      50.095  27.049  28.181  1.00  0.00    -0.200 F 
ENDBRANCH  47  61
BRANCH  48  72
ATOM     72  C   UNL A   1      37.246  32.593  30.150  1.00  0.00     0.064 A 
ATOM     73  C   UNL A   1      36.750  33.485  29.187  1.00  0.00     0.173 A 
ATOM     74  C   UNL A   1      36.426  32.303  31.249  1.00  0.00     0.173 A 
ATOM     75  F   UNL A   1      37.503  33.810  28.125  1.00  0.00    -0.203 F 
ATOM     76  C   UNL A   1      35.503  34.089  29.336  1.00  0.00     0.198 A 
ATOM     77  C   UNL A   1      35.165  32.882  31.381  1.00  0.00     0.198 A 
ATOM     78  F   UNL A   1      36.848  31.454  32.198  1.00  0.00    -0.203 F 
ATOM     79  F   UNL A   1      35.082  34.983  28.431  1.00  0.00    -0.200 F 
ATOM     80  C   UNL A   1      34.710  33.784  30.431  1.00  0.00     0.200 A 
ATOM     81  F   UNL A   1      34.395  32.573  32.433  1.00  0.00    -0.200 F 
ATOM     82  F   UNL A   1      33.513  34.366  30.577  1.00  0.00    -0.200 F 
ENDBRANCH  48  72
BRANCH  60  83
ATOM     83  C   UNL A   1      43.641  35.130  31.256  1.00  0.00     0.064 A 
ATOM     84  C   UNL A   1      43.957  35.345  32.604  1.00  0.00     0.173 A 
ATOM     85  C   UNL A   1      43.886  36.170  30.346  1.00  0.00     0.173 A 
ATOM     86  F   UNL A   1      43.730  34.385  33.513  1.00  0.00    -0.203 F 
ATOM     87  C   UNL A   1      44.487  36.560  33.027  1.00  0.00     0.198 A 
ATOM     88  C   UNL A   1      44.447  37.371  30.767  1.00  0.00     0.198 A 
ATOM     89  F   UNL A   1      43.611  36.008  29.042  1.00  0.00    -0.203 F 
ATOM     90  F   UNL A   1      44.749  36.758  34.326  1.00  0.00    -0.200 F 
ATOM     91  C   UNL A   1      44.742  37.567  32.108  1.00  0.00     0.200 A 
ATOM     92  F   UNL A   1      44.712  38.334  29.875  1.00  0.00    -0.200 F 
ATOM     93  F   UNL A   1      45.273  38.728  32.514  1.00  0.00    -0.200 F 
ENDBRANCH  60  83
ENDBRANCH  34  35
ENDBRANCH  26  29
ENDBRANCH  24  25
ENDBRANCH   1  24
TORSDOF 11
ENDMDL
