MODEL 1
REMARK VINA RESULT:     -11.7      0.000      0.000
REMARK SMILES C[C@@H]1CC[C@@H](C(=O)NCCCNC(=O)c2ccc(-c3c4nc(c(-c5c(F)c(F)c(F)c(F)c5F)c5ccc([nH]5)c(-c5c(F)c(F)c(F)c(F)c5F)c5nc(c(-c6c(F)c(F)c(F)c(F)c6F)c6ccc3[nH]6)C=C5)C=C4)cc2)[C@H](SCC[NH+](C)C)C1
REMARK SMILES IDX 9 1 8 2 6 3 7 4 5 6 1 7 2 8 3 9 85 10 4 11 78 12 79 13 80 14
REMARK SMILES IDX 81 15 82 16 83 17 84 18 10 20 11 21 12 22 13 23 14 25 15 26
REMARK SMILES IDX 16 27 77 28 17 29 76 30 18 31 19 32 20 33 70 34 21 35 75 36
REMARK SMILES IDX 69 37 71 38 22 39 74 40 68 41 67 42 23 44 55 45 35 46 54 47
REMARK SMILES IDX 36 48 39 49 53 50 72 51 37 52 38 53 52 55 73 56 40 57 24 58
REMARK SMILES IDX 25 59 33 60 26 61 27 62 31 63 34 64 28 65 29 66 32 67 30 68
REMARK SMILES IDX 56 69 57 70 65 71 58 72 59 73 63 74 66 75 60 76 61 77 64 78
REMARK SMILES IDX 62 79 41 80 42 81 50 82 43 83 44 84 48 85 51 86 45 87 46 88
REMARK SMILES IDX 49 89 47 90
REMARK H PARENT 8 5 82 19 12 24 71 43 39 54
REMARK Flexibility Score: inf
ROOT
ATOM      1  C   UNL A   1      31.439  30.877  25.892  1.00  0.00     0.117 C 
ENDROOT
BRANCH   1   2
ATOM      2  N   UNL A   1      32.372  30.035  26.599  1.00  0.00    -0.356 N 
ATOM      3  C   UNL A   1      32.600  28.704  26.567  1.00  0.00     0.224 C 
ATOM      4  O   UNL A   1      33.523  28.314  27.289  1.00  0.00    -0.275 OA
ATOM      5  H   UNL A   1      32.955  30.524  27.225  1.00  0.00     0.163 HD
BRANCH   3   6
ATOM      6  C   UNL A   1      31.721  27.715  25.764  1.00  0.00     0.091 C 
ATOM      7  C   UNL A   1      33.675  25.240  23.066  1.00  0.00     0.007 C 
ATOM      8  C   UNL A   1      33.866  26.233  24.215  1.00  0.00    -0.013 C 
ATOM      9  C   UNL A   1      33.388  25.694  25.578  1.00  0.00     0.004 C 
ATOM     10  C   UNL A   1      33.364  27.616  23.806  1.00  0.00     0.018 C 
ATOM     11  C   UNL A   1      32.208  26.363  26.303  1.00  0.00     0.015 C 
ATOM     12  C   UNL A   1      31.937  27.976  24.250  1.00  0.00     0.059 C 
BRANCH  12  13
ATOM     13  S   UNL A   1      30.794  27.753  22.755  1.00  0.00    -0.152 SA
BRANCH  13  14
ATOM     14  C   UNL A   1      29.288  28.812  22.731  1.00  0.00     0.131 C 
BRANCH  14  15
ATOM     15  C   UNL A   1      29.438  30.333  23.082  1.00  0.00     0.272 C 
BRANCH  15  16
ATOM     16  N   UNL A   1      29.240  31.330  22.006  1.00  0.00    -0.339 N 
ATOM     17  C   UNL A   1      28.261  30.897  21.002  1.00  0.00     0.332 C 
ATOM     18  C   UNL A   1      28.873  32.615  22.537  1.00  0.00     0.332 C 
ATOM     19  H   UNL A   1      30.141  31.415  21.535  1.00  0.00     0.347 HD
ENDBRANCH  15  16
ENDBRANCH  14  15
ENDBRANCH  13  14
ENDBRANCH  12  13
ENDBRANCH   3   6
ENDBRANCH   1   2
BRANCH   1  20
ATOM     20  C   UNL A   1      31.239  32.234  26.559  1.00  0.00     0.042 C 
BRANCH  20  21
ATOM     21  C   UNL A   1      32.476  32.830  27.236  1.00  0.00     0.118 C 
BRANCH  21  22
ATOM     22  N   UNL A   1      32.320  34.226  27.625  1.00  0.00    -0.352 N 
ATOM     23  C   UNL A   1      32.991  34.980  28.553  1.00  0.00     0.251 C 
ATOM     24  H   UNL A   1      31.614  34.709  27.138  1.00  0.00     0.163 HD
ATOM     25  O   UNL A   1      32.597  36.120  28.806  1.00  0.00    -0.269 OA
BRANCH  23  26
ATOM     26  C   UNL A   1      34.160  34.440  29.278  1.00  0.00     0.039 A 
ATOM     27  C   UNL A   1      33.953  33.815  30.512  1.00  0.00     0.014 A 
ATOM     28  C   UNL A   1      35.455  34.569  28.773  1.00  0.00     0.014 A 
ATOM     29  C   UNL A   1      35.033  33.257  31.200  1.00  0.00     0.010 A 
ATOM     30  C   UNL A   1      36.519  33.939  29.417  1.00  0.00     0.010 A 
ATOM     31  C   UNL A   1      36.321  33.278  30.639  1.00  0.00    -0.014 A 
BRANCH  31  32
ATOM     32  C   UNL A   1      37.461  32.605  31.316  1.00  0.00     0.031 A 
ATOM     33  C   UNL A   1      38.190  31.474  30.644  1.00  0.00     0.074 A 
ATOM     34  C   UNL A   1      37.807  32.982  32.564  1.00  0.00     0.049 A 
ATOM     35  N   UNL A   1      39.182  30.746  31.093  1.00  0.00    -0.248 NA
ATOM     36  C   UNL A   1      37.726  31.092  29.302  1.00  0.00     0.031 C 
ATOM     37  C   UNL A   1      37.145  34.029  33.344  1.00  0.00     0.029 A 
ATOM     38  N   UNL A   1      38.797  32.525  33.398  1.00  0.00    -0.354 N 
ATOM     39  C   UNL A   1      39.451  29.817  30.094  1.00  0.00     0.074 A 
ATOM     40  C   UNL A   1      38.479  30.033  29.045  1.00  0.00     0.031 C 
ATOM     41  C   UNL A   1      37.766  34.156  34.528  1.00  0.00     0.029 A 
ATOM     42  C   UNL A   1      38.841  33.172  34.609  1.00  0.00     0.049 A 
ATOM     43  H   UNL A   1      39.417  31.801  33.151  1.00  0.00     0.167 HD
ATOM     44  C   UNL A   1      40.435  28.888  30.046  1.00  0.00     0.037 A 
ATOM     45  C   UNL A   1      39.654  32.991  35.667  1.00  0.00     0.037 A 
ATOM     46  C   UNL A   1      41.411  28.688  31.086  1.00  0.00     0.049 A 
ATOM     47  C   UNL A   1      40.733  31.944  35.592  1.00  0.00     0.074 A 
ATOM     48  C   UNL A   1      42.480  27.810  31.109  1.00  0.00     0.029 A 
ATOM     49  N   UNL A   1      41.430  29.374  32.292  1.00  0.00    -0.354 N 
ATOM     50  N   UNL A   1      41.024  31.124  34.612  1.00  0.00    -0.248 NA
ATOM     51  C   UNL A   1      41.603  31.806  36.768  1.00  0.00     0.031 C 
ATOM     52  C   UNL A   1      43.111  27.921  32.353  1.00  0.00     0.029 A 
ATOM     53  C   UNL A   1      42.480  28.920  33.078  1.00  0.00     0.049 A 
ATOM     54  H   UNL A   1      40.795  30.078  32.553  1.00  0.00     0.167 HD
ATOM     55  C   UNL A   1      42.132  30.401  35.035  1.00  0.00     0.074 A 
ATOM     56  C   UNL A   1      42.466  30.888  36.357  1.00  0.00     0.031 C 
ATOM     57  C   UNL A   1      42.811  29.423  34.386  1.00  0.00     0.037 A 
BRANCH  44  58
ATOM     58  C   UNL A   1      40.509  28.014  28.825  1.00  0.00     0.064 A 
ATOM     59  C   UNL A   1      39.812  26.799  28.744  1.00  0.00     0.173 A 
ATOM     60  C   UNL A   1      41.254  28.415  27.705  1.00  0.00     0.173 A 
ATOM     61  F   UNL A   1      39.091  26.363  29.788  1.00  0.00    -0.203 F 
ATOM     62  C   UNL A   1      39.886  26.002  27.604  1.00  0.00     0.198 A 
ATOM     63  C   UNL A   1      41.297  27.633  26.553  1.00  0.00     0.198 A 
ATOM     64  F   UNL A   1      41.934  29.571  27.722  1.00  0.00    -0.203 F 
ATOM     65  F   UNL A   1      39.256  24.819  27.573  1.00  0.00    -0.200 F 
ATOM     66  C   UNL A   1      40.621  26.424  26.507  1.00  0.00     0.200 A 
ATOM     67  F   UNL A   1      41.994  28.050  25.488  1.00  0.00    -0.200 F 
ATOM     68  F   UNL A   1      40.683  25.660  25.407  1.00  0.00    -0.200 F 
ENDBRANCH  44  58
BRANCH  45  69
ATOM     69  C   UNL A   1      39.498  33.840  36.880  1.00  0.00     0.064 A 
ATOM     70  C   UNL A   1      38.767  33.388  37.987  1.00  0.00     0.173 A 
ATOM     71  C   UNL A   1      40.066  35.121  36.953  1.00  0.00     0.173 A 
ATOM     72  F   UNL A   1      38.188  32.179  37.959  1.00  0.00    -0.203 F 
ATOM     73  C   UNL A   1      38.586  34.194  39.110  1.00  0.00     0.198 A 
ATOM     74  C   UNL A   1      39.913  35.913  38.090  1.00  0.00     0.198 A 
ATOM     75  F   UNL A   1      40.781  35.599  35.925  1.00  0.00    -0.203 F 
ATOM     76  F   UNL A   1      37.838  33.757  40.132  1.00  0.00    -0.200 F 
ATOM     77  C   UNL A   1      39.165  35.453  39.163  1.00  0.00     0.200 A 
ATOM     78  F   UNL A   1      40.489  37.121  38.144  1.00  0.00    -0.200 F 
ATOM     79  F   UNL A   1      38.994  36.226  40.243  1.00  0.00    -0.200 F 
ENDBRANCH  45  69
BRANCH  57  80
ATOM     80  C   UNL A   1      44.020  28.850  35.070  1.00  0.00     0.064 A 
ATOM     81  C   UNL A   1      43.937  27.733  35.915  1.00  0.00     0.173 A 
ATOM     82  C   UNL A   1      45.288  29.408  34.845  1.00  0.00     0.173 A 
ATOM     83  F   UNL A   1      42.748  27.170  36.175  1.00  0.00    -0.203 F 
ATOM     84  C   UNL A   1      45.073  27.218  36.533  1.00  0.00     0.198 A 
ATOM     85  C   UNL A   1      46.426  28.868  35.435  1.00  0.00     0.198 A 
ATOM     86  F   UNL A   1      45.426  30.473  34.039  1.00  0.00    -0.203 F 
ATOM     87  F   UNL A   1      44.961  26.185  37.381  1.00  0.00    -0.200 F 
ATOM     88  C   UNL A   1      46.317  27.779  36.286  1.00  0.00     0.200 A 
ATOM     89  F   UNL A   1      47.629  29.402  35.182  1.00  0.00    -0.200 F 
ATOM     90  F   UNL A   1      47.410  27.276  36.876  1.00  0.00    -0.200 F 
ENDBRANCH  57  80
ENDBRANCH  31  32
ENDBRANCH  23  26
ENDBRANCH  21  22
ENDBRANCH  20  21
ENDBRANCH   1  20
TORSDOF 14
ENDMDL
MODEL 2
REMARK VINA RESULT:     -11.7      0.720      7.515
REMARK SMILES C[C@@H]1CC[C@@H](C(=O)NCCCNC(=O)c2ccc(-c3c4nc(c(-c5c(F)c(F)c(F)c(F)c5F)c5ccc([nH]5)c(-c5c(F)c(F)c(F)c(F)c5F)c5nc(c(-c6c(F)c(F)c(F)c(F)c6F)c6ccc3[nH]6)C=C5)C=C4)cc2)[C@H](SCC[NH+](C)C)C1
REMARK SMILES IDX 9 1 8 2 6 3 7 4 5 6 1 7 2 8 3 9 85 10 4 11 78 12 79 13 80 14
REMARK SMILES IDX 81 15 82 16 83 17 84 18 10 20 11 21 12 22 13 23 14 25 15 26
REMARK SMILES IDX 16 27 77 28 17 29 76 30 18 31 19 32 20 33 70 34 21 35 75 36
REMARK SMILES IDX 69 37 71 38 22 39 74 40 68 41 67 42 23 44 55 45 35 46 54 47
REMARK SMILES IDX 36 48 39 49 53 50 72 51 37 52 38 53 52 55 73 56 40 57 24 58
REMARK SMILES IDX 25 59 33 60 26 61 27 62 31 63 34 64 28 65 29 66 32 67 30 68
REMARK SMILES IDX 56 69 57 70 65 71 58 72 59 73 63 74 66 75 60 76 61 77 64 78
REMARK SMILES IDX 62 79 41 80 42 81 50 82 43 83 44 84 48 85 51 86 45 87 46 88
REMARK SMILES IDX 49 89 47 90
REMARK H PARENT 8 5 82 19 12 24 71 43 39 54
REMARK Flexibility Score: inf
ROOT
ATOM      1  C   UNL A   1      31.393  30.893  25.934  1.00  0.00     0.117 C 
ENDROOT
BRANCH   1   2
ATOM      2  N   UNL A   1      32.390  30.090  26.598  1.00  0.00    -0.356 N 
ATOM      3  C   UNL A   1      32.647  28.764  26.582  1.00  0.00     0.224 C 
ATOM      4  O   UNL A   1      33.624  28.413  27.251  1.00  0.00    -0.275 OA
ATOM      5  H   UNL A   1      33.001  30.607  27.172  1.00  0.00     0.163 HD
BRANCH   3   6
ATOM      6  C   UNL A   1      31.742  27.736  25.861  1.00  0.00     0.091 C 
ATOM      7  C   UNL A   1      33.610  25.101  23.254  1.00  0.00     0.007 C 
ATOM      8  C   UNL A   1      33.837  26.156  24.340  1.00  0.00    -0.013 C 
ATOM      9  C   UNL A   1      33.395  25.699  25.744  1.00  0.00     0.004 C 
ATOM     10  C   UNL A   1      33.329  27.517  23.867  1.00  0.00     0.018 C 
ATOM     11  C   UNL A   1      32.239  26.414  26.462  1.00  0.00     0.015 C 
ATOM     12  C   UNL A   1      31.916  27.909  24.330  1.00  0.00     0.059 C 
BRANCH  12  13
ATOM     13  S   UNL A   1      30.731  27.608  22.882  1.00  0.00    -0.152 SA
BRANCH  13  14
ATOM     14  C   UNL A   1      29.441  28.896  22.620  1.00  0.00     0.131 C 
BRANCH  14  15
ATOM     15  C   UNL A   1      29.754  30.078  21.639  1.00  0.00     0.272 C 
BRANCH  15  16
ATOM     16  N   UNL A   1      29.284  31.436  21.994  1.00  0.00    -0.339 N 
ATOM     17  C   UNL A   1      28.270  31.949  21.065  1.00  0.00     0.332 C 
ATOM     18  C   UNL A   1      28.794  31.488  23.345  1.00  0.00     0.332 C 
ATOM     19  H   UNL A   1      30.100  32.043  21.918  1.00  0.00     0.347 HD
ENDBRANCH  15  16
ENDBRANCH  14  15
ENDBRANCH  13  14
ENDBRANCH  12  13
ENDBRANCH   3   6
ENDBRANCH   1   2
BRANCH   1  20
ATOM     20  C   UNL A   1      31.291  32.304  26.503  1.00  0.00     0.042 C 
BRANCH  20  21
ATOM     21  C   UNL A   1      32.559  32.847  27.166  1.00  0.00     0.118 C 
BRANCH  21  22
ATOM     22  N   UNL A   1      32.420  34.201  27.685  1.00  0.00    -0.352 N 
ATOM     23  C   UNL A   1      33.098  34.855  28.683  1.00  0.00     0.251 C 
ATOM     24  H   UNL A   1      31.722  34.738  27.246  1.00  0.00     0.163 HD
ATOM     25  O   UNL A   1      32.717  35.970  29.043  1.00  0.00    -0.269 OA
BRANCH  23  26
ATOM     26  C   UNL A   1      34.258  34.233  29.354  1.00  0.00     0.039 A 
ATOM     27  C   UNL A   1      34.025  33.342  30.408  1.00  0.00     0.014 A 
ATOM     28  C   UNL A   1      35.568  34.539  28.980  1.00  0.00     0.014 A 
ATOM     29  C   UNL A   1      35.100  32.706  31.034  1.00  0.00     0.010 A 
ATOM     30  C   UNL A   1      36.634  33.842  29.547  1.00  0.00     0.010 A 
ATOM     31  C   UNL A   1      36.413  32.919  30.581  1.00  0.00    -0.014 A 
BRANCH  31  32
ATOM     32  C   UNL A   1      37.556  32.177  31.176  1.00  0.00     0.031 A 
ATOM     33  C   UNL A   1      38.040  32.503  32.562  1.00  0.00     0.074 A 
ATOM     34  C   UNL A   1      38.192  31.241  30.444  1.00  0.00     0.049 A 
ATOM     35  N   UNL A   1      39.041  31.989  33.232  1.00  0.00    -0.248 NA
ATOM     36  C   UNL A   1      37.322  33.567  33.282  1.00  0.00     0.031 C 
ATOM     37  C   UNL A   1      37.852  30.869  29.069  1.00  0.00     0.029 A 
ATOM     38  N   UNL A   1      39.260  30.434  30.750  1.00  0.00    -0.354 N 
ATOM     39  C   UNL A   1      39.078  32.673  34.441  1.00  0.00     0.074 A 
ATOM     40  C   UNL A   1      38.040  33.679  34.389  1.00  0.00     0.031 C 
ATOM     41  C   UNL A   1      38.674  29.888  28.662  1.00  0.00     0.029 A 
ATOM     42  C   UNL A   1      39.624  29.590  29.729  1.00  0.00     0.049 A 
ATOM     43  H   UNL A   1      39.721  30.459  31.619  1.00  0.00     0.167 HD
ATOM     44  C   UNL A   1      39.886  32.462  35.508  1.00  0.00     0.037 A 
ATOM     45  C   UNL A   1      40.615  28.680  29.659  1.00  0.00     0.037 A 
ATOM     46  C   UNL A   1      40.907  31.448  35.562  1.00  0.00     0.049 A 
ATOM     47  C   UNL A   1      41.505  28.473  30.855  1.00  0.00     0.074 A 
ATOM     48  C   UNL A   1      41.742  31.119  36.615  1.00  0.00     0.029 A 
ATOM     49  N   UNL A   1      41.236  30.603  34.512  1.00  0.00    -0.354 N 
ATOM     50  N   UNL A   1      41.481  29.073  32.020  1.00  0.00    -0.248 NA
ATOM     51  C   UNL A   1      42.555  27.453  30.729  1.00  0.00     0.031 C 
ATOM     52  C   UNL A   1      42.616  30.115  36.184  1.00  0.00     0.029 A 
ATOM     53  C   UNL A   1      42.279  29.769  34.885  1.00  0.00     0.049 A 
ATOM     54  H   UNL A   1      40.795  30.595  33.632  1.00  0.00     0.167 HD
ATOM     55  C   UNL A   1      42.482  28.480  32.777  1.00  0.00     0.074 A 
ATOM     56  C   UNL A   1      43.088  27.464  31.942  1.00  0.00     0.031 C 
ATOM     57  C   UNL A   1      42.864  28.752  34.050  1.00  0.00     0.037 A 
BRANCH  44  58
ATOM     58  C   UNL A   1      39.698  33.346  36.710  1.00  0.00     0.064 A 
ATOM     59  C   UNL A   1      40.388  34.560  36.848  1.00  0.00     0.173 A 
ATOM     60  C   UNL A   1      38.787  32.995  37.717  1.00  0.00     0.173 A 
ATOM     61  F   UNL A   1      41.277  34.940  35.919  1.00  0.00    -0.203 F 
ATOM     62  C   UNL A   1      40.199  35.371  37.965  1.00  0.00     0.198 A 
ATOM     63  C   UNL A   1      38.574  33.825  38.816  1.00  0.00     0.198 A 
ATOM     64  F   UNL A   1      38.093  31.850  37.635  1.00  0.00    -0.203 F 
ATOM     65  F   UNL A   1      40.912  36.498  38.101  1.00  0.00    -0.200 F 
ATOM     66  C   UNL A   1      39.287  35.007  38.943  1.00  0.00     0.200 A 
ATOM     67  F   UNL A   1      37.679  33.480  39.752  1.00  0.00    -0.200 F 
ATOM     68  F   UNL A   1      39.099  35.793  40.012  1.00  0.00    -0.200 F 
ENDBRANCH  44  58
BRANCH  45  69
ATOM     69  C   UNL A   1      40.800  27.875  28.421  1.00  0.00     0.064 A 
ATOM     70  C   UNL A   1      40.178  26.627  28.272  1.00  0.00     0.173 A 
ATOM     71  C   UNL A   1      41.609  28.328  27.369  1.00  0.00     0.173 A 
ATOM     72  F   UNL A   1      39.410  26.141  29.258  1.00  0.00    -0.203 F 
ATOM     73  C   UNL A   1      40.378  25.853  27.131  1.00  0.00     0.198 A 
ATOM     74  C   UNL A   1      41.782  27.568  26.214  1.00  0.00     0.198 A 
ATOM     75  F   UNL A   1      42.221  29.518  27.456  1.00  0.00    -0.203 F 
ATOM     76  F   UNL A   1      39.813  24.641  27.039  1.00  0.00    -0.200 F 
ATOM     77  C   UNL A   1      41.175  26.327  26.100  1.00  0.00     0.200 A 
ATOM     78  F   UNL A   1      42.538  28.038  25.213  1.00  0.00    -0.200 F 
ATOM     79  F   UNL A   1      41.365  25.584  25.002  1.00  0.00    -0.200 F 
ENDBRANCH  45  69
BRANCH  57  80
ATOM     80  C   UNL A   1      43.953  27.901  34.641  1.00  0.00     0.064 A 
ATOM     81  C   UNL A   1      43.682  26.677  35.269  1.00  0.00     0.173 A 
ATOM     82  C   UNL A   1      45.294  28.304  34.543  1.00  0.00     0.173 A 
ATOM     83  F   UNL A   1      42.416  26.251  35.401  1.00  0.00    -0.203 F 
ATOM     84  C   UNL A   1      44.709  25.904  35.804  1.00  0.00     0.198 A 
ATOM     85  C   UNL A   1      46.321  27.512  35.047  1.00  0.00     0.198 A 
ATOM     86  F   UNL A   1      45.610  29.464  33.945  1.00  0.00    -0.203 F 
ATOM     87  F   UNL A   1      44.421  24.764  36.449  1.00  0.00    -0.200 F 
ATOM     88  C   UNL A   1      46.027  26.317  35.685  1.00  0.00     0.200 A 
ATOM     89  F   UNL A   1      47.596  27.906  34.916  1.00  0.00    -0.200 F 
ATOM     90  F   UNL A   1      47.015  25.568  36.194  1.00  0.00    -0.200 F 
ENDBRANCH  57  80
ENDBRANCH  31  32
ENDBRANCH  23  26
ENDBRANCH  21  22
ENDBRANCH  20  21
ENDBRANCH   1  20
TORSDOF 14
ENDMDL
MODEL 3
REMARK VINA RESULT:     -11.6      6.455     11.856
REMARK SMILES C[C@@H]1CC[C@@H](C(=O)NCCCNC(=O)c2ccc(-c3c4nc(c(-c5c(F)c(F)c(F)c(F)c5F)c5ccc([nH]5)c(-c5c(F)c(F)c(F)c(F)c5F)c5nc(c(-c6c(F)c(F)c(F)c(F)c6F)c6ccc3[nH]6)C=C5)C=C4)cc2)[C@H](SCC[NH+](C)C)C1
REMARK SMILES IDX 9 1 8 2 6 3 7 4 5 6 1 7 2 8 3 9 85 10 4 11 78 12 79 13 80 14
REMARK SMILES IDX 81 15 82 16 83 17 84 18 10 20 11 21 12 22 13 23 14 25 15 26
REMARK SMILES IDX 16 27 77 28 17 29 76 30 18 31 19 32 20 33 70 34 21 35 75 36
REMARK SMILES IDX 69 37 71 38 22 39 74 40 68 41 67 42 23 44 55 45 35 46 54 47
REMARK SMILES IDX 36 48 39 49 53 50 72 51 37 52 38 53 52 55 73 56 40 57 24 58
REMARK SMILES IDX 25 59 33 60 26 61 27 62 31 63 34 64 28 65 29 66 32 67 30 68
REMARK SMILES IDX 56 69 57 70 65 71 58 72 59 73 63 74 66 75 60 76 61 77 64 78
REMARK SMILES IDX 62 79 41 80 42 81 50 82 43 83 44 84 48 85 51 86 45 87 46 88
REMARK SMILES IDX 49 89 47 90
REMARK H PARENT 8 5 82 19 12 24 71 43 39 54
REMARK Flexibility Score: inf
ROOT
ATOM      1  C   UNL A   1      36.946  20.144  24.994  1.00  0.00     0.117 C 
ENDROOT
BRANCH   1   2
ATOM      2  N   UNL A   1      37.275  21.548  24.987  1.00  0.00    -0.356 N 
ATOM      3  C   UNL A   1      36.546  22.651  24.707  1.00  0.00     0.224 C 
ATOM      4  O   UNL A   1      37.146  23.721  24.843  1.00  0.00    -0.275 OA
ATOM      5  H   UNL A   1      38.209  21.740  25.233  1.00  0.00     0.163 HD
BRANCH   3   6
ATOM      6  C   UNL A   1      35.097  22.591  24.168  1.00  0.00     0.091 C 
ATOM      7  C   UNL A   1      32.233  24.752  26.254  1.00  0.00     0.007 C 
ATOM      8  C   UNL A   1      33.734  24.498  26.092  1.00  0.00    -0.013 C 
ATOM      9  C   UNL A   1      34.306  25.024  24.761  1.00  0.00     0.004 C 
ATOM     10  C   UNL A   1      34.067  23.054  26.463  1.00  0.00     0.018 C 
ATOM     11  C   UNL A   1      34.875  24.043  23.723  1.00  0.00     0.015 C 
ATOM     12  C   UNL A   1      34.169  22.063  25.293  1.00  0.00     0.059 C 
BRANCH  12  13
ATOM     13  S   UNL A   1      32.557  21.068  25.237  1.00  0.00    -0.152 SA
BRANCH  13  14
ATOM     14  C   UNL A   1      32.665  19.406  24.452  1.00  0.00     0.131 C 
BRANCH  14  15
ATOM     15  C   UNL A   1      32.555  18.139  25.368  1.00  0.00     0.272 C 
BRANCH  15  16
ATOM     16  N   UNL A   1      33.704  17.208  25.430  1.00  0.00    -0.339 N 
ATOM     17  C   UNL A   1      33.294  15.801  25.508  1.00  0.00     0.332 C 
ATOM     18  C   UNL A   1      34.604  17.404  24.326  1.00  0.00     0.332 C 
ATOM     19  H   UNL A   1      34.196  17.429  26.297  1.00  0.00     0.347 HD
ENDBRANCH  15  16
ENDBRANCH  14  15
ENDBRANCH  13  14
ENDBRANCH  12  13
ENDBRANCH   3   6
ENDBRANCH   1   2
BRANCH   1  20
ATOM     20  C   UNL A   1      38.178  19.245  24.994  1.00  0.00     0.042 C 
BRANCH  20  21
ATOM     21  C   UNL A   1      39.408  19.803  25.716  1.00  0.00     0.118 C 
BRANCH  21  22
ATOM     22  N   UNL A   1      40.502  18.850  25.840  1.00  0.00    -0.352 N 
ATOM     23  C   UNL A   1      41.839  19.042  26.079  1.00  0.00     0.251 C 
ATOM     24  H   UNL A   1      40.238  17.908  25.734  1.00  0.00     0.163 HD
ATOM     25  O   UNL A   1      42.610  18.084  26.014  1.00  0.00    -0.269 OA
BRANCH  23  26
ATOM     26  C   UNL A   1      42.376  20.385  26.386  1.00  0.00     0.039 A 
ATOM     27  C   UNL A   1      43.014  21.099  25.367  1.00  0.00     0.014 A 
ATOM     28  C   UNL A   1      42.285  20.932  27.666  1.00  0.00     0.014 A 
ATOM     29  C   UNL A   1      43.494  22.388  25.615  1.00  0.00     0.010 A 
ATOM     30  C   UNL A   1      42.687  22.248  27.891  1.00  0.00     0.010 A 
ATOM     31  C   UNL A   1      43.298  22.990  26.869  1.00  0.00    -0.014 A 
BRANCH  31  32
ATOM     32  C   UNL A   1      43.719  24.395  27.116  1.00  0.00     0.031 A 
ATOM     33  C   UNL A   1      42.731  25.412  27.619  1.00  0.00     0.074 A 
ATOM     34  C   UNL A   1      44.985  24.766  26.838  1.00  0.00     0.049 A 
ATOM     35  N   UNL A   1      42.906  26.687  27.859  1.00  0.00    -0.248 NA
ATOM     36  C   UNL A   1      41.358  24.940  27.858  1.00  0.00     0.031 C 
ATOM     37  C   UNL A   1      46.023  23.887  26.298  1.00  0.00     0.029 A 
ATOM     38  N   UNL A   1      45.613  25.980  26.966  1.00  0.00    -0.354 N 
ATOM     39  C   UNL A   1      41.667  27.169  28.265  1.00  0.00     0.074 A 
ATOM     40  C   UNL A   1      40.737  26.065  28.179  1.00  0.00     0.031 C 
ATOM     41  C   UNL A   1      47.166  24.582  26.170  1.00  0.00     0.029 A 
ATOM     42  C   UNL A   1      46.931  25.963  26.579  1.00  0.00     0.049 A 
ATOM     43  H   UNL A   1      45.162  26.787  27.305  1.00  0.00     0.167 HD
ATOM     44  C   UNL A   1      41.342  28.411  28.696  1.00  0.00     0.037 A 
ATOM     45  C   UNL A   1      47.847  26.950  26.552  1.00  0.00     0.037 A 
ATOM     46  C   UNL A   1      42.276  29.503  28.794  1.00  0.00     0.049 A 
ATOM     47  C   UNL A   1      47.456  28.325  27.025  1.00  0.00     0.074 A 
ATOM     48  C   UNL A   1      42.057  30.785  29.269  1.00  0.00     0.029 A 
ATOM     49  N   UNL A   1      43.606  29.443  28.405  1.00  0.00    -0.354 N 
ATOM     50  N   UNL A   1      46.302  28.748  27.478  1.00  0.00    -0.248 NA
ATOM     51  C   UNL A   1      48.502  29.356  26.994  1.00  0.00     0.031 C 
ATOM     52  C   UNL A   1      43.239  31.517  29.111  1.00  0.00     0.029 A 
ATOM     53  C   UNL A   1      44.214  30.673  28.605  1.00  0.00     0.049 A 
ATOM     54  H   UNL A   1      44.052  28.645  28.040  1.00  0.00     0.167 HD
ATOM     55  C   UNL A   1      46.490  30.080  27.821  1.00  0.00     0.074 A 
ATOM     56  C   UNL A   1      47.875  30.392  27.534  1.00  0.00     0.031 C 
ATOM     57  C   UNL A   1      45.597  30.965  28.329  1.00  0.00     0.037 A 
BRANCH  44  58
ATOM     58  C   UNL A   1      39.914  28.659  29.094  1.00  0.00     0.064 A 
ATOM     59  C   UNL A   1      39.465  28.439  30.406  1.00  0.00     0.173 A 
ATOM     60  C   UNL A   1      38.990  29.158  28.164  1.00  0.00     0.173 A 
ATOM     61  F   UNL A   1      40.303  27.954  31.334  1.00  0.00    -0.203 F 
ATOM     62  C   UNL A   1      38.139  28.677  30.761  1.00  0.00     0.198 A 
ATOM     63  C   UNL A   1      37.673  29.429  28.531  1.00  0.00     0.198 A 
ATOM     64  F   UNL A   1      39.365  29.395  26.897  1.00  0.00    -0.203 F 
ATOM     65  F   UNL A   1      37.722  28.407  32.006  1.00  0.00    -0.200 F 
ATOM     66  C   UNL A   1      37.248  29.180  29.826  1.00  0.00     0.200 A 
ATOM     67  F   UNL A   1      36.818  29.931  27.630  1.00  0.00    -0.200 F 
ATOM     68  F   UNL A   1      35.975  29.418  30.172  1.00  0.00    -0.200 F 
ENDBRANCH  44  58
BRANCH  45  69
ATOM     69  C   UNL A   1      49.232  26.669  26.086  1.00  0.00     0.064 A 
ATOM     70  C   UNL A   1      49.612  26.920  24.760  1.00  0.00     0.173 A 
ATOM     71  C   UNL A   1      50.200  26.134  26.950  1.00  0.00     0.173 A 
ATOM     72  F   UNL A   1      48.719  27.414  23.890  1.00  0.00    -0.203 F 
ATOM     73  C   UNL A   1      50.897  26.623  24.309  1.00  0.00     0.198 A 
ATOM     74  C   UNL A   1      51.494  25.868  26.507  1.00  0.00     0.198 A 
ATOM     75  F   UNL A   1      49.891  25.881  28.230  1.00  0.00    -0.203 F 
ATOM     76  F   UNL A   1      51.216  26.825  23.023  1.00  0.00    -0.200 F 
ATOM     77  C   UNL A   1      51.838  26.104  25.185  1.00  0.00     0.200 A 
ATOM     78  F   UNL A   1      52.405  25.383  27.360  1.00  0.00    -0.200 F 
ATOM     79  F   UNL A   1      53.074  25.821  24.752  1.00  0.00    -0.200 F 
ENDBRANCH  45  69
BRANCH  57  80
ATOM     80  C   UNL A   1      46.101  32.342  28.662  1.00  0.00     0.064 A 
ATOM     81  C   UNL A   1      46.046  33.397  27.739  1.00  0.00     0.173 A 
ATOM     82  C   UNL A   1      46.613  32.615  29.939  1.00  0.00     0.173 A 
ATOM     83  F   UNL A   1      45.577  33.186  26.500  1.00  0.00    -0.203 F 
ATOM     84  C   UNL A   1      46.513  34.665  28.073  1.00  0.00     0.198 A 
ATOM     85  C   UNL A   1      47.046  33.892  30.282  1.00  0.00     0.198 A 
ATOM     86  F   UNL A   1      46.681  31.644  30.864  1.00  0.00    -0.203 F 
ATOM     87  F   UNL A   1      46.502  35.644  27.157  1.00  0.00    -0.200 F 
ATOM     88  C   UNL A   1      47.005  34.914  29.346  1.00  0.00     0.200 A 
ATOM     89  F   UNL A   1      47.505  34.135  31.518  1.00  0.00    -0.200 F 
ATOM     90  F   UNL A   1      47.447  36.137  29.668  1.00  0.00    -0.200 F 
ENDBRANCH  57  80
ENDBRANCH  31  32
ENDBRANCH  23  26
ENDBRANCH  21  22
ENDBRANCH  20  21
ENDBRANCH   1  20
TORSDOF 14
ENDMDL
