MODEL 1
REMARK VINA RESULT:     -12.4      0.000      0.000
REMARK SMILES O=C(NCCCNC(=O)c1cccnc1C[N@@H+]1CCC[C@H]1c1ccccn1)c1ccc(-c2c3nc(c(-c4c(F)c(F)c(F)c(F)c4F)c4ccc([nH]4)c(-c4c(F)c(F)c(F)c(F)c4F)c4nc(c(-c5c(F)c(F)c(F)c(F)c5F)c5ccc2[nH]5)C=C4)C=C3)cc1
REMARK SMILES IDX 5 1 4 2 3 3 1 4 2 5 28 7 29 8 90 9 30 10 89 11 31 12 32 13
REMARK SMILES IDX 33 14 83 15 34 16 88 17 82 18 84 19 35 20 87 21 81 22 80 23
REMARK SMILES IDX 36 25 68 26 48 27 67 28 49 29 52 30 66 31 85 32 50 33 51 34
REMARK SMILES IDX 65 36 86 37 53 38 37 39 38 40 46 41 39 42 40 43 44 44 47 45
REMARK SMILES IDX 41 46 42 47 45 48 43 49 69 50 70 51 78 52 71 53 72 54 76 55
REMARK SMILES IDX 79 56 73 57 74 58 77 59 75 60 54 61 55 62 63 63 56 64 57 65
REMARK SMILES IDX 61 66 64 67 58 68 59 69 62 70 60 71 6 72 7 73 8 74 9 76
REMARK SMILES IDX 10 77 11 78 15 79 12 80 14 81 13 82 16 83 17 84 18 85 21 86
REMARK SMILES IDX 19 88 20 89 22 90 23 91 27 92 24 93 26 94 25 95
REMARK H PARENT 3 6 84 24 52 35 7 75 17 87
REMARK Flexibility Score: inf
ROOT
ATOM      1  C   UNL A   1      33.960  29.153  24.016  1.00  0.00     0.042 C 
ENDROOT
BRANCH   1   2
ATOM      2  C   UNL A   1      33.234  29.087  25.352  1.00  0.00     0.118 C 
BRANCH   2   3
ATOM      3  N   UNL A   1      32.773  30.393  25.810  1.00  0.00    -0.352 N 
ATOM      4  O   UNL A   1      32.559  32.171  27.173  1.00  0.00    -0.269 OA
ATOM      5  C   UNL A   1      33.211  31.182  26.845  1.00  0.00     0.251 C 
ATOM      6  H   UNL A   1      32.025  30.769  25.293  1.00  0.00     0.163 HD
BRANCH   5   7
ATOM      7  C   UNL A   1      34.447  30.844  27.582  1.00  0.00     0.039 A 
ATOM      8  C   UNL A   1      34.636  29.571  28.121  1.00  0.00     0.014 A 
ATOM      9  C   UNL A   1      35.453  31.808  27.706  1.00  0.00     0.014 A 
ATOM     10  C   UNL A   1      35.744  29.314  28.919  1.00  0.00     0.010 A 
ATOM     11  C   UNL A   1      36.617  31.515  28.423  1.00  0.00     0.010 A 
ATOM     12  C   UNL A   1      36.756  30.275  29.065  1.00  0.00    -0.014 A 
BRANCH  12  13
ATOM     13  C   UNL A   1      37.977  29.927  29.835  1.00  0.00     0.031 A 
ATOM     14  C   UNL A   1      38.186  30.433  31.235  1.00  0.00     0.074 A 
ATOM     15  C   UNL A   1      38.887  29.115  29.265  1.00  0.00     0.049 A 
ATOM     16  N   UNL A   1      39.183  30.204  32.052  1.00  0.00    -0.248 NA
ATOM     17  C   UNL A   1      37.147  31.313  31.789  1.00  0.00     0.031 C 
ATOM     18  C   UNL A   1      38.796  28.574  27.906  1.00  0.00     0.029 A 
ATOM     19  N   UNL A   1      40.053  28.585  29.754  1.00  0.00    -0.354 N 
ATOM     20  C   UNL A   1      38.903  30.924  33.207  1.00  0.00     0.074 A 
ATOM     21  C   UNL A   1      37.654  31.619  32.976  1.00  0.00     0.031 C 
ATOM     22  C   UNL A   1      39.832  27.752  27.690  1.00  0.00     0.029 A 
ATOM     23  C   UNL A   1      40.694  27.758  28.866  1.00  0.00     0.049 A 
ATOM     24  H   UNL A   1      40.397  28.778  30.656  1.00  0.00     0.167 HD
ATOM     25  C   UNL A   1      39.621  30.989  34.354  1.00  0.00     0.037 A 
ATOM     26  C   UNL A   1      41.856  27.089  28.976  1.00  0.00     0.037 A 
ATOM     27  C   UNL A   1      40.854  30.280  34.582  1.00  0.00     0.049 A 
ATOM     28  C   UNL A   1      42.638  27.198  30.252  1.00  0.00     0.074 A 
ATOM     29  C   UNL A   1      41.635  30.251  35.724  1.00  0.00     0.029 A 
ATOM     30  N   UNL A   1      41.489  29.475  33.646  1.00  0.00    -0.354 N 
ATOM     31  N   UNL A   1      42.345  27.854  31.347  1.00  0.00    -0.248 NA
ATOM     32  C   UNL A   1      43.914  26.474  30.306  1.00  0.00     0.031 C 
ATOM     33  C   UNL A   1      42.765  29.466  35.464  1.00  0.00     0.029 A 
ATOM     34  C   UNL A   1      42.663  28.965  34.177  1.00  0.00     0.049 A 
ATOM     35  H   UNL A   1      41.154  29.292  32.739  1.00  0.00     0.167 HD
ATOM     36  C   UNL A   1      43.391  27.615  32.226  1.00  0.00     0.074 A 
ATOM     37  C   UNL A   1      44.314  26.732  31.544  1.00  0.00     0.031 C 
ATOM     38  C   UNL A   1      43.572  28.088  33.483  1.00  0.00     0.037 A 
BRANCH  25  39
ATOM     39  C   UNL A   1      39.101  31.870  35.453  1.00  0.00     0.064 A 
ATOM     40  C   UNL A   1      38.294  31.366  36.484  1.00  0.00     0.173 A 
ATOM     41  C   UNL A   1      39.460  33.226  35.505  1.00  0.00     0.173 A 
ATOM     42  F   UNL A   1      37.916  30.078  36.478  1.00  0.00    -0.203 F 
ATOM     43  C   UNL A   1      37.848  32.191  37.515  1.00  0.00     0.198 A 
ATOM     44  C   UNL A   1      39.032  34.042  36.551  1.00  0.00     0.198 A 
ATOM     45  F   UNL A   1      40.234  33.758  34.549  1.00  0.00    -0.203 F 
ATOM     46  F   UNL A   1      37.047  31.696  38.468  1.00  0.00    -0.200 F 
ATOM     47  C   UNL A   1      38.223  33.526  37.551  1.00  0.00     0.200 A 
ATOM     48  F   UNL A   1      39.407  35.328  36.591  1.00  0.00    -0.200 F 
ATOM     49  F   UNL A   1      37.801  34.316  38.547  1.00  0.00    -0.200 F 
ENDBRANCH  25  39
BRANCH  26  50
ATOM     50  C   UNL A   1      42.342  26.267  27.840  1.00  0.00     0.064 A 
ATOM     51  C   UNL A   1      41.862  24.967  27.633  1.00  0.00     0.173 A 
ATOM     52  C   UNL A   1      43.281  26.771  26.927  1.00  0.00     0.173 A 
ATOM     53  F   UNL A   1      40.977  24.434  28.489  1.00  0.00    -0.203 F 
ATOM     54  C   UNL A   1      42.314  24.197  26.563  1.00  0.00     0.198 A 
ATOM     55  C   UNL A   1      43.708  26.012  25.841  1.00  0.00     0.198 A 
ATOM     56  F   UNL A   1      43.765  28.012  27.080  1.00  0.00    -0.203 F 
ATOM     57  F   UNL A   1      41.868  22.943  26.408  1.00  0.00    -0.200 F 
ATOM     58  C   UNL A   1      43.230  24.723  25.663  1.00  0.00     0.200 A 
ATOM     59  F   UNL A   1      44.580  26.531  24.966  1.00  0.00    -0.200 F 
ATOM     60  F   UNL A   1      43.655  23.986  24.629  1.00  0.00    -0.200 F 
ENDBRANCH  26  50
BRANCH  38  61
ATOM     61  C   UNL A   1      44.805  27.638  34.207  1.00  0.00     0.064 A 
ATOM     62  C   UNL A   1      45.997  28.376  34.157  1.00  0.00     0.173 A 
ATOM     63  C   UNL A   1      44.789  26.466  34.979  1.00  0.00     0.173 A 
ATOM     64  F   UNL A   1      46.067  29.494  33.418  1.00  0.00    -0.203 F 
ATOM     65  C   UNL A   1      47.134  27.944  34.832  1.00  0.00     0.198 A 
ATOM     66  C   UNL A   1      45.919  26.051  35.675  1.00  0.00     0.198 A 
ATOM     67  F   UNL A   1      43.672  25.727  35.062  1.00  0.00    -0.203 F 
ATOM     68  F   UNL A   1      48.276  28.637  34.729  1.00  0.00    -0.200 F 
ATOM     69  C   UNL A   1      47.093  26.786  35.596  1.00  0.00     0.200 A 
ATOM     70  F   UNL A   1      45.876  24.939  36.421  1.00  0.00    -0.200 F 
ATOM     71  F   UNL A   1      48.189  26.373  36.247  1.00  0.00    -0.200 F 
ENDBRANCH  38  61
ENDBRANCH  12  13
ENDBRANCH   5   7
ENDBRANCH   2   3
ENDBRANCH   1   2
BRANCH   1  72
ATOM     72  C   UNL A   1      33.059  28.951  22.807  1.00  0.00     0.118 C 
BRANCH  72  73
ATOM     73  N   UNL A   1      33.429  27.779  22.028  1.00  0.00    -0.352 N 
ATOM     74  C   UNL A   1      33.169  26.452  22.247  1.00  0.00     0.253 C 
ATOM     75  H   UNL A   1      33.949  27.970  21.214  1.00  0.00     0.163 HD
ATOM     76  O   UNL A   1      33.646  25.603  21.502  1.00  0.00    -0.269 OA
BRANCH  74  77
ATOM     77  C   UNL A   1      32.271  26.044  23.340  1.00  0.00     0.067 A 
ATOM     78  C   UNL A   1      30.886  26.120  23.120  1.00  0.00     0.017 A 
ATOM     79  C   UNL A   1      32.740  25.495  24.535  1.00  0.00     0.107 A 
ATOM     80  C   UNL A   1      30.004  25.701  24.106  1.00  0.00     0.021 A 
ATOM     81  N   UNL A   1      31.864  25.051  25.488  1.00  0.00    -0.254 NA
ATOM     82  C   UNL A   1      30.537  25.173  25.263  1.00  0.00     0.111 A 
BRANCH  79  83
ATOM     83  C   UNL A   1      34.221  25.320  24.859  1.00  0.00     0.321 C 
BRANCH  83  84
ATOM     84  N   UNL A   1      34.720  23.956  25.154  1.00  0.00    -0.322 N 
ATOM     85  C   UNL A   1      36.050  23.922  25.759  1.00  0.00     0.263 C 
ATOM     86  C   UNL A   1      34.722  23.060  23.983  1.00  0.00     0.234 C 
ATOM     87  H   UNL A   1      34.043  23.615  25.835  1.00  0.00     0.349 HD
ATOM     88  C   UNL A   1      37.025  23.481  24.681  1.00  0.00     0.068 C 
ATOM     89  C   UNL A   1      36.182  22.921  23.546  1.00  0.00     0.078 C 
BRANCH  86  90
ATOM     90  C   UNL A   1      34.078  21.696  24.241  1.00  0.00     0.098 A 
ATOM     91  C   UNL A   1      34.829  20.587  24.637  1.00  0.00     0.030 A 
ATOM     92  N   UNL A   1      32.740  21.601  24.004  1.00  0.00    -0.255 NA
ATOM     93  C   UNL A   1      34.199  19.357  24.810  1.00  0.00     0.004 A 
ATOM     94  C   UNL A   1      32.155  20.396  24.195  1.00  0.00     0.111 A 
ATOM     95  C   UNL A   1      32.834  19.257  24.588  1.00  0.00     0.020 A 
ENDBRANCH  86  90
ENDBRANCH  83  84
ENDBRANCH  79  83
ENDBRANCH  74  77
ENDBRANCH  72  73
ENDBRANCH   1  72
TORSDOF 13
ENDMDL
MODEL 2
REMARK VINA RESULT:     -12.3      0.323      1.667
REMARK SMILES O=C(NCCCNC(=O)c1cccnc1C[N@@H+]1CCC[C@H]1c1ccccn1)c1ccc(-c2c3nc(c(-c4c(F)c(F)c(F)c(F)c4F)c4ccc([nH]4)c(-c4c(F)c(F)c(F)c(F)c4F)c4nc(c(-c5c(F)c(F)c(F)c(F)c5F)c5ccc2[nH]5)C=C4)C=C3)cc1
REMARK SMILES IDX 5 1 4 2 3 3 1 4 2 5 28 7 29 8 90 9 30 10 89 11 31 12 32 13
REMARK SMILES IDX 33 14 83 15 34 16 88 17 82 18 84 19 35 20 87 21 81 22 80 23
REMARK SMILES IDX 36 25 68 26 48 27 67 28 49 29 52 30 66 31 85 32 50 33 51 34
REMARK SMILES IDX 65 36 86 37 53 38 37 39 38 40 46 41 39 42 40 43 44 44 47 45
REMARK SMILES IDX 41 46 42 47 45 48 43 49 69 50 70 51 78 52 71 53 72 54 76 55
REMARK SMILES IDX 79 56 73 57 74 58 77 59 75 60 54 61 55 62 63 63 56 64 57 65
REMARK SMILES IDX 61 66 64 67 58 68 59 69 62 70 60 71 6 72 7 73 8 74 9 76
REMARK SMILES IDX 10 77 11 78 15 79 12 80 14 81 13 82 16 83 17 84 18 85 21 86
REMARK SMILES IDX 19 88 20 89 22 90 23 91 27 92 24 93 26 94 25 95
REMARK H PARENT 3 6 84 24 52 35 7 75 17 87
REMARK Flexibility Score: inf
ROOT
ATOM      1  C   UNL A   1      33.991  29.073  24.213  1.00  0.00     0.042 C 
ENDROOT
BRANCH   1   2
ATOM      2  C   UNL A   1      33.218  29.094  25.523  1.00  0.00     0.118 C 
BRANCH   2   3
ATOM      3  N   UNL A   1      32.819  30.439  25.923  1.00  0.00    -0.352 N 
ATOM      4  O   UNL A   1      32.705  32.292  27.195  1.00  0.00    -0.269 OA
ATOM      5  C   UNL A   1      33.310  31.262  26.905  1.00  0.00     0.251 C 
ATOM      6  H   UNL A   1      32.074  30.818  25.403  1.00  0.00     0.163 HD
BRANCH   5   7
ATOM      7  C   UNL A   1      34.549  30.914  27.633  1.00  0.00     0.039 A 
ATOM      8  C   UNL A   1      34.787  29.607  28.062  1.00  0.00     0.014 A 
ATOM      9  C   UNL A   1      35.510  31.905  27.859  1.00  0.00     0.014 A 
ATOM     10  C   UNL A   1      35.892  29.328  28.854  1.00  0.00     0.010 A 
ATOM     11  C   UNL A   1      36.675  31.600  28.570  1.00  0.00     0.010 A 
ATOM     12  C   UNL A   1      36.859  30.315  29.102  1.00  0.00    -0.014 A 
BRANCH  12  13
ATOM     13  C   UNL A   1      38.083  29.953  29.862  1.00  0.00     0.031 A 
ATOM     14  C   UNL A   1      38.312  30.459  31.258  1.00  0.00     0.074 A 
ATOM     15  C   UNL A   1      38.977  29.127  29.285  1.00  0.00     0.049 A 
ATOM     16  N   UNL A   1      39.314  30.220  32.066  1.00  0.00    -0.248 NA
ATOM     17  C   UNL A   1      37.290  31.355  31.820  1.00  0.00     0.031 C 
ATOM     18  C   UNL A   1      38.865  28.584  27.929  1.00  0.00     0.029 A 
ATOM     19  N   UNL A   1      40.140  28.583  29.764  1.00  0.00    -0.354 N 
ATOM     20  C   UNL A   1      39.055  30.946  33.221  1.00  0.00     0.074 A 
ATOM     21  C   UNL A   1      37.813  31.657  33.001  1.00  0.00     0.031 C 
ATOM     22  C   UNL A   1      39.888  27.748  27.704  1.00  0.00     0.029 A 
ATOM     23  C   UNL A   1      40.761  27.746  28.872  1.00  0.00     0.049 A 
ATOM     24  H   UNL A   1      40.496  28.774  30.662  1.00  0.00     0.167 HD
ATOM     25  C   UNL A   1      39.784  31.005  34.362  1.00  0.00     0.037 A 
ATOM     26  C   UNL A   1      41.915  27.062  28.973  1.00  0.00     0.037 A 
ATOM     27  C   UNL A   1      41.011  30.280  34.579  1.00  0.00     0.049 A 
ATOM     28  C   UNL A   1      42.711  27.163  30.241  1.00  0.00     0.074 A 
ATOM     29  C   UNL A   1      41.802  30.243  35.714  1.00  0.00     0.029 A 
ATOM     30  N   UNL A   1      41.625  29.464  33.639  1.00  0.00    -0.354 N 
ATOM     31  N   UNL A   1      42.437  27.827  31.337  1.00  0.00    -0.248 NA
ATOM     32  C   UNL A   1      43.978  26.423  30.284  1.00  0.00     0.031 C 
ATOM     33  C   UNL A   1      42.919  29.443  35.445  1.00  0.00     0.029 A 
ATOM     34  C   UNL A   1      42.798  28.940  34.161  1.00  0.00     0.049 A 
ATOM     35  H   UNL A   1      41.279  29.284  32.736  1.00  0.00     0.167 HD
ATOM     36  C   UNL A   1      43.489  27.576  32.206  1.00  0.00     0.074 A 
ATOM     37  C   UNL A   1      44.394  26.679  31.517  1.00  0.00     0.031 C 
ATOM     38  C   UNL A   1      43.688  28.049  33.460  1.00  0.00     0.037 A 
BRANCH  25  39
ATOM     39  C   UNL A   1      39.287  31.895  35.463  1.00  0.00     0.064 A 
ATOM     40  C   UNL A   1      39.586  33.266  35.497  1.00  0.00     0.173 A 
ATOM     41  C   UNL A   1      38.457  31.381  36.471  1.00  0.00     0.173 A 
ATOM     42  F   UNL A   1      40.382  33.807  34.562  1.00  0.00    -0.203 F 
ATOM     43  C   UNL A   1      39.088  34.083  36.510  1.00  0.00     0.198 A 
ATOM     44  C   UNL A   1      37.941  32.206  37.468  1.00  0.00     0.198 A 
ATOM     45  F   UNL A   1      38.134  30.079  36.483  1.00  0.00    -0.203 F 
ATOM     46  F   UNL A   1      39.418  35.381  36.543  1.00  0.00    -0.200 F 
ATOM     47  C   UNL A   1      38.261  33.555  37.489  1.00  0.00     0.200 A 
ATOM     48  F   UNL A   1      37.131  31.696  38.405  1.00  0.00    -0.200 F 
ATOM     49  F   UNL A   1      37.777  34.344  38.458  1.00  0.00    -0.200 F 
ENDBRANCH  25  39
BRANCH  26  50
ATOM     50  C   UNL A   1      42.379  26.230  27.834  1.00  0.00     0.064 A 
ATOM     51  C   UNL A   1      41.881  24.936  27.636  1.00  0.00     0.173 A 
ATOM     52  C   UNL A   1      43.316  26.719  26.911  1.00  0.00     0.173 A 
ATOM     53  F   UNL A   1      40.997  24.417  28.501  1.00  0.00    -0.203 F 
ATOM     54  C   UNL A   1      42.311  24.157  26.563  1.00  0.00     0.198 A 
ATOM     55  C   UNL A   1      43.722  25.952  25.823  1.00  0.00     0.198 A 
ATOM     56  F   UNL A   1      43.817  27.954  27.055  1.00  0.00    -0.203 F 
ATOM     57  F   UNL A   1      41.848  22.909  26.416  1.00  0.00    -0.200 F 
ATOM     58  C   UNL A   1      43.226  24.669  25.653  1.00  0.00     0.200 A 
ATOM     59  F   UNL A   1      44.592  26.457  24.937  1.00  0.00    -0.200 F 
ATOM     60  F   UNL A   1      43.631  23.923  24.617  1.00  0.00    -0.200 F 
ENDBRANCH  26  50
BRANCH  38  61
ATOM     61  C   UNL A   1      44.922  27.584  34.174  1.00  0.00     0.064 A 
ATOM     62  C   UNL A   1      44.928  26.411  34.943  1.00  0.00     0.173 A 
ATOM     63  C   UNL A   1      46.119  28.308  34.070  1.00  0.00     0.173 A 
ATOM     64  F   UNL A   1      43.802  25.694  35.087  1.00  0.00    -0.203 F 
ATOM     65  C   UNL A   1      46.080  25.994  35.602  1.00  0.00     0.198 A 
ATOM     66  C   UNL A   1      47.277  27.874  34.707  1.00  0.00     0.198 A 
ATOM     67  F   UNL A   1      46.167  29.435  33.343  1.00  0.00    -0.203 F 
ATOM     68  F   UNL A   1      46.050  24.898  36.372  1.00  0.00    -0.200 F 
ATOM     69  C   UNL A   1      47.255  26.721  35.478  1.00  0.00     0.200 A 
ATOM     70  F   UNL A   1      48.414  28.571  34.578  1.00  0.00    -0.200 F 
ATOM     71  F   UNL A   1      48.365  26.316  36.111  1.00  0.00    -0.200 F 
ENDBRANCH  38  61
ENDBRANCH  12  13
ENDBRANCH   5   7
ENDBRANCH   2   3
ENDBRANCH   1   2
BRANCH   1  72
ATOM     72  C   UNL A   1      33.115  28.961  22.975  1.00  0.00     0.118 C 
BRANCH  72  73
ATOM     73  N   UNL A   1      33.470  27.821  22.143  1.00  0.00    -0.352 N 
ATOM     74  C   UNL A   1      33.185  26.490  22.297  1.00  0.00     0.253 C 
ATOM     75  H   UNL A   1      33.998  28.041  21.342  1.00  0.00     0.163 HD
ATOM     76  O   UNL A   1      33.653  25.669  21.516  1.00  0.00    -0.269 OA
BRANCH  74  77
ATOM     77  C   UNL A   1      32.273  26.046  23.363  1.00  0.00     0.067 A 
ATOM     78  C   UNL A   1      30.892  26.098  23.115  1.00  0.00     0.017 A 
ATOM     79  C   UNL A   1      32.727  25.487  24.560  1.00  0.00     0.107 A 
ATOM     80  C   UNL A   1      29.997  25.646  24.075  1.00  0.00     0.021 A 
ATOM     81  N   UNL A   1      31.840  25.010  25.486  1.00  0.00    -0.254 NA
ATOM     82  C   UNL A   1      30.516  25.109  25.234  1.00  0.00     0.111 A 
BRANCH  79  83
ATOM     83  C   UNL A   1      34.204  25.336  24.912  1.00  0.00     0.321 C 
BRANCH  83  84
ATOM     84  N   UNL A   1      34.724  23.978  25.198  1.00  0.00    -0.322 N 
ATOM     85  C   UNL A   1      36.073  23.958  25.760  1.00  0.00     0.263 C 
ATOM     86  C   UNL A   1      34.696  23.076  24.031  1.00  0.00     0.234 C 
ATOM     87  H   UNL A   1      34.072  23.635  25.903  1.00  0.00     0.349 HD
ATOM     88  C   UNL A   1      37.017  23.519  24.652  1.00  0.00     0.068 C 
ATOM     89  C   UNL A   1      36.142  22.946  23.548  1.00  0.00     0.078 C 
BRANCH  86  90
ATOM     90  C   UNL A   1      34.072  21.708  24.318  1.00  0.00     0.098 A 
ATOM     91  C   UNL A   1      32.688  21.514  24.327  1.00  0.00     0.030 A 
ATOM     92  N   UNL A   1      34.933  20.699  24.627  1.00  0.00    -0.255 NA
ATOM     93  C   UNL A   1      32.173  20.260  24.643  1.00  0.00     0.004 A 
ATOM     94  C   UNL A   1      34.402  19.489  24.915  1.00  0.00     0.111 A 
ATOM     95  C   UNL A   1      33.044  19.223  24.941  1.00  0.00     0.020 A 
ENDBRANCH  86  90
ENDBRANCH  83  84
ENDBRANCH  79  83
ENDBRANCH  74  77
ENDBRANCH  72  73
ENDBRANCH   1  72
TORSDOF 13
ENDMDL
MODEL 3
REMARK VINA RESULT:     -12.2      1.902      3.005
REMARK SMILES O=C(NCCCNC(=O)c1cccnc1C[N@@H+]1CCC[C@H]1c1ccccn1)c1ccc(-c2c3nc(c(-c4c(F)c(F)c(F)c(F)c4F)c4ccc([nH]4)c(-c4c(F)c(F)c(F)c(F)c4F)c4nc(c(-c5c(F)c(F)c(F)c(F)c5F)c5ccc2[nH]5)C=C4)C=C3)cc1
REMARK SMILES IDX 5 1 4 2 3 3 1 4 2 5 28 7 29 8 90 9 30 10 89 11 31 12 32 13
REMARK SMILES IDX 33 14 83 15 34 16 88 17 82 18 84 19 35 20 87 21 81 22 80 23
REMARK SMILES IDX 36 25 68 26 48 27 67 28 49 29 52 30 66 31 85 32 50 33 51 34
REMARK SMILES IDX 65 36 86 37 53 38 37 39 38 40 46 41 39 42 40 43 44 44 47 45
REMARK SMILES IDX 41 46 42 47 45 48 43 49 69 50 70 51 78 52 71 53 72 54 76 55
REMARK SMILES IDX 79 56 73 57 74 58 77 59 75 60 54 61 55 62 63 63 56 64 57 65
REMARK SMILES IDX 61 66 64 67 58 68 59 69 62 70 60 71 6 72 7 73 8 74 9 76
REMARK SMILES IDX 10 77 11 78 15 79 12 80 14 81 13 82 16 83 17 84 18 85 21 86
REMARK SMILES IDX 19 88 20 89 22 90 23 91 27 92 24 93 26 94 25 95
REMARK H PARENT 3 6 84 24 52 35 7 75 17 87
REMARK Flexibility Score: inf
ROOT
ATOM      1  C   UNL A   1      31.403  31.916  26.875  1.00  0.00     0.042 C 
ENDROOT
BRANCH   1   2
ATOM      2  C   UNL A   1      32.636  32.806  26.845  1.00  0.00     0.118 C 
BRANCH   2   3
ATOM      3  N   UNL A   1      32.434  34.077  27.532  1.00  0.00    -0.352 N 
ATOM      4  O   UNL A   1      32.591  35.613  29.169  1.00  0.00    -0.269 OA
ATOM      5  C   UNL A   1      33.043  34.595  28.647  1.00  0.00     0.251 C 
ATOM      6  H   UNL A   1      31.748  34.657  27.130  1.00  0.00     0.163 HD
BRANCH   5   7
ATOM      7  C   UNL A   1      34.224  33.933  29.241  1.00  0.00     0.039 A 
ATOM      8  C   UNL A   1      34.079  32.837  30.094  1.00  0.00     0.014 A 
ATOM      9  C   UNL A   1      35.503  34.392  28.911  1.00  0.00     0.014 A 
ATOM     10  C   UNL A   1      35.189  32.312  30.742  1.00  0.00     0.010 A 
ATOM     11  C   UNL A   1      36.630  33.794  29.484  1.00  0.00     0.010 A 
ATOM     12  C   UNL A   1      36.479  32.771  30.431  1.00  0.00    -0.014 A 
BRANCH  12  13
ATOM     13  C   UNL A   1      37.651  32.112  31.062  1.00  0.00     0.031 A 
ATOM     14  C   UNL A   1      38.074  32.449  32.464  1.00  0.00     0.074 A 
ATOM     15  C   UNL A   1      38.314  31.172  30.361  1.00  0.00     0.049 A 
ATOM     16  N   UNL A   1      39.058  31.951  33.169  1.00  0.00    -0.248 NA
ATOM     17  C   UNL A   1      37.299  33.483  33.165  1.00  0.00     0.031 C 
ATOM     18  C   UNL A   1      38.001  30.772  28.987  1.00  0.00     0.029 A 
ATOM     19  N   UNL A   1      39.371  30.370  30.707  1.00  0.00    -0.354 N 
ATOM     20  C   UNL A   1      39.033  32.620  34.386  1.00  0.00     0.074 A 
ATOM     21  C   UNL A   1      37.952  33.580  34.315  1.00  0.00     0.031 C 
ATOM     22  C   UNL A   1      38.812  29.769  28.625  1.00  0.00     0.029 A 
ATOM     23  C   UNL A   1      39.744  29.499  29.714  1.00  0.00     0.049 A 
ATOM     24  H   UNL A   1      39.819  30.414  31.582  1.00  0.00     0.167 HD
ATOM     25  C   UNL A   1      39.835  32.441  35.463  1.00  0.00     0.037 A 
ATOM     26  C   UNL A   1      40.737  28.593  29.675  1.00  0.00     0.037 A 
ATOM     27  C   UNL A   1      40.898  31.470  35.532  1.00  0.00     0.049 A 
ATOM     28  C   UNL A   1      41.621  28.431  30.876  1.00  0.00     0.074 A 
ATOM     29  C   UNL A   1      41.741  31.186  36.591  1.00  0.00     0.029 A 
ATOM     30  N   UNL A   1      41.266  30.625  34.493  1.00  0.00    -0.354 N 
ATOM     31  N   UNL A   1      41.565  29.047  32.032  1.00  0.00    -0.248 NA
ATOM     32  C   UNL A   1      42.710  27.451  30.767  1.00  0.00     0.031 C 
ATOM     33  C   UNL A   1      42.648  30.202  36.181  1.00  0.00     0.029 A 
ATOM     34  C   UNL A   1      42.339  29.837  34.881  1.00  0.00     0.049 A 
ATOM     35  H   UNL A   1      40.830  30.590  33.612  1.00  0.00     0.167 HD
ATOM     36  C   UNL A   1      42.600  28.522  32.793  1.00  0.00     0.074 A 
ATOM     37  C   UNL A   1      43.252  27.520  31.975  1.00  0.00     0.031 C 
ATOM     38  C   UNL A   1      42.978  28.845  34.053  1.00  0.00     0.037 A 
BRANCH  25  39
ATOM     39  C   UNL A   1      39.608  33.322  36.657  1.00  0.00     0.064 A 
ATOM     40  C   UNL A   1      38.715  32.966  37.678  1.00  0.00     0.173 A 
ATOM     41  C   UNL A   1      40.335  34.513  36.808  1.00  0.00     0.173 A 
ATOM     42  F   UNL A   1      37.989  31.841  37.579  1.00  0.00    -0.203 F 
ATOM     43  C   UNL A   1      38.541  33.781  38.796  1.00  0.00     0.198 A 
ATOM     44  C   UNL A   1      40.177  35.313  37.939  1.00  0.00     0.198 A 
ATOM     45  F   UNL A   1      41.207  34.898  35.865  1.00  0.00    -0.203 F 
ATOM     46  F   UNL A   1      37.653  33.440  39.739  1.00  0.00    -0.200 F 
ATOM     47  C   UNL A   1      39.277  34.948  38.928  1.00  0.00     0.200 A 
ATOM     48  F   UNL A   1      40.899  36.433  38.071  1.00  0.00    -0.200 F 
ATOM     49  F   UNL A   1      39.115  35.726  40.007  1.00  0.00    -0.200 F 
ENDBRANCH  25  39
BRANCH  26  50
ATOM     50  C   UNL A   1      40.942  27.778  28.451  1.00  0.00     0.064 A 
ATOM     51  C   UNL A   1      40.259  26.568  28.267  1.00  0.00     0.173 A 
ATOM     52  C   UNL A   1      41.808  28.202  27.432  1.00  0.00     0.173 A 
ATOM     53  F   UNL A   1      39.434  26.112  29.220  1.00  0.00    -0.203 F 
ATOM     54  C   UNL A   1      40.447  25.806  27.115  1.00  0.00     0.198 A 
ATOM     55  C   UNL A   1      41.970  27.455  26.268  1.00  0.00     0.198 A 
ATOM     56  F   UNL A   1      42.479  29.356  27.559  1.00  0.00    -0.203 F 
ATOM     57  F   UNL A   1      39.811  24.634  26.979  1.00  0.00    -0.200 F 
ATOM     58  C   UNL A   1      41.296  26.255  26.113  1.00  0.00     0.200 A 
ATOM     59  F   UNL A   1      42.778  27.902  25.296  1.00  0.00    -0.200 F 
ATOM     60  F   UNL A   1      41.466  25.527  25.001  1.00  0.00    -0.200 F 
ENDBRANCH  26  50
BRANCH  38  61
ATOM     61  C   UNL A   1      44.135  28.088  34.631  1.00  0.00     0.064 A 
ATOM     62  C   UNL A   1      43.954  26.870  35.302  1.00  0.00     0.173 A 
ATOM     63  C   UNL A   1      45.443  28.574  34.493  1.00  0.00     0.173 A 
ATOM     64  F   UNL A   1      42.720  26.372  35.476  1.00  0.00    -0.203 F 
ATOM     65  C   UNL A   1      45.038  26.179  35.835  1.00  0.00     0.198 A 
ATOM     66  C   UNL A   1      46.528  27.868  35.002  1.00  0.00     0.198 A 
ATOM     67  F   UNL A   1      45.670  29.733  33.856  1.00  0.00    -0.203 F 
ATOM     68  F   UNL A   1      44.838  25.043  36.516  1.00  0.00    -0.200 F 
ATOM     69  C   UNL A   1      46.324  26.675  35.680  1.00  0.00     0.200 A 
ATOM     70  F   UNL A   1      47.771  28.342  34.842  1.00  0.00    -0.200 F 
ATOM     71  F   UNL A   1      47.368  26.008  36.192  1.00  0.00    -0.200 F 
ENDBRANCH  38  61
ENDBRANCH  12  13
ENDBRANCH   5   7
ENDBRANCH   2   3
ENDBRANCH   1   2
BRANCH   1  72
ATOM     72  C   UNL A   1      31.708  30.427  26.805  1.00  0.00     0.118 C 
BRANCH  72  73
ATOM     73  N   UNL A   1      32.749  30.117  25.837  1.00  0.00    -0.352 N 
ATOM     74  C   UNL A   1      32.704  29.348  24.704  1.00  0.00     0.253 C 
ATOM     75  H   UNL A   1      33.624  30.526  26.025  1.00  0.00     0.163 HD
ATOM     76  O   UNL A   1      33.728  29.145  24.060  1.00  0.00    -0.269 OA
BRANCH  74  77
ATOM     77  C   UNL A   1      31.420  28.811  24.224  1.00  0.00     0.067 A 
ATOM     78  C   UNL A   1      30.510  29.703  23.634  1.00  0.00     0.017 A 
ATOM     79  C   UNL A   1      31.121  27.447  24.241  1.00  0.00     0.107 A 
ATOM     80  C   UNL A   1      29.308  29.232  23.125  1.00  0.00     0.021 A 
ATOM     81  N   UNL A   1      29.949  26.986  23.706  1.00  0.00    -0.254 NA
ATOM     82  C   UNL A   1      29.077  27.874  23.179  1.00  0.00     0.111 A 
BRANCH  79  83
ATOM     83  C   UNL A   1      32.056  26.386  24.812  1.00  0.00     0.321 C 
BRANCH  83  84
ATOM     84  N   UNL A   1      33.140  25.865  23.946  1.00  0.00    -0.322 N 
ATOM     85  C   UNL A   1      33.053  26.293  22.552  1.00  0.00     0.263 C 
ATOM     86  C   UNL A   1      33.264  24.395  23.972  1.00  0.00     0.234 C 
ATOM     87  H   UNL A   1      33.974  26.278  24.363  1.00  0.00     0.349 HD
ATOM     88  C   UNL A   1      32.551  25.106  21.747  1.00  0.00     0.068 C 
ATOM     89  C   UNL A   1      32.691  23.889  22.647  1.00  0.00     0.078 C 
BRANCH  86  90
ATOM     90  C   UNL A   1      34.693  23.894  24.198  1.00  0.00     0.098 A 
ATOM     91  C   UNL A   1      35.373  23.143  23.237  1.00  0.00     0.030 A 
ATOM     92  N   UNL A   1      35.247  24.165  25.413  1.00  0.00    -0.255 NA
ATOM     93  C   UNL A   1      36.653  22.670  23.515  1.00  0.00     0.004 A 
ATOM     94  C   UNL A   1      36.497  23.704  25.646  1.00  0.00     0.111 A 
ATOM     95  C   UNL A   1      37.231  22.957  24.742  1.00  0.00     0.020 A 
ENDBRANCH  86  90
ENDBRANCH  83  84
ENDBRANCH  79  83
ENDBRANCH  74  77
ENDBRANCH  72  73
ENDBRANCH   1  72
TORSDOF 13
ENDMDL
