MODEL 1
REMARK VINA RESULT:     -13.9      0.000      0.000
REMARK SMILES NS(=O)(=O)c1ccc(-c2cc(Cl)cc3c2O[C@H](C(F)(F)F)C(C(=O)NCCCNC(=O)c2ccc(-c4c5nc(c(-c6c(F)c(F)c(F)c(F)c6F)c6ccc([nH]6)c(-c6c(F)c(F)c(F)c(F)c6F)c6nc(c(-c7c(F)c(F)c(F)c(F)c7F)c7ccc4[nH]7)C=C6)C=C5)cc2)=C3)cc1
REMARK SMILES IDX 26 1 25 2 23 3 24 4 22 6 9 7 10 8 15 9 11 10 14 11 16 12
REMARK SMILES IDX 12 13 13 14 95 15 17 16 8 17 5 18 6 19 97 20 7 21 96 22 2 23
REMARK SMILES IDX 3 24 4 25 1 26 18 29 19 30 20 31 21 32 27 33 28 34 29 35
REMARK SMILES IDX 30 36 31 38 32 39 33 40 94 41 34 42 93 43 35 44 36 45 37 46
REMARK SMILES IDX 87 47 38 48 92 49 86 50 88 51 39 52 91 53 85 54 84 55 40 57
REMARK SMILES IDX 72 58 52 59 71 60 53 61 56 62 70 63 89 64 54 65 55 66 69 68
REMARK SMILES IDX 90 69 57 70 41 71 42 72 50 73 43 74 44 75 48 76 51 77 45 78
REMARK SMILES IDX 46 79 49 80 47 81 73 82 74 83 82 84 75 85 76 86 80 87 83 88
REMARK SMILES IDX 77 89 78 90 81 91 79 92 58 93 59 94 67 95 60 96 61 97 65 98
REMARK SMILES IDX 68 99 62 100 63 101 66 102 64 103
REMARK H PARENT 25 5 1 27 1 28 29 37 88 56 56 67
REMARK Flexibility Score: inf
ROOT
ATOM      1  C   UNL A   1      33.062  29.178  24.550  1.00  0.00     0.118 C 
ENDROOT
BRANCH   1   2
ATOM      2  N   UNL A   1      33.683  28.047  25.210  1.00  0.00    -0.352 N 
ATOM      3  C   UNL A   1      33.112  26.834  25.420  1.00  0.00     0.251 C 
ATOM      4  O   UNL A   1      33.240  26.274  26.502  1.00  0.00    -0.270 OA
ATOM      5  H   UNL A   1      34.604  28.169  25.535  1.00  0.00     0.163 HD
BRANCH   3   6
ATOM      6  C   UNL A   1      32.475  26.180  24.240  1.00  0.00     0.067 C 
ATOM      7  C   UNL A   1      33.583  22.326  24.902  1.00  0.00     0.026 A 
ATOM      8  C   UNL A   1      34.948  22.348  25.289  1.00  0.00     0.033 A 
ATOM      9  C   UNL A   1      33.073  23.511  24.350  1.00  0.00     0.135 A 
ATOM     10  C   UNL A   1      35.797  23.409  24.976  1.00  0.00     0.042 A 
ATOM     11  C   UNL A   1      33.972  24.525  23.934  1.00  0.00     0.019 A 
ATOM     12  O   UNL A   1      31.715  23.774  24.232  1.00  0.00    -0.475 OA
ATOM     13  Cl  UNL A   1      37.436  23.370  25.490  1.00  0.00    -0.084 Cl
ATOM     14  C   UNL A   1      35.331  24.472  24.229  1.00  0.00     0.032 A 
ATOM     15  C   UNL A   1      33.394  25.755  23.349  1.00  0.00     0.025 C 
ATOM     16  C   UNL A   1      31.368  25.186  24.574  1.00  0.00     0.314 C 
BRANCH   7  17
ATOM     17  C   UNL A   1      32.961  20.976  24.893  1.00  0.00    -0.015 A 
ATOM     18  C   UNL A   1      33.001  18.163  24.655  1.00  0.00     0.082 A 
ATOM     19  C   UNL A   1      33.065  18.753  25.918  1.00  0.00     0.022 A 
ATOM     20  C   UNL A   1      32.772  18.950  23.526  1.00  0.00     0.022 A 
ATOM     21  C   UNL A   1      33.025  20.150  26.037  1.00  0.00     0.010 A 
ATOM     22  C   UNL A   1      32.738  20.349  23.651  1.00  0.00     0.010 A 
BRANCH  18  23
ATOM     23  S   UNL A   1      33.340  16.429  24.525  1.00  0.00     0.238 S 
ATOM     24  O   UNL A   1      33.667  16.126  23.148  1.00  0.00    -0.207 OA
ATOM     25  O   UNL A   1      32.326  15.714  25.259  1.00  0.00    -0.207 OA
BRANCH  23  26
ATOM     26  N   UNL A   1      34.768  16.191  25.378  1.00  0.00    -0.225 NA
ATOM     27  H   UNL A   1      34.922  15.190  25.511  1.00  0.00     0.137 HD
ATOM     28  H   UNL A   1      34.702  16.648  26.287  1.00  0.00     0.137 HD
ENDBRANCH  23  26
ENDBRANCH  18  23
ENDBRANCH   7  17
BRANCH  16  29
ATOM     29  C   UNL A   1      30.074  25.655  23.871  1.00  0.00     0.429 C 
ATOM     30  F   UNL A   1      29.513  24.695  23.105  1.00  0.00    -0.167 F 
ATOM     31  F   UNL A   1      29.145  26.051  24.777  1.00  0.00    -0.167 F 
ATOM     32  F   UNL A   1      30.282  26.725  23.057  1.00  0.00    -0.167 F 
ENDBRANCH  16  29
ENDBRANCH   3   6
ENDBRANCH   1   2
BRANCH   1  33
ATOM     33  C   UNL A   1      31.896  29.702  25.392  1.00  0.00     0.042 C 
BRANCH  33  34
ATOM     34  C   UNL A   1      32.288  30.202  26.781  1.00  0.00     0.118 C 
BRANCH  34  35
ATOM     35  N   UNL A   1      32.343  31.652  26.877  1.00  0.00    -0.352 N 
ATOM     36  C   UNL A   1      33.295  32.447  27.468  1.00  0.00     0.251 C 
ATOM     37  H   UNL A   1      31.592  32.132  26.459  1.00  0.00     0.163 HD
ATOM     38  O   UNL A   1      33.112  33.655  27.577  1.00  0.00    -0.269 OA
BRANCH  36  39
ATOM     39  C   UNL A   1      34.528  31.835  28.007  1.00  0.00     0.039 A 
ATOM     40  C   UNL A   1      35.650  32.642  28.203  1.00  0.00     0.014 A 
ATOM     41  C   UNL A   1      34.567  30.479  28.343  1.00  0.00     0.014 A 
ATOM     42  C   UNL A   1      36.788  32.106  28.811  1.00  0.00     0.010 A 
ATOM     43  C   UNL A   1      35.669  29.969  29.024  1.00  0.00     0.010 A 
ATOM     44  C   UNL A   1      36.790  30.777  29.269  1.00  0.00    -0.014 A 
BRANCH  44  45
ATOM     45  C   UNL A   1      37.948  30.220  30.015  1.00  0.00     0.031 A 
ATOM     46  C   UNL A   1      38.225  30.665  31.425  1.00  0.00     0.074 A 
ATOM     47  C   UNL A   1      38.792  29.369  29.399  1.00  0.00     0.049 A 
ATOM     48  N   UNL A   1      39.225  30.353  32.211  1.00  0.00    -0.248 NA
ATOM     49  C   UNL A   1      37.268  31.610  32.022  1.00  0.00     0.031 C 
ATOM     50  C   UNL A   1      38.664  28.904  28.017  1.00  0.00     0.029 A 
ATOM     51  N   UNL A   1      39.933  28.752  29.851  1.00  0.00    -0.354 N 
ATOM     52  C   UNL A   1      39.025  31.074  33.381  1.00  0.00     0.074 A 
ATOM     53  C   UNL A   1      37.842  31.882  33.183  1.00  0.00     0.031 C 
ATOM     54  C   UNL A   1      39.669  28.057  27.742  1.00  0.00     0.029 A 
ATOM     55  C   UNL A   1      40.536  27.952  28.911  1.00  0.00     0.049 A 
ATOM     56  H   UNL A   1      40.285  28.872  30.761  1.00  0.00     0.167 HD
ATOM     57  C   UNL A   1      39.748  31.044  34.526  1.00  0.00     0.037 A 
ATOM     58  C   UNL A   1      41.666  27.222  28.981  1.00  0.00     0.037 A 
ATOM     59  C   UNL A   1      40.908  30.217  34.729  1.00  0.00     0.049 A 
ATOM     60  C   UNL A   1      42.453  27.209  30.264  1.00  0.00     0.074 A 
ATOM     61  C   UNL A   1      41.671  30.066  35.874  1.00  0.00     0.029 A 
ATOM     62  N   UNL A   1      41.476  29.402  33.761  1.00  0.00    -0.354 N 
ATOM     63  N   UNL A   1      42.210  27.837  31.390  1.00  0.00    -0.248 NA
ATOM     64  C   UNL A   1      43.667  26.381  30.289  1.00  0.00     0.031 C 
ATOM     65  C   UNL A   1      42.730  29.201  35.584  1.00  0.00     0.029 A 
ATOM     66  C   UNL A   1      42.594  28.765  34.276  1.00  0.00     0.049 A 
ATOM     67  H   UNL A   1      41.135  29.292  32.843  1.00  0.00     0.167 HD
ATOM     68  C   UNL A   1      43.219  27.455  32.265  1.00  0.00     0.074 A 
ATOM     69  C   UNL A   1      44.069  26.531  31.544  1.00  0.00     0.031 C 
ATOM     70  C   UNL A   1      43.423  27.836  33.549  1.00  0.00     0.037 A 
BRANCH  57  71
ATOM     71  C   UNL A   1      39.301  31.930  35.655  1.00  0.00     0.064 A 
ATOM     72  C   UNL A   1      38.357  31.499  36.601  1.00  0.00     0.173 A 
ATOM     73  C   UNL A   1      39.855  33.209  35.819  1.00  0.00     0.173 A 
ATOM     74  F   UNL A   1      37.789  30.290  36.485  1.00  0.00    -0.203 F 
ATOM     75  C   UNL A   1      37.961  32.328  37.647  1.00  0.00     0.198 A 
ATOM     76  C   UNL A   1      39.481  34.021  36.887  1.00  0.00     0.198 A 
ATOM     77  F   UNL A   1      40.767  33.667  34.950  1.00  0.00    -0.203 F 
ATOM     78  F   UNL A   1      37.018  31.914  38.505  1.00  0.00    -0.200 F 
ATOM     79  C   UNL A   1      38.529  33.584  37.794  1.00  0.00     0.200 A 
ATOM     80  F   UNL A   1      40.043  35.228  37.036  1.00  0.00    -0.200 F 
ATOM     81  F   UNL A   1      38.154  34.376  38.808  1.00  0.00    -0.200 F 
ENDBRANCH  57  71
BRANCH  58  82
ATOM     82  C   UNL A   1      42.113  26.424  27.808  1.00  0.00     0.064 A 
ATOM     83  C   UNL A   1      41.565  25.159  27.546  1.00  0.00     0.173 A 
ATOM     84  C   UNL A   1      43.099  26.900  26.931  1.00  0.00     0.173 A 
ATOM     85  F   UNL A   1      40.633  24.652  28.365  1.00  0.00    -0.203 F 
ATOM     86  C   UNL A   1      42.005  24.392  26.469  1.00  0.00     0.198 A 
ATOM     87  C   UNL A   1      43.516  26.145  25.837  1.00  0.00     0.198 A 
ATOM     88  F   UNL A   1      43.651  28.105  27.132  1.00  0.00    -0.203 F 
ATOM     89  F   UNL A   1      41.500  23.166  26.274  1.00  0.00    -0.200 F 
ATOM     90  C   UNL A   1      42.975  24.888  25.612  1.00  0.00     0.200 A 
ATOM     91  F   UNL A   1      44.442  26.634  25.002  1.00  0.00    -0.200 F 
ATOM     92  F   UNL A   1      43.396  24.150  24.575  1.00  0.00    -0.200 F 
ENDBRANCH  58  82
BRANCH  70  93
ATOM     93  C   UNL A   1      44.583  27.221  34.278  1.00  0.00     0.064 A 
ATOM     94  C   UNL A   1      44.464  26.002  34.960  1.00  0.00     0.173 A 
ATOM     95  C   UNL A   1      45.843  27.838  34.249  1.00  0.00     0.173 A 
ATOM     96  F   UNL A   1      43.278  25.379  35.030  1.00  0.00    -0.203 F 
ATOM     97  C   UNL A   1      45.559  25.436  35.609  1.00  0.00     0.198 A 
ATOM     98  C   UNL A   1      46.942  27.254  34.871  1.00  0.00     0.198 A 
ATOM     99  F   UNL A   1      46.012  29.002  33.603  1.00  0.00    -0.203 F 
ATOM    100  F   UNL A   1      45.412  24.296  36.296  1.00  0.00    -0.200 F 
ATOM    101  C   UNL A   1      46.798  26.057  35.556  1.00  0.00     0.200 A 
ATOM    102  F   UNL A   1      48.142  27.847  34.803  1.00  0.00    -0.200 F 
ATOM    103  F   UNL A   1      47.853  25.506  36.171  1.00  0.00    -0.200 F 
ENDBRANCH  70  93
ENDBRANCH  44  45
ENDBRANCH  36  39
ENDBRANCH  34  35
ENDBRANCH  33  34
ENDBRANCH   1  33
TORSDOF 14
ENDMDL
MODEL 2
REMARK VINA RESULT:     -13.3      5.555     11.367
REMARK SMILES NS(=O)(=O)c1ccc(-c2cc(Cl)cc3c2O[C@H](C(F)(F)F)C(C(=O)NCCCNC(=O)c2ccc(-c4c5nc(c(-c6c(F)c(F)c(F)c(F)c6F)c6ccc([nH]6)c(-c6c(F)c(F)c(F)c(F)c6F)c6nc(c(-c7c(F)c(F)c(F)c(F)c7F)c7ccc4[nH]7)C=C6)C=C5)cc2)=C3)cc1
REMARK SMILES IDX 26 1 25 2 23 3 24 4 22 6 9 7 10 8 15 9 11 10 14 11 16 12
REMARK SMILES IDX 12 13 13 14 95 15 17 16 8 17 5 18 6 19 97 20 7 21 96 22 2 23
REMARK SMILES IDX 3 24 4 25 1 26 18 29 19 30 20 31 21 32 27 33 28 34 29 35
REMARK SMILES IDX 30 36 31 38 32 39 33 40 94 41 34 42 93 43 35 44 36 45 37 46
REMARK SMILES IDX 87 47 38 48 92 49 86 50 88 51 39 52 91 53 85 54 84 55 40 57
REMARK SMILES IDX 72 58 52 59 71 60 53 61 56 62 70 63 89 64 54 65 55 66 69 68
REMARK SMILES IDX 90 69 57 70 41 71 42 72 50 73 43 74 44 75 48 76 51 77 45 78
REMARK SMILES IDX 46 79 49 80 47 81 73 82 74 83 82 84 75 85 76 86 80 87 83 88
REMARK SMILES IDX 77 89 78 90 81 91 79 92 58 93 59 94 67 95 60 96 61 97 65 98
REMARK SMILES IDX 68 99 62 100 63 101 66 102 64 103
REMARK H PARENT 25 5 1 27 1 28 29 37 88 56 56 67
REMARK Flexibility Score: inf
ROOT
ATOM      1  C   UNL A   1      42.676  22.174  27.976  1.00  0.00     0.118 C 
ENDROOT
BRANCH   1   2
ATOM      2  N   UNL A   1      43.156  23.532  28.134  1.00  0.00    -0.352 N 
ATOM      3  C   UNL A   1      44.188  24.096  27.457  1.00  0.00     0.251 C 
ATOM      4  O   UNL A   1      45.006  24.789  28.051  1.00  0.00    -0.270 OA
ATOM      5  H   UNL A   1      42.691  24.097  28.792  1.00  0.00     0.163 HD
BRANCH   3   6
ATOM      6  C   UNL A   1      44.172  23.955  25.972  1.00  0.00     0.067 C 
ATOM      7  C   UNL A   1      46.390  27.201  24.942  1.00  0.00     0.026 A 
ATOM      8  C   UNL A   1      45.942  28.281  25.746  1.00  0.00     0.033 A 
ATOM      9  C   UNL A   1      45.576  26.057  24.924  1.00  0.00     0.135 A 
ATOM     10  C   UNL A   1      44.682  28.298  26.340  1.00  0.00     0.042 A 
ATOM     11  C   UNL A   1      44.255  26.139  25.432  1.00  0.00     0.019 A 
ATOM     12  O   UNL A   1      46.013  24.818  24.477  1.00  0.00    -0.475 OA
ATOM     13  Cl  UNL A   1      44.214  29.635  27.311  1.00  0.00    -0.084 Cl
ATOM     14  C   UNL A   1      43.800  27.258  26.123  1.00  0.00     0.032 A 
ATOM     15  C   UNL A   1      43.427  24.914  25.387  1.00  0.00     0.025 C 
ATOM     16  C   UNL A   1      45.532  23.693  25.336  1.00  0.00     0.314 C 
BRANCH   7  17
ATOM     17  C   UNL A   1      47.518  27.530  24.030  1.00  0.00    -0.015 A 
ATOM     18  C   UNL A   1      49.221  27.063  21.828  1.00  0.00     0.082 A 
ATOM     19  C   UNL A   1      48.107  27.892  21.680  1.00  0.00     0.022 A 
ATOM     20  C   UNL A   1      49.574  26.583  23.089  1.00  0.00     0.022 A 
ATOM     21  C   UNL A   1      47.273  28.139  22.780  1.00  0.00     0.010 A 
ATOM     22  C   UNL A   1      48.731  26.831  24.186  1.00  0.00     0.010 A 
BRANCH  18  23
ATOM     23  S   UNL A   1      50.079  26.549  20.366  1.00  0.00     0.238 S 
ATOM     24  O   UNL A   1      51.419  26.147  20.735  1.00  0.00    -0.207 OA
ATOM     25  O   UNL A   1      49.816  27.512  19.325  1.00  0.00    -0.207 OA
BRANCH  23  26
ATOM     26  N   UNL A   1      49.315  25.135  19.876  1.00  0.00    -0.225 NA
ATOM     27  H   UNL A   1      48.315  25.308  19.768  1.00  0.00     0.137 HD
ATOM     28  H   UNL A   1      49.460  24.409  20.577  1.00  0.00     0.137 HD
ENDBRANCH  23  26
ENDBRANCH  18  23
ENDBRANCH   7  17
BRANCH  16  29
ATOM     29  C   UNL A   1      45.451  22.360  24.557  1.00  0.00     0.429 C 
ATOM     30  F   UNL A   1      46.656  21.776  24.385  1.00  0.00    -0.167 F 
ATOM     31  F   UNL A   1      44.652  21.472  25.197  1.00  0.00    -0.167 F 
ATOM     32  F   UNL A   1      44.918  22.516  23.315  1.00  0.00    -0.167 F 
ENDBRANCH  16  29
ENDBRANCH   3   6
ENDBRANCH   1   2
BRANCH   1  33
ATOM     33  C   UNL A   1      41.187  22.182  27.621  1.00  0.00     0.042 C 
BRANCH  33  34
ATOM     34  C   UNL A   1      40.889  22.232  26.124  1.00  0.00     0.118 C 
BRANCH  34  35
ATOM     35  N   UNL A   1      39.491  22.498  25.823  1.00  0.00    -0.352 N 
ATOM     36  C   UNL A   1      38.694  23.532  26.251  1.00  0.00     0.251 C 
ATOM     37  H   UNL A   1      39.055  21.846  25.228  1.00  0.00     0.163 HD
ATOM     38  O   UNL A   1      37.491  23.527  26.008  1.00  0.00    -0.269 OA
BRANCH  36  39
ATOM     39  C   UNL A   1      39.285  24.635  27.037  1.00  0.00     0.039 A 
ATOM     40  C   UNL A   1      40.050  25.599  26.377  1.00  0.00     0.014 A 
ATOM     41  C   UNL A   1      39.060  24.735  28.413  1.00  0.00     0.014 A 
ATOM     42  C   UNL A   1      40.525  26.706  27.083  1.00  0.00     0.010 A 
ATOM     43  C   UNL A   1      39.462  25.879  29.096  1.00  0.00     0.010 A 
ATOM     44  C   UNL A   1      40.196  26.879  28.438  1.00  0.00    -0.014 A 
BRANCH  44  45
ATOM     45  C   UNL A   1      40.599  28.103  29.179  1.00  0.00     0.031 A 
ATOM     46  C   UNL A   1      41.979  28.214  29.766  1.00  0.00     0.074 A 
ATOM     47  C   UNL A   1      39.697  29.084  29.385  1.00  0.00     0.049 A 
ATOM     48  N   UNL A   1      42.490  29.164  30.508  1.00  0.00    -0.248 NA
ATOM     49  C   UNL A   1      42.898  27.093  29.513  1.00  0.00     0.031 C 
ATOM     50  C   UNL A   1      38.311  29.072  28.915  1.00  0.00     0.029 A 
ATOM     51  N   UNL A   1      39.809  30.278  30.055  1.00  0.00    -0.354 N 
ATOM     52  C   UNL A   1      43.777  28.748  30.821  1.00  0.00     0.074 A 
ATOM     53  C   UNL A   1      43.951  27.435  30.239  1.00  0.00     0.031 C 
ATOM     54  C   UNL A   1      37.709  30.213  29.287  1.00  0.00     0.029 A 
ATOM     55  C   UNL A   1      38.651  31.018  30.058  1.00  0.00     0.049 A 
ATOM     56  H   UNL A   1      40.639  30.575  30.491  1.00  0.00     0.167 HD
ATOM     57  C   UNL A   1      44.737  29.413  31.509  1.00  0.00     0.037 A 
ATOM     58  C   UNL A   1      38.376  32.209  30.627  1.00  0.00     0.037 A 
ATOM     59  C   UNL A   1      44.569  30.730  32.063  1.00  0.00     0.049 A 
ATOM     60  C   UNL A   1      39.459  32.924  31.389  1.00  0.00     0.074 A 
ATOM     61  C   UNL A   1      45.500  31.515  32.720  1.00  0.00     0.029 A 
ATOM     62  N   UNL A   1      43.388  31.458  32.026  1.00  0.00    -0.354 N 
ATOM     63  N   UNL A   1      40.697  32.553  31.613  1.00  0.00    -0.248 NA
ATOM     64  C   UNL A   1      39.110  34.227  31.973  1.00  0.00     0.031 C 
ATOM     65  C   UNL A   1      44.870  32.695  33.127  1.00  0.00     0.029 A 
ATOM     66  C   UNL A   1      43.562  32.673  32.671  1.00  0.00     0.049 A 
ATOM     67  H   UNL A   1      42.551  31.156  31.604  1.00  0.00     0.167 HD
ATOM     68  C   UNL A   1      41.282  33.588  32.332  1.00  0.00     0.074 A 
ATOM     69  C   UNL A   1      40.267  34.607  32.495  1.00  0.00     0.031 C 
ATOM     70  C   UNL A   1      42.545  33.684  32.813  1.00  0.00     0.037 A 
BRANCH  57  71
ATOM     71  C   UNL A   1      46.059  28.726  31.699  1.00  0.00     0.064 A 
ATOM     72  C   UNL A   1      46.327  27.942  32.833  1.00  0.00     0.173 A 
ATOM     73  C   UNL A   1      47.057  28.815  30.716  1.00  0.00     0.173 A 
ATOM     74  F   UNL A   1      45.411  27.831  33.807  1.00  0.00    -0.203 F 
ATOM     75  C   UNL A   1      47.554  27.304  32.991  1.00  0.00     0.198 A 
ATOM     76  C   UNL A   1      48.270  28.147  30.862  1.00  0.00     0.198 A 
ATOM     77  F   UNL A   1      46.852  29.544  29.609  1.00  0.00    -0.203 F 
ATOM     78  F   UNL A   1      47.803  26.605  34.108  1.00  0.00    -0.200 F 
ATOM     79  C   UNL A   1      48.520  27.399  32.003  1.00  0.00     0.200 A 
ATOM     80  F   UNL A   1      49.198  28.227  29.899  1.00  0.00    -0.200 F 
ATOM     81  F   UNL A   1      49.697  26.775  32.151  1.00  0.00    -0.200 F 
ENDBRANCH  57  71
BRANCH  58  82
ATOM     82  C   UNL A   1      37.025  32.812  30.480  1.00  0.00     0.064 A 
ATOM     83  C   UNL A   1      36.059  32.667  31.486  1.00  0.00     0.173 A 
ATOM     84  C   UNL A   1      36.666  33.533  29.332  1.00  0.00     0.173 A 
ATOM     85  F   UNL A   1      36.346  31.969  32.594  1.00  0.00    -0.203 F 
ATOM     86  C   UNL A   1      34.780  33.199  31.339  1.00  0.00     0.198 A 
ATOM     87  C   UNL A   1      35.397  34.092  29.199  1.00  0.00     0.198 A 
ATOM     88  F   UNL A   1      37.555  33.707  28.342  1.00  0.00    -0.203 F 
ATOM     89  F   UNL A   1      33.861  33.002  32.294  1.00  0.00    -0.200 F 
ATOM     90  C   UNL A   1      34.451  33.916  30.198  1.00  0.00     0.200 A 
ATOM     91  F   UNL A   1      35.089  34.798  28.103  1.00  0.00    -0.200 F 
ATOM     92  F   UNL A   1      33.221  34.430  30.058  1.00  0.00    -0.200 F 
ENDBRANCH  58  82
BRANCH  70  93
ATOM     93  C   UNL A   1      42.920  34.954  33.523  1.00  0.00     0.064 A 
ATOM     94  C   UNL A   1      43.320  36.101  32.823  1.00  0.00     0.173 A 
ATOM     95  C   UNL A   1      42.830  35.034  34.921  1.00  0.00     0.173 A 
ATOM     96  F   UNL A   1      43.437  36.071  31.488  1.00  0.00    -0.203 F 
ATOM     97  C   UNL A   1      43.640  37.275  33.500  1.00  0.00     0.198 A 
ATOM     98  C   UNL A   1      43.118  36.219  35.591  1.00  0.00     0.198 A 
ATOM     99  F   UNL A   1      42.444  33.967  35.638  1.00  0.00    -0.203 F 
ATOM    100  F   UNL A   1      44.067  38.345  32.815  1.00  0.00    -0.200 F 
ATOM    101  C   UNL A   1      43.531  37.336  34.881  1.00  0.00     0.200 A 
ATOM    102  F   UNL A   1      42.995  36.281  36.924  1.00  0.00    -0.200 F 
ATOM    103  F   UNL A   1      43.828  38.471  35.529  1.00  0.00    -0.200 F 
ENDBRANCH  70  93
ENDBRANCH  44  45
ENDBRANCH  36  39
ENDBRANCH  34  35
ENDBRANCH  33  34
ENDBRANCH   1  33
TORSDOF 14
ENDMDL
MODEL 3
REMARK VINA RESULT:     -13.2      5.256     10.528
REMARK SMILES NS(=O)(=O)c1ccc(-c2cc(Cl)cc3c2O[C@H](C(F)(F)F)C(C(=O)NCCCNC(=O)c2ccc(-c4c5nc(c(-c6c(F)c(F)c(F)c(F)c6F)c6ccc([nH]6)c(-c6c(F)c(F)c(F)c(F)c6F)c6nc(c(-c7c(F)c(F)c(F)c(F)c7F)c7ccc4[nH]7)C=C6)C=C5)cc2)=C3)cc1
REMARK SMILES IDX 26 1 25 2 23 3 24 4 22 6 9 7 10 8 15 9 11 10 14 11 16 12
REMARK SMILES IDX 12 13 13 14 95 15 17 16 8 17 5 18 6 19 97 20 7 21 96 22 2 23
REMARK SMILES IDX 3 24 4 25 1 26 18 29 19 30 20 31 21 32 27 33 28 34 29 35
REMARK SMILES IDX 30 36 31 38 32 39 33 40 94 41 34 42 93 43 35 44 36 45 37 46
REMARK SMILES IDX 87 47 38 48 92 49 86 50 88 51 39 52 91 53 85 54 84 55 40 57
REMARK SMILES IDX 72 58 52 59 71 60 53 61 56 62 70 63 89 64 54 65 55 66 69 68
REMARK SMILES IDX 90 69 57 70 41 71 42 72 50 73 43 74 44 75 48 76 51 77 45 78
REMARK SMILES IDX 46 79 49 80 47 81 73 82 74 83 82 84 75 85 76 86 80 87 83 88
REMARK SMILES IDX 77 89 78 90 81 91 79 92 58 93 59 94 67 95 60 96 61 97 65 98
REMARK SMILES IDX 68 99 62 100 63 101 66 102 64 103
REMARK H PARENT 25 5 1 27 1 28 29 37 88 56 56 67
REMARK Flexibility Score: inf
ROOT
ATOM      1  C   UNL A   1      48.036  27.002  31.805  1.00  0.00     0.118 C 
ENDROOT
BRANCH   1   2
ATOM      2  N   UNL A   1      48.387  26.701  30.432  1.00  0.00    -0.352 N 
ATOM      3  C   UNL A   1      47.793  25.769  29.644  1.00  0.00     0.251 C 
ATOM      4  O   UNL A   1      48.477  25.035  28.940  1.00  0.00    -0.270 OA
ATOM      5  H   UNL A   1      49.121  27.221  30.033  1.00  0.00     0.163 HD
BRANCH   3   6
ATOM      6  C   UNL A   1      46.303  25.801  29.573  1.00  0.00     0.067 C 
ATOM      7  C   UNL A   1      45.733  23.852  26.053  1.00  0.00     0.026 A 
ATOM      8  C   UNL A   1      46.686  24.365  25.136  1.00  0.00     0.033 A 
ATOM      9  C   UNL A   1      45.558  24.578  27.242  1.00  0.00     0.135 A 
ATOM     10  C   UNL A   1      47.286  25.612  25.301  1.00  0.00     0.042 A 
ATOM     11  C   UNL A   1      46.082  25.892  27.334  1.00  0.00     0.019 A 
ATOM     12  O   UNL A   1      44.934  24.057  28.368  1.00  0.00    -0.475 OA
ATOM     13  Cl  UNL A   1      48.443  26.161  24.155  1.00  0.00    -0.084 Cl
ATOM     14  C   UNL A   1      46.929  26.417  26.364  1.00  0.00     0.032 A 
ATOM     15  C   UNL A   1      45.868  26.627  28.601  1.00  0.00     0.025 C 
ATOM     16  C   UNL A   1      45.626  24.437  29.636  1.00  0.00     0.314 C 
BRANCH   7  17
ATOM     17  C   UNL A   1      44.869  22.769  25.512  1.00  0.00    -0.015 A 
ATOM     18  C   UNL A   1      43.293  20.436  25.719  1.00  0.00     0.082 A 
ATOM     19  C   UNL A   1      42.682  21.691  25.750  1.00  0.00     0.022 A 
ATOM     20  C   UNL A   1      44.656  20.328  25.442  1.00  0.00     0.022 A 
ATOM     21  C   UNL A   1      43.464  22.849  25.627  1.00  0.00     0.010 A 
ATOM     22  C   UNL A   1      45.434  21.492  25.325  1.00  0.00     0.010 A 
BRANCH  18  23
ATOM     23  S   UNL A   1      42.321  19.023  26.160  1.00  0.00     0.238 S 
ATOM     24  O   UNL A   1      43.047  17.829  25.785  1.00  0.00    -0.207 OA
ATOM     25  O   UNL A   1      40.960  19.265  25.751  1.00  0.00    -0.207 OA
BRANCH  23  26
ATOM     26  N   UNL A   1      42.292  19.010  27.840  1.00  0.00    -0.225 NA
ATOM     27  H   UNL A   1      42.482  18.066  28.176  1.00  0.00     0.137 HD
ATOM     28  H   UNL A   1      41.373  19.308  28.167  1.00  0.00     0.137 HD
ENDBRANCH  23  26
ENDBRANCH  18  23
ENDBRANCH   7  17
BRANCH  16  29
ATOM     29  C   UNL A   1      44.665  24.432  30.847  1.00  0.00     0.429 C 
ATOM     30  F   UNL A   1      44.610  23.236  31.472  1.00  0.00    -0.167 F 
ATOM     31  F   UNL A   1      45.036  25.358  31.765  1.00  0.00    -0.167 F 
ATOM     32  F   UNL A   1      43.387  24.743  30.497  1.00  0.00    -0.167 F 
ENDBRANCH  16  29
ENDBRANCH   3   6
ENDBRANCH   1   2
BRANCH   1  33
ATOM     33  C   UNL A   1      48.722  26.013  32.751  1.00  0.00     0.042 C 
BRANCH  33  34
ATOM     34  C   UNL A   1      47.816  25.443  33.841  1.00  0.00     0.118 C 
BRANCH  34  35
ATOM     35  N   UNL A   1      48.145  25.922  35.174  1.00  0.00    -0.352 N 
ATOM     36  C   UNL A   1      47.565  26.934  35.899  1.00  0.00     0.251 C 
ATOM     37  H   UNL A   1      48.889  25.456  35.619  1.00  0.00     0.163 HD
ATOM     38  O   UNL A   1      48.062  27.299  36.960  1.00  0.00    -0.269 OA
BRANCH  36  39
ATOM     39  C   UNL A   1      46.357  27.609  35.378  1.00  0.00     0.039 A 
ATOM     40  C   UNL A   1      46.506  28.793  34.654  1.00  0.00     0.014 A 
ATOM     41  C   UNL A   1      45.088  27.061  35.579  1.00  0.00     0.014 A 
ATOM     42  C   UNL A   1      45.388  29.386  34.062  1.00  0.00     0.010 A 
ATOM     43  C   UNL A   1      43.989  27.606  34.920  1.00  0.00     0.010 A 
ATOM     44  C   UNL A   1      44.128  28.772  34.152  1.00  0.00    -0.014 A 
BRANCH  44  45
ATOM     45  C   UNL A   1      42.947  29.327  33.439  1.00  0.00     0.031 A 
ATOM     46  C   UNL A   1      42.048  30.320  34.121  1.00  0.00     0.074 A 
ATOM     47  C   UNL A   1      42.646  28.882  32.203  1.00  0.00     0.049 A 
ATOM     48  N   UNL A   1      40.932  30.858  33.695  1.00  0.00    -0.248 NA
ATOM     49  C   UNL A   1      42.435  30.741  35.477  1.00  0.00     0.031 C 
ATOM     50  C   UNL A   1      43.407  27.881  31.454  1.00  0.00     0.029 A 
ATOM     51  N   UNL A   1      41.610  29.206  31.361  1.00  0.00    -0.354 N 
ATOM     52  C   UNL A   1      40.480  31.663  34.732  1.00  0.00     0.074 A 
ATOM     53  C   UNL A   1      41.409  31.500  35.829  1.00  0.00     0.031 C 
ATOM     54  C   UNL A   1      42.830  27.691  30.257  1.00  0.00     0.029 A 
ATOM     55  C   UNL A   1      41.634  28.523  30.168  1.00  0.00     0.049 A 
ATOM     56  H   UNL A   1      40.916  29.864  31.590  1.00  0.00     0.167 HD
ATOM     57  C   UNL A   1      39.404  32.484  34.757  1.00  0.00     0.037 A 
ATOM     58  C   UNL A   1      40.783  28.557  29.125  1.00  0.00     0.037 A 
ATOM     59  C   UNL A   1      38.498  32.664  33.653  1.00  0.00     0.049 A 
ATOM     60  C   UNL A   1      39.592  29.475  29.180  1.00  0.00     0.074 A 
ATOM     61  C   UNL A   1      37.416  33.521  33.555  1.00  0.00     0.029 A 
ATOM     62  N   UNL A   1      38.569  31.972  32.453  1.00  0.00    -0.354 N 
ATOM     63  N   UNL A   1      39.218  30.290  30.137  1.00  0.00    -0.248 NA
ATOM     64  C   UNL A   1      38.707  29.485  28.006  1.00  0.00     0.031 C 
ATOM     65  C   UNL A   1      36.800  33.310  32.318  1.00  0.00     0.029 A 
ATOM     66  C   UNL A   1      37.534  32.365  31.619  1.00  0.00     0.049 A 
ATOM     67  H   UNL A   1      39.253  31.301  32.227  1.00  0.00     0.167 HD
ATOM     68  C   UNL A   1      38.078  30.931  29.671  1.00  0.00     0.074 A 
ATOM     69  C   UNL A   1      37.829  30.421  28.338  1.00  0.00     0.031 C 
ATOM     70  C   UNL A   1      37.307  31.858  30.289  1.00  0.00     0.037 A 
BRANCH  57  71
ATOM     71  C   UNL A   1      39.146  33.257  36.020  1.00  0.00     0.064 A 
ATOM     72  C   UNL A   1      38.378  32.722  37.067  1.00  0.00     0.173 A 
ATOM     73  C   UNL A   1      39.708  34.529  36.205  1.00  0.00     0.173 A 
ATOM     74  F   UNL A   1      37.810  31.514  36.938  1.00  0.00    -0.203 F 
ATOM     75  C   UNL A   1      38.156  33.446  38.235  1.00  0.00     0.198 A 
ATOM     76  C   UNL A   1      39.512  35.235  37.389  1.00  0.00     0.198 A 
ATOM     77  F   UNL A   1      40.456  35.085  35.240  1.00  0.00    -0.203 F 
ATOM     78  F   UNL A   1      37.376  32.935  39.198  1.00  0.00    -0.200 F 
ATOM     79  C   UNL A   1      38.730  34.697  38.399  1.00  0.00     0.200 A 
ATOM     80  F   UNL A   1      40.079  36.438  37.551  1.00  0.00    -0.200 F 
ATOM     81  F   UNL A   1      38.524  35.388  39.529  1.00  0.00    -0.200 F 
ENDBRANCH  57  71
BRANCH  58  82
ATOM     82  C   UNL A   1      41.036  27.711  27.928  1.00  0.00     0.064 A 
ATOM     83  C   UNL A   1      40.545  26.399  27.856  1.00  0.00     0.173 A 
ATOM     84  C   UNL A   1      41.779  28.189  26.838  1.00  0.00     0.173 A 
ATOM     85  F   UNL A   1      39.846  25.890  28.881  1.00  0.00    -0.203 F 
ATOM     86  C   UNL A   1      40.810  25.591  26.753  1.00  0.00     0.198 A 
ATOM     87  C   UNL A   1      42.016  27.389  25.722  1.00  0.00     0.198 A 
ATOM     88  F   UNL A   1      42.266  29.438  26.852  1.00  0.00    -0.203 F 
ATOM     89  F   UNL A   1      40.372  24.324  26.735  1.00  0.00    -0.200 F 
ATOM     90  C   UNL A   1      41.540  26.087  25.684  1.00  0.00     0.200 A 
ATOM     91  F   UNL A   1      42.708  27.879  24.684  1.00  0.00    -0.200 F 
ATOM     92  F   UNL A   1      41.791  25.309  24.622  1.00  0.00    -0.200 F 
ENDBRANCH  58  82
BRANCH  70  93
ATOM     93  C   UNL A   1      36.146  32.419  29.518  1.00  0.00     0.064 A 
ATOM     94  C   UNL A   1      36.109  33.761  29.112  1.00  0.00     0.173 A 
ATOM     95  C   UNL A   1      35.081  31.588  29.140  1.00  0.00     0.173 A 
ATOM     96  F   UNL A   1      37.095  34.600  29.461  1.00  0.00    -0.203 F 
ATOM     97  C   UNL A   1      35.034  34.255  28.377  1.00  0.00     0.198 A 
ATOM     98  C   UNL A   1      34.025  32.077  28.377  1.00  0.00     0.198 A 
ATOM     99  F   UNL A   1      35.073  30.294  29.497  1.00  0.00    -0.203 F 
ATOM    100  F   UNL A   1      34.995  35.551  28.041  1.00  0.00    -0.200 F 
ATOM    101  C   UNL A   1      33.999  33.411  28.003  1.00  0.00     0.200 A 
ATOM    102  F   UNL A   1      33.035  31.256  28.002  1.00  0.00    -0.200 F 
ATOM    103  F   UNL A   1      32.971  33.886  27.285  1.00  0.00    -0.200 F 
ENDBRANCH  70  93
ENDBRANCH  44  45
ENDBRANCH  36  39
ENDBRANCH  34  35
ENDBRANCH  33  34
ENDBRANCH   1  33
TORSDOF 14
ENDMDL
