MODEL 1
REMARK VINA RESULT:     -11.5      0.000      0.000
REMARK SMILES CC(C)NC(=O)CNC(=O)N1CCO[C@@H](CC(=O)NCCCNC(=O)c2ccc(-c3c4nc(c(-c5c(F)c(F)c(F)c(F)c5F)c5ccc([nH]5)c(-c5c(F)c(F)c(F)c(F)c5F)c5nc(c(-c6c(F)c(F)c(F)c(F)c6F)c6ccc3[nH]6)C=C5)C=C4)cc2)C1
REMARK SMILES IDX 17 1 18 2 19 3 16 5 15 6 11 7 12 8 89 9 13 10 14 11 9 12
REMARK SMILES IDX 8 13 10 15 7 16 5 17 4 18 6 20 2 21 1 22 3 23 20 24 21 25
REMARK SMILES IDX 22 26 23 27 24 28 25 30 26 31 27 32 88 33 28 34 87 35 29 36
REMARK SMILES IDX 30 37 31 38 81 39 32 40 86 41 80 42 82 43 33 44 85 45 79 46
REMARK SMILES IDX 78 47 34 49 66 50 46 51 65 52 47 53 50 54 64 55 83 56 48 57
REMARK SMILES IDX 49 58 63 60 84 61 51 62 35 63 36 64 44 65 37 66 38 67 42 68
REMARK SMILES IDX 45 69 39 70 40 71 43 72 41 73 67 74 68 75 76 76 69 77 70 78
REMARK SMILES IDX 74 79 77 80 71 81 72 82 75 83 73 84 52 85 53 86 61 87 54 88
REMARK SMILES IDX 55 89 59 90 62 91 56 92 57 93 60 94 58 95
REMARK H PARENT 19 4 8 14 4 19 23 29 82 48 50 59
REMARK Flexibility Score: inf
ROOT
ATOM      1  C   UNL A   1      33.213  29.135  26.724  1.00  0.00     0.222 C 
ATOM      2  O   UNL A   1      34.429  28.940  26.707  1.00  0.00    -0.275 OA
ATOM      3  N   UNL A   1      32.750  30.306  26.198  1.00  0.00    -0.356 N 
ATOM      4  H   UNL A   1      33.443  30.863  25.776  1.00  0.00     0.163 HD
ENDROOT
BRANCH   1   5
ATOM      5  C   UNL A   1      32.278  28.126  27.361  1.00  0.00     0.133 C 
BRANCH   5   6
ATOM      6  C   UNL A   1      31.717  27.145  26.327  1.00  0.00     0.147 C 
ATOM      7  N   UNL A   1      32.248  24.998  25.178  1.00  0.00    -0.320 N 
ATOM      8  C   UNL A   1      30.975  24.449  25.635  1.00  0.00     0.150 C 
ATOM      9  C   UNL A   1      32.757  26.069  26.007  1.00  0.00     0.154 C 
ATOM     10  C   UNL A   1      29.979  25.583  25.899  1.00  0.00     0.182 C 
ATOM     11  O   UNL A   1      30.517  26.533  26.843  1.00  0.00    -0.374 OA
BRANCH   7  12
ATOM     12  C   UNL A   1      33.166  24.271  24.463  1.00  0.00     0.318 C 
ATOM     13  N   UNL A   1      32.972  24.149  23.130  1.00  0.00    -0.329 N 
ATOM     14  H   UNL A   1      33.507  23.456  22.680  1.00  0.00     0.165 HD
ATOM     15  O   UNL A   1      34.214  23.854  24.952  1.00  0.00    -0.249 OA
BRANCH  13  16
ATOM     16  C   UNL A   1      32.075  24.908  22.274  1.00  0.00     0.217 C 
BRANCH  16  17
ATOM     17  C   UNL A   1      32.774  25.841  21.278  1.00  0.00     0.239 C 
ATOM     18  N   UNL A   1      33.042  27.143  21.584  1.00  0.00    -0.352 N 
ATOM     19  H   UNL A   1      33.422  27.673  20.845  1.00  0.00     0.163 HD
ATOM     20  O   UNL A   1      33.042  25.451  20.138  1.00  0.00    -0.273 OA
BRANCH  18  21
ATOM     21  C   UNL A   1      32.856  27.877  22.826  1.00  0.00     0.075 C 
ATOM     22  C   UNL A   1      34.033  28.814  23.068  1.00  0.00     0.030 C 
ATOM     23  C   UNL A   1      31.533  28.634  22.829  1.00  0.00     0.030 C 
ENDBRANCH  18  21
ENDBRANCH  16  17
ENDBRANCH  13  16
ENDBRANCH   7  12
ENDBRANCH   5   6
ENDBRANCH   1   5
BRANCH   3  24
ATOM     24  C   UNL A   1      31.407  30.877  26.148  1.00  0.00     0.117 C 
BRANCH  24  25
ATOM     25  C   UNL A   1      31.390  32.355  26.550  1.00  0.00     0.042 C 
BRANCH  25  26
ATOM     26  C   UNL A   1      32.695  32.880  27.125  1.00  0.00     0.118 C 
BRANCH  26  27
ATOM     27  N   UNL A   1      32.555  34.234  27.627  1.00  0.00    -0.352 N 
ATOM     28  C   UNL A   1      33.102  34.834  28.737  1.00  0.00     0.251 C 
ATOM     29  H   UNL A   1      31.975  34.817  27.087  1.00  0.00     0.163 HD
ATOM     30  O   UNL A   1      32.634  35.904  29.116  1.00  0.00    -0.269 OA
BRANCH  28  31
ATOM     31  C   UNL A   1      34.235  34.231  29.489  1.00  0.00     0.039 A 
ATOM     32  C   UNL A   1      35.534  34.446  29.015  1.00  0.00     0.014 A 
ATOM     33  C   UNL A   1      34.045  33.384  30.585  1.00  0.00     0.014 A 
ATOM     34  C   UNL A   1      36.629  33.847  29.650  1.00  0.00     0.010 A 
ATOM     35  C   UNL A   1      35.141  32.861  31.274  1.00  0.00     0.010 A 
ATOM     36  C   UNL A   1      36.446  33.064  30.801  1.00  0.00    -0.014 A 
BRANCH  36  37
ATOM     37  C   UNL A   1      37.603  32.430  31.491  1.00  0.00     0.031 A 
ATOM     38  C   UNL A   1      38.339  31.280  30.854  1.00  0.00     0.074 A 
ATOM     39  C   UNL A   1      37.973  32.859  32.713  1.00  0.00     0.049 A 
ATOM     40  N   UNL A   1      39.346  30.579  31.314  1.00  0.00    -0.248 NA
ATOM     41  C   UNL A   1      37.860  30.839  29.535  1.00  0.00     0.031 C 
ATOM     42  C   UNL A   1      37.317  33.927  33.466  1.00  0.00     0.029 A 
ATOM     43  N   UNL A   1      38.987  32.442  33.542  1.00  0.00    -0.354 N 
ATOM     44  C   UNL A   1      39.605  29.609  30.354  1.00  0.00     0.074 A 
ATOM     45  C   UNL A   1      38.616  29.774  29.312  1.00  0.00     0.031 C 
ATOM     46  C   UNL A   1      37.958  34.101  34.632  1.00  0.00     0.029 A 
ATOM     47  C   UNL A   1      39.045  33.131  34.728  1.00  0.00     0.049 A 
ATOM     48  H   UNL A   1      39.611  31.718  33.307  1.00  0.00     0.167 HD
ATOM     49  C   UNL A   1      40.592  28.679  30.330  1.00  0.00     0.037 A 
ATOM     50  C   UNL A   1      39.875  32.993  35.780  1.00  0.00     0.037 A 
ATOM     51  C   UNL A   1      41.593  28.532  31.355  1.00  0.00     0.049 A 
ATOM     52  C   UNL A   1      40.967  31.958  35.732  1.00  0.00     0.074 A 
ATOM     53  C   UNL A   1      42.678  27.673  31.385  1.00  0.00     0.029 A 
ATOM     54  N   UNL A   1      41.626  29.259  32.536  1.00  0.00    -0.354 N 
ATOM     55  N   UNL A   1      41.251  31.100  34.782  1.00  0.00    -0.248 NA
ATOM     56  C   UNL A   1      41.857  31.879  36.898  1.00  0.00     0.031 C 
ATOM     57  C   UNL A   1      43.335  27.840  32.609  1.00  0.00     0.029 A 
ATOM     58  C   UNL A   1      42.695  28.844  33.317  1.00  0.00     0.049 A 
ATOM     59  H   UNL A   1      40.986  29.964  32.784  1.00  0.00     0.167 HD
ATOM     60  C   UNL A   1      42.362  30.394  35.225  1.00  0.00     0.074 A 
ATOM     61  C   UNL A   1      42.712  30.938  36.520  1.00  0.00     0.031 C 
ATOM     62  C   UNL A   1      43.032  29.388  34.610  1.00  0.00     0.037 A 
BRANCH  49  63
ATOM     63  C   UNL A   1      40.628  27.738  29.158  1.00  0.00     0.064 A 
ATOM     64  C   UNL A   1      41.506  27.930  28.080  1.00  0.00     0.173 A 
ATOM     65  C   UNL A   1      39.784  26.617  29.119  1.00  0.00     0.173 A 
ATOM     66  F   UNL A   1      42.330  28.989  28.061  1.00  0.00    -0.203 F 
ATOM     67  C   UNL A   1      41.507  27.063  26.989  1.00  0.00     0.198 A 
ATOM     68  C   UNL A   1      39.812  25.732  28.043  1.00  0.00     0.198 A 
ATOM     69  F   UNL A   1      38.932  26.376  30.126  1.00  0.00    -0.203 F 
ATOM     70  F   UNL A   1      42.309  27.305  25.944  1.00  0.00    -0.200 F 
ATOM     71  C   UNL A   1      40.664  25.963  26.974  1.00  0.00     0.200 A 
ATOM     72  F   UNL A   1      39.007  24.660  28.038  1.00  0.00    -0.200 F 
ATOM     73  F   UNL A   1      40.666  25.129  25.924  1.00  0.00    -0.200 F 
ENDBRANCH  49  63
BRANCH  50  74
ATOM     74  C   UNL A   1      39.715  33.884  36.959  1.00  0.00     0.064 A 
ATOM     75  C   UNL A   1      40.336  35.140  37.004  1.00  0.00     0.173 A 
ATOM     76  C   UNL A   1      38.918  33.511  38.051  1.00  0.00     0.173 A 
ATOM     77  F   UNL A   1      41.125  35.533  35.994  1.00  0.00    -0.203 F 
ATOM     78  C   UNL A   1      40.172  35.985  38.099  1.00  0.00     0.198 A 
ATOM     79  C   UNL A   1      38.732  34.368  39.133  1.00  0.00     0.198 A 
ATOM     80  F   UNL A   1      38.297  32.322  38.054  1.00  0.00    -0.203 F 
ATOM     81  F   UNL A   1      40.804  37.167  38.132  1.00  0.00    -0.200 F 
ATOM     82  C   UNL A   1      39.363  35.602  39.159  1.00  0.00     0.200 A 
ATOM     83  F   UNL A   1      37.935  34.002  40.147  1.00  0.00    -0.200 F 
ATOM     84  F   UNL A   1      39.194  36.421  40.206  1.00  0.00    -0.200 F 
ENDBRANCH  50  74
BRANCH  62  85
ATOM     85  C   UNL A   1      44.227  28.820  35.321  1.00  0.00     0.064 A 
ATOM     86  C   UNL A   1      45.497  29.403  35.211  1.00  0.00     0.173 A 
ATOM     87  C   UNL A   1      44.089  27.699  36.156  1.00  0.00     0.173 A 
ATOM     88  F   UNL A   1      45.686  30.467  34.415  1.00  0.00    -0.203 F 
ATOM     89  C   UNL A   1      46.592  28.871  35.889  1.00  0.00     0.198 A 
ATOM     90  C   UNL A   1      45.178  27.189  36.857  1.00  0.00     0.198 A 
ATOM     91  F   UNL A   1      42.895  27.108  36.303  1.00  0.00    -0.203 F 
ATOM     92  F   UNL A   1      47.806  29.415  35.730  1.00  0.00    -0.200 F 
ATOM     93  C   UNL A   1      46.429  27.769  36.717  1.00  0.00     0.200 A 
ATOM     94  F   UNL A   1      45.016  26.135  37.668  1.00  0.00    -0.200 F 
ATOM     95  F   UNL A   1      47.482  27.263  37.375  1.00  0.00    -0.200 F 
ENDBRANCH  62  85
ENDBRANCH  36  37
ENDBRANCH  28  31
ENDBRANCH  26  27
ENDBRANCH  25  26
ENDBRANCH  24  25
ENDBRANCH   3  24
TORSDOF 15
ENDMDL
MODEL 2
REMARK VINA RESULT:     -11.4      0.829      7.356
REMARK SMILES CC(C)NC(=O)CNC(=O)N1CCO[C@@H](CC(=O)NCCCNC(=O)c2ccc(-c3c4nc(c(-c5c(F)c(F)c(F)c(F)c5F)c5ccc([nH]5)c(-c5c(F)c(F)c(F)c(F)c5F)c5nc(c(-c6c(F)c(F)c(F)c(F)c6F)c6ccc3[nH]6)C=C5)C=C4)cc2)C1
REMARK SMILES IDX 17 1 18 2 19 3 16 5 15 6 11 7 12 8 89 9 13 10 14 11 9 12
REMARK SMILES IDX 8 13 10 15 7 16 5 17 4 18 6 20 2 21 1 22 3 23 20 24 21 25
REMARK SMILES IDX 22 26 23 27 24 28 25 30 26 31 27 32 88 33 28 34 87 35 29 36
REMARK SMILES IDX 30 37 31 38 81 39 32 40 86 41 80 42 82 43 33 44 85 45 79 46
REMARK SMILES IDX 78 47 34 49 66 50 46 51 65 52 47 53 50 54 64 55 83 56 48 57
REMARK SMILES IDX 49 58 63 60 84 61 51 62 35 63 36 64 44 65 37 66 38 67 42 68
REMARK SMILES IDX 45 69 39 70 40 71 43 72 41 73 67 74 68 75 76 76 69 77 70 78
REMARK SMILES IDX 74 79 77 80 71 81 72 82 75 83 73 84 52 85 53 86 61 87 54 88
REMARK SMILES IDX 55 89 59 90 62 91 56 92 57 93 60 94 58 95
REMARK H PARENT 19 4 8 14 4 19 23 29 82 48 50 59
REMARK Flexibility Score: inf
ROOT
ATOM      1  C   UNL A   1      33.213  29.147  26.696  1.00  0.00     0.222 C 
ATOM      2  O   UNL A   1      34.431  28.964  26.659  1.00  0.00    -0.275 OA
ATOM      3  N   UNL A   1      32.730  30.312  26.174  1.00  0.00    -0.356 N 
ATOM      4  H   UNL A   1      33.410  30.874  25.740  1.00  0.00     0.163 HD
ENDROOT
BRANCH   1   5
ATOM      5  C   UNL A   1      32.299  28.129  27.349  1.00  0.00     0.133 C 
BRANCH   5   6
ATOM      6  C   UNL A   1      31.749  27.127  26.331  1.00  0.00     0.147 C 
ATOM      7  N   UNL A   1      32.319  24.984  25.192  1.00  0.00    -0.320 N 
ATOM      8  C   UNL A   1      31.066  24.408  25.670  1.00  0.00     0.150 C 
ATOM      9  C   UNL A   1      32.812  26.075  26.006  1.00  0.00     0.154 C 
ATOM     10  C   UNL A   1      30.045  25.519  25.938  1.00  0.00     0.182 C 
ATOM     11  O   UNL A   1      30.572  26.490  26.867  1.00  0.00    -0.374 OA
BRANCH   7  12
ATOM     12  C   UNL A   1      33.245  24.275  24.471  1.00  0.00     0.318 C 
ATOM     13  N   UNL A   1      33.042  24.143  23.140  1.00  0.00    -0.329 N 
ATOM     14  H   UNL A   1      33.588  23.460  22.687  1.00  0.00     0.165 HD
ATOM     15  O   UNL A   1      34.307  23.882  24.951  1.00  0.00    -0.249 OA
BRANCH  13  16
ATOM     16  C   UNL A   1      32.120  24.880  22.290  1.00  0.00     0.217 C 
BRANCH  16  17
ATOM     17  C   UNL A   1      32.791  25.823  21.283  1.00  0.00     0.239 C 
ATOM     18  N   UNL A   1      33.033  27.132  21.580  1.00  0.00    -0.352 N 
ATOM     19  H   UNL A   1      33.395  27.666  20.836  1.00  0.00     0.163 HD
ATOM     20  O   UNL A   1      33.057  25.433  20.142  1.00  0.00    -0.273 OA
BRANCH  18  21
ATOM     21  C   UNL A   1      32.842  27.868  22.821  1.00  0.00     0.075 C 
ATOM     22  C   UNL A   1      34.008  28.820  23.055  1.00  0.00     0.030 C 
ATOM     23  C   UNL A   1      31.510  28.609  22.825  1.00  0.00     0.030 C 
ENDBRANCH  18  21
ENDBRANCH  16  17
ENDBRANCH  13  16
ENDBRANCH   7  12
ENDBRANCH   5   6
ENDBRANCH   1   5
BRANCH   3  24
ATOM     24  C   UNL A   1      31.380  30.869  26.144  1.00  0.00     0.117 C 
BRANCH  24  25
ATOM     25  C   UNL A   1      31.330  32.297  26.696  1.00  0.00     0.042 C 
BRANCH  25  26
ATOM     26  C   UNL A   1      32.686  32.951  26.912  1.00  0.00     0.118 C 
BRANCH  26  27
ATOM     27  N   UNL A   1      32.572  34.188  27.661  1.00  0.00    -0.352 N 
ATOM     28  C   UNL A   1      33.207  34.594  28.812  1.00  0.00     0.251 C 
ATOM     29  H   UNL A   1      31.940  34.842  27.286  1.00  0.00     0.163 HD
ATOM     30  O   UNL A   1      32.759  35.565  29.416  1.00  0.00    -0.269 OA
BRANCH  28  31
ATOM     31  C   UNL A   1      34.408  33.898  29.344  1.00  0.00     0.039 A 
ATOM     32  C   UNL A   1      34.217  32.797  30.188  1.00  0.00     0.014 A 
ATOM     33  C   UNL A   1      35.708  34.357  29.114  1.00  0.00     0.014 A 
ATOM     34  C   UNL A   1      35.314  32.148  30.767  1.00  0.00     0.010 A 
ATOM     35  C   UNL A   1      36.806  33.655  29.616  1.00  0.00     0.010 A 
ATOM     36  C   UNL A   1      36.623  32.557  30.469  1.00  0.00    -0.014 A 
BRANCH  36  37
ATOM     37  C   UNL A   1      37.799  31.868  31.070  1.00  0.00     0.031 A 
ATOM     38  C   UNL A   1      38.263  32.218  32.460  1.00  0.00     0.074 A 
ATOM     39  C   UNL A   1      38.480  30.953  30.354  1.00  0.00     0.049 A 
ATOM     40  N   UNL A   1      39.283  31.751  33.139  1.00  0.00    -0.248 NA
ATOM     41  C   UNL A   1      37.497  33.250  33.172  1.00  0.00     0.031 C 
ATOM     42  C   UNL A   1      38.170  30.558  28.981  1.00  0.00     0.029 A 
ATOM     43  N   UNL A   1      39.579  30.196  30.678  1.00  0.00    -0.354 N 
ATOM     44  C   UNL A   1      39.290  32.446  34.342  1.00  0.00     0.074 A 
ATOM     45  C   UNL A   1      38.208  33.403  34.280  1.00  0.00     0.031 C 
ATOM     46  C   UNL A   1      39.039  29.614  28.588  1.00  0.00     0.029 A 
ATOM     47  C   UNL A   1      39.993  29.365  29.665  1.00  0.00     0.049 A 
ATOM     48  H   UNL A   1      40.028  30.244  31.553  1.00  0.00     0.167 HD
ATOM     49  C   UNL A   1      40.108  32.285  35.412  1.00  0.00     0.037 A 
ATOM     50  C   UNL A   1      41.027  28.505  29.607  1.00  0.00     0.037 A 
ATOM     51  C   UNL A   1      41.168  31.313  35.484  1.00  0.00     0.049 A 
ATOM     52  C   UNL A   1      41.920  28.338  30.807  1.00  0.00     0.074 A 
ATOM     53  C   UNL A   1      42.001  31.020  36.550  1.00  0.00     0.029 A 
ATOM     54  N   UNL A   1      41.548  30.480  34.441  1.00  0.00    -0.354 N 
ATOM     55  N   UNL A   1      41.866  28.943  31.968  1.00  0.00    -0.248 NA
ATOM     56  C   UNL A   1      43.013  27.362  30.689  1.00  0.00     0.031 C 
ATOM     57  C   UNL A   1      42.920  30.051  36.135  1.00  0.00     0.029 A 
ATOM     58  C   UNL A   1      42.624  29.696  34.829  1.00  0.00     0.049 A 
ATOM     59  H   UNL A   1      41.117  30.450  33.556  1.00  0.00     0.167 HD
ATOM     60  C   UNL A   1      42.901  28.410  32.726  1.00  0.00     0.074 A 
ATOM     61  C   UNL A   1      43.554  27.417  31.899  1.00  0.00     0.031 C 
ATOM     62  C   UNL A   1      43.271  28.714  33.995  1.00  0.00     0.037 A 
BRANCH  49  63
ATOM     63  C   UNL A   1      39.892  33.193  36.591  1.00  0.00     0.064 A 
ATOM     64  C   UNL A   1      38.946  32.902  37.587  1.00  0.00     0.173 A 
ATOM     65  C   UNL A   1      40.654  34.362  36.737  1.00  0.00     0.173 A 
ATOM     66  F   UNL A   1      38.184  31.801  37.494  1.00  0.00    -0.203 F 
ATOM     67  C   UNL A   1      38.741  33.769  38.658  1.00  0.00     0.198 A 
ATOM     68  C   UNL A   1      40.470  35.209  37.829  1.00  0.00     0.198 A 
ATOM     69  F   UNL A   1      41.580  34.686  35.822  1.00  0.00    -0.203 F 
ATOM     70  F   UNL A   1      37.786  33.501  39.560  1.00  0.00    -0.200 F 
ATOM     71  C   UNL A   1      39.506  34.918  38.781  1.00  0.00     0.200 A 
ATOM     72  F   UNL A   1      41.222  36.311  37.953  1.00  0.00    -0.200 F 
ATOM     73  F   UNL A   1      39.307  35.751  39.812  1.00  0.00    -0.200 F 
ENDBRANCH  49  63
BRANCH  50  74
ATOM     74  C   UNL A   1      41.253  27.716  28.367  1.00  0.00     0.064 A 
ATOM     75  C   UNL A   1      42.128  28.171  27.371  1.00  0.00     0.173 A 
ATOM     76  C   UNL A   1      40.622  26.480  28.166  1.00  0.00     0.173 A 
ATOM     77  F   UNL A   1      42.739  29.357  27.508  1.00  0.00    -0.203 F 
ATOM     78  C   UNL A   1      42.356  27.424  26.218  1.00  0.00     0.198 A 
ATOM     79  C   UNL A   1      40.872  25.721  27.026  1.00  0.00     0.198 A 
ATOM     80  F   UNL A   1      39.780  25.997  29.092  1.00  0.00    -0.203 F 
ATOM     81  F   UNL A   1      43.173  27.898  25.266  1.00  0.00    -0.200 F 
ATOM     82  C   UNL A   1      41.735  26.195  26.050  1.00  0.00     0.200 A 
ATOM     83  F   UNL A   1      40.284  24.526  26.875  1.00  0.00    -0.200 F 
ATOM     84  F   UNL A   1      41.966  25.470  24.947  1.00  0.00    -0.200 F 
ENDBRANCH  50  74
BRANCH  62  85
ATOM     85  C   UNL A   1      44.428  27.951  34.576  1.00  0.00     0.064 A 
ATOM     86  C   UNL A   1      45.742  28.435  34.503  1.00  0.00     0.173 A 
ATOM     87  C   UNL A   1      44.212  26.740  35.252  1.00  0.00     0.173 A 
ATOM     88  F   UNL A   1      46.005  29.581  33.855  1.00  0.00    -0.203 F 
ATOM     89  C   UNL A   1      46.801  27.722  35.060  1.00  0.00     0.198 A 
ATOM     90  C   UNL A   1      45.268  26.046  35.836  1.00  0.00     0.198 A 
ATOM     91  F   UNL A   1      42.973  26.237  35.359  1.00  0.00    -0.203 F 
ATOM     92  F   UNL A   1      48.055  28.178  34.934  1.00  0.00    -0.200 F 
ATOM     93  C   UNL A   1      46.561  26.532  35.732  1.00  0.00     0.200 A 
ATOM     94  F   UNL A   1      45.033  24.905  36.498  1.00  0.00    -0.200 F 
ATOM     95  F   UNL A   1      47.581  25.851  36.275  1.00  0.00    -0.200 F 
ENDBRANCH  62  85
ENDBRANCH  36  37
ENDBRANCH  28  31
ENDBRANCH  26  27
ENDBRANCH  25  26
ENDBRANCH  24  25
ENDBRANCH   3  24
TORSDOF 15
ENDMDL
MODEL 3
REMARK VINA RESULT:     -11.4      2.178      8.216
REMARK SMILES CC(C)NC(=O)CNC(=O)N1CCO[C@@H](CC(=O)NCCCNC(=O)c2ccc(-c3c4nc(c(-c5c(F)c(F)c(F)c(F)c5F)c5ccc([nH]5)c(-c5c(F)c(F)c(F)c(F)c5F)c5nc(c(-c6c(F)c(F)c(F)c(F)c6F)c6ccc3[nH]6)C=C5)C=C4)cc2)C1
REMARK SMILES IDX 17 1 18 2 19 3 16 5 15 6 11 7 12 8 89 9 13 10 14 11 9 12
REMARK SMILES IDX 8 13 10 15 7 16 5 17 4 18 6 20 2 21 1 22 3 23 20 24 21 25
REMARK SMILES IDX 22 26 23 27 24 28 25 30 26 31 27 32 88 33 28 34 87 35 29 36
REMARK SMILES IDX 30 37 31 38 81 39 32 40 86 41 80 42 82 43 33 44 85 45 79 46
REMARK SMILES IDX 78 47 34 49 66 50 46 51 65 52 47 53 50 54 64 55 83 56 48 57
REMARK SMILES IDX 49 58 63 60 84 61 51 62 35 63 36 64 44 65 37 66 38 67 42 68
REMARK SMILES IDX 45 69 39 70 40 71 43 72 41 73 67 74 68 75 76 76 69 77 70 78
REMARK SMILES IDX 74 79 77 80 71 81 72 82 75 83 73 84 52 85 53 86 61 87 54 88
REMARK SMILES IDX 55 89 59 90 62 91 56 92 57 93 60 94 58 95
REMARK H PARENT 19 4 8 14 4 19 23 29 82 48 50 59
REMARK Flexibility Score: inf
ROOT
ATOM      1  C   UNL A   1      30.636  28.378  22.701  1.00  0.00     0.222 C 
ATOM      2  O   UNL A   1      29.727  28.768  21.966  1.00  0.00    -0.275 OA
ATOM      3  N   UNL A   1      31.920  28.581  22.284  1.00  0.00    -0.356 N 
ATOM      4  H   UNL A   1      31.999  29.099  21.452  1.00  0.00     0.163 HD
ENDROOT
BRANCH   1   5
ATOM      5  C   UNL A   1      30.325  27.651  23.994  1.00  0.00     0.133 C 
BRANCH   5   6
ATOM      6  C   UNL A   1      31.083  26.324  24.093  1.00  0.00     0.147 C 
ATOM      7  N   UNL A   1      31.090  24.163  25.336  1.00  0.00    -0.320 N 
ATOM      8  C   UNL A   1      31.026  23.444  24.067  1.00  0.00     0.150 C 
ATOM      9  C   UNL A   1      30.558  25.508  25.276  1.00  0.00     0.154 C 
ATOM     10  C   UNL A   1      31.602  24.312  22.942  1.00  0.00     0.182 C 
ATOM     11  O   UNL A   1      30.918  25.581  22.868  1.00  0.00    -0.374 OA
BRANCH   7  12
ATOM     12  C   UNL A   1      31.070  23.537  26.556  1.00  0.00     0.318 C 
ATOM     13  N   UNL A   1      32.251  23.135  27.078  1.00  0.00    -0.329 N 
ATOM     14  H   UNL A   1      32.195  22.506  27.833  1.00  0.00     0.165 HD
ATOM     15  O   UNL A   1      30.056  23.455  27.247  1.00  0.00    -0.249 OA
BRANCH  13  16
ATOM     16  C   UNL A   1      33.594  23.512  26.667  1.00  0.00     0.217 C 
BRANCH  16  17
ATOM     17  C   UNL A   1      34.677  22.471  26.981  1.00  0.00     0.239 C 
ATOM     18  N   UNL A   1      35.947  22.593  26.500  1.00  0.00    -0.352 N 
ATOM     19  H   UNL A   1      36.540  21.831  26.695  1.00  0.00     0.163 HD
ATOM     20  O   UNL A   1      34.398  21.451  27.617  1.00  0.00    -0.273 OA
BRANCH  18  21
ATOM     21  C   UNL A   1      36.569  23.669  25.741  1.00  0.00     0.075 C 
ATOM     22  C   UNL A   1      37.947  23.987  26.309  1.00  0.00     0.030 C 
ATOM     23  C   UNL A   1      36.644  23.328  24.258  1.00  0.00     0.030 C 
ENDBRANCH  18  21
ENDBRANCH  16  17
ENDBRANCH  13  16
ENDBRANCH   7  12
ENDBRANCH   5   6
ENDBRANCH   1   5
BRANCH   3  24
ATOM     24  C   UNL A   1      33.197  28.167  22.858  1.00  0.00     0.117 C 
BRANCH  24  25
ATOM     25  C   UNL A   1      33.787  29.230  23.790  1.00  0.00     0.042 C 
BRANCH  25  26
ATOM     26  C   UNL A   1      33.304  29.161  25.230  1.00  0.00     0.118 C 
BRANCH  26  27
ATOM     27  N   UNL A   1      32.910  30.465  25.727  1.00  0.00    -0.352 N 
ATOM     28  C   UNL A   1      33.308  31.146  26.854  1.00  0.00     0.251 C 
ATOM     29  H   UNL A   1      32.253  30.940  25.169  1.00  0.00     0.163 HD
ATOM     30  O   UNL A   1      32.645  32.114  27.218  1.00  0.00    -0.269 OA
BRANCH  28  31
ATOM     31  C   UNL A   1      34.505  30.748  27.642  1.00  0.00     0.039 A 
ATOM     32  C   UNL A   1      35.532  31.685  27.805  1.00  0.00     0.014 A 
ATOM     33  C   UNL A   1      34.683  29.454  28.138  1.00  0.00     0.014 A 
ATOM     34  C   UNL A   1      36.707  31.338  28.483  1.00  0.00     0.010 A 
ATOM     35  C   UNL A   1      35.814  29.135  28.894  1.00  0.00     0.010 A 
ATOM     36  C   UNL A   1      36.852  30.064  29.054  1.00  0.00    -0.014 A 
BRANCH  36  37
ATOM     37  C   UNL A   1      38.092  29.687  29.786  1.00  0.00     0.031 A 
ATOM     38  C   UNL A   1      38.375  30.250  31.155  1.00  0.00     0.074 A 
ATOM     39  C   UNL A   1      38.991  28.868  29.207  1.00  0.00     0.049 A 
ATOM     40  N   UNL A   1      39.413  30.064  31.933  1.00  0.00    -0.248 NA
ATOM     41  C   UNL A   1      37.369  31.166  31.713  1.00  0.00     0.031 C 
ATOM     42  C   UNL A   1      38.867  28.294  27.868  1.00  0.00     0.029 A 
ATOM     43  N   UNL A   1      40.191  28.383  29.668  1.00  0.00    -0.354 N 
ATOM     44  C   UNL A   1      39.194  30.852  33.055  1.00  0.00     0.074 A 
ATOM     45  C   UNL A   1      37.952  31.560  32.835  1.00  0.00     0.031 C 
ATOM     46  C   UNL A   1      39.932  27.514  27.624  1.00  0.00     0.029 A 
ATOM     47  C   UNL A   1      40.834  27.564  28.772  1.00  0.00     0.049 A 
ATOM     48  H   UNL A   1      40.556  28.601  30.556  1.00  0.00     0.167 HD
ATOM     49  C   UNL A   1      39.946  30.960  34.179  1.00  0.00     0.037 A 
ATOM     50  C   UNL A   1      42.019  26.931  28.860  1.00  0.00     0.037 A 
ATOM     51  C   UNL A   1      41.169  30.235  34.410  1.00  0.00     0.049 A 
ATOM     52  C   UNL A   1      42.836  27.059  30.117  1.00  0.00     0.074 A 
ATOM     53  C   UNL A   1      41.961  30.216  35.544  1.00  0.00     0.029 A 
ATOM     54  N   UNL A   1      41.781  29.404  33.482  1.00  0.00    -0.354 N 
ATOM     55  N   UNL A   1      42.578  27.744  31.204  1.00  0.00    -0.248 NA
ATOM     56  C   UNL A   1      44.105  26.319  30.161  1.00  0.00     0.031 C 
ATOM     57  C   UNL A   1      43.082  29.420  35.283  1.00  0.00     0.029 A 
ATOM     58  C   UNL A   1      42.958  28.894  34.007  1.00  0.00     0.049 A 
ATOM     59  H   UNL A   1      41.431  29.206  32.583  1.00  0.00     0.167 HD
ATOM     60  C   UNL A   1      43.638  27.504  32.068  1.00  0.00     0.074 A 
ATOM     61  C   UNL A   1      44.534  26.593  31.386  1.00  0.00     0.031 C 
ATOM     62  C   UNL A   1      43.847  27.992  33.316  1.00  0.00     0.037 A 
BRANCH  49  63
ATOM     63  C   UNL A   1      39.469  31.909  35.244  1.00  0.00     0.064 A 
ATOM     64  C   UNL A   1      38.607  31.497  36.272  1.00  0.00     0.173 A 
ATOM     65  C   UNL A   1      39.894  33.247  35.246  1.00  0.00     0.173 A 
ATOM     66  F   UNL A   1      38.163  30.231  36.314  1.00  0.00    -0.203 F 
ATOM     67  C   UNL A   1      38.153  32.397  37.234  1.00  0.00     0.198 A 
ATOM     68  C   UNL A   1      39.466  34.135  36.231  1.00  0.00     0.198 A 
ATOM     69  F   UNL A   1      40.726  33.694  34.295  1.00  0.00    -0.203 F 
ATOM     70  F   UNL A   1      37.279  31.993  38.166  1.00  0.00    -0.200 F 
ATOM     71  C   UNL A   1      38.587  33.713  37.216  1.00  0.00     0.200 A 
ATOM     72  F   UNL A   1      39.899  35.404  36.220  1.00  0.00    -0.200 F 
ATOM     73  F   UNL A   1      38.150  34.577  38.142  1.00  0.00    -0.200 F 
ENDBRANCH  49  63
BRANCH  50  74
ATOM     74  C   UNL A   1      42.487  26.094  27.723  1.00  0.00     0.064 A 
ATOM     75  C   UNL A   1      41.985  24.800  27.525  1.00  0.00     0.173 A 
ATOM     76  C   UNL A   1      43.423  26.580  26.798  1.00  0.00     0.173 A 
ATOM     77  F   UNL A   1      41.104  24.284  28.394  1.00  0.00    -0.203 F 
ATOM     78  C   UNL A   1      42.407  24.022  26.450  1.00  0.00     0.198 A 
ATOM     79  C   UNL A   1      43.823  25.811  25.709  1.00  0.00     0.198 A 
ATOM     80  F   UNL A   1      43.929  27.814  26.941  1.00  0.00    -0.203 F 
ATOM     81  F   UNL A   1      41.936  22.776  26.302  1.00  0.00    -0.200 F 
ATOM     82  C   UNL A   1      43.320  24.531  25.537  1.00  0.00     0.200 A 
ATOM     83  F   UNL A   1      44.691  26.313  24.819  1.00  0.00    -0.200 F 
ATOM     84  F   UNL A   1      43.715  23.787  24.495  1.00  0.00    -0.200 F 
ENDBRANCH  50  74
BRANCH  62  85
ATOM     85  C   UNL A   1      45.084  27.537  34.037  1.00  0.00     0.064 A 
ATOM     86  C   UNL A   1      45.106  26.356  34.793  1.00  0.00     0.173 A 
ATOM     87  C   UNL A   1      46.276  28.272  33.935  1.00  0.00     0.173 A 
ATOM     88  F   UNL A   1      43.990  25.624  34.934  1.00  0.00    -0.203 F 
ATOM     89  C   UNL A   1      46.266  25.942  35.443  1.00  0.00     0.198 A 
ATOM     90  C   UNL A   1      47.442  27.839  34.559  1.00  0.00     0.198 A 
ATOM     91  F   UNL A   1      46.313  29.405  33.218  1.00  0.00    -0.203 F 
ATOM     92  F   UNL A   1      46.250  24.837  36.201  1.00  0.00    -0.200 F 
ATOM     93  C   UNL A   1      47.434  26.680  35.319  1.00  0.00     0.200 A 
ATOM     94  F   UNL A   1      48.573  28.544  34.426  1.00  0.00    -0.200 F 
ATOM     95  F   UNL A   1      48.552  26.274  35.938  1.00  0.00    -0.200 F 
ENDBRANCH  62  85
ENDBRANCH  36  37
ENDBRANCH  28  31
ENDBRANCH  26  27
ENDBRANCH  25  26
ENDBRANCH  24  25
ENDBRANCH   3  24
TORSDOF 15
ENDMDL
