MODEL 1
REMARK VINA RESULT:     -11.2      0.000      0.000
REMARK SMILES CC[C@@](C)(NC(=O)NCCc1cscn1)C(=O)NCCCNC(=O)c1ccc(-c2c3nc(c(-c4c(F)c(F)c(F)c(F)c4F)c4ccc([nH]4)c(-c4c(F)c(F)c(F)c(F)c4F)c4nc(c(-c5c(F)c(F)c(F)c(F)c5F)c5ccc2[nH]5)C=C4)C=C3)cc1
REMARK SMILES IDX 19 1 18 2 16 3 17 4 3 6 4 7 2 8 1 9 5 10 6 11 7 13 8 14 9 16
REMARK SMILES IDX 10 17 11 18 12 19 15 20 13 21 14 22 20 23 21 24 22 25 23 26
REMARK SMILES IDX 24 28 25 29 26 30 87 31 27 32 86 33 28 34 29 35 30 36 80 37
REMARK SMILES IDX 31 38 85 39 79 40 81 41 32 42 84 43 78 44 77 45 33 47 65 48
REMARK SMILES IDX 45 49 64 50 46 51 49 52 63 53 82 54 47 55 48 56 62 58 83 59
REMARK SMILES IDX 50 60 34 61 35 62 43 63 36 64 37 65 41 66 44 67 38 68 39 69
REMARK SMILES IDX 42 70 40 71 66 72 67 73 75 74 68 75 69 76 73 77 76 78 70 79
REMARK SMILES IDX 71 80 74 81 72 82 51 83 52 84 60 85 53 86 54 87 58 88 61 89
REMARK SMILES IDX 55 90 56 91 59 92 57 93
REMARK H PARENT 18 5 5 12 8 15 22 27 81 46 49 57
REMARK Flexibility Score: inf
ROOT
ATOM      1  C   UNL A   1      31.948  30.070  26.487  1.00  0.00     0.117 C 
ENDROOT
BRANCH   1   2
ATOM      2  N   UNL A   1      32.704  29.969  25.247  1.00  0.00    -0.354 N 
ATOM      3  C   UNL A   1      32.977  28.943  24.378  1.00  0.00     0.245 C 
ATOM      4  O   UNL A   1      33.461  29.282  23.291  1.00  0.00    -0.272 OA
ATOM      5  H   UNL A   1      33.109  30.823  24.973  1.00  0.00     0.163 HD
BRANCH   3   6
ATOM      6  C   UNL A   1      32.615  27.458  24.670  1.00  0.00     0.117 C 
ATOM      7  C   UNL A   1      33.849  26.840  25.382  1.00  0.00     0.045 C 
BRANCH   6   8
ATOM      8  C   UNL A   1      31.398  27.187  25.604  1.00  0.00     0.035 C 
ATOM      9  C   UNL A   1      31.197  25.763  26.112  1.00  0.00     0.007 C 
ENDBRANCH   6   8
BRANCH   6  10
ATOM     10  N   UNL A   1      32.382  26.754  23.395  1.00  0.00    -0.324 N 
ATOM     11  C   UNL A   1      31.404  26.707  22.484  1.00  0.00     0.315 C 
ATOM     12  H   UNL A   1      33.139  26.172  23.154  1.00  0.00     0.166 HD
ATOM     13  O   UNL A   1      31.547  25.879  21.577  1.00  0.00    -0.249 OA
ATOM     14  N   UNL A   1      30.350  27.523  22.405  1.00  0.00    -0.338 N 
ATOM     15  H   UNL A   1      29.960  27.515  21.502  1.00  0.00     0.165 HD
BRANCH  14  16
ATOM     16  C   UNL A   1      29.614  28.423  23.289  1.00  0.00     0.124 C 
BRANCH  16  17
ATOM     17  C   UNL A   1      28.330  29.025  22.718  1.00  0.00     0.078 C 
BRANCH  17  18
ATOM     18  C   UNL A   1      28.305  30.503  22.480  1.00  0.00     0.053 A 
ATOM     19  C   UNL A   1      28.640  31.455  23.429  1.00  0.00     0.090 A 
ATOM     20  N   UNL A   1      28.030  31.015  21.220  1.00  0.00    -0.250 NA
ATOM     21  S   UNL A   1      28.579  33.024  22.751  1.00  0.00    -0.130 S 
ATOM     22  C   UNL A   1      28.117  32.329  21.254  1.00  0.00     0.175 A 
ENDBRANCH  17  18
ENDBRANCH  16  17
ENDBRANCH  14  16
ENDBRANCH   6  10
ENDBRANCH   3   6
ENDBRANCH   1   2
BRANCH   1  23
ATOM     23  C   UNL A   1      31.717  31.456  27.093  1.00  0.00     0.042 C 
BRANCH  23  24
ATOM     24  C   UNL A   1      32.622  32.603  26.670  1.00  0.00     0.118 C 
BRANCH  24  25
ATOM     25  N   UNL A   1      32.339  33.862  27.336  1.00  0.00    -0.352 N 
ATOM     26  C   UNL A   1      32.986  34.469  28.383  1.00  0.00     0.251 C 
ATOM     27  H   UNL A   1      31.564  34.355  26.981  1.00  0.00     0.163 HD
ATOM     28  O   UNL A   1      32.534  35.515  28.841  1.00  0.00    -0.269 OA
BRANCH  26  29
ATOM     29  C   UNL A   1      34.200  33.875  28.995  1.00  0.00     0.039 A 
ATOM     30  C   UNL A   1      34.032  32.850  29.933  1.00  0.00     0.014 A 
ATOM     31  C   UNL A   1      35.487  34.342  28.711  1.00  0.00     0.014 A 
ATOM     32  C   UNL A   1      35.146  32.268  30.547  1.00  0.00     0.010 A 
ATOM     33  C   UNL A   1      36.604  33.725  29.285  1.00  0.00     0.010 A 
ATOM     34  C   UNL A   1      36.446  32.686  30.216  1.00  0.00    -0.014 A 
BRANCH  34  35
ATOM     35  C   UNL A   1      37.628  32.032  30.842  1.00  0.00     0.031 A 
ATOM     36  C   UNL A   1      38.079  32.412  32.226  1.00  0.00     0.074 A 
ATOM     37  C   UNL A   1      38.314  31.096  30.156  1.00  0.00     0.049 A 
ATOM     38  N   UNL A   1      39.061  31.920  32.944  1.00  0.00    -0.248 NA
ATOM     39  C   UNL A   1      37.343  33.500  32.887  1.00  0.00     0.031 C 
ATOM     40  C   UNL A   1      38.019  30.669  28.788  1.00  0.00     0.029 A 
ATOM     41  N   UNL A   1      39.401  30.335  30.514  1.00  0.00    -0.354 N 
ATOM     42  C   UNL A   1      39.058  32.636  34.134  1.00  0.00     0.074 A 
ATOM     43  C   UNL A   1      38.016  33.634  34.021  1.00  0.00     0.031 C 
ATOM     44  C   UNL A   1      38.883  29.705  28.433  1.00  0.00     0.029 A 
ATOM     45  C   UNL A   1      39.811  29.463  29.535  1.00  0.00     0.049 A 
ATOM     46  H   UNL A   1      39.844  30.408  31.390  1.00  0.00     0.167 HD
ATOM     47  C   UNL A   1      39.835  32.460  35.231  1.00  0.00     0.037 A 
ATOM     48  C   UNL A   1      40.817  28.567  29.525  1.00  0.00     0.037 A 
ATOM     49  C   UNL A   1      40.867  31.461  35.351  1.00  0.00     0.049 A 
ATOM     50  C   UNL A   1      41.671  28.398  30.753  1.00  0.00     0.074 A 
ATOM     51  C   UNL A   1      41.668  31.173  36.443  1.00  0.00     0.029 A 
ATOM     52  N   UNL A   1      41.247  30.591  34.338  1.00  0.00    -0.354 N 
ATOM     53  N   UNL A   1      41.599  29.019  31.905  1.00  0.00    -0.248 NA
ATOM     54  C   UNL A   1      42.737  27.388  30.683  1.00  0.00     0.031 C 
ATOM     55  C   UNL A   1      42.568  30.165  36.075  1.00  0.00     0.029 A 
ATOM     56  C   UNL A   1      42.287  29.783  34.774  1.00  0.00     0.049 A 
ATOM     57  H   UNL A   1      40.839  30.553  33.443  1.00  0.00     0.167 HD
ATOM     58  C   UNL A   1      42.584  28.453  32.706  1.00  0.00     0.074 A 
ATOM     59  C   UNL A   1      43.230  27.429  31.913  1.00  0.00     0.031 C 
ATOM     60  C   UNL A   1      42.919  28.756  33.984  1.00  0.00     0.037 A 
BRANCH  47  61
ATOM     61  C   UNL A   1      39.599  33.370  36.404  1.00  0.00     0.064 A 
ATOM     62  C   UNL A   1      40.216  34.628  36.495  1.00  0.00     0.173 A 
ATOM     63  C   UNL A   1      38.710  33.003  37.427  1.00  0.00     0.173 A 
ATOM     64  F   UNL A   1      41.079  35.026  35.548  1.00  0.00    -0.203 F 
ATOM     65  C   UNL A   1      39.975  35.469  37.579  1.00  0.00     0.198 A 
ATOM     66  C   UNL A   1      38.447  33.860  38.492  1.00  0.00     0.198 A 
ATOM     67  F   UNL A   1      38.085  31.817  37.385  1.00  0.00    -0.203 F 
ATOM     68  F   UNL A   1      40.615  36.644  37.668  1.00  0.00    -0.200 F 
ATOM     69  C   UNL A   1      39.086  35.088  38.572  1.00  0.00     0.200 A 
ATOM     70  F   UNL A   1      37.575  33.498  39.442  1.00  0.00    -0.200 F 
ATOM     71  F   UNL A   1      38.850  35.902  39.610  1.00  0.00    -0.200 F 
ENDBRANCH  47  61
BRANCH  48  72
ATOM     72  C   UNL A   1      41.051  27.729  28.319  1.00  0.00     0.064 A 
ATOM     73  C   UNL A   1      41.882  28.174  27.281  1.00  0.00     0.173 A 
ATOM     74  C   UNL A   1      40.437  26.477  28.171  1.00  0.00     0.173 A 
ATOM     75  F   UNL A   1      42.474  29.375  27.365  1.00  0.00    -0.203 F 
ATOM     76  C   UNL A   1      42.073  27.409  26.133  1.00  0.00     0.198 A 
ATOM     77  C   UNL A   1      40.654  25.699  27.035  1.00  0.00     0.198 A 
ATOM     78  F   UNL A   1      39.634  26.004  29.136  1.00  0.00    -0.203 F 
ATOM     79  F   UNL A   1      42.832  27.882  25.134  1.00  0.00    -0.200 F 
ATOM     80  C   UNL A   1      41.463  26.170  26.013  1.00  0.00     0.200 A 
ATOM     81  F   UNL A   1      40.072  24.496  26.929  1.00  0.00    -0.200 F 
ATOM     82  F   UNL A   1      41.649  25.434  24.908  1.00  0.00    -0.200 F 
ENDBRANCH  48  72
BRANCH  60  83
ATOM     83  C   UNL A   1      44.003  27.940  34.628  1.00  0.00     0.064 A 
ATOM     84  C   UNL A   1      43.731  26.732  35.287  1.00  0.00     0.173 A 
ATOM     85  C   UNL A   1      45.342  28.358  34.557  1.00  0.00     0.173 A 
ATOM     86  F   UNL A   1      42.467  26.292  35.396  1.00  0.00    -0.203 F 
ATOM     87  C   UNL A   1      44.752  25.990  35.877  1.00  0.00     0.198 A 
ATOM     88  C   UNL A   1      46.363  27.598  35.118  1.00  0.00     0.198 A 
ATOM     89  F   UNL A   1      45.660  29.501  33.932  1.00  0.00    -0.203 F 
ATOM     90  F   UNL A   1      44.460  24.866  36.547  1.00  0.00    -0.200 F 
ATOM     91  C   UNL A   1      46.068  26.420  35.785  1.00  0.00     0.200 A 
ATOM     92  F   UNL A   1      47.636  28.007  35.015  1.00  0.00    -0.200 F 
ATOM     93  F   UNL A   1      47.049  25.701  36.347  1.00  0.00    -0.200 F 
ENDBRANCH  60  83
ENDBRANCH  34  35
ENDBRANCH  26  29
ENDBRANCH  24  25
ENDBRANCH  23  24
ENDBRANCH   1  23
TORSDOF 15
ENDMDL
MODEL 2
REMARK VINA RESULT:     -11.1      1.995      3.375
REMARK SMILES CC[C@@](C)(NC(=O)NCCc1cscn1)C(=O)NCCCNC(=O)c1ccc(-c2c3nc(c(-c4c(F)c(F)c(F)c(F)c4F)c4ccc([nH]4)c(-c4c(F)c(F)c(F)c(F)c4F)c4nc(c(-c5c(F)c(F)c(F)c(F)c5F)c5ccc2[nH]5)C=C4)C=C3)cc1
REMARK SMILES IDX 19 1 18 2 16 3 17 4 3 6 4 7 2 8 1 9 5 10 6 11 7 13 8 14 9 16
REMARK SMILES IDX 10 17 11 18 12 19 15 20 13 21 14 22 20 23 21 24 22 25 23 26
REMARK SMILES IDX 24 28 25 29 26 30 87 31 27 32 86 33 28 34 29 35 30 36 80 37
REMARK SMILES IDX 31 38 85 39 79 40 81 41 32 42 84 43 78 44 77 45 33 47 65 48
REMARK SMILES IDX 45 49 64 50 46 51 49 52 63 53 82 54 47 55 48 56 62 58 83 59
REMARK SMILES IDX 50 60 34 61 35 62 43 63 36 64 37 65 41 66 44 67 38 68 39 69
REMARK SMILES IDX 42 70 40 71 66 72 67 73 75 74 68 75 69 76 73 77 76 78 70 79
REMARK SMILES IDX 71 80 74 81 72 82 51 83 52 84 60 85 53 86 54 87 58 88 61 89
REMARK SMILES IDX 55 90 56 91 59 92 57 93
REMARK H PARENT 18 5 5 12 8 15 22 27 81 46 49 57
REMARK Flexibility Score: inf
ROOT
ATOM      1  C   UNL A   1      31.435  30.325  25.902  1.00  0.00     0.117 C 
ENDROOT
BRANCH   1   2
ATOM      2  N   UNL A   1      31.074  30.123  24.505  1.00  0.00    -0.354 N 
ATOM      3  C   UNL A   1      31.281  29.109  23.605  1.00  0.00     0.245 C 
ATOM      4  O   UNL A   1      30.618  29.182  22.562  1.00  0.00    -0.272 OA
ATOM      5  H   UNL A   1      30.573  30.880  24.124  1.00  0.00     0.163 HD
BRANCH   3   6
ATOM      6  C   UNL A   1      32.199  27.886  23.892  1.00  0.00     0.117 C 
ATOM      7  C   UNL A   1      33.513  28.457  24.490  1.00  0.00     0.045 C 
BRANCH   6   8
ATOM      8  C   UNL A   1      31.684  26.828  24.914  1.00  0.00     0.035 C 
ATOM      9  C   UNL A   1      30.229  26.385  24.803  1.00  0.00     0.007 C 
ENDBRANCH   6   8
BRANCH   6  10
ATOM     10  N   UNL A   1      32.497  27.193  22.625  1.00  0.00    -0.324 N 
ATOM     11  C   UNL A   1      33.260  26.164  22.244  1.00  0.00     0.315 C 
ATOM     12  H   UNL A   1      32.010  27.590  21.866  1.00  0.00     0.166 HD
ATOM     13  O   UNL A   1      33.324  25.956  21.027  1.00  0.00    -0.249 OA
ATOM     14  N   UNL A   1      33.875  25.290  23.046  1.00  0.00    -0.338 N 
ATOM     15  H   UNL A   1      34.092  24.458  22.566  1.00  0.00     0.165 HD
BRANCH  14  16
ATOM     16  C   UNL A   1      34.314  25.226  24.437  1.00  0.00     0.124 C 
BRANCH  16  17
ATOM     17  C   UNL A   1      35.188  24.029  24.813  1.00  0.00     0.078 C 
BRANCH  17  18
ATOM     18  C   UNL A   1      34.595  22.663  24.653  1.00  0.00     0.053 A 
ATOM     19  C   UNL A   1      35.179  21.497  25.121  1.00  0.00     0.090 A 
ATOM     20  N   UNL A   1      33.337  22.496  24.095  1.00  0.00    -0.250 NA
ATOM     21  S   UNL A   1      34.155  20.157  24.830  1.00  0.00    -0.130 S 
ATOM     22  C   UNL A   1      33.018  21.218  24.110  1.00  0.00     0.175 A 
ENDBRANCH  17  18
ENDBRANCH  16  17
ENDBRANCH  14  16
ENDBRANCH   6  10
ENDBRANCH   3   6
ENDBRANCH   1   2
BRANCH   1  23
ATOM     23  C   UNL A   1      31.305  31.730  26.495  1.00  0.00     0.042 C 
BRANCH  23  24
ATOM     24  C   UNL A   1      32.568  32.516  26.807  1.00  0.00     0.118 C 
BRANCH  24  25
ATOM     25  N   UNL A   1      32.328  33.820  27.398  1.00  0.00    -0.352 N 
ATOM     26  C   UNL A   1      33.015  34.478  28.389  1.00  0.00     0.251 C 
ATOM     27  H   UNL A   1      31.554  34.306  27.033  1.00  0.00     0.163 HD
ATOM     28  O   UNL A   1      32.596  35.560  28.791  1.00  0.00    -0.269 OA
BRANCH  26  29
ATOM     29  C   UNL A   1      34.233  33.897  29.005  1.00  0.00     0.039 A 
ATOM     30  C   UNL A   1      34.072  32.869  29.941  1.00  0.00     0.014 A 
ATOM     31  C   UNL A   1      35.515  34.379  28.728  1.00  0.00     0.014 A 
ATOM     32  C   UNL A   1      35.190  32.299  30.560  1.00  0.00     0.010 A 
ATOM     33  C   UNL A   1      36.637  33.775  29.307  1.00  0.00     0.010 A 
ATOM     34  C   UNL A   1      36.486  32.733  30.235  1.00  0.00    -0.014 A 
BRANCH  34  35
ATOM     35  C   UNL A   1      37.673  32.092  30.867  1.00  0.00     0.031 A 
ATOM     36  C   UNL A   1      38.124  32.489  32.246  1.00  0.00     0.074 A 
ATOM     37  C   UNL A   1      38.364  31.154  30.189  1.00  0.00     0.049 A 
ATOM     38  N   UNL A   1      39.109  32.010  32.967  1.00  0.00    -0.248 NA
ATOM     39  C   UNL A   1      37.382  33.578  32.897  1.00  0.00     0.031 C 
ATOM     40  C   UNL A   1      38.069  30.711  28.826  1.00  0.00     0.029 A 
ATOM     41  N   UNL A   1      39.456  30.402  30.553  1.00  0.00    -0.354 N 
ATOM     42  C   UNL A   1      39.104  32.737  34.150  1.00  0.00     0.074 A 
ATOM     43  C   UNL A   1      38.056  33.728  34.029  1.00  0.00     0.031 C 
ATOM     44  C   UNL A   1      38.939  29.749  28.479  1.00  0.00     0.029 A 
ATOM     45  C   UNL A   1      39.869  29.523  29.582  1.00  0.00     0.049 A 
ATOM     46  H   UNL A   1      39.899  30.486  31.428  1.00  0.00     0.167 HD
ATOM     47  C   UNL A   1      39.884  32.577  35.248  1.00  0.00     0.037 A 
ATOM     48  C   UNL A   1      40.880  28.632  29.579  1.00  0.00     0.037 A 
ATOM     49  C   UNL A   1      40.921  31.585  35.376  1.00  0.00     0.049 A 
ATOM     50  C   UNL A   1      41.737  28.480  30.808  1.00  0.00     0.074 A 
ATOM     51  C   UNL A   1      41.726  31.312  36.470  1.00  0.00     0.029 A 
ATOM     52  N   UNL A   1      41.305  30.707  34.372  1.00  0.00    -0.354 N 
ATOM     53  N   UNL A   1      41.663  29.113  31.954  1.00  0.00    -0.248 NA
ATOM     54  C   UNL A   1      42.808  27.476  30.747  1.00  0.00     0.031 C 
ATOM     55  C   UNL A   1      42.630  30.306  36.112  1.00  0.00     0.029 A 
ATOM     56  C   UNL A   1      42.350  29.910  34.815  1.00  0.00     0.049 A 
ATOM     57  H   UNL A   1      40.896  30.658  33.478  1.00  0.00     0.167 HD
ATOM     58  C   UNL A   1      42.652  28.561  32.759  1.00  0.00     0.074 A 
ATOM     59  C   UNL A   1      43.303  27.532  31.976  1.00  0.00     0.031 C 
ATOM     60  C   UNL A   1      42.987  28.878  34.034  1.00  0.00     0.037 A 
BRANCH  47  61
ATOM     61  C   UNL A   1      39.644  33.497  36.412  1.00  0.00     0.064 A 
ATOM     62  C   UNL A   1      38.798  33.136  37.473  1.00  0.00     0.173 A 
ATOM     63  C   UNL A   1      40.303  34.734  36.494  1.00  0.00     0.173 A 
ATOM     64  F   UNL A   1      38.139  31.968  37.442  1.00  0.00    -0.203 F 
ATOM     65  C   UNL A   1      38.597  33.991  38.554  1.00  0.00     0.198 A 
ATOM     66  C   UNL A   1      40.124  35.572  37.592  1.00  0.00     0.198 A 
ATOM     67  F   UNL A   1      41.130  35.126  35.513  1.00  0.00    -0.203 F 
ATOM     68  F   UNL A   1      37.746  33.644  39.530  1.00  0.00    -0.200 F 
ATOM     69  C   UNL A   1      39.266  35.203  38.617  1.00  0.00     0.200 A 
ATOM     70  F   UNL A   1      40.784  36.736  37.659  1.00  0.00    -0.200 F 
ATOM     71  F   UNL A   1      39.078  36.021  39.662  1.00  0.00    -0.200 F 
ENDBRANCH  47  61
BRANCH  48  72
ATOM     72  C   UNL A   1      41.118  27.784  28.382  1.00  0.00     0.064 A 
ATOM     73  C   UNL A   1      41.967  28.212  27.351  1.00  0.00     0.173 A 
ATOM     74  C   UNL A   1      40.490  26.539  28.235  1.00  0.00     0.173 A 
ATOM     75  F   UNL A   1      42.572  29.406  27.435  1.00  0.00    -0.203 F 
ATOM     76  C   UNL A   1      42.161  27.437  26.210  1.00  0.00     0.198 A 
ATOM     77  C   UNL A   1      40.710  25.751  27.106  1.00  0.00     0.198 A 
ATOM     78  F   UNL A   1      39.670  26.083  29.193  1.00  0.00    -0.203 F 
ATOM     79  F   UNL A   1      42.937  27.894  25.217  1.00  0.00    -0.200 F 
ATOM     80  C   UNL A   1      41.537  26.205  26.090  1.00  0.00     0.200 A 
ATOM     81  F   UNL A   1      40.115  24.555  27.001  1.00  0.00    -0.200 F 
ATOM     82  F   UNL A   1      41.726  25.460  24.993  1.00  0.00    -0.200 F 
ENDBRANCH  48  72
BRANCH  60  83
ATOM     83  C   UNL A   1      44.077  28.075  34.685  1.00  0.00     0.064 A 
ATOM     84  C   UNL A   1      43.813  26.868  35.349  1.00  0.00     0.173 A 
ATOM     85  C   UNL A   1      45.412  28.504  34.614  1.00  0.00     0.173 A 
ATOM     86  F   UNL A   1      42.554  26.418  35.459  1.00  0.00    -0.203 F 
ATOM     87  C   UNL A   1      44.839  26.138  35.945  1.00  0.00     0.198 A 
ATOM     88  C   UNL A   1      46.439  27.755  35.181  1.00  0.00     0.198 A 
ATOM     89  F   UNL A   1      45.722  29.647  33.984  1.00  0.00    -0.203 F 
ATOM     90  F   UNL A   1      44.556  25.016  36.621  1.00  0.00    -0.200 F 
ATOM     91  C   UNL A   1      46.152  26.578  35.854  1.00  0.00     0.200 A 
ATOM     92  F   UNL A   1      47.708  28.175  35.079  1.00  0.00    -0.200 F 
ATOM     93  F   UNL A   1      47.138  25.871  36.422  1.00  0.00    -0.200 F 
ENDBRANCH  60  83
ENDBRANCH  34  35
ENDBRANCH  26  29
ENDBRANCH  24  25
ENDBRANCH  23  24
ENDBRANCH   1  23
TORSDOF 15
ENDMDL
MODEL 3
REMARK VINA RESULT:     -11.1      1.728      3.181
REMARK SMILES CC[C@@](C)(NC(=O)NCCc1cscn1)C(=O)NCCCNC(=O)c1ccc(-c2c3nc(c(-c4c(F)c(F)c(F)c(F)c4F)c4ccc([nH]4)c(-c4c(F)c(F)c(F)c(F)c4F)c4nc(c(-c5c(F)c(F)c(F)c(F)c5F)c5ccc2[nH]5)C=C4)C=C3)cc1
REMARK SMILES IDX 19 1 18 2 16 3 17 4 3 6 4 7 2 8 1 9 5 10 6 11 7 13 8 14 9 16
REMARK SMILES IDX 10 17 11 18 12 19 15 20 13 21 14 22 20 23 21 24 22 25 23 26
REMARK SMILES IDX 24 28 25 29 26 30 87 31 27 32 86 33 28 34 29 35 30 36 80 37
REMARK SMILES IDX 31 38 85 39 79 40 81 41 32 42 84 43 78 44 77 45 33 47 65 48
REMARK SMILES IDX 45 49 64 50 46 51 49 52 63 53 82 54 47 55 48 56 62 58 83 59
REMARK SMILES IDX 50 60 34 61 35 62 43 63 36 64 37 65 41 66 44 67 38 68 39 69
REMARK SMILES IDX 42 70 40 71 66 72 67 73 75 74 68 75 69 76 73 77 76 78 70 79
REMARK SMILES IDX 71 80 74 81 72 82 51 83 52 84 60 85 53 86 54 87 58 88 61 89
REMARK SMILES IDX 55 90 56 91 59 92 57 93
REMARK H PARENT 18 5 5 12 8 15 22 27 81 46 49 57
REMARK Flexibility Score: inf
ROOT
ATOM      1  C   UNL A   1      31.241  30.457  25.442  1.00  0.00     0.117 C 
ENDROOT
BRANCH   1   2
ATOM      2  N   UNL A   1      32.434  29.903  24.817  1.00  0.00    -0.354 N 
ATOM      3  C   UNL A   1      32.649  29.041  23.771  1.00  0.00     0.245 C 
ATOM      4  O   UNL A   1      33.817  28.980  23.366  1.00  0.00    -0.272 OA
ATOM      5  H   UNL A   1      33.268  30.213  25.238  1.00  0.00     0.163 HD
BRANCH   3   6
ATOM      6  C   UNL A   1      31.507  28.264  23.056  1.00  0.00     0.117 C 
ATOM      7  C   UNL A   1      30.820  27.397  24.146  1.00  0.00     0.045 C 
BRANCH   6   8
ATOM      8  C   UNL A   1      30.373  29.103  22.395  1.00  0.00     0.035 C 
ATOM      9  C   UNL A   1      28.953  28.914  22.918  1.00  0.00     0.007 C 
ENDBRANCH   6   8
BRANCH   6  10
ATOM     10  N   UNL A   1      32.089  27.384  22.025  1.00  0.00    -0.324 N 
ATOM     11  C   UNL A   1      32.965  26.374  22.001  1.00  0.00     0.315 C 
ATOM     12  H   UNL A   1      31.745  27.595  21.127  1.00  0.00     0.166 HD
ATOM     13  O   UNL A   1      33.283  25.958  20.881  1.00  0.00    -0.249 OA
ATOM     14  N   UNL A   1      33.449  25.715  23.057  1.00  0.00    -0.338 N 
ATOM     15  H   UNL A   1      33.800  24.833  22.796  1.00  0.00     0.165 HD
BRANCH  14  16
ATOM     16  C   UNL A   1      33.601  25.940  24.492  1.00  0.00     0.124 C 
BRANCH  16  17
ATOM     17  C   UNL A   1      34.165  24.771  25.300  1.00  0.00     0.078 C 
BRANCH  17  18
ATOM     18  C   UNL A   1      33.591  23.412  25.043  1.00  0.00     0.053 A 
ATOM     19  C   UNL A   1      32.637  22.801  25.841  1.00  0.00     0.090 A 
ATOM     20  N   UNL A   1      33.922  22.706  23.896  1.00  0.00    -0.250 NA
ATOM     21  S   UNL A   1      32.167  21.300  25.169  1.00  0.00    -0.130 S 
ATOM     22  C   UNL A   1      33.255  21.571  23.874  1.00  0.00     0.175 A 
ENDBRANCH  17  18
ENDBRANCH  16  17
ENDBRANCH  14  16
ENDBRANCH   6  10
ENDBRANCH   3   6
ENDBRANCH   1   2
BRANCH   1  23
ATOM     23  C   UNL A   1      31.408  31.363  26.663  1.00  0.00     0.042 C 
BRANCH  23  24
ATOM     24  C   UNL A   1      32.686  32.176  26.806  1.00  0.00     0.118 C 
BRANCH  24  25
ATOM     25  N   UNL A   1      32.487  33.509  27.345  1.00  0.00    -0.352 N 
ATOM     26  C   UNL A   1      33.206  34.191  28.296  1.00  0.00     0.251 C 
ATOM     27  H   UNL A   1      31.720  33.999  26.970  1.00  0.00     0.163 HD
ATOM     28  O   UNL A   1      32.821  35.299  28.658  1.00  0.00    -0.269 OA
BRANCH  26  29
ATOM     29  C   UNL A   1      34.419  33.606  28.919  1.00  0.00     0.039 A 
ATOM     30  C   UNL A   1      34.248  32.605  29.882  1.00  0.00     0.014 A 
ATOM     31  C   UNL A   1      35.706  34.060  28.621  1.00  0.00     0.014 A 
ATOM     32  C   UNL A   1      35.360  32.032  30.508  1.00  0.00     0.010 A 
ATOM     33  C   UNL A   1      36.822  33.451  29.208  1.00  0.00     0.010 A 
ATOM     34  C   UNL A   1      36.662  32.436  30.163  1.00  0.00    -0.014 A 
BRANCH  34  35
ATOM     35  C   UNL A   1      37.843  31.793  30.803  1.00  0.00     0.031 A 
ATOM     36  C   UNL A   1      38.273  32.174  32.193  1.00  0.00     0.074 A 
ATOM     37  C   UNL A   1      38.546  30.865  30.123  1.00  0.00     0.049 A 
ATOM     38  N   UNL A   1      39.250  31.690  32.922  1.00  0.00    -0.248 NA
ATOM     39  C   UNL A   1      37.518  33.252  32.847  1.00  0.00     0.031 C 
ATOM     40  C   UNL A   1      38.271  30.438  28.751  1.00  0.00     0.029 A 
ATOM     41  N   UNL A   1      39.635  30.113  30.493  1.00  0.00    -0.354 N 
ATOM     42  C   UNL A   1      39.226  32.402  34.113  1.00  0.00     0.074 A 
ATOM     43  C   UNL A   1      38.176  33.390  33.990  1.00  0.00     0.031 C 
ATOM     44  C   UNL A   1      39.149  29.483  28.404  1.00  0.00     0.029 A 
ATOM     45  C   UNL A   1      40.065  29.247  29.517  1.00  0.00     0.049 A 
ATOM     46  H   UNL A   1      40.067  30.188  31.375  1.00  0.00     0.167 HD
ATOM     47  C   UNL A   1      39.992  32.232  35.219  1.00  0.00     0.037 A 
ATOM     48  C   UNL A   1      41.080  28.361  29.517  1.00  0.00     0.037 A 
ATOM     49  C   UNL A   1      41.032  31.242  35.350  1.00  0.00     0.049 A 
ATOM     50  C   UNL A   1      41.921  28.197  30.756  1.00  0.00     0.074 A 
ATOM     51  C   UNL A   1      41.822  30.959  36.451  1.00  0.00     0.029 A 
ATOM     52  N   UNL A   1      41.432  30.378  34.340  1.00  0.00    -0.354 N 
ATOM     53  N   UNL A   1      41.829  28.815  31.908  1.00  0.00    -0.248 NA
ATOM     54  C   UNL A   1      42.997  27.198  30.697  1.00  0.00     0.031 C 
ATOM     55  C   UNL A   1      42.735  29.961  36.092  1.00  0.00     0.029 A 
ATOM     56  C   UNL A   1      42.474  29.579  34.787  1.00  0.00     0.049 A 
ATOM     57  H   UNL A   1      41.035  30.338  33.440  1.00  0.00     0.167 HD
ATOM     58  C   UNL A   1      42.809  28.257  32.720  1.00  0.00     0.074 A 
ATOM     59  C   UNL A   1      43.474  27.241  31.932  1.00  0.00     0.031 C 
ATOM     60  C   UNL A   1      43.125  28.560  34.003  1.00  0.00     0.037 A 
BRANCH  47  61
ATOM     61  C   UNL A   1      39.732  33.137  36.391  1.00  0.00     0.064 A 
ATOM     62  C   UNL A   1      40.404  34.361  36.538  1.00  0.00     0.173 A 
ATOM     63  C   UNL A   1      38.768  32.800  37.355  1.00  0.00     0.173 A 
ATOM     64  F   UNL A   1      41.339  34.728  35.649  1.00  0.00    -0.203 F 
ATOM     65  C   UNL A   1      40.142  35.198  37.620  1.00  0.00     0.198 A 
ATOM     66  C   UNL A   1      38.486  33.655  38.417  1.00  0.00     0.198 A 
ATOM     67  F   UNL A   1      38.089  31.648  37.259  1.00  0.00    -0.203 F 
ATOM     68  F   UNL A   1      40.831  36.339  37.764  1.00  0.00    -0.200 F 
ATOM     69  C   UNL A   1      39.179  34.849  38.553  1.00  0.00     0.200 A 
ATOM     70  F   UNL A   1      37.544  33.324  39.310  1.00  0.00    -0.200 F 
ATOM     71  F   UNL A   1      38.923  35.660  39.590  1.00  0.00    -0.200 F 
ENDBRANCH  47  61
BRANCH  48  72
ATOM     72  C   UNL A   1      41.337  27.528  28.313  1.00  0.00     0.064 A 
ATOM     73  C   UNL A   1      40.701  26.290  28.142  1.00  0.00     0.173 A 
ATOM     74  C   UNL A   1      42.234  27.943  27.318  1.00  0.00     0.173 A 
ATOM     75  F   UNL A   1      39.852  25.838  29.078  1.00  0.00    -0.203 F 
ATOM     76  C   UNL A   1      40.969  25.489  27.035  1.00  0.00     0.198 A 
ATOM     77  C   UNL A   1      42.477  27.154  26.194  1.00  0.00     0.198 A 
ATOM     78  F   UNL A   1      42.866  29.120  27.432  1.00  0.00    -0.203 F 
ATOM     79  F   UNL A   1      40.386  24.287  26.923  1.00  0.00    -0.200 F 
ATOM     80  C   UNL A   1      41.853  25.924  26.058  1.00  0.00     0.200 A 
ATOM     81  F   UNL A   1      43.322  27.584  25.248  1.00  0.00    -0.200 F 
ATOM     82  F   UNL A   1      42.108  25.153  24.992  1.00  0.00    -0.200 F 
ENDBRANCH  48  72
BRANCH  60  83
ATOM     83  C   UNL A   1      44.210  27.753  34.658  1.00  0.00     0.064 A 
ATOM     84  C   UNL A   1      43.941  26.542  35.313  1.00  0.00     0.173 A 
ATOM     85  C   UNL A   1      45.545  28.182  34.602  1.00  0.00     0.173 A 
ATOM     86  F   UNL A   1      42.680  26.091  35.408  1.00  0.00    -0.203 F 
ATOM     87  C   UNL A   1      44.961  25.809  35.914  1.00  0.00     0.198 A 
ATOM     88  C   UNL A   1      46.567  27.431  35.174  1.00  0.00     0.198 A 
ATOM     89  F   UNL A   1      45.861  29.329  33.981  1.00  0.00    -0.203 F 
ATOM     90  F   UNL A   1      44.672  24.682  36.581  1.00  0.00    -0.200 F 
ATOM     91  C   UNL A   1      46.274  26.250  35.837  1.00  0.00     0.200 A 
ATOM     92  F   UNL A   1      47.837  27.851  35.085  1.00  0.00    -0.200 F 
ATOM     93  F   UNL A   1      47.255  25.539  36.409  1.00  0.00    -0.200 F 
ENDBRANCH  60  83
ENDBRANCH  34  35
ENDBRANCH  26  29
ENDBRANCH  24  25
ENDBRANCH  23  24
ENDBRANCH   1  23
TORSDOF 15
ENDMDL
