MODEL 1
REMARK VINA RESULT:     -11.7      0.000      0.000
REMARK SMILES COC[C@@H](NS(=O)(=O)c1ccc(C(=O)NCCCNC(=O)c2ccc(-c3c4nc(c(-c5c(F)c(F)c(F)c(F)c5F)c5ccc([nH]5)c(-c5c(F)c(F)c(F)c(F)c5F)c5nc(c(-c6c(F)c(F)c(F)c(F)c6F)c6ccc3[nH]6)C=C5)C=C4)cc2)cc1F)C(C)C
REMARK SMILES IDX 13 1 14 2 15 3 12 5 9 6 10 7 86 8 11 9 85 10 87 11 6 12 7 13
REMARK SMILES IDX 8 14 5 15 4 17 3 18 2 19 1 20 88 21 89 22 90 23 16 24 17 25
REMARK SMILES IDX 18 26 19 27 20 28 21 30 22 31 23 32 84 33 24 34 83 35 25 36
REMARK SMILES IDX 26 37 27 38 77 39 28 40 82 41 76 42 78 43 29 44 81 45 75 46
REMARK SMILES IDX 74 47 30 49 62 50 42 51 61 52 43 53 46 54 60 55 79 56 44 57
REMARK SMILES IDX 45 58 59 60 80 61 47 62 31 63 32 64 40 65 33 66 34 67 38 68
REMARK SMILES IDX 41 69 35 70 36 71 39 72 37 73 63 74 64 75 72 76 65 77 66 78
REMARK SMILES IDX 70 79 73 80 67 81 68 82 71 83 69 84 48 85 49 86 57 87 50 88
REMARK SMILES IDX 51 89 55 90 58 91 52 92 53 93 56 94 54 95
REMARK H PARENT 15 4 5 16 19 29 78 48 46 59
REMARK Flexibility Score: inf
ROOT
ATOM      1  C   UNL A   1      32.485  29.173  24.652  1.00  0.00     0.251 C 
ATOM      2  O   UNL A   1      33.114  29.211  23.595  1.00  0.00    -0.269 OA
ATOM      3  N   UNL A   1      32.106  30.355  25.228  1.00  0.00    -0.352 N 
ATOM      4  H   UNL A   1      32.198  31.138  24.636  1.00  0.00     0.163 HD
ENDROOT
BRANCH   1   5
ATOM      5  C   UNL A   1      32.172  27.849  25.240  1.00  0.00     0.042 A 
ATOM      6  C   UNL A   1      31.740  25.185  25.983  1.00  0.00     0.118 A 
ATOM      7  C   UNL A   1      33.040  25.700  25.976  1.00  0.00     0.026 A 
ATOM      8  C   UNL A   1      30.664  26.011  25.686  1.00  0.00     0.144 A 
ATOM      9  C   UNL A   1      33.253  27.027  25.600  1.00  0.00     0.015 A 
ATOM     10  C   UNL A   1      30.877  27.329  25.282  1.00  0.00     0.054 A 
ATOM     11  F   UNL A   1      29.404  25.563  25.717  1.00  0.00    -0.205 F 
BRANCH   6  12
ATOM     12  S   UNL A   1      31.494  23.454  26.206  1.00  0.00     0.243 S 
ATOM     13  O   UNL A   1      30.858  22.875  25.047  1.00  0.00    -0.207 OA
ATOM     14  O   UNL A   1      30.962  23.285  27.541  1.00  0.00    -0.207 OA
BRANCH  12  15
ATOM     15  N   UNL A   1      33.070  22.858  26.275  1.00  0.00    -0.205 NA
ATOM     16  H   UNL A   1      33.684  23.673  26.281  1.00  0.00     0.141 HD
BRANCH  15  17
ATOM     17  C   UNL A   1      33.611  21.930  25.230  1.00  0.00     0.098 C 
BRANCH  17  18
ATOM     18  C   UNL A   1      33.425  20.473  25.740  1.00  0.00     0.180 C 
BRANCH  18  19
ATOM     19  O   UNL A   1      32.329  19.782  25.128  1.00  0.00    -0.383 OA
ATOM     20  C   UNL A   1      32.357  19.727  23.712  1.00  0.00     0.194 C 
ENDBRANCH  18  19
ENDBRANCH  17  18
BRANCH  17  21
ATOM     21  C   UNL A   1      35.096  22.334  24.949  1.00  0.00     0.003 C 
ATOM     22  C   UNL A   1      35.360  23.082  23.637  1.00  0.00     0.009 C 
ATOM     23  C   UNL A   1      35.640  23.201  26.092  1.00  0.00     0.009 C 
ENDBRANCH  17  21
ENDBRANCH  15  17
ENDBRANCH  12  15
ENDBRANCH   6  12
ENDBRANCH   1   5
BRANCH   3  24
ATOM     24  C   UNL A   1      31.594  30.671  26.550  1.00  0.00     0.118 C 
BRANCH  24  25
ATOM     25  C   UNL A   1      31.436  32.172  26.768  1.00  0.00     0.042 C 
BRANCH  25  26
ATOM     26  C   UNL A   1      32.754  32.894  27.042  1.00  0.00     0.118 C 
BRANCH  26  27
ATOM     27  N   UNL A   1      32.547  34.217  27.615  1.00  0.00    -0.352 N 
ATOM     28  C   UNL A   1      33.086  34.806  28.730  1.00  0.00     0.251 C 
ATOM     29  H   UNL A   1      31.913  34.784  27.118  1.00  0.00     0.163 HD
ATOM     30  O   UNL A   1      32.586  35.839  29.166  1.00  0.00    -0.269 OA
BRANCH  28  31
ATOM     31  C   UNL A   1      34.262  34.224  29.415  1.00  0.00     0.039 A 
ATOM     32  C   UNL A   1      35.539  34.517  28.924  1.00  0.00     0.014 A 
ATOM     33  C   UNL A   1      34.115  33.323  30.473  1.00  0.00     0.014 A 
ATOM     34  C   UNL A   1      36.667  33.946  29.520  1.00  0.00     0.010 A 
ATOM     35  C   UNL A   1      35.242  32.799  31.105  1.00  0.00     0.010 A 
ATOM     36  C   UNL A   1      36.527  33.097  30.627  1.00  0.00    -0.014 A 
BRANCH  36  37
ATOM     37  C   UNL A   1      37.706  32.486  31.287  1.00  0.00     0.031 A 
ATOM     38  C   UNL A   1      38.474  31.396  30.593  1.00  0.00     0.074 A 
ATOM     39  C   UNL A   1      38.049  32.865  32.532  1.00  0.00     0.049 A 
ATOM     40  N   UNL A   1      39.451  30.653  31.048  1.00  0.00    -0.248 NA
ATOM     41  C   UNL A   1      38.075  31.086  29.212  1.00  0.00     0.031 C 
ATOM     42  C   UNL A   1      37.370  33.894  33.318  1.00  0.00     0.029 A 
ATOM     43  N   UNL A   1      39.050  32.419  33.357  1.00  0.00    -0.354 N 
ATOM     44  C   UNL A   1      39.760  29.769  30.024  1.00  0.00     0.074 A 
ATOM     45  C   UNL A   1      38.855  30.052  28.931  1.00  0.00     0.031 C 
ATOM     46  C   UNL A   1      37.983  34.013  34.507  1.00  0.00     0.029 A 
ATOM     47  C   UNL A   1      39.076  33.046  34.578  1.00  0.00     0.049 A 
ATOM     48  H   UNL A   1      39.688  31.715  33.099  1.00  0.00     0.167 HD
ATOM     49  C   UNL A   1      40.720  28.813  29.997  1.00  0.00     0.037 A 
ATOM     50  C   UNL A   1      39.885  32.858  35.636  1.00  0.00     0.037 A 
ATOM     51  C   UNL A   1      41.650  28.563  31.065  1.00  0.00     0.049 A 
ATOM     52  C   UNL A   1      40.960  31.812  35.570  1.00  0.00     0.074 A 
ATOM     53  C   UNL A   1      42.688  27.649  31.108  1.00  0.00     0.029 A 
ATOM     54  N   UNL A   1      41.659  29.240  32.275  1.00  0.00    -0.354 N 
ATOM     55  N   UNL A   1      41.250  30.989  34.593  1.00  0.00    -0.248 NA
ATOM     56  C   UNL A   1      41.820  31.668  36.754  1.00  0.00     0.031 C 
ATOM     57  C   UNL A   1      43.315  27.760  32.354  1.00  0.00     0.029 A 
ATOM     58  C   UNL A   1      42.683  28.761  33.074  1.00  0.00     0.049 A 
ATOM     59  H   UNL A   1      41.031  29.955  32.528  1.00  0.00     0.167 HD
ATOM     60  C   UNL A   1      42.328  30.237  35.036  1.00  0.00     0.074 A 
ATOM     61  C   UNL A   1      42.651  30.709  36.367  1.00  0.00     0.031 C 
ATOM     62  C   UNL A   1      42.990  29.244  34.395  1.00  0.00     0.037 A 
BRANCH  49  63
ATOM     63  C   UNL A   1      40.813  27.965  28.766  1.00  0.00     0.064 A 
ATOM     64  C   UNL A   1      41.630  28.354  27.694  1.00  0.00     0.173 A 
ATOM     65  C   UNL A   1      40.062  26.788  28.630  1.00  0.00     0.173 A 
ATOM     66  F   UNL A   1      42.364  29.474  27.776  1.00  0.00    -0.203 F 
ATOM     67  C   UNL A   1      41.689  27.596  26.528  1.00  0.00     0.198 A 
ATOM     68  C   UNL A   1      40.140  26.021  27.471  1.00  0.00     0.198 A 
ATOM     69  F   UNL A   1      39.278  26.369  29.634  1.00  0.00    -0.203 F 
ATOM     70  F   UNL A   1      42.464  27.994  25.510  1.00  0.00    -0.200 F 
ATOM     71  C   UNL A   1      40.947  26.429  26.419  1.00  0.00     0.200 A 
ATOM     72  F   UNL A   1      39.441  24.882  27.374  1.00  0.00    -0.200 F 
ATOM     73  F   UNL A   1      41.017  25.692  25.301  1.00  0.00    -0.200 F 
ENDBRANCH  49  63
BRANCH  50  74
ATOM     74  C   UNL A   1      39.717  33.708  36.840  1.00  0.00     0.064 A 
ATOM     75  C   UNL A   1      38.897  33.313  37.905  1.00  0.00     0.173 A 
ATOM     76  C   UNL A   1      40.351  34.954  36.925  1.00  0.00     0.173 A 
ATOM     77  F   UNL A   1      38.269  32.129  37.865  1.00  0.00    -0.203 F 
ATOM     78  C   UNL A   1      38.703  34.144  39.006  1.00  0.00     0.198 A 
ATOM     79  C   UNL A   1      40.169  35.777  38.032  1.00  0.00     0.198 A 
ATOM     80  F   UNL A   1      41.159  35.362  35.935  1.00  0.00    -0.203 F 
ATOM     81  F   UNL A   1      37.895  33.757  40.001  1.00  0.00    -0.200 F 
ATOM     82  C   UNL A   1      39.340  35.375  39.070  1.00  0.00     0.200 A 
ATOM     83  F   UNL A   1      40.799  36.958  38.098  1.00  0.00    -0.200 F 
ATOM     84  F   UNL A   1      39.156  36.172  40.131  1.00  0.00    -0.200 F 
ENDBRANCH  50  74
BRANCH  62  85
ATOM     85  C   UNL A   1      44.137  28.605  35.114  1.00  0.00     0.064 A 
ATOM     86  C   UNL A   1      45.440  29.095  34.950  1.00  0.00     0.173 A 
ATOM     87  C   UNL A   1      43.952  27.466  35.909  1.00  0.00     0.173 A 
ATOM     88  F   UNL A   1      45.665  30.180  34.195  1.00  0.00    -0.203 F 
ATOM     89  C   UNL A   1      46.522  28.459  35.552  1.00  0.00     0.198 A 
ATOM     90  C   UNL A   1      45.033  26.842  36.523  1.00  0.00     0.198 A 
ATOM     91  F   UNL A   1      42.720  26.971  36.103  1.00  0.00    -0.203 F 
ATOM     92  F   UNL A   1      47.763  28.931  35.368  1.00  0.00    -0.200 F 
ATOM     93  C   UNL A   1      46.318  27.334  36.337  1.00  0.00     0.200 A 
ATOM     94  F   UNL A   1      44.834  25.766  37.295  1.00  0.00    -0.200 F 
ATOM     95  F   UNL A   1      47.359  26.725  36.921  1.00  0.00    -0.200 F 
ENDBRANCH  62  85
ENDBRANCH  36  37
ENDBRANCH  28  31
ENDBRANCH  26  27
ENDBRANCH  25  26
ENDBRANCH  24  25
ENDBRANCH   3  24
TORSDOF 16
ENDMDL
MODEL 2
REMARK VINA RESULT:     -11.6      0.398      1.673
REMARK SMILES COC[C@@H](NS(=O)(=O)c1ccc(C(=O)NCCCNC(=O)c2ccc(-c3c4nc(c(-c5c(F)c(F)c(F)c(F)c5F)c5ccc([nH]5)c(-c5c(F)c(F)c(F)c(F)c5F)c5nc(c(-c6c(F)c(F)c(F)c(F)c6F)c6ccc3[nH]6)C=C5)C=C4)cc2)cc1F)C(C)C
REMARK SMILES IDX 13 1 14 2 15 3 12 5 9 6 10 7 86 8 11 9 85 10 87 11 6 12 7 13
REMARK SMILES IDX 8 14 5 15 4 17 3 18 2 19 1 20 88 21 89 22 90 23 16 24 17 25
REMARK SMILES IDX 18 26 19 27 20 28 21 30 22 31 23 32 84 33 24 34 83 35 25 36
REMARK SMILES IDX 26 37 27 38 77 39 28 40 82 41 76 42 78 43 29 44 81 45 75 46
REMARK SMILES IDX 74 47 30 49 62 50 42 51 61 52 43 53 46 54 60 55 79 56 44 57
REMARK SMILES IDX 45 58 59 60 80 61 47 62 31 63 32 64 40 65 33 66 34 67 38 68
REMARK SMILES IDX 41 69 35 70 36 71 39 72 37 73 63 74 64 75 72 76 65 77 66 78
REMARK SMILES IDX 70 79 73 80 67 81 68 82 71 83 69 84 48 85 49 86 57 87 50 88
REMARK SMILES IDX 51 89 55 90 58 91 52 92 53 93 56 94 54 95
REMARK H PARENT 15 4 5 16 19 29 78 48 46 59
REMARK Flexibility Score: inf
ROOT
ATOM      1  C   UNL A   1      32.384  29.162  24.534  1.00  0.00     0.251 C 
ATOM      2  O   UNL A   1      32.917  29.214  23.426  1.00  0.00    -0.269 OA
ATOM      3  N   UNL A   1      32.003  30.334  25.129  1.00  0.00    -0.352 N 
ATOM      4  H   UNL A   1      32.007  31.112  24.524  1.00  0.00     0.163 HD
ENDROOT
BRANCH   1   5
ATOM      5  C   UNL A   1      32.184  27.834  25.160  1.00  0.00     0.042 A 
ATOM      6  C   UNL A   1      31.993  25.166  25.986  1.00  0.00     0.118 A 
ATOM      7  C   UNL A   1      33.234  25.809  26.004  1.00  0.00     0.026 A 
ATOM      8  C   UNL A   1      30.852  25.868  25.623  1.00  0.00     0.144 A 
ATOM      9  C   UNL A   1      33.327  27.138  25.587  1.00  0.00     0.015 A 
ATOM     10  C   UNL A   1      30.947  27.187  25.178  1.00  0.00     0.054 A 
ATOM     11  F   UNL A   1      29.642  25.296  25.628  1.00  0.00    -0.205 F 
BRANCH   6  12
ATOM     12  S   UNL A   1      31.913  23.428  26.265  1.00  0.00     0.243 S 
ATOM     13  O   UNL A   1      31.280  22.760  25.153  1.00  0.00    -0.207 OA
ATOM     14  O   UNL A   1      31.460  23.252  27.628  1.00  0.00    -0.207 OA
BRANCH  12  15
ATOM     15  N   UNL A   1      33.538  22.975  26.275  1.00  0.00    -0.205 NA
ATOM     16  H   UNL A   1      34.066  23.812  26.522  1.00  0.00     0.141 HD
BRANCH  15  17
ATOM     17  C   UNL A   1      34.206  22.399  25.062  1.00  0.00     0.098 C 
BRANCH  17  18
ATOM     18  C   UNL A   1      34.663  20.954  25.409  1.00  0.00     0.180 C 
BRANCH  18  19
ATOM     19  O   UNL A   1      33.598  19.996  25.416  1.00  0.00    -0.383 OA
ATOM     20  C   UNL A   1      32.883  19.871  24.199  1.00  0.00     0.194 C 
ENDBRANCH  18  19
ENDBRANCH  17  18
BRANCH  17  21
ATOM     21  C   UNL A   1      35.364  23.363  24.646  1.00  0.00     0.003 C 
ATOM     22  C   UNL A   1      36.537  23.480  25.626  1.00  0.00     0.009 C 
ATOM     23  C   UNL A   1      35.941  22.952  23.284  1.00  0.00     0.009 C 
ENDBRANCH  17  21
ENDBRANCH  15  17
ENDBRANCH  12  15
ENDBRANCH   6  12
ENDBRANCH   1   5
BRANCH   3  24
ATOM     24  C   UNL A   1      31.592  30.645  26.488  1.00  0.00     0.118 C 
BRANCH  24  25
ATOM     25  C   UNL A   1      31.413  32.142  26.712  1.00  0.00     0.042 C 
BRANCH  25  26
ATOM     26  C   UNL A   1      32.724  32.887  26.960  1.00  0.00     0.118 C 
BRANCH  26  27
ATOM     27  N   UNL A   1      32.508  34.186  27.583  1.00  0.00    -0.352 N 
ATOM     28  C   UNL A   1      33.034  34.729  28.726  1.00  0.00     0.251 C 
ATOM     29  H   UNL A   1      31.879  34.771  27.103  1.00  0.00     0.163 HD
ATOM     30  O   UNL A   1      32.528  35.744  29.199  1.00  0.00    -0.269 OA
BRANCH  28  31
ATOM     31  C   UNL A   1      34.204  34.122  29.400  1.00  0.00     0.039 A 
ATOM     32  C   UNL A   1      35.487  34.495  28.987  1.00  0.00     0.014 A 
ATOM     33  C   UNL A   1      34.049  33.124  30.367  1.00  0.00     0.014 A 
ATOM     34  C   UNL A   1      36.611  33.905  29.571  1.00  0.00     0.010 A 
ATOM     35  C   UNL A   1      35.168  32.577  30.992  1.00  0.00     0.010 A 
ATOM     36  C   UNL A   1      36.459  32.954  30.592  1.00  0.00    -0.014 A 
BRANCH  36  37
ATOM     37  C   UNL A   1      37.634  32.320  31.238  1.00  0.00     0.031 A 
ATOM     38  C   UNL A   1      38.398  31.245  30.517  1.00  0.00     0.074 A 
ATOM     39  C   UNL A   1      37.975  32.664  32.493  1.00  0.00     0.049 A 
ATOM     40  N   UNL A   1      39.370  30.485  30.954  1.00  0.00    -0.248 NA
ATOM     41  C   UNL A   1      38.001  30.973  29.127  1.00  0.00     0.031 C 
ATOM     42  C   UNL A   1      37.299  33.675  33.305  1.00  0.00     0.029 A 
ATOM     43  N   UNL A   1      38.971  32.191  33.309  1.00  0.00    -0.354 N 
ATOM     44  C   UNL A   1      39.677  29.627  29.908  1.00  0.00     0.074 A 
ATOM     45  C   UNL A   1      38.777  29.944  28.820  1.00  0.00     0.031 C 
ATOM     46  C   UNL A   1      37.910  33.760  34.498  1.00  0.00     0.029 A 
ATOM     47  C   UNL A   1      38.997  32.785  34.546  1.00  0.00     0.049 A 
ATOM     48  H   UNL A   1      39.607  31.491  33.034  1.00  0.00     0.167 HD
ATOM     49  C   UNL A   1      40.632  28.667  29.858  1.00  0.00     0.037 A 
ATOM     50  C   UNL A   1      39.803  32.565  35.601  1.00  0.00     0.037 A 
ATOM     51  C   UNL A   1      41.558  28.384  30.921  1.00  0.00     0.049 A 
ATOM     52  C   UNL A   1      40.873  31.516  35.510  1.00  0.00     0.074 A 
ATOM     53  C   UNL A   1      42.592  27.464  30.943  1.00  0.00     0.029 A 
ATOM     54  N   UNL A   1      41.567  29.028  32.149  1.00  0.00    -0.354 N 
ATOM     55  N   UNL A   1      41.161  30.718  34.512  1.00  0.00    -0.248 NA
ATOM     56  C   UNL A   1      41.729  31.336  36.692  1.00  0.00     0.031 C 
ATOM     57  C   UNL A   1      43.216  27.539  32.193  1.00  0.00     0.029 A 
ATOM     58  C   UNL A   1      42.586  28.523  32.938  1.00  0.00     0.049 A 
ATOM     59  H   UNL A   1      40.943  29.740  32.419  1.00  0.00     0.167 HD
ATOM     60  C   UNL A   1      42.234  29.948  34.937  1.00  0.00     0.074 A 
ATOM     61  C   UNL A   1      42.556  30.383  36.281  1.00  0.00     0.031 C 
ATOM     62  C   UNL A   1      42.893  28.969  34.272  1.00  0.00     0.037 A 
BRANCH  49  63
ATOM     63  C   UNL A   1      40.725  27.851  28.605  1.00  0.00     0.064 A 
ATOM     64  C   UNL A   1      39.966  26.680  28.462  1.00  0.00     0.173 A 
ATOM     65  C   UNL A   1      41.597  28.204  27.565  1.00  0.00     0.173 A 
ATOM     66  F   UNL A   1      39.121  26.299  29.432  1.00  0.00    -0.203 F 
ATOM     67  C   UNL A   1      40.079  25.890  27.321  1.00  0.00     0.198 A 
ATOM     68  C   UNL A   1      41.691  27.423  26.417  1.00  0.00     0.198 A 
ATOM     69  F   UNL A   1      42.332  29.323  27.652  1.00  0.00    -0.203 F 
ATOM     70  F   UNL A   1      39.356  24.768  27.211  1.00  0.00    -0.200 F 
ATOM     71  C   UNL A   1      40.938  26.264  26.298  1.00  0.00     0.200 A 
ATOM     72  F   UNL A   1      42.505  27.797  25.419  1.00  0.00    -0.200 F 
ATOM     73  F   UNL A   1      41.034  25.511  25.194  1.00  0.00    -0.200 F 
ENDBRANCH  49  63
BRANCH  50  74
ATOM     74  C   UNL A   1      39.636  33.383  36.827  1.00  0.00     0.064 A 
ATOM     75  C   UNL A   1      38.715  33.030  37.821  1.00  0.00     0.173 A 
ATOM     76  C   UNL A   1      40.375  34.561  37.002  1.00  0.00     0.173 A 
ATOM     77  F   UNL A   1      37.985  31.913  37.694  1.00  0.00    -0.203 F 
ATOM     78  C   UNL A   1      38.527  33.836  38.942  1.00  0.00     0.198 A 
ATOM     79  C   UNL A   1      40.198  35.357  38.129  1.00  0.00     0.198 A 
ATOM     80  F   UNL A   1      41.280  34.925  36.081  1.00  0.00    -0.203 F 
ATOM     81  F   UNL A   1      37.624  33.491  39.869  1.00  0.00    -0.200 F 
ATOM     82  C   UNL A   1      39.270  34.998  39.096  1.00  0.00     0.200 A 
ATOM     83  F   UNL A   1      40.928  36.469  38.282  1.00  0.00    -0.200 F 
ATOM     84  F   UNL A   1      39.092  35.771  40.176  1.00  0.00    -0.200 F 
ENDBRANCH  50  74
BRANCH  62  85
ATOM     85  C   UNL A   1      44.034  28.306  34.976  1.00  0.00     0.064 A 
ATOM     86  C   UNL A   1      43.823  27.150  35.742  1.00  0.00     0.173 A 
ATOM     87  C   UNL A   1      45.323  28.856  34.948  1.00  0.00     0.173 A 
ATOM     88  F   UNL A   1      42.605  26.592  35.801  1.00  0.00    -0.203 F 
ATOM     89  C   UNL A   1      44.863  26.574  36.464  1.00  0.00     0.198 A 
ATOM     90  C   UNL A   1      46.365  28.268  35.659  1.00  0.00     0.198 A 
ATOM     91  F   UNL A   1      45.572  29.954  34.219  1.00  0.00    -0.203 F 
ATOM     92  F   UNL A   1      44.637  25.480  37.206  1.00  0.00    -0.200 F 
ATOM     93  C   UNL A   1      46.132  27.132  36.422  1.00  0.00     0.200 A 
ATOM     94  F   UNL A   1      47.594  28.797  35.604  1.00  0.00    -0.200 F 
ATOM     95  F   UNL A   1      47.135  26.573  37.113  1.00  0.00    -0.200 F 
ENDBRANCH  62  85
ENDBRANCH  36  37
ENDBRANCH  28  31
ENDBRANCH  26  27
ENDBRANCH  25  26
ENDBRANCH  24  25
ENDBRANCH   3  24
TORSDOF 16
ENDMDL
MODEL 3
REMARK VINA RESULT:     -11.5      5.465     10.772
REMARK SMILES COC[C@@H](NS(=O)(=O)c1ccc(C(=O)NCCCNC(=O)c2ccc(-c3c4nc(c(-c5c(F)c(F)c(F)c(F)c5F)c5ccc([nH]5)c(-c5c(F)c(F)c(F)c(F)c5F)c5nc(c(-c6c(F)c(F)c(F)c(F)c6F)c6ccc3[nH]6)C=C5)C=C4)cc2)cc1F)C(C)C
REMARK SMILES IDX 13 1 14 2 15 3 12 5 9 6 10 7 86 8 11 9 85 10 87 11 6 12 7 13
REMARK SMILES IDX 8 14 5 15 4 17 3 18 2 19 1 20 88 21 89 22 90 23 16 24 17 25
REMARK SMILES IDX 18 26 19 27 20 28 21 30 22 31 23 32 84 33 24 34 83 35 25 36
REMARK SMILES IDX 26 37 27 38 77 39 28 40 82 41 76 42 78 43 29 44 81 45 75 46
REMARK SMILES IDX 74 47 30 49 62 50 42 51 61 52 43 53 46 54 60 55 79 56 44 57
REMARK SMILES IDX 45 58 59 60 80 61 47 62 31 63 32 64 40 65 33 66 34 67 38 68
REMARK SMILES IDX 41 69 35 70 36 71 39 72 37 73 63 74 64 75 72 76 65 77 66 78
REMARK SMILES IDX 70 79 73 80 67 81 68 82 71 83 69 84 48 85 49 86 57 87 50 88
REMARK SMILES IDX 51 89 55 90 58 91 52 92 53 93 56 94 54 95
REMARK H PARENT 15 4 5 16 19 29 78 48 46 59
REMARK Flexibility Score: inf
ROOT
ATOM      1  C   UNL A   1      37.313  23.158  25.714  1.00  0.00     0.251 C 
ATOM      2  O   UNL A   1      37.986  24.097  26.138  1.00  0.00    -0.269 OA
ATOM      3  N   UNL A   1      37.955  21.999  25.370  1.00  0.00    -0.352 N 
ATOM      4  H   UNL A   1      38.888  21.949  25.682  1.00  0.00     0.163 HD
ENDROOT
BRANCH   1   5
ATOM      5  C   UNL A   1      35.846  23.334  25.604  1.00  0.00     0.042 A 
ATOM      6  C   UNL A   1      33.152  24.084  25.481  1.00  0.00     0.118 A 
ATOM      7  C   UNL A   1      34.017  24.438  24.441  1.00  0.00     0.026 A 
ATOM      8  C   UNL A   1      33.613  23.308  26.535  1.00  0.00     0.144 A 
ATOM      9  C   UNL A   1      35.361  24.067  24.508  1.00  0.00     0.015 A 
ATOM     10  C   UNL A   1      34.962  22.961  26.618  1.00  0.00     0.054 A 
ATOM     11  F   UNL A   1      32.807  22.920  27.529  1.00  0.00    -0.205 F 
BRANCH   6  12
ATOM     12  S   UNL A   1      31.526  24.764  25.526  1.00  0.00     0.243 S 
ATOM     13  O   UNL A   1      31.163  25.130  26.874  1.00  0.00    -0.207 OA
ATOM     14  O   UNL A   1      30.697  23.899  24.713  1.00  0.00    -0.207 OA
BRANCH  12  15
ATOM     15  N   UNL A   1      31.691  26.188  24.637  1.00  0.00    -0.205 NA
ATOM     16  H   UNL A   1      32.453  26.026  23.977  1.00  0.00     0.141 HD
BRANCH  15  17
ATOM     17  C   UNL A   1      31.977  27.503  25.296  1.00  0.00     0.098 C 
BRANCH  17  18
ATOM     18  C   UNL A   1      31.042  28.571  24.661  1.00  0.00     0.180 C 
BRANCH  18  19
ATOM     19  O   UNL A   1      30.174  28.048  23.647  1.00  0.00    -0.383 OA
ATOM     20  C   UNL A   1      30.280  28.666  22.377  1.00  0.00     0.194 C 
ENDBRANCH  18  19
ENDBRANCH  17  18
BRANCH  17  21
ATOM     21  C   UNL A   1      33.504  27.801  25.135  1.00  0.00     0.003 C 
ATOM     22  C   UNL A   1      33.921  28.541  23.859  1.00  0.00     0.009 C 
ATOM     23  C   UNL A   1      34.020  28.615  26.329  1.00  0.00     0.009 C 
ENDBRANCH  17  21
ENDBRANCH  15  17
ENDBRANCH  12  15
ENDBRANCH   6  12
ENDBRANCH   1   5
BRANCH   3  24
ATOM     24  C   UNL A   1      37.516  20.829  24.630  1.00  0.00     0.118 C 
BRANCH  24  25
ATOM     25  C   UNL A   1      38.314  19.581  24.990  1.00  0.00     0.042 C 
BRANCH  25  26
ATOM     26  C   UNL A   1      39.279  19.785  26.156  1.00  0.00     0.118 C 
BRANCH  26  27
ATOM     27  N   UNL A   1      40.447  18.919  26.060  1.00  0.00    -0.352 N 
ATOM     28  C   UNL A   1      41.785  19.219  26.034  1.00  0.00     0.251 C 
ATOM     29  H   UNL A   1      40.242  17.958  26.005  1.00  0.00     0.163 HD
ATOM     30  O   UNL A   1      42.590  18.353  25.701  1.00  0.00    -0.269 OA
BRANCH  28  31
ATOM     31  C   UNL A   1      42.279  20.564  26.404  1.00  0.00     0.039 A 
ATOM     32  C   UNL A   1      42.304  20.924  27.755  1.00  0.00     0.014 A 
ATOM     33  C   UNL A   1      42.630  21.504  25.429  1.00  0.00     0.014 A 
ATOM     34  C   UNL A   1      42.722  22.203  28.133  1.00  0.00     0.010 A 
ATOM     35  C   UNL A   1      43.102  22.759  25.808  1.00  0.00     0.010 A 
ATOM     36  C   UNL A   1      43.141  23.124  27.162  1.00  0.00    -0.014 A 
BRANCH  36  37
ATOM     37  C   UNL A   1      43.600  24.485  27.534  1.00  0.00     0.031 A 
ATOM     38  C   UNL A   1      42.598  25.537  27.914  1.00  0.00     0.074 A 
ATOM     39  C   UNL A   1      44.909  24.791  27.471  1.00  0.00     0.049 A 
ATOM     40  N   UNL A   1      42.784  26.812  28.150  1.00  0.00    -0.248 NA
ATOM     41  C   UNL A   1      41.196  25.105  28.021  1.00  0.00     0.031 C 
ATOM     42  C   UNL A   1      45.976  23.864  27.094  1.00  0.00     0.029 A 
ATOM     43  N   UNL A   1      45.562  25.973  27.711  1.00  0.00    -0.354 N 
ATOM     44  C   UNL A   1      41.524  27.336  28.400  1.00  0.00     0.074 A 
ATOM     45  C   UNL A   1      40.577  26.250  28.268  1.00  0.00     0.031 C 
ATOM     46  C   UNL A   1      47.154  24.507  27.145  1.00  0.00     0.029 A 
ATOM     47  C   UNL A   1      46.920  25.898  27.524  1.00  0.00     0.049 A 
ATOM     48  H   UNL A   1      45.101  26.797  27.991  1.00  0.00     0.167 HD
ATOM     49  C   UNL A   1      41.190  28.610  28.720  1.00  0.00     0.037 A 
ATOM     50  C   UNL A   1      47.868  26.847  27.640  1.00  0.00     0.037 A 
ATOM     51  C   UNL A   1      42.135  29.679  28.897  1.00  0.00     0.049 A 
ATOM     52  C   UNL A   1      47.475  28.244  28.025  1.00  0.00     0.074 A 
ATOM     53  C   UNL A   1      41.895  30.990  29.270  1.00  0.00     0.029 A 
ATOM     54  N   UNL A   1      43.506  29.555  28.724  1.00  0.00    -0.354 N 
ATOM     55  N   UNL A   1      46.282  28.727  28.269  1.00  0.00    -0.248 NA
ATOM     56  C   UNL A   1      48.560  29.228  28.149  1.00  0.00     0.031 C 
ATOM     57  C   UNL A   1      43.120  31.666  29.304  1.00  0.00     0.029 A 
ATOM     58  C   UNL A   1      44.124  30.767  28.978  1.00  0.00     0.049 A 
ATOM     59  H   UNL A   1      43.970  28.728  28.461  1.00  0.00     0.167 HD
ATOM     60  C   UNL A   1      46.470  30.064  28.585  1.00  0.00     0.074 A 
ATOM     61  C   UNL A   1      47.895  30.317  28.514  1.00  0.00     0.031 C 
ATOM     62  C   UNL A   1      45.543  30.999  28.904  1.00  0.00     0.037 A 
BRANCH  49  63
ATOM     63  C   UNL A   1      39.736  28.917  28.902  1.00  0.00     0.064 A 
ATOM     64  C   UNL A   1      39.125  28.751  30.154  1.00  0.00     0.173 A 
ATOM     65  C   UNL A   1      38.936  29.333  27.828  1.00  0.00     0.173 A 
ATOM     66  F   UNL A   1      39.848  28.350  31.211  1.00  0.00    -0.203 F 
ATOM     67  C   UNL A   1      37.764  28.989  30.323  1.00  0.00     0.198 A 
ATOM     68  C   UNL A   1      37.580  29.592  28.006  1.00  0.00     0.198 A 
ATOM     69  F   UNL A   1      39.479  29.519  26.616  1.00  0.00    -0.203 F 
ATOM     70  F   UNL A   1      37.198  28.810  31.524  1.00  0.00    -0.200 F 
ATOM     71  C   UNL A   1      36.994  29.413  29.250  1.00  0.00     0.200 A 
ATOM     72  F   UNL A   1      36.840  30.022  26.974  1.00  0.00    -0.200 F 
ATOM     73  F   UNL A   1      35.687  29.658  29.418  1.00  0.00    -0.200 F 
ENDBRANCH  49  63
BRANCH  50  74
ATOM     74  C   UNL A   1      49.288  26.487  27.411  1.00  0.00     0.064 A 
ATOM     75  C   UNL A   1      50.173  26.290  28.480  1.00  0.00     0.173 A 
ATOM     76  C   UNL A   1      49.793  26.372  26.110  1.00  0.00     0.173 A 
ATOM     77  F   UNL A   1      49.734  26.392  29.743  1.00  0.00    -0.203 F 
ATOM     78  C   UNL A   1      51.518  26.007  28.253  1.00  0.00     0.198 A 
ATOM     79  C   UNL A   1      51.133  26.073  25.884  1.00  0.00     0.198 A 
ATOM     80  F   UNL A   1      48.976  26.535  25.059  1.00  0.00    -0.203 F 
ATOM     81  F   UNL A   1      52.351  25.846  29.290  1.00  0.00    -0.200 F 
ATOM     82  C   UNL A   1      51.996  25.896  26.956  1.00  0.00     0.200 A 
ATOM     83  F   UNL A   1      51.588  25.952  24.630  1.00  0.00    -0.200 F 
ATOM     84  F   UNL A   1      53.290  25.620  26.738  1.00  0.00    -0.200 F 
ENDBRANCH  50  74
BRANCH  62  85
ATOM     85  C   UNL A   1      46.034  32.378  29.214  1.00  0.00     0.064 A 
ATOM     86  C   UNL A   1      46.348  32.742  30.531  1.00  0.00     0.173 A 
ATOM     87  C   UNL A   1      46.127  33.357  28.215  1.00  0.00     0.173 A 
ATOM     88  F   UNL A   1      46.269  31.839  31.519  1.00  0.00    -0.203 F 
ATOM     89  C   UNL A   1      46.729  34.045  30.839  1.00  0.00     0.198 A 
ATOM     90  C   UNL A   1      46.525  34.654  28.524  1.00  0.00     0.198 A 
ATOM     91  F   UNL A   1      45.848  33.048  26.940  1.00  0.00    -0.203 F 
ATOM     92  F   UNL A   1      47.007  34.379  32.107  1.00  0.00    -0.200 F 
ATOM     93  C   UNL A   1      46.818  34.999  29.836  1.00  0.00     0.200 A 
ATOM     94  F   UNL A   1      46.627  35.571  27.553  1.00  0.00    -0.200 F 
ATOM     95  F   UNL A   1      47.190  36.251  30.132  1.00  0.00    -0.200 F 
ENDBRANCH  62  85
ENDBRANCH  36  37
ENDBRANCH  28  31
ENDBRANCH  26  27
ENDBRANCH  25  26
ENDBRANCH  24  25
ENDBRANCH   3  24
TORSDOF 16
ENDMDL
