MODEL 1
REMARK VINA RESULT:     -14.7      0.000      0.000
REMARK SMILES COc1ccc(NC(=O)N[C@@H]2C=C[C@H](C(=O)NCCCNC(=O)c3ccc(-c4c5nc(c(-c6c(F)c(F)c(F)c(F)c6F)c6ccc([nH]6)c(-c6c(F)c(F)c(F)c(F)c6F)c6nc(c(-c7c(F)c(F)c(F)c(F)c7F)c7ccc4[nH]7)C=C6)C=C5)cc3)C2)c(C)c1
REMARK SMILES IDX 18 1 17 2 15 3 16 4 14 6 11 7 12 8 87 9 13 10 10 11 7 12
REMARK SMILES IDX 8 13 9 15 6 17 3 18 4 19 90 20 5 21 88 22 89 23 2 24 1 25
REMARK SMILES IDX 19 26 20 27 21 28 22 29 23 31 24 32 25 33 86 34 26 35 85 36
REMARK SMILES IDX 27 37 28 38 29 39 79 40 30 41 84 42 78 43 80 44 31 45 83 46
REMARK SMILES IDX 77 47 76 48 32 50 64 51 44 52 63 53 45 54 48 55 62 56 81 57
REMARK SMILES IDX 46 58 47 59 61 61 82 62 49 63 33 64 34 65 42 66 35 67 36 68
REMARK SMILES IDX 40 69 43 70 37 71 38 72 41 73 39 74 65 75 66 76 74 77 67 78
REMARK SMILES IDX 68 79 72 80 75 81 69 82 70 83 73 84 71 85 50 86 51 87 59 88
REMARK SMILES IDX 52 89 53 90 57 91 60 92 54 93 55 94 58 95 56 96
REMARK H PARENT 17 5 7 14 10 16 21 30 80 49 48 60
REMARK Flexibility Score: inf
ROOT
ATOM      1  C   UNL A   1      36.460  20.813  25.789  1.00  0.00     0.117 C 
ENDROOT
BRANCH   1   2
ATOM      2  N   UNL A   1      35.538  19.998  25.036  1.00  0.00    -0.356 N 
ATOM      3  C   UNL A   1      34.276  20.353  24.627  1.00  0.00     0.227 C 
ATOM      4  O   UNL A   1      33.435  19.481  24.851  1.00  0.00    -0.274 OA
ATOM      5  H   UNL A   1      35.844  19.095  24.790  1.00  0.00     0.163 HD
BRANCH   3   6
ATOM      6  C   UNL A   1      34.098  21.892  23.838  1.00  0.00     0.103 C 
ATOM      7  C   UNL A   1      32.876  24.457  25.286  1.00  0.00     0.107 C 
ATOM      8  C   UNL A   1      32.215  24.471  23.414  1.00  0.00    -0.006 C 
ATOM      9  C   UNL A   1      34.289  23.099  25.470  1.00  0.00     0.047 C 
ATOM     10  C   UNL A   1      32.638  23.044  22.638  1.00  0.00    -0.016 C 
BRANCH   7  11
ATOM     11  N   UNL A   1      31.682  23.657  26.321  1.00  0.00    -0.332 N 
ATOM     12  N   UNL A   1      29.588  25.208  26.502  1.00  0.00    -0.308 N 
ATOM     13  C   UNL A   1      30.278  23.918  26.721  1.00  0.00     0.319 C 
ATOM     14  H   UNL A   1      28.700  25.321  26.912  1.00  0.00     0.171 HD
ATOM     15  O   UNL A   1      29.670  23.008  27.294  1.00  0.00    -0.248 OA
ATOM     16  H   UNL A   1      32.038  22.837  26.733  1.00  0.00     0.165 HD
BRANCH  12  17
ATOM     17  C   UNL A   1      30.102  26.301  25.742  1.00  0.00     0.046 A 
ATOM     18  C   UNL A   1      30.067  28.918  23.119  1.00  0.00     0.119 A 
ATOM     19  C   UNL A   1      28.848  27.640  23.114  1.00  0.00     0.048 A 
ATOM     20  C   UNL A   1      31.180  28.848  24.452  1.00  0.00     0.052 A 
ATOM     21  C   UNL A   1      29.121  26.318  24.624  1.00  0.00     0.030 A 
ATOM     22  C   UNL A   1      31.191  27.577  25.688  1.00  0.00    -0.024 A 
ATOM     23  C   UNL A   1      32.137  27.794  26.837  1.00  0.00     0.047 C 
BRANCH  18  24
ATOM     24  O   UNL A   1      30.238  29.882  22.188  1.00  0.00    -0.497 OA
ATOM     25  C   UNL A   1      29.153  30.795  22.127  1.00  0.00     0.278 C 
ENDBRANCH  18  24
ENDBRANCH  12  17
ENDBRANCH   7  11
ENDBRANCH   3   6
ENDBRANCH   1   2
BRANCH   1  26
ATOM     26  C   UNL A   1      37.741  21.052  25.000  1.00  0.00     0.042 C 
BRANCH  26  27
ATOM     27  C   UNL A   1      38.444  22.352  25.328  1.00  0.00     0.118 C 
BRANCH  27  28
ATOM     28  N   UNL A   1      39.315  22.257  26.482  1.00  0.00    -0.352 N 
ATOM     29  C   UNL A   1      40.074  23.247  27.081  1.00  0.00     0.251 C 
ATOM     30  H   UNL A   1      39.376  21.366  26.896  1.00  0.00     0.163 HD
ATOM     31  O   UNL A   1      41.039  22.941  27.774  1.00  0.00    -0.269 OA
BRANCH  29  32
ATOM     32  C   UNL A   1      39.553  24.640  27.110  1.00  0.00     0.039 A 
ATOM     33  C   UNL A   1      40.291  25.542  26.328  1.00  0.00     0.014 A 
ATOM     34  C   UNL A   1      38.875  25.092  28.229  1.00  0.00     0.014 A 
ATOM     35  C   UNL A   1      40.665  26.753  26.881  1.00  0.00     0.010 A 
ATOM     36  C   UNL A   1      39.400  26.168  28.874  1.00  0.00     0.010 A 
ATOM     37  C   UNL A   1      40.348  26.952  28.217  1.00  0.00    -0.014 A 
BRANCH  37  38
ATOM     38  C   UNL A   1      40.680  28.118  28.991  1.00  0.00     0.031 A 
ATOM     39  C   UNL A   1      39.664  29.176  28.809  1.00  0.00     0.074 A 
ATOM     40  C   UNL A   1      41.642  27.921  29.928  1.00  0.00     0.049 A 
ATOM     41  N   UNL A   1      39.836  30.419  29.035  1.00  0.00    -0.248 NA
ATOM     42  C   UNL A   1      38.325  28.923  28.227  1.00  0.00     0.031 C 
ATOM     43  C   UNL A   1      42.031  28.657  31.130  1.00  0.00     0.029 A 
ATOM     44  N   UNL A   1      42.671  26.958  29.827  1.00  0.00    -0.354 N 
ATOM     45  C   UNL A   1      38.568  30.958  29.155  1.00  0.00     0.074 A 
ATOM     46  C   UNL A   1      37.715  30.099  28.394  1.00  0.00     0.031 C 
ATOM     47  C   UNL A   1      43.346  28.444  31.362  1.00  0.00     0.029 A 
ATOM     48  C   UNL A   1      43.844  27.623  30.272  1.00  0.00     0.049 A 
ATOM     49  H   UNL A   1      42.592  26.027  29.516  1.00  0.00     0.167 HD
ATOM     50  C   UNL A   1      38.391  31.918  30.105  1.00  0.00     0.037 A 
ATOM     51  C   UNL A   1      44.751  28.012  29.322  1.00  0.00     0.037 A 
ATOM     52  C   UNL A   1      39.696  32.177  30.733  1.00  0.00     0.049 A 
ATOM     53  C   UNL A   1      44.677  29.512  29.089  1.00  0.00     0.074 A 
ATOM     54  C   UNL A   1      40.290  31.763  31.911  1.00  0.00     0.029 A 
ATOM     55  N   UNL A   1      40.738  32.557  29.903  1.00  0.00    -0.354 N 
ATOM     56  N   UNL A   1      43.669  30.263  29.457  1.00  0.00    -0.248 NA
ATOM     57  C   UNL A   1      45.716  30.274  28.411  1.00  0.00     0.031 C 
ATOM     58  C   UNL A   1      41.715  31.848  31.732  1.00  0.00     0.029 A 
ATOM     59  C   UNL A   1      41.980  32.317  30.456  1.00  0.00     0.049 A 
ATOM     60  H   UNL A   1      40.608  32.955  29.013  1.00  0.00     0.167 HD
ATOM     61  C   UNL A   1      43.934  31.576  29.186  1.00  0.00     0.074 A 
ATOM     62  C   UNL A   1      45.172  31.504  28.412  1.00  0.00     0.031 C 
ATOM     63  C   UNL A   1      43.157  32.616  29.642  1.00  0.00     0.037 A 
BRANCH  50  64
ATOM     64  C   UNL A   1      37.088  32.468  30.650  1.00  0.00     0.064 A 
ATOM     65  C   UNL A   1      36.291  33.271  29.803  1.00  0.00     0.173 A 
ATOM     66  C   UNL A   1      36.574  32.310  31.955  1.00  0.00     0.173 A 
ATOM     67  F   UNL A   1      36.635  33.482  28.525  1.00  0.00    -0.203 F 
ATOM     68  C   UNL A   1      35.108  33.883  30.230  1.00  0.00     0.198 A 
ATOM     69  C   UNL A   1      35.374  32.902  32.374  1.00  0.00     0.198 A 
ATOM     70  F   UNL A   1      37.204  31.599  32.893  1.00  0.00    -0.203 F 
ATOM     71  F   UNL A   1      34.420  34.659  29.380  1.00  0.00    -0.200 F 
ATOM     72  C   UNL A   1      34.646  33.698  31.515  1.00  0.00     0.200 A 
ATOM     73  F   UNL A   1      34.933  32.703  33.626  1.00  0.00    -0.200 F 
ATOM     74  F   UNL A   1      33.509  34.278  31.922  1.00  0.00    -0.200 F 
ENDBRANCH  50  64
BRANCH  51  75
ATOM     75  C   UNL A   1      44.876  26.939  28.275  1.00  0.00     0.064 A 
ATOM     76  C   UNL A   1      44.453  27.285  26.966  1.00  0.00     0.173 A 
ATOM     77  C   UNL A   1      45.822  25.916  28.388  1.00  0.00     0.173 A 
ATOM     78  F   UNL A   1      43.513  28.230  26.792  1.00  0.00    -0.203 F 
ATOM     79  C   UNL A   1      45.141  26.832  25.844  1.00  0.00     0.198 A 
ATOM     80  C   UNL A   1      46.437  25.388  27.247  1.00  0.00     0.198 A 
ATOM     81  F   UNL A   1      46.262  25.526  29.593  1.00  0.00    -0.203 F 
ATOM     82  F   UNL A   1      44.907  27.385  24.644  1.00  0.00    -0.200 F 
ATOM     83  C   UNL A   1      46.151  25.901  25.988  1.00  0.00     0.200 A 
ATOM     84  F   UNL A   1      47.397  24.460  27.380  1.00  0.00    -0.200 F 
ATOM     85  F   UNL A   1      46.869  25.530  24.921  1.00  0.00    -0.200 F 
ENDBRANCH  51  75
BRANCH  63  86
ATOM     86  C   UNL A   1      43.426  34.065  29.290  1.00  0.00     0.064 A 
ATOM     87  C   UNL A   1      43.399  34.540  27.976  1.00  0.00     0.173 A 
ATOM     88  C   UNL A   1      43.749  35.043  30.265  1.00  0.00     0.173 A 
ATOM     89  F   UNL A   1      43.403  33.696  26.933  1.00  0.00    -0.203 F 
ATOM     90  C   UNL A   1      43.424  35.902  27.686  1.00  0.00     0.198 A 
ATOM     91  C   UNL A   1      43.859  36.393  29.967  1.00  0.00     0.198 A 
ATOM     92  F   UNL A   1      43.975  34.753  31.551  1.00  0.00    -0.203 F 
ATOM     93  F   UNL A   1      43.241  36.311  26.423  1.00  0.00    -0.200 F 
ATOM     94  C   UNL A   1      43.636  36.832  28.686  1.00  0.00     0.200 A 
ATOM     95  F   UNL A   1      44.162  37.260  30.945  1.00  0.00    -0.200 F 
ATOM     96  F   UNL A   1      43.658  38.141  28.410  1.00  0.00    -0.200 F 
ENDBRANCH  63  86
ENDBRANCH  37  38
ENDBRANCH  29  32
ENDBRANCH  27  28
ENDBRANCH  26  27
ENDBRANCH   1  26
TORSDOF 13
ENDMDL
MODEL 2
REMARK VINA RESULT:     -14.7      2.566      3.805
REMARK SMILES COc1ccc(NC(=O)N[C@@H]2C=C[C@H](C(=O)NCCCNC(=O)c3ccc(-c4c5nc(c(-c6c(F)c(F)c(F)c(F)c6F)c6ccc([nH]6)c(-c6c(F)c(F)c(F)c(F)c6F)c6nc(c(-c7c(F)c(F)c(F)c(F)c7F)c7ccc4[nH]7)C=C6)C=C5)cc3)C2)c(C)c1
REMARK SMILES IDX 18 1 17 2 15 3 16 4 14 6 11 7 12 8 87 9 13 10 10 11 7 12
REMARK SMILES IDX 8 13 9 15 6 17 3 18 4 19 90 20 5 21 88 22 89 23 2 24 1 25
REMARK SMILES IDX 19 26 20 27 21 28 22 29 23 31 24 32 25 33 86 34 26 35 85 36
REMARK SMILES IDX 27 37 28 38 29 39 79 40 30 41 84 42 78 43 80 44 31 45 83 46
REMARK SMILES IDX 77 47 76 48 32 50 64 51 44 52 63 53 45 54 48 55 62 56 81 57
REMARK SMILES IDX 46 58 47 59 61 61 82 62 49 63 33 64 34 65 42 66 35 67 36 68
REMARK SMILES IDX 40 69 43 70 37 71 38 72 41 73 39 74 65 75 66 76 74 77 67 78
REMARK SMILES IDX 68 79 72 80 75 81 69 82 70 83 73 84 71 85 50 86 51 87 59 88
REMARK SMILES IDX 52 89 53 90 57 91 60 92 54 93 55 94 58 95 56 96
REMARK H PARENT 17 5 7 14 10 16 21 30 80 49 48 60
REMARK Flexibility Score: inf
ROOT
ATOM      1  C   UNL A   1      39.398  22.758  26.043  1.00  0.00     0.117 C 
ENDROOT
BRANCH   1   2
ATOM      2  N   UNL A   1      38.651  21.657  25.484  1.00  0.00    -0.356 N 
ATOM      3  C   UNL A   1      37.308  21.639  25.199  1.00  0.00     0.227 C 
ATOM      4  O   UNL A   1      36.746  20.618  25.600  1.00  0.00    -0.274 OA
ATOM      5  H   UNL A   1      39.156  20.835  25.285  1.00  0.00     0.163 HD
BRANCH   3   6
ATOM      6  C   UNL A   1      36.665  22.982  24.302  1.00  0.00     0.103 C 
ATOM      7  C   UNL A   1      34.518  25.009  25.507  1.00  0.00     0.107 C 
ATOM      8  C   UNL A   1      34.039  24.712  23.602  1.00  0.00    -0.006 C 
ATOM      9  C   UNL A   1      36.298  24.245  25.860  1.00  0.00     0.047 C 
ATOM     10  C   UNL A   1      34.992  23.495  22.947  1.00  0.00    -0.016 C 
BRANCH   7  11
ATOM     11  N   UNL A   1      33.602  23.883  26.522  1.00  0.00    -0.332 N 
ATOM     12  N   UNL A   1      31.173  24.806  26.779  1.00  0.00    -0.308 N 
ATOM     13  C   UNL A   1      32.188  23.743  26.944  1.00  0.00     0.319 C 
ATOM     14  H   UNL A   1      30.295  24.663  27.203  1.00  0.00     0.171 HD
ATOM     15  O   UNL A   1      31.857  22.684  27.488  1.00  0.00    -0.248 OA
ATOM     16  H   UNL A   1      34.173  23.175  26.899  1.00  0.00     0.165 HD
BRANCH  12  17
ATOM     17  C   UNL A   1      31.360  26.023  26.057  1.00  0.00     0.046 A 
ATOM     18  C   UNL A   1      30.874  28.419  23.273  1.00  0.00     0.119 A 
ATOM     19  C   UNL A   1      30.313  26.752  23.117  1.00  0.00     0.048 A 
ATOM     20  C   UNL A   1      31.580  28.801  24.815  1.00  0.00     0.052 A 
ATOM     21  C   UNL A   1      30.742  25.645  24.758  1.00  0.00     0.030 A 
ATOM     22  C   UNL A   1      31.820  27.635  26.128  1.00  0.00    -0.024 A 
ATOM     23  C   UNL A   1      32.305  28.211  27.431  1.00  0.00     0.047 C 
BRANCH  18  24
ATOM     24  O   UNL A   1      30.849  29.378  22.321  1.00  0.00    -0.497 OA
ATOM     25  C   UNL A   1      29.562  29.947  22.139  1.00  0.00     0.278 C 
ENDBRANCH  18  24
ENDBRANCH  12  17
ENDBRANCH   7  11
ENDBRANCH   3   6
ENDBRANCH   1   2
BRANCH   1  26
ATOM     26  C   UNL A   1      40.745  22.286  26.573  1.00  0.00     0.042 C 
BRANCH  26  27
ATOM     27  C   UNL A   1      41.940  22.874  25.855  1.00  0.00     0.118 C 
BRANCH  27  28
ATOM     28  N   UNL A   1      42.801  21.870  25.262  1.00  0.00    -0.352 N 
ATOM     29  C   UNL A   1      44.101  22.001  24.807  1.00  0.00     0.251 C 
ATOM     30  H   UNL A   1      42.407  20.972  25.169  1.00  0.00     0.163 HD
ATOM     31  O   UNL A   1      44.545  21.201  23.989  1.00  0.00    -0.269 OA
BRANCH  29  32
ATOM     32  C   UNL A   1      45.026  22.927  25.514  1.00  0.00     0.039 A 
ATOM     33  C   UNL A   1      45.070  22.740  26.904  1.00  0.00     0.014 A 
ATOM     34  C   UNL A   1      45.281  24.178  24.978  1.00  0.00     0.014 A 
ATOM     35  C   UNL A   1      44.963  23.844  27.730  1.00  0.00     0.010 A 
ATOM     36  C   UNL A   1      44.961  25.253  25.748  1.00  0.00     0.010 A 
ATOM     37  C   UNL A   1      44.735  25.064  27.110  1.00  0.00    -0.014 A 
BRANCH  37  38
ATOM     38  C   UNL A   1      44.555  26.324  27.783  1.00  0.00     0.031 A 
ATOM     39  C   UNL A   1      43.245  26.917  27.444  1.00  0.00     0.074 A 
ATOM     40  C   UNL A   1      45.439  26.562  28.785  1.00  0.00     0.049 A 
ATOM     41  N   UNL A   1      42.936  28.150  27.556  1.00  0.00    -0.248 NA
ATOM     42  C   UNL A   1      42.143  26.149  26.820  1.00  0.00     0.031 C 
ATOM     43  C   UNL A   1      45.432  27.474  29.927  1.00  0.00     0.029 A 
ATOM     44  N   UNL A   1      46.752  26.039  28.834  1.00  0.00    -0.354 N 
ATOM     45  C   UNL A   1      41.553  28.192  27.555  1.00  0.00     0.074 A 
ATOM     46  C   UNL A   1      41.137  27.027  26.838  1.00  0.00     0.031 C 
ATOM     47  C   UNL A   1      46.711  27.776  30.249  1.00  0.00     0.029 A 
ATOM     48  C   UNL A   1      47.562  27.120  29.272  1.00  0.00     0.049 A 
ATOM     49  H   UNL A   1      47.041  25.125  28.612  1.00  0.00     0.167 HD
ATOM     50  C   UNL A   1      40.961  29.086  28.395  1.00  0.00     0.037 A 
ATOM     51  C   UNL A   1      48.345  27.745  28.339  1.00  0.00     0.037 A 
ATOM     52  C   UNL A   1      42.025  29.851  29.063  1.00  0.00     0.049 A 
ATOM     53  C   UNL A   1      47.754  29.092  27.956  1.00  0.00     0.074 A 
ATOM     54  C   UNL A   1      42.626  29.769  30.307  1.00  0.00     0.029 A 
ATOM     55  N   UNL A   1      42.927  30.526  28.257  1.00  0.00    -0.354 N 
ATOM     56  N   UNL A   1      46.515  29.445  28.195  1.00  0.00    -0.248 NA
ATOM     57  C   UNL A   1      48.501  30.132  27.262  1.00  0.00     0.031 C 
ATOM     58  C   UNL A   1      43.934  30.359  30.196  1.00  0.00     0.029 A 
ATOM     59  C   UNL A   1      44.119  30.800  28.896  1.00  0.00     0.049 A 
ATOM     60  H   UNL A   1      42.738  30.783  27.326  1.00  0.00     0.167 HD
ATOM     61  C   UNL A   1      46.310  30.740  27.811  1.00  0.00     0.074 A 
ATOM     62  C   UNL A   1      47.551  31.073  27.114  1.00  0.00     0.031 C 
ATOM     63  C   UNL A   1      45.173  31.451  28.120  1.00  0.00     0.037 A 
BRANCH  50  64
ATOM     64  C   UNL A   1      39.506  29.156  28.814  1.00  0.00     0.064 A 
ATOM     65  C   UNL A   1      38.542  29.499  27.839  1.00  0.00     0.173 A 
ATOM     66  C   UNL A   1      38.980  28.956  30.109  1.00  0.00     0.173 A 
ATOM     67  F   UNL A   1      38.889  29.685  26.558  1.00  0.00    -0.203 F 
ATOM     68  C   UNL A   1      37.185  29.659  28.137  1.00  0.00     0.198 A 
ATOM     69  C   UNL A   1      37.614  29.091  30.400  1.00  0.00     0.198 A 
ATOM     70  F   UNL A   1      39.747  28.643  31.155  1.00  0.00    -0.203 F 
ATOM     71  F   UNL A   1      36.333  30.020  27.167  1.00  0.00    -0.200 F 
ATOM     72  C   UNL A   1      36.718  29.453  29.417  1.00  0.00     0.200 A 
ATOM     73  F   UNL A   1      37.175  28.876  31.650  1.00  0.00    -0.200 F 
ATOM     74  F   UNL A   1      35.417  29.598  29.701  1.00  0.00    -0.200 F 
ENDBRANCH  50  64
BRANCH  51  75
ATOM     75  C   UNL A   1      48.938  26.721  27.409  1.00  0.00     0.064 A 
ATOM     76  C   UNL A   1      48.562  26.816  26.045  1.00  0.00     0.173 A 
ATOM     77  C   UNL A   1      50.160  26.102  27.691  1.00  0.00     0.173 A 
ATOM     78  F   UNL A   1      47.379  27.361  25.712  1.00  0.00    -0.203 F 
ATOM     79  C   UNL A   1      49.477  26.564  25.027  1.00  0.00     0.198 A 
ATOM     80  C   UNL A   1      51.034  25.753  26.655  1.00  0.00     0.198 A 
ATOM     81  F   UNL A   1      50.578  25.965  28.957  1.00  0.00    -0.203 F 
ATOM     82  F   UNL A   1      49.195  26.925  23.766  1.00  0.00    -0.200 F 
ATOM     83  C   UNL A   1      50.723  26.055  25.336  1.00  0.00     0.200 A 
ATOM     84  F   UNL A   1      52.233  25.229  26.948  1.00  0.00    -0.200 F 
ATOM     85  F   UNL A   1      51.632  25.893  24.366  1.00  0.00    -0.200 F 
ENDBRANCH  51  75
BRANCH  63  86
ATOM     86  C   UNL A   1      44.930  32.868  27.643  1.00  0.00     0.064 A 
ATOM     87  C   UNL A   1      44.219  33.159  26.475  1.00  0.00     0.173 A 
ATOM     88  C   UNL A   1      45.425  34.005  28.332  1.00  0.00     0.173 A 
ATOM     89  F   UNL A   1      43.948  32.205  25.573  1.00  0.00    -0.203 F 
ATOM     90  C   UNL A   1      43.809  34.455  26.167  1.00  0.00     0.198 A 
ATOM     91  C   UNL A   1      45.088  35.303  27.978  1.00  0.00     0.198 A 
ATOM     92  F   UNL A   1      46.254  33.927  29.377  1.00  0.00    -0.203 F 
ATOM     93  F   UNL A   1      43.000  34.659  25.119  1.00  0.00    -0.200 F 
ATOM     94  C   UNL A   1      44.229  35.527  26.931  1.00  0.00     0.200 A 
ATOM     95  F   UNL A   1      45.591  36.328  28.682  1.00  0.00    -0.200 F 
ATOM     96  F   UNL A   1      43.836  36.772  26.639  1.00  0.00    -0.200 F 
ENDBRANCH  63  86
ENDBRANCH  37  38
ENDBRANCH  29  32
ENDBRANCH  27  28
ENDBRANCH  26  27
ENDBRANCH   1  26
TORSDOF 13
ENDMDL
MODEL 3
REMARK VINA RESULT:     -14.4      3.336      9.765
REMARK SMILES COc1ccc(NC(=O)N[C@@H]2C=C[C@H](C(=O)NCCCNC(=O)c3ccc(-c4c5nc(c(-c6c(F)c(F)c(F)c(F)c6F)c6ccc([nH]6)c(-c6c(F)c(F)c(F)c(F)c6F)c6nc(c(-c7c(F)c(F)c(F)c(F)c7F)c7ccc4[nH]7)C=C6)C=C5)cc3)C2)c(C)c1
REMARK SMILES IDX 18 1 17 2 15 3 16 4 14 6 11 7 12 8 87 9 13 10 10 11 7 12
REMARK SMILES IDX 8 13 9 15 6 17 3 18 4 19 90 20 5 21 88 22 89 23 2 24 1 25
REMARK SMILES IDX 19 26 20 27 21 28 22 29 23 31 24 32 25 33 86 34 26 35 85 36
REMARK SMILES IDX 27 37 28 38 29 39 79 40 30 41 84 42 78 43 80 44 31 45 83 46
REMARK SMILES IDX 77 47 76 48 32 50 64 51 44 52 63 53 45 54 48 55 62 56 81 57
REMARK SMILES IDX 46 58 47 59 61 61 82 62 49 63 33 64 34 65 42 66 35 67 36 68
REMARK SMILES IDX 40 69 43 70 37 71 38 72 41 73 39 74 65 75 66 76 74 77 67 78
REMARK SMILES IDX 68 79 72 80 75 81 69 82 70 83 73 84 71 85 50 86 51 87 59 88
REMARK SMILES IDX 52 89 53 90 57 91 60 92 54 93 55 94 58 95 56 96
REMARK H PARENT 17 5 7 14 10 16 21 30 80 49 48 60
REMARK Flexibility Score: inf
ROOT
ATOM      1  C   UNL A   1      31.725  30.782  26.495  1.00  0.00     0.117 C 
ENDROOT
BRANCH   1   2
ATOM      2  N   UNL A   1      31.029  30.501  25.262  1.00  0.00    -0.356 N 
ATOM      3  C   UNL A   1      31.166  29.379  24.481  1.00  0.00     0.227 C 
ATOM      4  O   UNL A   1      31.288  29.640  23.283  1.00  0.00    -0.274 OA
ATOM      5  H   UNL A   1      30.390  31.181  24.949  1.00  0.00     0.163 HD
BRANCH   3   6
ATOM      6  C   UNL A   1      31.088  27.838  25.280  1.00  0.00     0.103 C 
ATOM      7  C   UNL A   1      32.913  25.357  24.453  1.00  0.00     0.107 C 
ATOM      8  C   UNL A   1      31.120  24.637  24.913  1.00  0.00    -0.006 C 
ATOM      9  C   UNL A   1      33.019  27.246  24.997  1.00  0.00     0.047 C 
ATOM     10  C   UNL A   1      30.035  25.894  25.157  1.00  0.00    -0.016 C 
BRANCH   7  11
ATOM     11  N   UNL A   1      32.999  25.637  22.707  1.00  0.00    -0.332 N 
ATOM     12  N   UNL A   1      33.301  23.328  21.523  1.00  0.00    -0.308 N 
ATOM     13  C   UNL A   1      33.038  24.783  21.495  1.00  0.00     0.319 C 
ATOM     14  H   UNL A   1      33.428  22.874  20.658  1.00  0.00     0.171 HD
ATOM     15  O   UNL A   1      32.867  25.336  20.403  1.00  0.00    -0.248 OA
ATOM     16  H   UNL A   1      33.029  26.596  22.485  1.00  0.00     0.165 HD
BRANCH  12  17
ATOM     17  C   UNL A   1      33.384  22.526  22.700  1.00  0.00     0.046 A 
ATOM     18  C   UNL A   1      32.716  19.582  24.848  1.00  0.00     0.119 A 
ATOM     19  C   UNL A   1      31.791  19.825  23.363  1.00  0.00     0.048 A 
ATOM     20  C   UNL A   1      33.945  20.777  25.136  1.00  0.00     0.052 A 
ATOM     21  C   UNL A   1      32.321  21.528  22.404  1.00  0.00     0.030 A 
ATOM     22  C   UNL A   1      34.237  22.188  24.106  1.00  0.00    -0.024 A 
ATOM     23  C   UNL A   1      35.450  23.008  24.452  1.00  0.00     0.047 C 
BRANCH  18  24
ATOM     24  O   UNL A   1      32.529  18.614  25.773  1.00  0.00    -0.497 OA
ATOM     25  C   UNL A   1      32.615  17.305  25.232  1.00  0.00     0.278 C 
ENDBRANCH  18  24
ENDBRANCH  12  17
ENDBRANCH   7  11
ENDBRANCH   3   6
ENDBRANCH   1   2
BRANCH   1  26
ATOM     26  C   UNL A   1      33.225  30.582  26.328  1.00  0.00     0.042 C 
BRANCH  26  27
ATOM     27  C   UNL A   1      34.002  30.563  27.627  1.00  0.00     0.118 C 
BRANCH  27  28
ATOM     28  N   UNL A   1      35.114  31.492  27.643  1.00  0.00    -0.352 N 
ATOM     29  C   UNL A   1      36.379  31.323  28.175  1.00  0.00     0.251 C 
ATOM     30  H   UNL A   1      34.946  32.364  27.216  1.00  0.00     0.163 HD
ATOM     31  O   UNL A   1      37.057  32.304  28.463  1.00  0.00    -0.269 OA
BRANCH  29  32
ATOM     32  C   UNL A   1      37.008  29.976  28.131  1.00  0.00     0.039 A 
ATOM     33  C   UNL A   1      37.061  29.328  29.375  1.00  0.00     0.014 A 
ATOM     34  C   UNL A   1      37.966  29.701  27.170  1.00  0.00     0.014 A 
ATOM     35  C   UNL A   1      38.251  28.752  29.777  1.00  0.00     0.010 A 
ATOM     36  C   UNL A   1      39.199  29.338  27.616  1.00  0.00     0.010 A 
ATOM     37  C   UNL A   1      39.344  28.933  28.942  1.00  0.00    -0.014 A 
BRANCH  37  38
ATOM     38  C   UNL A   1      40.678  28.452  29.192  1.00  0.00     0.031 A 
ATOM     39  C   UNL A   1      40.791  27.019  28.850  1.00  0.00     0.074 A 
ATOM     40  C   UNL A   1      41.603  29.426  29.388  1.00  0.00     0.049 A 
ATOM     41  N   UNL A   1      41.683  26.219  29.287  1.00  0.00    -0.248 NA
ATOM     42  C   UNL A   1      39.796  26.301  28.021  1.00  0.00     0.031 C 
ATOM     43  C   UNL A   1      43.062  29.445  29.314  1.00  0.00     0.029 A 
ATOM     44  N   UNL A   1      41.318  30.704  29.920  1.00  0.00    -0.354 N 
ATOM     45  C   UNL A   1      41.686  25.145  28.415  1.00  0.00     0.074 A 
ATOM     46  C   UNL A   1      40.371  25.107  27.854  1.00  0.00     0.031 C 
ATOM     47  C   UNL A   1      43.526  30.402  30.150  1.00  0.00     0.029 A 
ATOM     48  C   UNL A   1      42.375  30.968  30.832  1.00  0.00     0.049 A 
ATOM     49  H   UNL A   1      40.553  31.285  29.706  1.00  0.00     0.167 HD
ATOM     50  C   UNL A   1      42.897  24.603  28.105  1.00  0.00     0.037 A 
ATOM     51  C   UNL A   1      42.101  30.862  32.169  1.00  0.00     0.037 A 
ATOM     52  C   UNL A   1      43.922  25.312  28.886  1.00  0.00     0.049 A 
ATOM     53  C   UNL A   1      42.691  29.584  32.741  1.00  0.00     0.074 A 
ATOM     54  C   UNL A   1      44.813  26.329  28.594  1.00  0.00     0.029 A 
ATOM     55  N   UNL A   1      43.778  25.326  30.263  1.00  0.00    -0.354 N 
ATOM     56  N   UNL A   1      43.081  28.566  32.014  1.00  0.00    -0.248 NA
ATOM     57  C   UNL A   1      42.870  29.346  34.166  1.00  0.00     0.031 C 
ATOM     58  C   UNL A   1      45.143  26.986  29.832  1.00  0.00     0.029 A 
ATOM     59  C   UNL A   1      44.460  26.364  30.865  1.00  0.00     0.049 A 
ATOM     60  H   UNL A   1      43.246  24.665  30.761  1.00  0.00     0.167 HD
ATOM     61  C   UNL A   1      43.644  27.607  32.807  1.00  0.00     0.074 A 
ATOM     62  C   UNL A   1      43.363  28.094  34.156  1.00  0.00     0.031 C 
ATOM     63  C   UNL A   1      44.326  26.518  32.313  1.00  0.00     0.037 A 
BRANCH  50  64
ATOM     64  C   UNL A   1      43.231  23.636  26.987  1.00  0.00     0.064 A 
ATOM     65  C   UNL A   1      42.844  22.285  27.128  1.00  0.00     0.173 A 
ATOM     66  C   UNL A   1      43.944  23.917  25.801  1.00  0.00     0.173 A 
ATOM     67  F   UNL A   1      42.131  21.877  28.188  1.00  0.00    -0.203 F 
ATOM     68  C   UNL A   1      43.166  21.300  26.188  1.00  0.00     0.198 A 
ATOM     69  C   UNL A   1      44.242  22.934  24.846  1.00  0.00     0.198 A 
ATOM     70  F   UNL A   1      44.402  25.137  25.510  1.00  0.00    -0.203 F 
ATOM     71  F   UNL A   1      42.794  20.031  26.406  1.00  0.00    -0.200 F 
ATOM     72  C   UNL A   1      43.862  21.623  25.045  1.00  0.00     0.200 A 
ATOM     73  F   UNL A   1      44.913  23.268  23.733  1.00  0.00    -0.200 F 
ATOM     74  F   UNL A   1      44.164  20.682  24.140  1.00  0.00    -0.200 F 
ENDBRANCH  50  64
BRANCH  51  75
ATOM     75  C   UNL A   1      40.737  31.433  32.451  1.00  0.00     0.064 A 
ATOM     76  C   UNL A   1      39.747  30.515  32.884  1.00  0.00     0.173 A 
ATOM     77  C   UNL A   1      40.569  32.771  32.821  1.00  0.00     0.173 A 
ATOM     78  F   UNL A   1      39.827  29.222  32.523  1.00  0.00    -0.203 F 
ATOM     79  C   UNL A   1      38.814  30.866  33.854  1.00  0.00     0.198 A 
ATOM     80  C   UNL A   1      39.560  33.137  33.719  1.00  0.00     0.198 A 
ATOM     81  F   UNL A   1      41.458  33.699  32.440  1.00  0.00    -0.203 F 
ATOM     82  F   UNL A   1      38.074  29.919  34.450  1.00  0.00    -0.200 F 
ATOM     83  C   UNL A   1      38.737  32.175  34.290  1.00  0.00     0.200 A 
ATOM     84  F   UNL A   1      39.462  34.413  34.121  1.00  0.00    -0.200 F 
ATOM     85  F   UNL A   1      37.900  32.496  35.283  1.00  0.00    -0.200 F 
ENDBRANCH  51  75
BRANCH  63  86
ATOM     86  C   UNL A   1      44.898  25.430  33.198  1.00  0.00     0.064 A 
ATOM     87  C   UNL A   1      44.094  24.577  33.960  1.00  0.00     0.173 A 
ATOM     88  C   UNL A   1      46.292  25.211  33.338  1.00  0.00     0.173 A 
ATOM     89  F   UNL A   1      42.796  24.844  34.162  1.00  0.00    -0.203 F 
ATOM     90  C   UNL A   1      44.612  23.445  34.588  1.00  0.00     0.198 A 
ATOM     91  C   UNL A   1      46.816  24.131  34.034  1.00  0.00     0.198 A 
ATOM     92  F   UNL A   1      47.220  26.019  32.815  1.00  0.00    -0.203 F 
ATOM     93  F   UNL A   1      43.777  22.578  35.175  1.00  0.00    -0.200 F 
ATOM     94  C   UNL A   1      45.974  23.212  34.609  1.00  0.00     0.200 A 
ATOM     95  F   UNL A   1      48.147  23.987  34.119  1.00  0.00    -0.200 F 
ATOM     96  F   UNL A   1      46.473  22.126  35.209  1.00  0.00    -0.200 F 
ENDBRANCH  63  86
ENDBRANCH  37  38
ENDBRANCH  29  32
ENDBRANCH  27  28
ENDBRANCH  26  27
ENDBRANCH   1  26
TORSDOF 13
ENDMDL
