MODEL 1
REMARK VINA RESULT:     -12.9      0.000      0.000
REMARK SMILES Cc1cc(SCC(=O)NCCCNC(=O)c2ccc(-c3c4nc(c(-c5c(F)c(F)c(F)c(F)c5F)c5ccc([nH]5)c(-c5c(F)c(F)c(F)c(F)c5F)c5nc(c(-c6c(F)c(F)c(F)c(F)c6F)c6ccc3[nH]6)C=C5)C=C4)cc2)c2cc(C(F)(F)F)ccc2n1
REMARK SMILES IDX 10 1 9 2 7 3 8 4 6 6 5 7 4 8 1 9 2 10 3 11 89 12 88 13 79 14
REMARK SMILES IDX 87 15 80 16 86 17 81 18 82 19 83 20 84 21 85 22 11 23 12 24
REMARK SMILES IDX 13 25 14 26 15 28 16 29 17 30 78 31 18 32 77 33 19 34 20 35
REMARK SMILES IDX 21 36 71 37 22 38 76 39 70 40 72 41 23 42 75 43 69 44 68 45
REMARK SMILES IDX 24 47 56 48 36 49 55 50 37 51 40 52 54 53 73 54 38 55 39 56
REMARK SMILES IDX 53 58 74 59 41 60 25 61 26 62 34 63 27 64 28 65 32 66 35 67
REMARK SMILES IDX 29 68 30 69 33 70 31 71 57 72 58 73 66 74 59 75 60 76 64 77
REMARK SMILES IDX 67 78 61 79 62 80 65 81 63 82 42 83 43 84 51 85 44 86 45 87
REMARK SMILES IDX 49 88 52 89 46 90 47 91 50 92 48 93
REMARK H PARENT 9 5 13 27 72 46 40 57
REMARK Flexibility Score: inf
ROOT
ATOM      1  C   UNL A   1      31.926  30.624  26.954  1.00  0.00     0.117 C 
ENDROOT
BRANCH   1   2
ATOM      2  N   UNL A   1      33.271  30.352  27.423  1.00  0.00    -0.355 N 
ATOM      3  C   UNL A   1      34.065  29.265  27.223  1.00  0.00     0.230 C 
ATOM      4  O   UNL A   1      35.173  29.261  27.769  1.00  0.00    -0.274 OA
ATOM      5  H   UNL A   1      33.672  31.065  27.972  1.00  0.00     0.163 HD
BRANCH   3   6
ATOM      6  C   UNL A   1      33.648  28.136  26.300  1.00  0.00     0.174 C 
BRANCH   6   7
ATOM      7  S   UNL A   1      33.112  28.666  24.643  1.00  0.00    -0.115 SA
BRANCH   7   8
ATOM      8  C   UNL A   1      31.709  27.621  24.193  1.00  0.00     0.019 A 
ATOM      9  C   UNL A   1      30.728  23.981  23.864  1.00  0.00     0.067 C 
ATOM     10  C   UNL A   1      30.678  25.480  23.860  1.00  0.00     0.039 A 
ATOM     11  C   UNL A   1      31.802  26.230  24.164  1.00  0.00     0.039 A 
ATOM     12  N   UNL A   1      29.498  26.043  23.529  1.00  0.00    -0.253 NA
ATOM     13  C   UNL A   1      29.402  27.378  23.499  1.00  0.00     0.072 A 
ATOM     14  C   UNL A   1      30.471  28.235  23.830  1.00  0.00     0.014 A 
ATOM     15  C   UNL A   1      28.183  27.923  23.119  1.00  0.00     0.029 A 
ATOM     16  C   UNL A   1      30.239  29.639  23.765  1.00  0.00     0.024 A 
ATOM     17  C   UNL A   1      27.972  29.302  23.050  1.00  0.00     0.015 A 
ATOM     18  C   UNL A   1      29.003  30.180  23.375  1.00  0.00     0.056 A 
BRANCH  18  19
ATOM     19  C   UNL A   1      28.816  31.676  23.316  1.00  0.00     0.416 C 
ATOM     20  F   UNL A   1      29.598  32.331  24.219  1.00  0.00    -0.166 F 
ATOM     21  F   UNL A   1      29.139  32.194  22.098  1.00  0.00    -0.166 F 
ATOM     22  F   UNL A   1      27.539  32.078  23.566  1.00  0.00    -0.166 F 
ENDBRANCH  18  19
ENDBRANCH   7   8
ENDBRANCH   6   7
ENDBRANCH   3   6
ENDBRANCH   1   2
BRANCH   1  23
ATOM     23  C   UNL A   1      31.629  32.122  26.907  1.00  0.00     0.042 C 
BRANCH  23  24
ATOM     24  C   UNL A   1      32.848  33.018  27.126  1.00  0.00     0.118 C 
BRANCH  24  25
ATOM     25  N   UNL A   1      32.505  34.324  27.672  1.00  0.00    -0.352 N 
ATOM     26  C   UNL A   1      33.022  35.006  28.742  1.00  0.00     0.251 C 
ATOM     27  H   UNL A   1      31.784  34.793  27.193  1.00  0.00     0.163 HD
ATOM     28  O   UNL A   1      32.468  36.038  29.125  1.00  0.00    -0.269 OA
BRANCH  26  29
ATOM     29  C   UNL A   1      34.217  34.514  29.463  1.00  0.00     0.039 A 
ATOM     30  C   UNL A   1      34.041  33.903  30.709  1.00  0.00     0.014 A 
ATOM     31  C   UNL A   1      35.505  34.675  28.944  1.00  0.00     0.014 A 
ATOM     32  C   UNL A   1      35.142  33.386  31.396  1.00  0.00     0.010 A 
ATOM     33  C   UNL A   1      36.596  34.105  29.600  1.00  0.00     0.010 A 
ATOM     34  C   UNL A   1      36.424  33.445  30.826  1.00  0.00    -0.014 A 
BRANCH  34  35
ATOM     35  C   UNL A   1      37.582  32.778  31.477  1.00  0.00     0.031 A 
ATOM     36  C   UNL A   1      38.258  31.603  30.828  1.00  0.00     0.074 A 
ATOM     37  C   UNL A   1      37.979  33.192  32.697  1.00  0.00     0.049 A 
ATOM     38  N   UNL A   1      39.230  30.853  31.285  1.00  0.00    -0.248 NA
ATOM     39  C   UNL A   1      37.764  31.205  29.501  1.00  0.00     0.031 C 
ATOM     40  C   UNL A   1      37.374  34.290  33.454  1.00  0.00     0.029 A 
ATOM     41  N   UNL A   1      38.973  32.729  33.523  1.00  0.00    -0.354 N 
ATOM     42  C   UNL A   1      39.454  29.889  30.311  1.00  0.00     0.074 A 
ATOM     43  C   UNL A   1      38.492  30.124  29.255  1.00  0.00     0.031 C 
ATOM     44  C   UNL A   1      38.015  34.422  34.625  1.00  0.00     0.029 A 
ATOM     45  C   UNL A   1      39.049  33.398  34.720  1.00  0.00     0.049 A 
ATOM     46  H   UNL A   1      39.574  31.988  33.281  1.00  0.00     0.167 HD
ATOM     47  C   UNL A   1      40.388  28.907  30.294  1.00  0.00     0.037 A 
ATOM     48  C   UNL A   1      39.853  33.199  35.783  1.00  0.00     0.037 A 
ATOM     49  C   UNL A   1      41.362  28.690  31.333  1.00  0.00     0.049 A 
ATOM     50  C   UNL A   1      40.876  32.099  35.737  1.00  0.00     0.074 A 
ATOM     51  C   UNL A   1      42.394  27.768  31.369  1.00  0.00     0.029 A 
ATOM     52  N   UNL A   1      41.418  29.399  32.524  1.00  0.00    -0.354 N 
ATOM     53  N   UNL A   1      41.128  31.242  34.779  1.00  0.00    -0.248 NA
ATOM     54  C   UNL A   1      41.733  31.942  36.922  1.00  0.00     0.031 C 
ATOM     55  C   UNL A   1      43.047  27.889  32.600  1.00  0.00     0.029 A 
ATOM     56  C   UNL A   1      42.452  28.916  33.312  1.00  0.00     0.049 A 
ATOM     57  H   UNL A   1      40.815  30.136  32.773  1.00  0.00     0.167 HD
ATOM     58  C   UNL A   1      42.180  30.460  35.233  1.00  0.00     0.074 A 
ATOM     59  C   UNL A   1      42.535  30.956  36.545  1.00  0.00     0.031 C 
ATOM     60  C   UNL A   1      42.795  29.420  34.617  1.00  0.00     0.037 A 
BRANCH  47  61
ATOM     61  C   UNL A   1      40.414  27.988  29.108  1.00  0.00     0.064 A 
ATOM     62  C   UNL A   1      39.651  26.811  29.074  1.00  0.00     0.173 A 
ATOM     63  C   UNL A   1      41.159  28.321  27.966  1.00  0.00     0.173 A 
ATOM     64  F   UNL A   1      38.927  26.446  30.142  1.00  0.00    -0.203 F 
ATOM     65  C   UNL A   1      39.649  25.991  27.948  1.00  0.00     0.198 A 
ATOM     66  C   UNL A   1      41.134  27.513  26.833  1.00  0.00     0.198 A 
ATOM     67  F   UNL A   1      41.899  29.440  27.944  1.00  0.00    -0.203 F 
ATOM     68  F   UNL A   1      38.941  24.853  27.952  1.00  0.00    -0.200 F 
ATOM     69  C   UNL A   1      40.383  26.347  26.827  1.00  0.00     0.200 A 
ATOM     70  F   UNL A   1      41.833  27.862  25.744  1.00  0.00    -0.200 F 
ATOM     71  F   UNL A   1      40.369  25.562  25.739  1.00  0.00    -0.200 F 
ENDBRANCH  47  61
BRANCH  48  72
ATOM     72  C   UNL A   1      39.726  34.068  36.982  1.00  0.00     0.064 A 
ATOM     73  C   UNL A   1      38.939  33.676  38.073  1.00  0.00     0.173 A 
ATOM     74  C   UNL A   1      40.378  35.308  37.058  1.00  0.00     0.173 A 
ATOM     75  F   UNL A   1      38.278  32.510  38.038  1.00  0.00    -0.203 F 
ATOM     76  C   UNL A   1      38.790  34.502  39.185  1.00  0.00     0.198 A 
ATOM     77  C   UNL A   1      40.250  36.119  38.182  1.00  0.00     0.198 A 
ATOM     78  F   UNL A   1      41.144  35.726  36.040  1.00  0.00    -0.203 F 
ATOM     79  F   UNL A   1      37.992  34.126  40.194  1.00  0.00    -0.200 F 
ATOM     80  C   UNL A   1      39.450  35.720  39.241  1.00  0.00     0.200 A 
ATOM     81  F   UNL A   1      40.899  37.290  38.237  1.00  0.00    -0.200 F 
ATOM     82  F   UNL A   1      39.307  36.513  40.312  1.00  0.00    -0.200 F 
ENDBRANCH  48  72
BRANCH  60  83
ATOM     83  C   UNL A   1      43.931  28.764  35.347  1.00  0.00     0.064 A 
ATOM     84  C   UNL A   1      43.722  27.663  36.191  1.00  0.00     0.173 A 
ATOM     85  C   UNL A   1      45.245  29.222  35.175  1.00  0.00     0.173 A 
ATOM     86  F   UNL A   1      42.480  27.200  36.400  1.00  0.00    -0.203 F 
ATOM     87  C   UNL A   1      44.787  27.059  36.854  1.00  0.00     0.198 A 
ATOM     88  C   UNL A   1      46.311  28.597  35.817  1.00  0.00     0.198 A 
ATOM     89  F   UNL A   1      45.499  30.268  34.376  1.00  0.00    -0.203 F 
ATOM     90  F   UNL A   1      44.558  26.037  37.691  1.00  0.00    -0.200 F 
ATOM     91  C   UNL A   1      46.080  27.521  36.661  1.00  0.00     0.200 A 
ATOM     92  F   UNL A   1      47.561  29.037  35.621  1.00  0.00    -0.200 F 
ATOM     93  F   UNL A   1      47.104  26.933  37.296  1.00  0.00    -0.200 F 
ENDBRANCH  60  83
ENDBRANCH  34  35
ENDBRANCH  26  29
ENDBRANCH  24  25
ENDBRANCH  23  24
ENDBRANCH   1  23
TORSDOF 13
ENDMDL
MODEL 2
REMARK VINA RESULT:     -12.6      2.388      3.517
REMARK SMILES Cc1cc(SCC(=O)NCCCNC(=O)c2ccc(-c3c4nc(c(-c5c(F)c(F)c(F)c(F)c5F)c5ccc([nH]5)c(-c5c(F)c(F)c(F)c(F)c5F)c5nc(c(-c6c(F)c(F)c(F)c(F)c6F)c6ccc3[nH]6)C=C5)C=C4)cc2)c2cc(C(F)(F)F)ccc2n1
REMARK SMILES IDX 10 1 9 2 7 3 8 4 6 6 5 7 4 8 1 9 2 10 3 11 89 12 88 13 79 14
REMARK SMILES IDX 87 15 80 16 86 17 81 18 82 19 83 20 84 21 85 22 11 23 12 24
REMARK SMILES IDX 13 25 14 26 15 28 16 29 17 30 78 31 18 32 77 33 19 34 20 35
REMARK SMILES IDX 21 36 71 37 22 38 76 39 70 40 72 41 23 42 75 43 69 44 68 45
REMARK SMILES IDX 24 47 56 48 36 49 55 50 37 51 40 52 54 53 73 54 38 55 39 56
REMARK SMILES IDX 53 58 74 59 41 60 25 61 26 62 34 63 27 64 28 65 32 66 35 67
REMARK SMILES IDX 29 68 30 69 33 70 31 71 57 72 58 73 66 74 59 75 60 76 64 77
REMARK SMILES IDX 67 78 61 79 62 80 65 81 63 82 42 83 43 84 51 85 44 86 45 87
REMARK SMILES IDX 49 88 52 89 46 90 47 91 50 92 48 93
REMARK H PARENT 9 5 13 27 72 46 40 57
REMARK Flexibility Score: inf
ROOT
ATOM      1  C   UNL A   1      31.591  30.533  26.414  1.00  0.00     0.117 C 
ENDROOT
BRANCH   1   2
ATOM      2  N   UNL A   1      31.892  30.126  25.055  1.00  0.00    -0.355 N 
ATOM      3  C   UNL A   1      32.914  29.365  24.575  1.00  0.00     0.230 C 
ATOM      4  O   UNL A   1      32.969  29.191  23.354  1.00  0.00    -0.274 OA
ATOM      5  H   UNL A   1      31.260  30.451  24.373  1.00  0.00     0.163 HD
BRANCH   3   6
ATOM      6  C   UNL A   1      33.900  28.684  25.504  1.00  0.00     0.174 C 
BRANCH   6   7
ATOM      7  S   UNL A   1      33.251  27.217  26.364  1.00  0.00    -0.115 SA
BRANCH   7   8
ATOM      8  C   UNL A   1      32.182  26.358  25.189  1.00  0.00     0.019 A 
ATOM      9  C   UNL A   1      28.656  26.421  23.817  1.00  0.00     0.067 C 
ATOM     10  C   UNL A   1      30.086  26.044  24.063  1.00  0.00     0.039 A 
ATOM     11  C   UNL A   1      30.843  26.706  25.016  1.00  0.00     0.039 A 
ATOM     12  N   UNL A   1      30.575  25.025  23.327  1.00  0.00    -0.253 NA
ATOM     13  C   UNL A   1      31.844  24.640  23.516  1.00  0.00     0.072 A 
ATOM     14  C   UNL A   1      32.713  25.271  24.429  1.00  0.00     0.014 A 
ATOM     15  C   UNL A   1      32.304  23.565  22.768  1.00  0.00     0.029 A 
ATOM     16  C   UNL A   1      34.043  24.770  24.531  1.00  0.00     0.024 A 
ATOM     17  C   UNL A   1      33.608  23.078  22.885  1.00  0.00     0.015 A 
ATOM     18  C   UNL A   1      34.497  23.679  23.772  1.00  0.00     0.056 A 
BRANCH  18  19
ATOM     19  C   UNL A   1      35.914  23.186  23.928  1.00  0.00     0.416 C 
ATOM     20  F   UNL A   1      36.689  24.053  24.638  1.00  0.00    -0.166 F 
ATOM     21  F   UNL A   1      35.983  21.997  24.589  1.00  0.00    -0.166 F 
ATOM     22  F   UNL A   1      36.559  22.992  22.744  1.00  0.00    -0.166 F 
ENDBRANCH  18  19
ENDBRANCH   7   8
ENDBRANCH   6   7
ENDBRANCH   3   6
ENDBRANCH   1   2
BRANCH   1  23
ATOM     23  C   UNL A   1      31.478  32.051  26.544  1.00  0.00     0.042 C 
BRANCH  23  24
ATOM     24  C   UNL A   1      32.689  32.723  27.192  1.00  0.00     0.118 C 
BRANCH  24  25
ATOM     25  N   UNL A   1      32.427  34.097  27.600  1.00  0.00    -0.352 N 
ATOM     26  C   UNL A   1      33.007  34.861  28.579  1.00  0.00     0.251 C 
ATOM     27  H   UNL A   1      31.718  34.550  27.089  1.00  0.00     0.163 HD
ATOM     28  O   UNL A   1      32.516  35.956  28.860  1.00  0.00    -0.269 OA
BRANCH  26  29
ATOM     29  C   UNL A   1      34.194  34.386  29.324  1.00  0.00     0.039 A 
ATOM     30  C   UNL A   1      34.000  33.739  30.548  1.00  0.00     0.014 A 
ATOM     31  C   UNL A   1      35.491  34.599  28.849  1.00  0.00     0.014 A 
ATOM     32  C   UNL A   1      35.096  33.237  31.255  1.00  0.00     0.010 A 
ATOM     33  C   UNL A   1      36.580  34.044  29.523  1.00  0.00     0.010 A 
ATOM     34  C   UNL A   1      36.392  33.347  30.726  1.00  0.00    -0.014 A 
BRANCH  34  35
ATOM     35  C   UNL A   1      37.549  32.699  31.395  1.00  0.00     0.031 A 
ATOM     36  C   UNL A   1      38.253  31.534  30.757  1.00  0.00     0.074 A 
ATOM     37  C   UNL A   1      37.920  33.119  32.621  1.00  0.00     0.049 A 
ATOM     38  N   UNL A   1      39.230  30.799  31.229  1.00  0.00    -0.248 NA
ATOM     39  C   UNL A   1      37.787  31.129  29.423  1.00  0.00     0.031 C 
ATOM     40  C   UNL A   1      37.287  34.207  33.369  1.00  0.00     0.029 A 
ATOM     41  N   UNL A   1      38.908  32.671  33.463  1.00  0.00    -0.354 N 
ATOM     42  C   UNL A   1      39.484  29.839  30.259  1.00  0.00     0.074 A 
ATOM     43  C   UNL A   1      38.535  30.060  29.188  1.00  0.00     0.031 C 
ATOM     44  C   UNL A   1      37.907  34.349  34.549  1.00  0.00     0.029 A 
ATOM     45  C   UNL A   1      38.955  33.341  34.661  1.00  0.00     0.049 A 
ATOM     46  H   UNL A   1      39.525  31.939  33.230  1.00  0.00     0.167 HD
ATOM     47  C   UNL A   1      40.433  28.872  30.256  1.00  0.00     0.037 A 
ATOM     48  C   UNL A   1      39.746  33.155  35.736  1.00  0.00     0.037 A 
ATOM     49  C   UNL A   1      41.393  28.670  31.311  1.00  0.00     0.049 A 
ATOM     50  C   UNL A   1      40.786  32.070  35.707  1.00  0.00     0.074 A 
ATOM     51  C   UNL A   1      42.439  27.764  31.363  1.00  0.00     0.029 A 
ATOM     52  N   UNL A   1      41.420  29.379  32.502  1.00  0.00    -0.354 N 
ATOM     53  N   UNL A   1      41.066  31.217  34.752  1.00  0.00    -0.248 NA
ATOM     54  C   UNL A   1      41.627  31.926  36.904  1.00  0.00     0.031 C 
ATOM     55  C   UNL A   1      43.071  27.895  32.604  1.00  0.00     0.029 A 
ATOM     56  C   UNL A   1      42.449  28.912  33.306  1.00  0.00     0.049 A 
ATOM     57  H   UNL A   1      40.802  30.107  32.742  1.00  0.00     0.167 HD
ATOM     58  C   UNL A   1      42.123  30.451  35.222  1.00  0.00     0.074 A 
ATOM     59  C   UNL A   1      42.450  30.953  36.541  1.00  0.00     0.031 C 
ATOM     60  C   UNL A   1      42.764  29.422  34.616  1.00  0.00     0.037 A 
BRANCH  47  61
ATOM     61  C   UNL A   1      40.491  27.954  29.071  1.00  0.00     0.064 A 
ATOM     62  C   UNL A   1      39.711  26.790  29.004  1.00  0.00     0.173 A 
ATOM     63  C   UNL A   1      41.287  28.275  27.961  1.00  0.00     0.173 A 
ATOM     64  F   UNL A   1      38.939  26.436  30.042  1.00  0.00    -0.203 F 
ATOM     65  C   UNL A   1      39.741  25.971  27.878  1.00  0.00     0.198 A 
ATOM     66  C   UNL A   1      41.295  27.468  26.826  1.00  0.00     0.198 A 
ATOM     67  F   UNL A   1      42.046  29.382  27.970  1.00  0.00    -0.203 F 
ATOM     68  F   UNL A   1      39.015  24.845  27.852  1.00  0.00    -0.200 F 
ATOM     69  C   UNL A   1      40.526  26.315  26.788  1.00  0.00     0.200 A 
ATOM     70  F   UNL A   1      42.043  27.808  25.767  1.00  0.00    -0.200 F 
ATOM     71  F   UNL A   1      40.543  25.532  25.700  1.00  0.00    -0.200 F 
ENDBRANCH  47  61
BRANCH  48  72
ATOM     72  C   UNL A   1      39.586  34.021  36.933  1.00  0.00     0.064 A 
ATOM     73  C   UNL A   1      40.219  35.270  37.006  1.00  0.00     0.173 A 
ATOM     74  C   UNL A   1      38.809  33.617  38.028  1.00  0.00     0.173 A 
ATOM     75  F   UNL A   1      40.990  35.690  35.993  1.00  0.00    -0.203 F 
ATOM     76  C   UNL A   1      40.099  36.071  38.139  1.00  0.00     0.198 A 
ATOM     77  C   UNL A   1      38.668  34.431  39.149  1.00  0.00     0.198 A 
ATOM     78  F   UNL A   1      38.182  32.432  38.005  1.00  0.00    -0.203 F 
ATOM     79  F   UNL A   1      40.754  37.238  38.204  1.00  0.00    -0.200 F 
ATOM     80  C   UNL A   1      39.320  35.654  39.207  1.00  0.00     0.200 A 
ATOM     81  F   UNL A   1      37.904  34.030  40.174  1.00  0.00    -0.200 F 
ATOM     82  F   UNL A   1      39.205  36.426  40.297  1.00  0.00    -0.200 F 
ENDBRANCH  48  72
BRANCH  60  83
ATOM     83  C   UNL A   1      43.898  28.783  35.364  1.00  0.00     0.064 A 
ATOM     84  C   UNL A   1      45.221  29.221  35.206  1.00  0.00     0.173 A 
ATOM     85  C   UNL A   1      43.653  27.743  36.274  1.00  0.00     0.173 A 
ATOM     86  F   UNL A   1      45.507  30.201  34.335  1.00  0.00    -0.203 F 
ATOM     87  C   UNL A   1      46.261  28.625  35.914  1.00  0.00     0.198 A 
ATOM     88  C   UNL A   1      44.693  27.169  37.001  1.00  0.00     0.198 A 
ATOM     89  F   UNL A   1      42.406  27.291  36.465  1.00  0.00    -0.203 F 
ATOM     90  F   UNL A   1      47.523  29.030  35.712  1.00  0.00    -0.200 F 
ATOM     91  C   UNL A   1      45.995  27.606  36.815  1.00  0.00     0.200 A 
ATOM     92  F   UNL A   1      44.433  26.192  37.881  1.00  0.00    -0.200 F 
ATOM     93  F   UNL A   1      46.998  27.038  37.500  1.00  0.00    -0.200 F 
ENDBRANCH  60  83
ENDBRANCH  34  35
ENDBRANCH  26  29
ENDBRANCH  24  25
ENDBRANCH  23  24
ENDBRANCH   1  23
TORSDOF 13
ENDMDL
MODEL 3
REMARK VINA RESULT:     -12.6      4.742      9.935
REMARK SMILES Cc1cc(SCC(=O)NCCCNC(=O)c2ccc(-c3c4nc(c(-c5c(F)c(F)c(F)c(F)c5F)c5ccc([nH]5)c(-c5c(F)c(F)c(F)c(F)c5F)c5nc(c(-c6c(F)c(F)c(F)c(F)c6F)c6ccc3[nH]6)C=C5)C=C4)cc2)c2cc(C(F)(F)F)ccc2n1
REMARK SMILES IDX 10 1 9 2 7 3 8 4 6 6 5 7 4 8 1 9 2 10 3 11 89 12 88 13 79 14
REMARK SMILES IDX 87 15 80 16 86 17 81 18 82 19 83 20 84 21 85 22 11 23 12 24
REMARK SMILES IDX 13 25 14 26 15 28 16 29 17 30 78 31 18 32 77 33 19 34 20 35
REMARK SMILES IDX 21 36 71 37 22 38 76 39 70 40 72 41 23 42 75 43 69 44 68 45
REMARK SMILES IDX 24 47 56 48 36 49 55 50 37 51 40 52 54 53 73 54 38 55 39 56
REMARK SMILES IDX 53 58 74 59 41 60 25 61 26 62 34 63 27 64 28 65 32 66 35 67
REMARK SMILES IDX 29 68 30 69 33 70 31 71 57 72 58 73 66 74 59 75 60 76 64 77
REMARK SMILES IDX 67 78 61 79 62 80 65 81 63 82 42 83 43 84 51 85 44 86 45 87
REMARK SMILES IDX 49 88 52 89 46 90 47 91 50 92 48 93
REMARK H PARENT 9 5 13 27 72 46 40 57
REMARK Flexibility Score: inf
ROOT
ATOM      1  C   UNL A   1      31.583  27.162  26.399  1.00  0.00     0.117 C 
ENDROOT
BRANCH   1   2
ATOM      2  N   UNL A   1      31.049  25.897  26.867  1.00  0.00    -0.355 N 
ATOM      3  C   UNL A   1      31.264  24.633  26.410  1.00  0.00     0.230 C 
ATOM      4  O   UNL A   1      30.653  23.716  26.965  1.00  0.00    -0.274 OA
ATOM      5  H   UNL A   1      30.436  25.964  27.634  1.00  0.00     0.163 HD
BRANCH   3   6
ATOM      6  C   UNL A   1      32.277  24.345  25.318  1.00  0.00     0.174 C 
BRANCH   6   7
ATOM      7  S   UNL A   1      32.423  22.590  24.858  1.00  0.00    -0.115 SA
BRANCH   7   8
ATOM      8  C   UNL A   1      34.163  22.147  25.051  1.00  0.00     0.019 A 
ATOM      9  C   UNL A   1      37.525  23.683  25.866  1.00  0.00     0.067 C 
ATOM     10  C   UNL A   1      36.453  22.693  25.518  1.00  0.00     0.039 A 
ATOM     11  C   UNL A   1      35.142  23.100  25.331  1.00  0.00     0.039 A 
ATOM     12  N   UNL A   1      36.841  21.409  25.380  1.00  0.00    -0.253 NA
ATOM     13  C   UNL A   1      35.925  20.487  25.059  1.00  0.00     0.072 A 
ATOM     14  C   UNL A   1      34.558  20.785  24.887  1.00  0.00     0.014 A 
ATOM     15  C   UNL A   1      36.365  19.180  24.890  1.00  0.00     0.029 A 
ATOM     16  C   UNL A   1      33.683  19.711  24.552  1.00  0.00     0.024 A 
ATOM     17  C   UNL A   1      35.498  18.139  24.552  1.00  0.00     0.015 A 
ATOM     18  C   UNL A   1      34.140  18.394  24.379  1.00  0.00     0.056 A 
BRANCH  18  19
ATOM     19  C   UNL A   1      33.169  17.298  24.016  1.00  0.00     0.416 C 
ATOM     20  F   UNL A   1      33.720  16.058  24.134  1.00  0.00    -0.166 F 
ATOM     21  F   UNL A   1      32.065  17.294  24.813  1.00  0.00    -0.166 F 
ATOM     22  F   UNL A   1      32.705  17.380  22.737  1.00  0.00    -0.166 F 
ENDBRANCH  18  19
ENDBRANCH   7   8
ENDBRANCH   6   7
ENDBRANCH   3   6
ENDBRANCH   1   2
BRANCH   1  23
ATOM     23  C   UNL A   1      32.144  28.004  27.543  1.00  0.00     0.042 C 
BRANCH  23  24
ATOM     24  C   UNL A   1      33.527  28.599  27.275  1.00  0.00     0.118 C 
BRANCH  24  25
ATOM     25  N   UNL A   1      33.585  30.035  27.509  1.00  0.00    -0.352 N 
ATOM     26  C   UNL A   1      34.570  30.808  28.067  1.00  0.00     0.251 C 
ATOM     27  H   UNL A   1      32.786  30.532  27.220  1.00  0.00     0.163 HD
ATOM     28  O   UNL A   1      34.341  31.993  28.315  1.00  0.00    -0.269 OA
BRANCH  26  29
ATOM     29  C   UNL A   1      35.895  30.240  28.402  1.00  0.00     0.039 A 
ATOM     30  C   UNL A   1      36.889  30.239  27.419  1.00  0.00     0.014 A 
ATOM     31  C   UNL A   1      36.158  29.682  29.657  1.00  0.00     0.014 A 
ATOM     32  C   UNL A   1      38.165  29.752  27.716  1.00  0.00     0.010 A 
ATOM     33  C   UNL A   1      37.448  29.253  29.972  1.00  0.00     0.010 A 
ATOM     34  C   UNL A   1      38.467  29.295  29.009  1.00  0.00    -0.014 A 
BRANCH  34  35
ATOM     35  C   UNL A   1      39.852  28.906  29.378  1.00  0.00     0.031 A 
ATOM     36  C   UNL A   1      40.720  29.826  30.191  1.00  0.00     0.074 A 
ATOM     37  C   UNL A   1      40.354  27.743  28.916  1.00  0.00     0.049 A 
ATOM     38  N   UNL A   1      41.974  29.685  30.541  1.00  0.00    -0.248 NA
ATOM     39  C   UNL A   1      40.104  31.079  30.653  1.00  0.00     0.031 C 
ATOM     40  C   UNL A   1      39.631  26.785  28.078  1.00  0.00     0.029 A 
ATOM     41  N   UNL A   1      41.596  27.177  29.069  1.00  0.00    -0.354 N 
ATOM     42  C   UNL A   1      42.301  30.833  31.250  1.00  0.00     0.074 A 
ATOM     43  C   UNL A   1      41.126  31.678  31.249  1.00  0.00     0.031 C 
ATOM     44  C   UNL A   1      40.435  25.748  27.802  1.00  0.00     0.029 A 
ATOM     45  C   UNL A   1      41.741  25.982  28.408  1.00  0.00     0.049 A 
ATOM     46  H   UNL A   1      42.314  27.589  29.603  1.00  0.00     0.167 HD
ATOM     47  C   UNL A   1      43.470  31.144  31.860  1.00  0.00     0.037 A 
ATOM     48  C   UNL A   1      42.811  25.172  28.291  1.00  0.00     0.037 A 
ATOM     49  C   UNL A   1      44.630  30.290  31.883  1.00  0.00     0.049 A 
ATOM     50  C   UNL A   1      44.097  25.547  28.974  1.00  0.00     0.074 A 
ATOM     51  C   UNL A   1      45.834  30.488  32.537  1.00  0.00     0.029 A 
ATOM     52  N   UNL A   1      44.734  29.079  31.215  1.00  0.00    -0.354 N 
ATOM     53  N   UNL A   1      44.370  26.599  29.704  1.00  0.00    -0.248 NA
ATOM     54  C   UNL A   1      45.224  24.615  28.820  1.00  0.00     0.031 C 
ATOM     55  C   UNL A   1      46.682  29.420  32.229  1.00  0.00     0.029 A 
ATOM     56  C   UNL A   1      45.991  28.533  31.421  1.00  0.00     0.049 A 
ATOM     57  H   UNL A   1      44.020  28.668  30.675  1.00  0.00     0.167 HD
ATOM     58  C   UNL A   1      45.687  26.449  30.113  1.00  0.00     0.074 A 
ATOM     59  C   UNL A   1      46.155  25.193  29.566  1.00  0.00     0.031 C 
ATOM     60  C   UNL A   1      46.443  27.280  30.872  1.00  0.00     0.037 A 
BRANCH  47  61
ATOM     61  C   UNL A   1      43.560  32.466  32.565  1.00  0.00     0.064 A 
ATOM     62  C   UNL A   1      43.977  33.628  31.898  1.00  0.00     0.173 A 
ATOM     63  C   UNL A   1      43.162  32.586  33.905  1.00  0.00     0.173 A 
ATOM     64  F   UNL A   1      44.374  33.564  30.618  1.00  0.00    -0.203 F 
ATOM     65  C   UNL A   1      44.012  34.856  32.553  1.00  0.00     0.198 A 
ATOM     66  C   UNL A   1      43.173  33.820  34.549  1.00  0.00     0.198 A 
ATOM     67  F   UNL A   1      42.747  31.507  34.587  1.00  0.00    -0.203 F 
ATOM     68  F   UNL A   1      44.448  35.946  31.905  1.00  0.00    -0.200 F 
ATOM     69  C   UNL A   1      43.602  34.953  33.874  1.00  0.00     0.200 A 
ATOM     70  F   UNL A   1      42.765  33.916  35.822  1.00  0.00    -0.200 F 
ATOM     71  F   UNL A   1      43.624  36.139  34.498  1.00  0.00    -0.200 F 
ENDBRANCH  47  61
BRANCH  48  72
ATOM     72  C   UNL A   1      42.710  23.920  27.496  1.00  0.00     0.064 A 
ATOM     73  C   UNL A   1      42.252  22.732  28.082  1.00  0.00     0.173 A 
ATOM     74  C   UNL A   1      43.077  23.883  26.143  1.00  0.00     0.173 A 
ATOM     75  F   UNL A   1      41.911  22.713  29.379  1.00  0.00    -0.203 F 
ATOM     76  C   UNL A   1      42.187  21.549  27.350  1.00  0.00     0.198 A 
ATOM     77  C   UNL A   1      42.985  22.706  25.405  1.00  0.00     0.198 A 
ATOM     78  F   UNL A   1      43.519  24.995  25.536  1.00  0.00    -0.203 F 
ATOM     79  F   UNL A   1      41.793  20.416  27.947  1.00  0.00    -0.200 F 
ATOM     80  C   UNL A   1      42.548  21.538  26.012  1.00  0.00     0.200 A 
ATOM     81  F   UNL A   1      43.323  22.701  24.109  1.00  0.00    -0.200 F 
ATOM     82  F   UNL A   1      42.485  20.398  25.308  1.00  0.00    -0.200 F 
ENDBRANCH  48  72
BRANCH  60  83
ATOM     83  C   UNL A   1      47.848  26.847  31.174  1.00  0.00     0.064 A 
ATOM     84  C   UNL A   1      48.933  27.278  30.397  1.00  0.00     0.173 A 
ATOM     85  C   UNL A   1      48.115  26.016  32.273  1.00  0.00     0.173 A 
ATOM     86  F   UNL A   1      48.726  28.060  29.326  1.00  0.00    -0.203 F 
ATOM     87  C   UNL A   1      50.232  26.875  30.696  1.00  0.00     0.198 A 
ATOM     88  C   UNL A   1      49.418  25.639  32.585  1.00  0.00     0.198 A 
ATOM     89  F   UNL A   1      47.114  25.579  33.050  1.00  0.00    -0.203 F 
ATOM     90  F   UNL A   1      51.247  27.263  29.912  1.00  0.00    -0.200 F 
ATOM     91  C   UNL A   1      50.474  26.062  31.793  1.00  0.00     0.200 A 
ATOM     92  F   UNL A   1      49.652  24.863  33.652  1.00  0.00    -0.200 F 
ATOM     93  F   UNL A   1      51.726  25.681  32.082  1.00  0.00    -0.200 F 
ENDBRANCH  60  83
ENDBRANCH  34  35
ENDBRANCH  26  29
ENDBRANCH  24  25
ENDBRANCH  23  24
ENDBRANCH   1  23
TORSDOF 13
ENDMDL
