MODEL 1
REMARK VINA RESULT:     -13.1      0.000      0.000
REMARK SMILES Cc1cc(C)c(NS(=O)(=O)c2cccc3cc(C)cnc23)c(C(=O)NCCCNC(=O)c2ccc(-c3c4nc(c(-c5c(F)c(F)c(F)c(F)c5F)c5ccc([nH]5)c(-c5c(F)c(F)c(F)c(F)c5F)c5nc(c(-c6c(F)c(F)c(F)c(F)c6F)c6ccc3[nH]6)C=C5)C=C4)cc2)c1
REMARK SMILES IDX 26 1 25 2 23 3 24 4 22 6 1 7 2 8 3 9 95 10 4 11 5 12 6 13
REMARK SMILES IDX 7 14 8 16 9 17 10 18 11 19 12 20 21 21 13 22 15 23 20 24
REMARK SMILES IDX 14 25 16 26 19 27 17 28 18 29 27 30 28 31 29 32 30 33 31 35
REMARK SMILES IDX 32 36 33 37 94 38 34 39 93 40 35 41 36 42 37 43 87 44 38 45
REMARK SMILES IDX 92 46 86 47 88 48 39 49 91 50 85 51 84 52 40 54 72 55 52 56
REMARK SMILES IDX 71 57 53 58 56 59 70 60 89 61 54 62 55 63 69 65 90 66 57 67
REMARK SMILES IDX 41 68 42 69 50 70 43 71 44 72 48 73 51 74 45 75 46 76 49 77
REMARK SMILES IDX 47 78 73 79 74 80 82 81 75 82 76 83 80 84 83 85 77 86 78 87
REMARK SMILES IDX 81 88 79 89 58 90 59 91 67 92 60 93 61 94 65 95 68 96 62 97
REMARK SMILES IDX 63 98 66 99 64 100
REMARK H PARENT 25 5 7 15 29 34 88 53 56 64
REMARK Flexibility Score: inf
ROOT
ATOM      1  C   UNL A   1      31.852  28.169  27.149  1.00  0.00     0.118 C 
ENDROOT
BRANCH   1   2
ATOM      2  N   UNL A   1      31.042  26.959  27.184  1.00  0.00    -0.352 N 
ATOM      3  C   UNL A   1      30.418  26.235  26.190  1.00  0.00     0.253 C 
ATOM      4  O   UNL A   1      29.714  25.282  26.524  1.00  0.00    -0.269 OA
ATOM      5  H   UNL A   1      30.916  26.588  28.088  1.00  0.00     0.163 HD
BRANCH   3   6
ATOM      6  C   UNL A   1      30.672  26.506  24.743  1.00  0.00     0.064 A 
ATOM      7  C   UNL A   1      29.544  29.106  22.246  1.00  0.00     0.044 C 
ATOM      8  C   UNL A   1      30.350  28.017  22.884  1.00  0.00    -0.050 A 
ATOM      9  C   UNL A   1      31.591  27.608  22.387  1.00  0.00     0.009 A 
ATOM     10  C   UNL A   1      29.899  27.453  24.071  1.00  0.00     0.019 A 
ATOM     11  C   UNL A   1      32.322  26.554  22.986  1.00  0.00    -0.026 A 
ATOM     12  C   UNL A   1      33.681  26.247  22.428  1.00  0.00     0.046 C 
ATOM     13  C   UNL A   1      31.763  25.882  24.085  1.00  0.00     0.065 A 
BRANCH  13  14
ATOM     14  N   UNL A   1      32.246  24.651  24.648  1.00  0.00    -0.278 N 
ATOM     15  H   UNL A   1      32.910  24.747  25.370  1.00  0.00     0.180 HD
BRANCH  14  16
ATOM     16  S   UNL A   1      31.838  23.075  24.251  1.00  0.00     0.264 S 
ATOM     17  O   UNL A   1      30.971  22.642  25.336  1.00  0.00    -0.201 OA
ATOM     18  O   UNL A   1      31.301  23.119  22.906  1.00  0.00    -0.201 OA
BRANCH  16  19
ATOM     19  C   UNL A   1      33.161  21.893  24.214  1.00  0.00     0.114 A 
ATOM     20  C   UNL A   1      32.732  20.544  24.193  1.00  0.00     0.024 A 
ATOM     21  C   UNL A   1      34.494  22.226  24.428  1.00  0.00     0.091 A 
ATOM     22  C   UNL A   1      33.601  19.516  24.521  1.00  0.00     0.002 A 
ATOM     23  C   UNL A   1      35.327  21.174  24.887  1.00  0.00     0.002 A 
ATOM     24  N   UNL A   1      34.995  23.472  24.281  1.00  0.00    -0.255 NA
ATOM     25  C   UNL A   1      34.887  19.839  24.917  1.00  0.00     0.010 A 
ATOM     26  C   UNL A   1      36.591  21.488  25.394  1.00  0.00     0.015 A 
ATOM     27  C   UNL A   1      36.243  23.730  24.739  1.00  0.00     0.115 A 
ATOM     28  C   UNL A   1      37.040  22.803  25.385  1.00  0.00    -0.032 A 
ATOM     29  C   UNL A   1      38.295  23.189  26.099  1.00  0.00     0.046 C 
ENDBRANCH  16  19
ENDBRANCH  14  16
ENDBRANCH  13  14
ENDBRANCH   3   6
ENDBRANCH   1   2
BRANCH   1  30
ATOM     30  C   UNL A   1      33.312  27.811  26.867  1.00  0.00     0.042 C 
BRANCH  30  31
ATOM     31  C   UNL A   1      34.023  28.887  26.055  1.00  0.00     0.118 C 
BRANCH  31  32
ATOM     32  N   UNL A   1      33.813  30.209  26.630  1.00  0.00    -0.352 N 
ATOM     33  C   UNL A   1      34.490  30.848  27.635  1.00  0.00     0.251 C 
ATOM     34  H   UNL A   1      33.071  30.723  26.234  1.00  0.00     0.163 HD
ATOM     35  O   UNL A   1      34.007  31.858  28.143  1.00  0.00    -0.269 OA
BRANCH  33  36
ATOM     36  C   UNL A   1      35.785  30.328  28.120  1.00  0.00     0.039 A 
ATOM     37  C   UNL A   1      36.926  30.540  27.340  1.00  0.00     0.014 A 
ATOM     38  C   UNL A   1      35.876  29.595  29.307  1.00  0.00     0.014 A 
ATOM     39  C   UNL A   1      38.160  30.053  27.770  1.00  0.00     0.010 A 
ATOM     40  C   UNL A   1      37.120  29.183  29.776  1.00  0.00     0.010 A 
ATOM     41  C   UNL A   1      38.272  29.394  29.005  1.00  0.00    -0.014 A 
BRANCH  41  42
ATOM     42  C   UNL A   1      39.587  28.912  29.495  1.00  0.00     0.031 A 
ATOM     43  C   UNL A   1      40.363  29.716  30.502  1.00  0.00     0.074 A 
ATOM     44  C   UNL A   1      40.098  27.769  28.999  1.00  0.00     0.049 A 
ATOM     45  N   UNL A   1      41.538  29.474  31.026  1.00  0.00    -0.248 NA
ATOM     46  C   UNL A   1      39.752  30.973  30.960  1.00  0.00     0.031 C 
ATOM     47  C   UNL A   1      39.460  26.932  27.982  1.00  0.00     0.029 A 
ATOM     48  N   UNL A   1      41.271  27.116  29.277  1.00  0.00    -0.354 N 
ATOM     49  C   UNL A   1      41.808  30.548  31.864  1.00  0.00     0.074 A 
ATOM     50  C   UNL A   1      40.705  31.474  31.731  1.00  0.00     0.031 C 
ATOM     51  C   UNL A   1      40.232  25.859  27.747  1.00  0.00     0.029 A 
ATOM     52  C   UNL A   1      41.437  25.954  28.564  1.00  0.00     0.049 A 
ATOM     53  H   UNL A   1      41.932  27.448  29.928  1.00  0.00     0.167 HD
ATOM     54  C   UNL A   1      42.866  30.731  32.689  1.00  0.00     0.037 A 
ATOM     55  C   UNL A   1      42.450  25.068  28.568  1.00  0.00     0.037 A 
ATOM     56  C   UNL A   1      43.952  29.796  32.826  1.00  0.00     0.049 A 
ATOM     57  C   UNL A   1      43.619  25.301  29.487  1.00  0.00     0.074 A 
ATOM     58  C   UNL A   1      45.047  29.861  33.671  1.00  0.00     0.029 A 
ATOM     59  N   UNL A   1      44.083  28.625  32.092  1.00  0.00    -0.354 N 
ATOM     60  N   UNL A   1      43.829  26.284  30.328  1.00  0.00    -0.248 NA
ATOM     61  C   UNL A   1      44.688  24.294  29.461  1.00  0.00     0.031 C 
ATOM     62  C   UNL A   1      45.867  28.758  33.409  1.00  0.00     0.029 A 
ATOM     63  C   UNL A   1      45.253  27.972  32.447  1.00  0.00     0.049 A 
ATOM     64  H   UNL A   1      43.440  28.306  31.419  1.00  0.00     0.167 HD
ATOM     65  C   UNL A   1      45.035  26.001  30.955  1.00  0.00     0.074 A 
ATOM     66  C   UNL A   1      45.500  24.742  30.408  1.00  0.00     0.031 C 
ATOM     67  C   UNL A   1      45.698  26.717  31.895  1.00  0.00     0.037 A 
BRANCH  54  68
ATOM     68  C   UNL A   1      42.898  31.991  33.510  1.00  0.00     0.064 A 
ATOM     69  C   UNL A   1      42.370  32.038  34.810  1.00  0.00     0.173 A 
ATOM     70  C   UNL A   1      43.494  33.156  33.004  1.00  0.00     0.173 A 
ATOM     71  F   UNL A   1      41.781  30.956  35.339  1.00  0.00    -0.203 F 
ATOM     72  C   UNL A   1      42.407  33.212  35.558  1.00  0.00     0.198 A 
ATOM     73  C   UNL A   1      43.559  34.319  33.768  1.00  0.00     0.198 A 
ATOM     74  F   UNL A   1      44.019  33.168  31.770  1.00  0.00    -0.203 F 
ATOM     75  F   UNL A   1      41.846  33.247  36.775  1.00  0.00    -0.200 F 
ATOM     76  C   UNL A   1      43.008  34.349  35.040  1.00  0.00     0.200 A 
ATOM     77  F   UNL A   1      44.154  35.413  33.272  1.00  0.00    -0.200 F 
ATOM     78  F   UNL A   1      43.050  35.476  35.764  1.00  0.00    -0.200 F 
ENDBRANCH  54  68
BRANCH  55  79
ATOM     79  C   UNL A   1      42.390  23.866  27.696  1.00  0.00     0.064 A 
ATOM     80  C   UNL A   1      41.904  22.645  28.185  1.00  0.00     0.173 A 
ATOM     81  C   UNL A   1      42.818  23.908  26.360  1.00  0.00     0.173 A 
ATOM     82  F   UNL A   1      41.499  22.548  29.459  1.00  0.00    -0.203 F 
ATOM     83  C   UNL A   1      41.872  21.508  27.381  1.00  0.00     0.198 A 
ATOM     84  C   UNL A   1      42.754  22.779  25.547  1.00  0.00     0.198 A 
ATOM     85  F   UNL A   1      43.282  25.053  25.840  1.00  0.00    -0.203 F 
ATOM     86  F   UNL A   1      41.449  20.341  27.889  1.00  0.00    -0.200 F 
ATOM     87  C   UNL A   1      42.292  21.577  26.061  1.00  0.00     0.200 A 
ATOM     88  F   UNL A   1      43.142  22.854  24.267  1.00  0.00    -0.200 F 
ATOM     89  F   UNL A   1      42.255  20.484  25.285  1.00  0.00    -0.200 F 
ENDBRANCH  55  79
BRANCH  67  90
ATOM     90  C   UNL A   1      46.979  26.135  32.422  1.00  0.00     0.064 A 
ATOM     91  C   UNL A   1      48.221  26.439  31.845  1.00  0.00     0.173 A 
ATOM     92  C   UNL A   1      46.965  25.281  33.535  1.00  0.00     0.173 A 
ATOM     93  F   UNL A   1      48.289  27.239  30.770  1.00  0.00    -0.203 F 
ATOM     94  C   UNL A   1      49.396  25.881  32.340  1.00  0.00     0.198 A 
ATOM     95  C   UNL A   1      48.145  24.754  34.051  1.00  0.00     0.198 A 
ATOM     96  F   UNL A   1      45.805  24.965  34.130  1.00  0.00    -0.203 F 
ATOM     97  F   UNL A   1      50.564  26.136  31.735  1.00  0.00    -0.200 F 
ATOM     98  C   UNL A   1      49.359  25.045  33.447  1.00  0.00     0.200 A 
ATOM     99  F   UNL A   1      48.107  23.960  35.129  1.00  0.00    -0.200 F 
ATOM    100  F   UNL A   1      50.492  24.512  33.925  1.00  0.00    -0.200 F 
ENDBRANCH  67  90
ENDBRANCH  41  42
ENDBRANCH  33  36
ENDBRANCH  31  32
ENDBRANCH  30  31
ENDBRANCH   1  30
TORSDOF 13
ENDMDL
MODEL 2
REMARK VINA RESULT:     -13.0      0.849      1.433
REMARK SMILES Cc1cc(C)c(NS(=O)(=O)c2cccc3cc(C)cnc23)c(C(=O)NCCCNC(=O)c2ccc(-c3c4nc(c(-c5c(F)c(F)c(F)c(F)c5F)c5ccc([nH]5)c(-c5c(F)c(F)c(F)c(F)c5F)c5nc(c(-c6c(F)c(F)c(F)c(F)c6F)c6ccc3[nH]6)C=C5)C=C4)cc2)c1
REMARK SMILES IDX 26 1 25 2 23 3 24 4 22 6 1 7 2 8 3 9 95 10 4 11 5 12 6 13
REMARK SMILES IDX 7 14 8 16 9 17 10 18 11 19 12 20 21 21 13 22 15 23 20 24
REMARK SMILES IDX 14 25 16 26 19 27 17 28 18 29 27 30 28 31 29 32 30 33 31 35
REMARK SMILES IDX 32 36 33 37 94 38 34 39 93 40 35 41 36 42 37 43 87 44 38 45
REMARK SMILES IDX 92 46 86 47 88 48 39 49 91 50 85 51 84 52 40 54 72 55 52 56
REMARK SMILES IDX 71 57 53 58 56 59 70 60 89 61 54 62 55 63 69 65 90 66 57 67
REMARK SMILES IDX 41 68 42 69 50 70 43 71 44 72 48 73 51 74 45 75 46 76 49 77
REMARK SMILES IDX 47 78 73 79 74 80 82 81 75 82 76 83 80 84 83 85 77 86 78 87
REMARK SMILES IDX 81 88 79 89 58 90 59 91 67 92 60 93 61 94 65 95 68 96 62 97
REMARK SMILES IDX 63 98 66 99 64 100
REMARK H PARENT 25 5 7 15 29 34 88 53 56 64
REMARK Flexibility Score: inf
ROOT
ATOM      1  C   UNL A   1      31.970  28.098  27.143  1.00  0.00     0.118 C 
ENDROOT
BRANCH   1   2
ATOM      2  N   UNL A   1      31.103  26.929  27.180  1.00  0.00    -0.352 N 
ATOM      3  C   UNL A   1      30.437  26.240  26.188  1.00  0.00     0.253 C 
ATOM      4  O   UNL A   1      29.690  25.320  26.524  1.00  0.00    -0.269 OA
ATOM      5  H   UNL A   1      30.966  26.560  28.083  1.00  0.00     0.163 HD
BRANCH   3   6
ATOM      6  C   UNL A   1      30.692  26.504  24.740  1.00  0.00     0.064 A 
ATOM      7  C   UNL A   1      29.545  29.077  22.223  1.00  0.00     0.044 C 
ATOM      8  C   UNL A   1      30.360  28.000  22.870  1.00  0.00    -0.050 A 
ATOM      9  C   UNL A   1      31.607  27.602  22.380  1.00  0.00     0.009 A 
ATOM     10  C   UNL A   1      29.912  27.438  24.060  1.00  0.00     0.019 A 
ATOM     11  C   UNL A   1      32.348  26.560  22.989  1.00  0.00    -0.026 A 
ATOM     12  C   UNL A   1      33.713  26.264  22.436  1.00  0.00     0.046 C 
ATOM     13  C   UNL A   1      31.792  25.889  24.090  1.00  0.00     0.065 A 
BRANCH  13  14
ATOM     14  N   UNL A   1      32.288  24.667  24.662  1.00  0.00    -0.278 N 
ATOM     15  H   UNL A   1      32.942  24.775  25.391  1.00  0.00     0.180 HD
BRANCH  14  16
ATOM     16  S   UNL A   1      31.908  23.083  24.265  1.00  0.00     0.264 S 
ATOM     17  O   UNL A   1      31.041  22.638  25.345  1.00  0.00    -0.201 OA
ATOM     18  O   UNL A   1      31.379  23.117  22.916  1.00  0.00    -0.201 OA
BRANCH  16  19
ATOM     19  C   UNL A   1      33.250  21.923  24.238  1.00  0.00     0.114 A 
ATOM     20  C   UNL A   1      32.844  20.568  24.193  1.00  0.00     0.024 A 
ATOM     21  C   UNL A   1      34.574  22.275  24.481  1.00  0.00     0.091 A 
ATOM     22  C   UNL A   1      33.723  19.550  24.525  1.00  0.00     0.002 A 
ATOM     23  C   UNL A   1      35.415  21.231  24.943  1.00  0.00     0.002 A 
ATOM     24  N   UNL A   1      35.057  23.531  24.358  1.00  0.00    -0.255 NA
ATOM     25  C   UNL A   1      34.997  19.889  24.949  1.00  0.00     0.010 A 
ATOM     26  C   UNL A   1      36.665  21.559  25.476  1.00  0.00     0.015 A 
ATOM     27  C   UNL A   1      36.292  23.803  24.842  1.00  0.00     0.115 A 
ATOM     28  C   UNL A   1      37.092  22.881  25.491  1.00  0.00    -0.032 A 
ATOM     29  C   UNL A   1      38.328  23.278  26.233  1.00  0.00     0.046 C 
ENDBRANCH  16  19
ENDBRANCH  14  16
ENDBRANCH  13  14
ENDBRANCH   3   6
ENDBRANCH   1   2
BRANCH   1  30
ATOM     30  C   UNL A   1      33.392  27.681  26.762  1.00  0.00     0.042 C 
BRANCH  30  31
ATOM     31  C   UNL A   1      34.094  28.736  25.915  1.00  0.00     0.118 C 
BRANCH  31  32
ATOM     32  N   UNL A   1      33.826  30.078  26.413  1.00  0.00    -0.352 N 
ATOM     33  C   UNL A   1      34.418  30.771  27.436  1.00  0.00     0.251 C 
ATOM     34  H   UNL A   1      33.111  30.563  25.939  1.00  0.00     0.163 HD
ATOM     35  O   UNL A   1      33.886  31.794  27.860  1.00  0.00    -0.269 OA
BRANCH  33  36
ATOM     36  C   UNL A   1      35.679  30.292  28.039  1.00  0.00     0.039 A 
ATOM     37  C   UNL A   1      36.871  30.479  27.335  1.00  0.00     0.014 A 
ATOM     38  C   UNL A   1      35.689  29.621  29.266  1.00  0.00     0.014 A 
ATOM     39  C   UNL A   1      38.075  30.029  27.877  1.00  0.00     0.010 A 
ATOM     40  C   UNL A   1      36.898  29.249  29.845  1.00  0.00     0.010 A 
ATOM     41  C   UNL A   1      38.102  29.435  29.149  1.00  0.00    -0.014 A 
BRANCH  41  42
ATOM     42  C   UNL A   1      39.382  28.994  29.758  1.00  0.00     0.031 A 
ATOM     43  C   UNL A   1      39.945  29.718  30.949  1.00  0.00     0.074 A 
ATOM     44  C   UNL A   1      40.055  27.966  29.207  1.00  0.00     0.049 A 
ATOM     45  N   UNL A   1      41.060  29.500  31.599  1.00  0.00    -0.248 NA
ATOM     46  C   UNL A   1      39.168  30.856  31.461  1.00  0.00     0.031 C 
ATOM     47  C   UNL A   1      39.632  27.220  28.021  1.00  0.00     0.029 A 
ATOM     48  N   UNL A   1      41.238  27.373  29.567  1.00  0.00    -0.354 N 
ATOM     49  C   UNL A   1      41.120  30.475  32.586  1.00  0.00     0.074 A 
ATOM     50  C   UNL A   1      39.963  31.325  32.411  1.00  0.00     0.031 C 
ATOM     51  C   UNL A   1      40.524  26.248  27.771  1.00  0.00     0.029 A 
ATOM     52  C   UNL A   1      41.600  26.328  28.753  1.00  0.00     0.049 A 
ATOM     53  H   UNL A   1      41.776  27.668  30.338  1.00  0.00     0.167 HD
ATOM     54  C   UNL A   1      42.042  30.630  33.566  1.00  0.00     0.037 A 
ATOM     55  C   UNL A   1      42.681  25.527  28.794  1.00  0.00     0.037 A 
ATOM     56  C   UNL A   1      43.183  29.770  33.743  1.00  0.00     0.049 A 
ATOM     57  C   UNL A   1      43.696  25.728  29.887  1.00  0.00     0.074 A 
ATOM     58  C   UNL A   1      44.149  29.809  34.733  1.00  0.00     0.029 A 
ATOM     59  N   UNL A   1      43.514  28.716  32.902  1.00  0.00    -0.354 N 
ATOM     60  N   UNL A   1      43.705  26.608  30.859  1.00  0.00    -0.248 NA
ATOM     61  C   UNL A   1      44.847  24.816  29.893  1.00  0.00     0.031 C 
ATOM     62  C   UNL A   1      45.094  28.813  34.461  1.00  0.00     0.029 A 
ATOM     63  C   UNL A   1      44.684  28.113  33.338  1.00  0.00     0.049 A 
ATOM     64  H   UNL A   1      42.994  28.438  32.114  1.00  0.00     0.167 HD
ATOM     65  C   UNL A   1      44.841  26.338  31.609  1.00  0.00     0.074 A 
ATOM     66  C   UNL A   1      45.486  25.199  30.989  1.00  0.00     0.031 C 
ATOM     67  C   UNL A   1      45.309  26.976  32.710  1.00  0.00     0.037 A 
BRANCH  54  68
ATOM     68  C   UNL A   1      41.852  31.774  34.525  1.00  0.00     0.064 A 
ATOM     69  C   UNL A   1      41.027  31.660  35.655  1.00  0.00     0.173 A 
ATOM     70  C   UNL A   1      42.530  32.987  34.330  1.00  0.00     0.173 A 
ATOM     71  F   UNL A   1      40.348  30.526  35.884  1.00  0.00    -0.203 F 
ATOM     72  C   UNL A   1      40.861  32.727  36.534  1.00  0.00     0.198 A 
ATOM     73  C   UNL A   1      42.388  34.040  35.231  1.00  0.00     0.198 A 
ATOM     74  F   UNL A   1      43.336  33.151  33.271  1.00  0.00    -0.203 F 
ATOM     75  F   UNL A   1      40.024  32.611  37.575  1.00  0.00    -0.200 F 
ATOM     76  C   UNL A   1      41.547  33.913  36.326  1.00  0.00     0.200 A 
ATOM     77  F   UNL A   1      43.064  35.182  35.036  1.00  0.00    -0.200 F 
ATOM     78  F   UNL A   1      41.393  34.937  37.177  1.00  0.00    -0.200 F 
ENDBRANCH  54  68
BRANCH  55  79
ATOM     79  C   UNL A   1      42.844  24.446  27.788  1.00  0.00     0.064 A 
ATOM     80  C   UNL A   1      43.414  24.708  26.533  1.00  0.00     0.173 A 
ATOM     81  C   UNL A   1      42.433  23.131  28.053  1.00  0.00     0.173 A 
ATOM     82  F   UNL A   1      43.808  25.952  26.225  1.00  0.00    -0.203 F 
ATOM     83  C   UNL A   1      43.543  23.705  25.576  1.00  0.00     0.198 A 
ATOM     84  C   UNL A   1      42.593  22.121  27.107  1.00  0.00     0.198 A 
ATOM     85  F   UNL A   1      41.890  22.823  29.240  1.00  0.00    -0.203 F 
ATOM     86  F   UNL A   1      44.046  23.995  24.368  1.00  0.00    -0.200 F 
ATOM     87  C   UNL A   1      43.138  22.410  25.865  1.00  0.00     0.200 A 
ATOM     88  F   UNL A   1      42.218  20.868  27.397  1.00  0.00    -0.200 F 
ATOM     89  F   UNL A   1      43.267  21.444  24.946  1.00  0.00    -0.200 F 
ENDBRANCH  55  79
BRANCH  67  90
ATOM     90  C   UNL A   1      46.560  26.430  33.338  1.00  0.00     0.064 A 
ATOM     91  C   UNL A   1      47.832  26.911  32.993  1.00  0.00     0.173 A 
ATOM     92  C   UNL A   1      46.482  25.428  34.316  1.00  0.00     0.173 A 
ATOM     93  F   UNL A   1      47.963  27.859  32.052  1.00  0.00    -0.203 F 
ATOM     94  C   UNL A   1      48.980  26.384  33.577  1.00  0.00     0.198 A 
ATOM     95  C   UNL A   1      47.630  24.928  34.926  1.00  0.00     0.198 A 
ATOM     96  F   UNL A   1      45.290  24.938  34.690  1.00  0.00    -0.203 F 
ATOM     97  F   UNL A   1      50.187  26.816  33.187  1.00  0.00    -0.200 F 
ATOM     98  C   UNL A   1      48.878  25.399  34.548  1.00  0.00     0.200 A 
ATOM     99  F   UNL A   1      47.527  23.989  35.875  1.00  0.00    -0.200 F 
ATOM    100  F   UNL A   1      49.985  24.896  35.113  1.00  0.00    -0.200 F 
ENDBRANCH  67  90
ENDBRANCH  41  42
ENDBRANCH  33  36
ENDBRANCH  31  32
ENDBRANCH  30  31
ENDBRANCH   1  30
TORSDOF 13
ENDMDL
MODEL 3
REMARK VINA RESULT:     -12.9      3.173      8.711
REMARK SMILES Cc1cc(C)c(NS(=O)(=O)c2cccc3cc(C)cnc23)c(C(=O)NCCCNC(=O)c2ccc(-c3c4nc(c(-c5c(F)c(F)c(F)c(F)c5F)c5ccc([nH]5)c(-c5c(F)c(F)c(F)c(F)c5F)c5nc(c(-c6c(F)c(F)c(F)c(F)c6F)c6ccc3[nH]6)C=C5)C=C4)cc2)c1
REMARK SMILES IDX 26 1 25 2 23 3 24 4 22 6 1 7 2 8 3 9 95 10 4 11 5 12 6 13
REMARK SMILES IDX 7 14 8 16 9 17 10 18 11 19 12 20 21 21 13 22 15 23 20 24
REMARK SMILES IDX 14 25 16 26 19 27 17 28 18 29 27 30 28 31 29 32 30 33 31 35
REMARK SMILES IDX 32 36 33 37 94 38 34 39 93 40 35 41 36 42 37 43 87 44 38 45
REMARK SMILES IDX 92 46 86 47 88 48 39 49 91 50 85 51 84 52 40 54 72 55 52 56
REMARK SMILES IDX 71 57 53 58 56 59 70 60 89 61 54 62 55 63 69 65 90 66 57 67
REMARK SMILES IDX 41 68 42 69 50 70 43 71 44 72 48 73 51 74 45 75 46 76 49 77
REMARK SMILES IDX 47 78 73 79 74 80 82 81 75 82 76 83 80 84 83 85 77 86 78 87
REMARK SMILES IDX 81 88 79 89 58 90 59 91 67 92 60 93 61 94 65 95 68 96 62 97
REMARK SMILES IDX 63 98 66 99 64 100
REMARK H PARENT 25 5 7 15 29 34 88 53 56 64
REMARK Flexibility Score: inf
ROOT
ATOM      1  C   UNL A   1      36.186  23.135  23.613  1.00  0.00     0.118 C 
ENDROOT
BRANCH   1   2
ATOM      2  N   UNL A   1      34.975  23.508  22.895  1.00  0.00    -0.352 N 
ATOM      3  C   UNL A   1      33.669  23.079  22.999  1.00  0.00     0.253 C 
ATOM      4  O   UNL A   1      32.851  23.515  22.190  1.00  0.00    -0.269 OA
ATOM      5  H   UNL A   1      35.115  24.198  22.205  1.00  0.00     0.163 HD
BRANCH   3   6
ATOM      6  C   UNL A   1      33.215  22.209  24.125  1.00  0.00     0.064 A 
ATOM      7  C   UNL A   1      33.408  18.524  24.934  1.00  0.00     0.044 C 
ATOM      8  C   UNL A   1      33.247  20.002  25.112  1.00  0.00    -0.050 A 
ATOM      9  C   UNL A   1      33.176  20.606  26.371  1.00  0.00     0.009 A 
ATOM     10  C   UNL A   1      33.265  20.821  23.990  1.00  0.00     0.019 A 
ATOM     11  C   UNL A   1      32.992  22.002  26.517  1.00  0.00    -0.026 A 
ATOM     12  C   UNL A   1      33.014  22.563  27.910  1.00  0.00     0.046 C 
ATOM     13  C   UNL A   1      32.840  22.789  25.364  1.00  0.00     0.065 A 
BRANCH  13  14
ATOM     14  N   UNL A   1      32.404  24.158  25.336  1.00  0.00    -0.278 N 
ATOM     15  H   UNL A   1      33.122  24.832  25.363  1.00  0.00     0.180 HD
BRANCH  14  16
ATOM     16  S   UNL A   1      30.845  24.771  25.265  1.00  0.00     0.264 S 
ATOM     17  O   UNL A   1      30.271  24.159  24.077  1.00  0.00    -0.201 OA
ATOM     18  O   UNL A   1      30.239  24.495  26.553  1.00  0.00    -0.201 OA
BRANCH  16  19
ATOM     19  C   UNL A   1      30.686  26.520  25.012  1.00  0.00     0.114 A 
ATOM     20  C   UNL A   1      29.946  26.872  23.857  1.00  0.00     0.024 A 
ATOM     21  C   UNL A   1      31.410  27.468  25.726  1.00  0.00     0.091 A 
ATOM     22  C   UNL A   1      30.029  28.147  23.321  1.00  0.00     0.002 A 
ATOM     23  C   UNL A   1      31.583  28.722  25.087  1.00  0.00     0.002 A 
ATOM     24  N   UNL A   1      31.984  27.234  26.926  1.00  0.00    -0.255 NA
ATOM     25  C   UNL A   1      30.889  29.057  23.911  1.00  0.00     0.010 A 
ATOM     26  C   UNL A   1      32.526  29.616  25.602  1.00  0.00     0.015 A 
ATOM     27  C   UNL A   1      32.857  28.145  27.419  1.00  0.00     0.115 A 
ATOM     28  C   UNL A   1      33.232  29.299  26.756  1.00  0.00    -0.032 A 
ATOM     29  C   UNL A   1      34.380  30.143  27.208  1.00  0.00     0.046 C 
ENDBRANCH  16  19
ENDBRANCH  14  16
ENDBRANCH  13  14
ENDBRANCH   3   6
ENDBRANCH   1   2
BRANCH   1  30
ATOM     30  C   UNL A   1      36.388  24.063  24.813  1.00  0.00     0.042 C 
BRANCH  30  31
ATOM     31  C   UNL A   1      36.525  23.292  26.120  1.00  0.00     0.118 C 
BRANCH  31  32
ATOM     32  N   UNL A   1      37.688  22.416  26.100  1.00  0.00    -0.352 N 
ATOM     33  C   UNL A   1      39.013  22.710  26.285  1.00  0.00     0.251 C 
ATOM     34  H   UNL A   1      37.492  21.466  25.928  1.00  0.00     0.163 HD
ATOM     35  O   UNL A   1      39.865  21.877  25.986  1.00  0.00    -0.269 OA
BRANCH  33  36
ATOM     36  C   UNL A   1      39.425  24.021  26.828  1.00  0.00     0.039 A 
ATOM     37  C   UNL A   1      39.182  24.293  28.178  1.00  0.00     0.014 A 
ATOM     38  C   UNL A   1      40.001  24.998  26.011  1.00  0.00     0.014 A 
ATOM     39  C   UNL A   1      39.553  25.525  28.715  1.00  0.00     0.010 A 
ATOM     40  C   UNL A   1      40.447  26.194  26.566  1.00  0.00     0.010 A 
ATOM     41  C   UNL A   1      40.213  26.476  27.920  1.00  0.00    -0.014 A 
BRANCH  41  42
ATOM     42  C   UNL A   1      40.654  27.773  28.491  1.00  0.00     0.031 A 
ATOM     43  C   UNL A   1      42.097  27.991  28.853  1.00  0.00     0.074 A 
ATOM     44  C   UNL A   1      39.743  28.737  28.720  1.00  0.00     0.049 A 
ATOM     45  N   UNL A   1      42.667  29.041  29.388  1.00  0.00    -0.248 NA
ATOM     46  C   UNL A   1      43.019  26.871  28.610  1.00  0.00     0.031 C 
ATOM     47  C   UNL A   1      38.308  28.622  28.456  1.00  0.00     0.029 A 
ATOM     48  N   UNL A   1      39.885  30.002  29.230  1.00  0.00    -0.354 N 
ATOM     49  C   UNL A   1      44.004  28.706  29.552  1.00  0.00     0.074 A 
ATOM     50  C   UNL A   1      44.151  27.333  29.119  1.00  0.00     0.031 C 
ATOM     51  C   UNL A   1      37.707  29.779  28.774  1.00  0.00     0.029 A 
ATOM     52  C   UNL A   1      38.706  30.702  29.303  1.00  0.00     0.049 A 
ATOM     53  H   UNL A   1      40.751  30.374  29.517  1.00  0.00     0.167 HD
ATOM     54  C   UNL A   1      45.022  29.481  29.996  1.00  0.00     0.037 A 
ATOM     55  C   UNL A   1      38.458  31.948  29.748  1.00  0.00     0.037 A 
ATOM     56  C   UNL A   1      44.870  30.851  30.410  1.00  0.00     0.049 A 
ATOM     57  C   UNL A   1      39.607  32.784  30.247  1.00  0.00     0.074 A 
ATOM     58  C   UNL A   1      45.845  31.740  30.828  1.00  0.00     0.029 A 
ATOM     59  N   UNL A   1      43.660  31.529  30.463  1.00  0.00    -0.354 N 
ATOM     60  N   UNL A   1      40.879  32.481  30.329  1.00  0.00    -0.248 NA
ATOM     61  C   UNL A   1      39.283  34.141  30.706  1.00  0.00     0.031 C 
ATOM     62  C   UNL A   1      45.218  32.939  31.185  1.00  0.00     0.029 A 
ATOM     63  C   UNL A   1      43.862  32.819  30.930  1.00  0.00     0.049 A 
ATOM     64  H   UNL A   1      42.789  31.151  30.206  1.00  0.00     0.167 HD
ATOM     65  C   UNL A   1      41.513  33.615  30.818  1.00  0.00     0.074 A 
ATOM     66  C   UNL A   1      40.484  34.619  30.996  1.00  0.00     0.031 C 
ATOM     67  C   UNL A   1      42.825  33.807  31.097  1.00  0.00     0.037 A 
BRANCH  54  68
ATOM     68  C   UNL A   1      46.392  28.862  30.055  1.00  0.00     0.064 A 
ATOM     69  C   UNL A   1      46.860  28.215  31.210  1.00  0.00     0.173 A 
ATOM     70  C   UNL A   1      47.235  28.888  28.934  1.00  0.00     0.173 A 
ATOM     71  F   UNL A   1      46.099  28.169  32.313  1.00  0.00    -0.203 F 
ATOM     72  C   UNL A   1      48.130  27.647  31.250  1.00  0.00     0.198 A 
ATOM     73  C   UNL A   1      48.492  28.289  28.967  1.00  0.00     0.198 A 
ATOM     74  F   UNL A   1      46.839  29.488  27.802  1.00  0.00    -0.203 F 
ATOM     75  F   UNL A   1      48.574  27.083  32.383  1.00  0.00    -0.200 F 
ATOM     76  C   UNL A   1      48.942  27.676  30.127  1.00  0.00     0.200 A 
ATOM     77  F   UNL A   1      49.270  28.305  27.875  1.00  0.00    -0.200 F 
ATOM     78  F   UNL A   1      50.162  27.122  30.165  1.00  0.00    -0.200 F 
ENDBRANCH  54  68
BRANCH  55  79
ATOM     79  C   UNL A   1      37.075  32.489  29.716  1.00  0.00     0.064 A 
ATOM     80  C   UNL A   1      36.202  32.299  30.796  1.00  0.00     0.173 A 
ATOM     81  C   UNL A   1      36.594  33.203  28.608  1.00  0.00     0.173 A 
ATOM     82  F   UNL A   1      36.608  31.610  31.872  1.00  0.00    -0.203 F 
ATOM     83  C   UNL A   1      34.894  32.780  30.760  1.00  0.00     0.198 A 
ATOM     84  C   UNL A   1      35.297  33.711  28.586  1.00  0.00     0.198 A 
ATOM     85  F   UNL A   1      37.391  33.420  27.551  1.00  0.00    -0.203 F 
ATOM     86  F   UNL A   1      34.066  32.540  31.786  1.00  0.00    -0.200 F 
ATOM     87  C   UNL A   1      34.445  33.490  29.657  1.00  0.00     0.200 A 
ATOM     88  F   UNL A   1      34.873  34.414  27.527  1.00  0.00    -0.200 F 
ATOM     89  F   UNL A   1      33.189  33.957  29.624  1.00  0.00    -0.200 F 
ENDBRANCH  55  79
BRANCH  67  90
ATOM     90  C   UNL A   1      43.229  35.169  31.586  1.00  0.00     0.064 A 
ATOM     91  C   UNL A   1      43.177  35.512  32.945  1.00  0.00     0.173 A 
ATOM     92  C   UNL A   1      43.698  36.136  30.684  1.00  0.00     0.173 A 
ATOM     93  F   UNL A   1      42.722  34.630  33.848  1.00  0.00    -0.203 F 
ATOM     94  C   UNL A   1      43.544  36.784  33.377  1.00  0.00     0.198 A 
ATOM     95  C   UNL A   1      44.099  37.394  31.123  1.00  0.00     0.198 A 
ATOM     96  F   UNL A   1      43.776  35.857  29.373  1.00  0.00    -0.203 F 
ATOM     97  F   UNL A   1      43.428  37.109  34.672  1.00  0.00    -0.200 F 
ATOM     98  C   UNL A   1      44.012  37.721  32.468  1.00  0.00     0.200 A 
ATOM     99  F   UNL A   1      44.566  38.292  30.245  1.00  0.00    -0.200 F 
ATOM    100  F   UNL A   1      44.369  38.943  32.887  1.00  0.00    -0.200 F 
ENDBRANCH  67  90
ENDBRANCH  41  42
ENDBRANCH  33  36
ENDBRANCH  31  32
ENDBRANCH  30  31
ENDBRANCH   1  30
TORSDOF 13
ENDMDL
