MODEL 1
REMARK VINA RESULT:     -11.6      0.000      0.000
REMARK SMILES [NH3+][C@H](Cc1cc(Br)c(O)c(Br)c1)C(=O)NCCCNC(=O)c1ccc(-c2c3nc(c(-c4c(F)c(F)c(F)c(F)c4F)c4ccc([nH]4)c(-c4c(F)c(F)c(F)c(F)c4F)c4nc(c(-c5c(F)c(F)c(F)c(F)c5F)c5ccc2[nH]5)C=C4)C=C3)cc1
REMARK SMILES IDX 16 1 15 2 13 3 14 4 2 6 1 7 3 11 4 12 5 13 12 14 6 15 10 16
REMARK SMILES IDX 7 17 8 18 11 19 9 20 17 22 18 23 19 24 20 25 21 27 22 28
REMARK SMILES IDX 23 29 84 30 24 31 83 32 25 33 26 34 27 35 77 36 28 37 82 38
REMARK SMILES IDX 76 39 78 40 29 41 81 42 75 43 74 44 30 46 62 47 42 48 61 49
REMARK SMILES IDX 43 50 46 51 60 52 79 53 44 54 45 55 59 57 80 58 47 59 31 60
REMARK SMILES IDX 32 61 40 62 33 63 34 64 38 65 41 66 35 67 36 68 39 69 37 70
REMARK SMILES IDX 63 71 64 72 72 73 65 74 66 75 70 76 73 77 67 78 68 79 71 80
REMARK SMILES IDX 69 81 48 82 49 83 57 84 50 85 51 86 55 87 58 88 52 89 53 90
REMARK SMILES IDX 56 91 54 92
REMARK H PARENT 15 5 1 8 1 9 1 10 9 21 19 26 78 45 46 56
REMARK Flexibility Score: inf
ROOT
ATOM      1  C   UNL A   1      42.213  19.458  25.945  1.00  0.00     0.118 C 
ENDROOT
BRANCH   1   2
ATOM      2  N   UNL A   1      43.509  18.818  26.022  1.00  0.00    -0.351 N 
ATOM      3  C   UNL A   1      44.626  18.910  25.253  1.00  0.00     0.278 C 
ATOM      4  O   UNL A   1      45.458  18.005  25.405  1.00  0.00    -0.268 OA
ATOM      5  H   UNL A   1      43.599  18.193  26.778  1.00  0.00     0.163 HD
BRANCH   3   6
ATOM      6  C   UNL A   1      44.904  20.051  24.243  1.00  0.00     0.275 C 
BRANCH   6   7
ATOM      7  N   UNL A   1      44.543  19.672  22.867  1.00  0.00    -0.347 N 
ATOM      8  H   UNL A   1      44.415  18.662  22.814  1.00  0.00     0.345 HD
ATOM      9  H   UNL A   1      45.288  19.954  22.230  1.00  0.00     0.345 HD
ATOM     10  H   UNL A   1      43.675  20.138  22.603  1.00  0.00     0.345 HD
ENDBRANCH   6   7
BRANCH   6  11
ATOM     11  C   UNL A   1      46.192  20.885  24.465  1.00  0.00     0.111 C 
BRANCH  11  12
ATOM     12  C   UNL A   1      46.195  22.228  25.166  1.00  0.00    -0.039 A 
ATOM     13  C   UNL A   1      45.595  22.327  26.438  1.00  0.00     0.023 A 
ATOM     14  C   UNL A   1      46.720  23.397  24.601  1.00  0.00     0.023 A 
ATOM     15  C   UNL A   1      45.652  23.519  27.171  1.00  0.00     0.061 A 
ATOM     16  C   UNL A   1      46.806  24.583  25.347  1.00  0.00     0.061 A 
ATOM     17  Br  UNL A   1      44.906  23.564  28.914  1.00  0.00    -0.047 Br
ATOM     18  C   UNL A   1      46.299  24.638  26.646  1.00  0.00     0.143 A 
ATOM     19  Br  UNL A   1      47.742  26.050  24.589  1.00  0.00    -0.047 Br
BRANCH  18  20
ATOM     20  O   UNL A   1      46.485  25.763  27.402  1.00  0.00    -0.506 OA
ATOM     21  H   UNL A   1      45.846  26.449  27.388  1.00  0.00     0.293 HD
ENDBRANCH  18  20
ENDBRANCH  11  12
ENDBRANCH   6  11
ENDBRANCH   3   6
ENDBRANCH   1   2
BRANCH   1  22
ATOM     22  C   UNL A   1      42.213  20.744  26.762  1.00  0.00     0.042 C 
BRANCH  22  23
ATOM     23  C   UNL A   1      41.486  21.926  26.150  1.00  0.00     0.118 C 
BRANCH  23  24
ATOM     24  N   UNL A   1      42.311  22.709  25.243  1.00  0.00    -0.352 N 
ATOM     25  C   UNL A   1      42.739  24.012  25.279  1.00  0.00     0.251 C 
ATOM     26  H   UNL A   1      42.620  22.208  24.454  1.00  0.00     0.163 HD
ATOM     27  O   UNL A   1      43.395  24.434  24.324  1.00  0.00    -0.269 OA
BRANCH  25  28
ATOM     28  C   UNL A   1      42.429  24.933  26.402  1.00  0.00     0.039 A 
ATOM     29  C   UNL A   1      43.118  26.152  26.471  1.00  0.00     0.014 A 
ATOM     30  C   UNL A   1      41.526  24.615  27.416  1.00  0.00     0.014 A 
ATOM     31  C   UNL A   1      42.863  27.055  27.508  1.00  0.00     0.010 A 
ATOM     32  C   UNL A   1      41.185  25.560  28.381  1.00  0.00     0.010 A 
ATOM     33  C   UNL A   1      41.864  26.785  28.454  1.00  0.00    -0.014 A 
BRANCH  33  34
ATOM     34  C   UNL A   1      41.533  27.739  29.545  1.00  0.00     0.031 A 
ATOM     35  C   UNL A   1      42.310  27.707  30.836  1.00  0.00     0.074 A 
ATOM     36  C   UNL A   1      40.488  28.578  29.410  1.00  0.00     0.049 A 
ATOM     37  N   UNL A   1      42.103  28.367  31.948  1.00  0.00    -0.248 NA
ATOM     38  C   UNL A   1      43.454  26.783  30.897  1.00  0.00     0.031 C 
ATOM     39  C   UNL A   1      39.633  28.681  28.227  1.00  0.00     0.029 A 
ATOM     40  N   UNL A   1      39.959  29.498  30.282  1.00  0.00    -0.354 N 
ATOM     41  C   UNL A   1      43.070  27.920  32.840  1.00  0.00     0.074 A 
ATOM     42  C   UNL A   1      43.826  26.890  32.164  1.00  0.00     0.031 C 
ATOM     43  C   UNL A   1      38.698  29.622  28.440  1.00  0.00     0.029 A 
ATOM     44  C   UNL A   1      38.860  30.157  29.787  1.00  0.00     0.049 A 
ATOM     45  H   UNL A   1      40.331  29.667  31.177  1.00  0.00     0.167 HD
ATOM     46  C   UNL A   1      43.322  28.346  34.102  1.00  0.00     0.037 A 
ATOM     47  C   UNL A   1      38.066  31.082  30.360  1.00  0.00     0.037 A 
ATOM     48  C   UNL A   1      42.590  29.396  34.759  1.00  0.00     0.049 A 
ATOM     49  C   UNL A   1      38.364  31.535  31.764  1.00  0.00     0.074 A 
ATOM     50  C   UNL A   1      42.804  29.946  36.011  1.00  0.00     0.029 A 
ATOM     51  N   UNL A   1      41.499  30.057  34.215  1.00  0.00    -0.354 N 
ATOM     52  N   UNL A   1      39.317  31.147  32.576  1.00  0.00    -0.248 NA
ATOM     53  C   UNL A   1      37.476  32.562  32.330  1.00  0.00     0.031 C 
ATOM     54  C   UNL A   1      41.812  30.902  36.245  1.00  0.00     0.029 A 
ATOM     55  C   UNL A   1      41.015  30.994  35.115  1.00  0.00     0.049 A 
ATOM     56  H   UNL A   1      41.124  29.887  33.321  1.00  0.00     0.167 HD
ATOM     57  C   UNL A   1      39.166  31.901  33.731  1.00  0.00     0.074 A 
ATOM     58  C   UNL A   1      38.037  32.781  33.511  1.00  0.00     0.031 C 
ATOM     59  C   UNL A   1      39.896  31.868  34.874  1.00  0.00     0.037 A 
BRANCH  46  60
ATOM     60  C   UNL A   1      44.439  27.677  34.856  1.00  0.00     0.064 A 
ATOM     61  C   UNL A   1      44.250  26.460  35.529  1.00  0.00     0.173 A 
ATOM     62  C   UNL A   1      45.722  28.242  34.879  1.00  0.00     0.173 A 
ATOM     63  F   UNL A   1      43.040  25.880  35.549  1.00  0.00    -0.203 F 
ATOM     64  C   UNL A   1      45.293  25.853  36.224  1.00  0.00     0.198 A 
ATOM     65  C   UNL A   1      46.772  27.616  35.545  1.00  0.00     0.198 A 
ATOM     66  F   UNL A   1      45.963  29.402  34.248  1.00  0.00    -0.203 F 
ATOM     67  F   UNL A   1      45.072  24.721  36.906  1.00  0.00    -0.200 F 
ATOM     68  C   UNL A   1      46.554  26.427  36.225  1.00  0.00     0.200 A 
ATOM     69  F   UNL A   1      47.994  28.164  35.532  1.00  0.00    -0.200 F 
ATOM     70  F   UNL A   1      47.560  25.839  36.887  1.00  0.00    -0.200 F 
ENDBRANCH  46  60
BRANCH  47  71
ATOM     71  C   UNL A   1      36.924  31.656  29.599  1.00  0.00     0.064 A 
ATOM     72  C   UNL A   1      36.924  33.004  29.211  1.00  0.00     0.173 A 
ATOM     73  C   UNL A   1      35.812  30.877  29.246  1.00  0.00     0.173 A 
ATOM     74  F   UNL A   1      37.955  33.795  29.543  1.00  0.00    -0.203 F 
ATOM     75  C   UNL A   1      35.846  33.556  28.523  1.00  0.00     0.198 A 
ATOM     76  C   UNL A   1      34.749  31.423  28.529  1.00  0.00     0.198 A 
ATOM     77  F   UNL A   1      35.766  29.580  29.585  1.00  0.00    -0.203 F 
ATOM     78  F   UNL A   1      35.850  34.859  28.209  1.00  0.00    -0.200 F 
ATOM     79  C   UNL A   1      34.762  32.764  28.177  1.00  0.00     0.200 A 
ATOM     80  F   UNL A   1      33.712  30.649  28.182  1.00  0.00    -0.200 F 
ATOM     81  F   UNL A   1      33.728  33.294  27.509  1.00  0.00    -0.200 F 
ENDBRANCH  47  71
BRANCH  59  82
ATOM     82  C   UNL A   1      39.524  32.840  35.958  1.00  0.00     0.064 A 
ATOM     83  C   UNL A   1      38.624  32.500  36.977  1.00  0.00     0.173 A 
ATOM     84  C   UNL A   1      40.110  34.115  35.996  1.00  0.00     0.173 A 
ATOM     85  F   UNL A   1      38.026  31.298  36.978  1.00  0.00    -0.203 F 
ATOM     86  C   UNL A   1      38.302  33.411  37.981  1.00  0.00     0.198 A 
ATOM     87  C   UNL A   1      39.812  35.010  37.019  1.00  0.00     0.198 A 
ATOM     88  F   UNL A   1      40.984  34.487  35.049  1.00  0.00    -0.203 F 
ATOM     89  F   UNL A   1      37.400  33.083  38.916  1.00  0.00    -0.200 F 
ATOM     90  C   UNL A   1      38.902  34.661  38.005  1.00  0.00     0.200 A 
ATOM     91  F   UNL A   1      40.405  36.211  37.051  1.00  0.00    -0.200 F 
ATOM     92  F   UNL A   1      38.597  35.533  38.976  1.00  0.00    -0.200 F 
ENDBRANCH  59  82
ENDBRANCH  33  34
ENDBRANCH  25  28
ENDBRANCH  23  24
ENDBRANCH  22  23
ENDBRANCH   1  22
TORSDOF 14
ENDMDL
MODEL 2
REMARK VINA RESULT:     -11.3      3.042      3.902
REMARK SMILES [NH3+][C@H](Cc1cc(Br)c(O)c(Br)c1)C(=O)NCCCNC(=O)c1ccc(-c2c3nc(c(-c4c(F)c(F)c(F)c(F)c4F)c4ccc([nH]4)c(-c4c(F)c(F)c(F)c(F)c4F)c4nc(c(-c5c(F)c(F)c(F)c(F)c5F)c5ccc2[nH]5)C=C4)C=C3)cc1
REMARK SMILES IDX 16 1 15 2 13 3 14 4 2 6 1 7 3 11 4 12 5 13 12 14 6 15 10 16
REMARK SMILES IDX 7 17 8 18 11 19 9 20 17 22 18 23 19 24 20 25 21 27 22 28
REMARK SMILES IDX 23 29 84 30 24 31 83 32 25 33 26 34 27 35 77 36 28 37 82 38
REMARK SMILES IDX 76 39 78 40 29 41 81 42 75 43 74 44 30 46 62 47 42 48 61 49
REMARK SMILES IDX 43 50 46 51 60 52 79 53 44 54 45 55 59 57 80 58 47 59 31 60
REMARK SMILES IDX 32 61 40 62 33 63 34 64 38 65 41 66 35 67 36 68 39 69 37 70
REMARK SMILES IDX 63 71 64 72 72 73 65 74 66 75 70 76 73 77 67 78 68 79 71 80
REMARK SMILES IDX 69 81 48 82 49 83 57 84 50 85 51 86 55 87 58 88 52 89 53 90
REMARK SMILES IDX 56 91 54 92
REMARK H PARENT 15 5 1 8 1 9 1 10 9 21 19 26 78 45 46 56
REMARK Flexibility Score: inf
ROOT
ATOM      1  C   UNL A   1      42.067  19.642  25.803  1.00  0.00     0.118 C 
ENDROOT
BRANCH   1   2
ATOM      2  N   UNL A   1      43.342  18.972  25.942  1.00  0.00    -0.351 N 
ATOM      3  C   UNL A   1      44.474  18.988  25.189  1.00  0.00     0.278 C 
ATOM      4  O   UNL A   1      45.277  18.071  25.409  1.00  0.00    -0.268 OA
ATOM      5  H   UNL A   1      43.402  18.391  26.734  1.00  0.00     0.163 HD
BRANCH   3   6
ATOM      6  C   UNL A   1      44.802  20.059  24.119  1.00  0.00     0.275 C 
BRANCH   6   7
ATOM      7  N   UNL A   1      44.528  19.580  22.754  1.00  0.00    -0.347 N 
ATOM      8  H   UNL A   1      43.530  19.402  22.650  1.00  0.00     0.345 HD
ATOM      9  H   UNL A   1      45.047  18.718  22.587  1.00  0.00     0.345 HD
ATOM     10  H   UNL A   1      44.820  20.288  22.081  1.00  0.00     0.345 HD
ENDBRANCH   6   7
BRANCH   6  11
ATOM     11  C   UNL A   1      46.066  20.924  24.358  1.00  0.00     0.111 C 
BRANCH  11  12
ATOM     12  C   UNL A   1      46.029  22.260  25.072  1.00  0.00    -0.039 A 
ATOM     13  C   UNL A   1      45.355  22.348  26.307  1.00  0.00     0.023 A 
ATOM     14  C   UNL A   1      46.589  23.434  24.551  1.00  0.00     0.023 A 
ATOM     15  C   UNL A   1      45.370  23.532  27.054  1.00  0.00     0.061 A 
ATOM     16  C   UNL A   1      46.632  24.612  25.312  1.00  0.00     0.061 A 
ATOM     17  Br  UNL A   1      44.521  23.562  28.749  1.00  0.00    -0.047 Br
ATOM     18  C   UNL A   1      46.049  24.656  26.579  1.00  0.00     0.143 A 
ATOM     19  Br  UNL A   1      47.613  26.085  24.626  1.00  0.00    -0.047 Br
BRANCH  18  20
ATOM     20  O   UNL A   1      46.191  25.773  27.357  1.00  0.00    -0.506 OA
ATOM     21  H   UNL A   1      47.020  26.206  27.408  1.00  0.00     0.293 HD
ENDBRANCH  18  20
ENDBRANCH  11  12
ENDBRANCH   6  11
ENDBRANCH   3   6
ENDBRANCH   1   2
BRANCH   1  22
ATOM     22  C   UNL A   1      42.134  21.033  26.421  1.00  0.00     0.042 C 
BRANCH  22  23
ATOM     23  C   UNL A   1      40.939  21.455  27.253  1.00  0.00     0.118 C 
BRANCH  23  24
ATOM     24  N   UNL A   1      39.752  21.739  26.460  1.00  0.00    -0.352 N 
ATOM     25  C   UNL A   1      39.034  22.890  26.256  1.00  0.00     0.251 C 
ATOM     26  H   UNL A   1      39.397  20.956  25.980  1.00  0.00     0.163 HD
ATOM     27  O   UNL A   1      38.014  22.824  25.564  1.00  0.00    -0.269 OA
BRANCH  25  28
ATOM     28  C   UNL A   1      39.419  24.198  26.844  1.00  0.00     0.039 A 
ATOM     29  C   UNL A   1      39.031  24.475  28.163  1.00  0.00     0.014 A 
ATOM     30  C   UNL A   1      40.102  25.180  26.126  1.00  0.00     0.014 A 
ATOM     31  C   UNL A   1      39.369  25.692  28.763  1.00  0.00     0.010 A 
ATOM     32  C   UNL A   1      40.542  26.340  26.759  1.00  0.00     0.010 A 
ATOM     33  C   UNL A   1      40.164  26.623  28.079  1.00  0.00    -0.014 A 
BRANCH  33  34
ATOM     34  C   UNL A   1      40.582  27.908  28.699  1.00  0.00     0.031 A 
ATOM     35  C   UNL A   1      42.001  28.090  29.174  1.00  0.00     0.074 A 
ATOM     36  C   UNL A   1      39.673  28.880  28.908  1.00  0.00     0.049 A 
ATOM     37  N   UNL A   1      42.533  29.080  29.846  1.00  0.00    -0.248 NA
ATOM     38  C   UNL A   1      42.941  26.995  28.885  1.00  0.00     0.031 C 
ATOM     39  C   UNL A   1      38.261  28.814  28.531  1.00  0.00     0.029 A 
ATOM     40  N   UNL A   1      39.799  30.111  29.503  1.00  0.00    -0.354 N 
ATOM     41  C   UNL A   1      43.853  28.715  30.078  1.00  0.00     0.074 A 
ATOM     42  C   UNL A   1      44.028  27.388  29.530  1.00  0.00     0.031 C 
ATOM     43  C   UNL A   1      37.656  29.959  28.885  1.00  0.00     0.029 A 
ATOM     44  C   UNL A   1      38.625  30.822  29.553  1.00  0.00     0.049 A 
ATOM     45  H   UNL A   1      40.651  30.453  29.859  1.00  0.00     0.167 HD
ATOM     46  C   UNL A   1      44.839  29.430  30.672  1.00  0.00     0.037 A 
ATOM     47  C   UNL A   1      38.356  32.028  30.089  1.00  0.00     0.037 A 
ATOM     48  C   UNL A   1      44.670  30.764  31.184  1.00  0.00     0.049 A 
ATOM     49  C   UNL A   1      39.468  32.801  30.748  1.00  0.00     0.074 A 
ATOM     50  C   UNL A   1      45.619  31.600  31.748  1.00  0.00     0.029 A 
ATOM     51  N   UNL A   1      43.470  31.459  31.195  1.00  0.00    -0.354 N 
ATOM     52  N   UNL A   1      40.726  32.470  30.908  1.00  0.00    -0.248 NA
ATOM     53  C   UNL A   1      39.121  34.121  31.295  1.00  0.00     0.031 C 
ATOM     54  C   UNL A   1      44.982  32.779  32.146  1.00  0.00     0.029 A 
ATOM     55  C   UNL A   1      43.649  32.705  31.776  1.00  0.00     0.049 A 
ATOM     56  H   UNL A   1      42.617  31.119  30.841  1.00  0.00     0.167 HD
ATOM     57  C   UNL A   1      41.327  33.548  31.543  1.00  0.00     0.074 A 
ATOM     58  C   UNL A   1      40.299  34.551  31.725  1.00  0.00     0.031 C 
ATOM     59  C   UNL A   1      42.615  33.695  31.940  1.00  0.00     0.037 A 
BRANCH  46  60
ATOM     60  C   UNL A   1      46.192  28.785  30.799  1.00  0.00     0.064 A 
ATOM     61  C   UNL A   1      46.567  28.079  31.953  1.00  0.00     0.173 A 
ATOM     62  C   UNL A   1      47.113  28.844  29.743  1.00  0.00     0.173 A 
ATOM     63  F   UNL A   1      45.730  27.999  32.998  1.00  0.00    -0.203 F 
ATOM     64  C   UNL A   1      47.825  27.488  32.057  1.00  0.00     0.198 A 
ATOM     65  C   UNL A   1      48.355  28.222  29.836  1.00  0.00     0.198 A 
ATOM     66  F   UNL A   1      46.806  29.500  28.613  1.00  0.00    -0.203 F 
ATOM     67  F   UNL A   1      48.179  26.868  33.192  1.00  0.00    -0.200 F 
ATOM     68  C   UNL A   1      48.713  27.553  30.996  1.00  0.00     0.200 A 
ATOM     69  F   UNL A   1      49.207  28.273  28.803  1.00  0.00    -0.200 F 
ATOM     70  F   UNL A   1      49.919  26.977  31.093  1.00  0.00    -0.200 F 
ENDBRANCH  46  60
BRANCH  47  71
ATOM     71  C   UNL A   1      36.981  32.589  30.007  1.00  0.00     0.064 A 
ATOM     72  C   UNL A   1      36.554  33.280  28.863  1.00  0.00     0.173 A 
ATOM     73  C   UNL A   1      36.069  32.452  31.063  1.00  0.00     0.173 A 
ATOM     74  F   UNL A   1      37.397  33.455  27.834  1.00  0.00    -0.203 F 
ATOM     75  C   UNL A   1      35.277  33.832  28.790  1.00  0.00     0.198 A 
ATOM     76  C   UNL A   1      34.781  32.977  30.975  1.00  0.00     0.198 A 
ATOM     77  F   UNL A   1      36.424  31.793  32.176  1.00  0.00    -0.203 F 
ATOM     78  F   UNL A   1      34.913  34.531  27.706  1.00  0.00    -0.200 F 
ATOM     79  C   UNL A   1      34.390  33.676  29.843  1.00  0.00     0.200 A 
ATOM     80  F   UNL A   1      33.921  32.808  31.989  1.00  0.00    -0.200 F 
ATOM     81  F   UNL A   1      33.159  34.202  29.770  1.00  0.00    -0.200 F 
ENDBRANCH  47  71
BRANCH  59  82
ATOM     82  C   UNL A   1      42.997  35.003  32.573  1.00  0.00     0.064 A 
ATOM     83  C   UNL A   1      43.482  36.077  31.813  1.00  0.00     0.173 A 
ATOM     84  C   UNL A   1      42.837  35.194  33.954  1.00  0.00     0.173 A 
ATOM     85  F   UNL A   1      43.666  35.941  30.491  1.00  0.00    -0.203 F 
ATOM     86  C   UNL A   1      43.819  37.286  32.417  1.00  0.00     0.198 A 
ATOM     87  C   UNL A   1      43.143  36.414  34.549  1.00  0.00     0.198 A 
ATOM     88  F   UNL A   1      42.370  34.201  34.725  1.00  0.00    -0.203 F 
ATOM     89  F   UNL A   1      44.329  38.282  31.679  1.00  0.00    -0.200 F 
ATOM     90  C   UNL A   1      43.642  37.456  33.782  1.00  0.00     0.200 A 
ATOM     91  F   UNL A   1      42.955  36.583  35.865  1.00  0.00    -0.200 F 
ATOM     92  F   UNL A   1      43.959  38.623  34.359  1.00  0.00    -0.200 F 
ENDBRANCH  59  82
ENDBRANCH  33  34
ENDBRANCH  25  28
ENDBRANCH  23  24
ENDBRANCH  22  23
ENDBRANCH   1  22
TORSDOF 14
ENDMDL
MODEL 3
REMARK VINA RESULT:     -11.2      2.917      3.905
REMARK SMILES [NH3+][C@H](Cc1cc(Br)c(O)c(Br)c1)C(=O)NCCCNC(=O)c1ccc(-c2c3nc(c(-c4c(F)c(F)c(F)c(F)c4F)c4ccc([nH]4)c(-c4c(F)c(F)c(F)c(F)c4F)c4nc(c(-c5c(F)c(F)c(F)c(F)c5F)c5ccc2[nH]5)C=C4)C=C3)cc1
REMARK SMILES IDX 16 1 15 2 13 3 14 4 2 6 1 7 3 11 4 12 5 13 12 14 6 15 10 16
REMARK SMILES IDX 7 17 8 18 11 19 9 20 17 22 18 23 19 24 20 25 21 27 22 28
REMARK SMILES IDX 23 29 84 30 24 31 83 32 25 33 26 34 27 35 77 36 28 37 82 38
REMARK SMILES IDX 76 39 78 40 29 41 81 42 75 43 74 44 30 46 62 47 42 48 61 49
REMARK SMILES IDX 43 50 46 51 60 52 79 53 44 54 45 55 59 57 80 58 47 59 31 60
REMARK SMILES IDX 32 61 40 62 33 63 34 64 38 65 41 66 35 67 36 68 39 69 37 70
REMARK SMILES IDX 63 71 64 72 72 73 65 74 66 75 70 76 73 77 67 78 68 79 71 80
REMARK SMILES IDX 69 81 48 82 49 83 57 84 50 85 51 86 55 87 58 88 52 89 53 90
REMARK SMILES IDX 56 91 54 92
REMARK H PARENT 15 5 1 8 1 9 1 10 9 21 19 26 78 45 46 56
REMARK Flexibility Score: inf
ROOT
ATOM      1  C   UNL A   1      42.065  19.612  25.834  1.00  0.00     0.118 C 
ENDROOT
BRANCH   1   2
ATOM      2  N   UNL A   1      43.332  18.937  26.020  1.00  0.00    -0.351 N 
ATOM      3  C   UNL A   1      44.483  18.930  25.295  1.00  0.00     0.278 C 
ATOM      4  O   UNL A   1      45.274  18.013  25.556  1.00  0.00    -0.268 OA
ATOM      5  H   UNL A   1      43.368  18.374  26.826  1.00  0.00     0.163 HD
BRANCH   3   6
ATOM      6  C   UNL A   1      44.845  19.975  24.211  1.00  0.00     0.275 C 
BRANCH   6   7
ATOM      7  N   UNL A   1      44.636  19.454  22.850  1.00  0.00    -0.347 N 
ATOM      8  H   UNL A   1      45.516  19.092  22.485  1.00  0.00     0.345 HD
ATOM      9  H   UNL A   1      44.301  20.206  22.247  1.00  0.00     0.345 HD
ATOM     10  H   UNL A   1      43.944  18.705  22.875  1.00  0.00     0.345 HD
ENDBRANCH   6   7
BRANCH   6  11
ATOM     11  C   UNL A   1      46.088  20.862  24.479  1.00  0.00     0.111 C 
BRANCH  11  12
ATOM     12  C   UNL A   1      46.006  22.211  25.162  1.00  0.00    -0.039 A 
ATOM     13  C   UNL A   1      45.315  22.309  26.387  1.00  0.00     0.023 A 
ATOM     14  C   UNL A   1      46.540  23.388  24.621  1.00  0.00     0.023 A 
ATOM     15  C   UNL A   1      45.289  23.510  27.107  1.00  0.00     0.061 A 
ATOM     16  C   UNL A   1      46.543  24.584  25.356  1.00  0.00     0.061 A 
ATOM     17  Br  UNL A   1      44.419  23.554  28.792  1.00  0.00    -0.047 Br
ATOM     18  C   UNL A   1      45.943  24.640  26.615  1.00  0.00     0.143 A 
ATOM     19  Br  UNL A   1      47.492  26.067  24.648  1.00  0.00    -0.047 Br
BRANCH  18  20
ATOM     20  O   UNL A   1      46.045  25.778  27.369  1.00  0.00    -0.506 OA
ATOM     21  H   UNL A   1      46.488  26.530  27.025  1.00  0.00     0.293 HD
ENDBRANCH  18  20
ENDBRANCH  11  12
ENDBRANCH   6  11
ENDBRANCH   3   6
ENDBRANCH   1   2
BRANCH   1  22
ATOM     22  C   UNL A   1      42.113  21.000  26.459  1.00  0.00     0.042 C 
BRANCH  22  23
ATOM     23  C   UNL A   1      40.908  21.403  27.287  1.00  0.00     0.118 C 
BRANCH  23  24
ATOM     24  N   UNL A   1      39.753  21.780  26.485  1.00  0.00    -0.352 N 
ATOM     25  C   UNL A   1      39.087  22.969  26.332  1.00  0.00     0.251 C 
ATOM     26  H   UNL A   1      39.380  21.041  25.952  1.00  0.00     0.163 HD
ATOM     27  O   UNL A   1      38.083  22.985  25.614  1.00  0.00    -0.269 OA
BRANCH  25  28
ATOM     28  C   UNL A   1      39.509  24.225  27.004  1.00  0.00     0.039 A 
ATOM     29  C   UNL A   1      40.209  25.179  26.252  1.00  0.00     0.014 A 
ATOM     30  C   UNL A   1      39.286  24.471  28.359  1.00  0.00     0.014 A 
ATOM     31  C   UNL A   1      40.628  26.377  26.837  1.00  0.00     0.010 A 
ATOM     32  C   UNL A   1      39.597  25.711  28.912  1.00  0.00     0.010 A 
ATOM     33  C   UNL A   1      40.291  26.673  28.166  1.00  0.00    -0.014 A 
BRANCH  33  34
ATOM     34  C   UNL A   1      40.680  27.956  28.810  1.00  0.00     0.031 A 
ATOM     35  C   UNL A   1      42.079  28.139  29.341  1.00  0.00     0.074 A 
ATOM     36  C   UNL A   1      39.761  28.923  28.990  1.00  0.00     0.049 A 
ATOM     37  N   UNL A   1      42.581  29.127  30.039  1.00  0.00    -0.248 NA
ATOM     38  C   UNL A   1      43.033  27.049  29.082  1.00  0.00     0.031 C 
ATOM     39  C   UNL A   1      38.365  28.855  28.558  1.00  0.00     0.029 A 
ATOM     40  N   UNL A   1      39.859  30.151  29.597  1.00  0.00    -0.354 N 
ATOM     41  C   UNL A   1      43.893  28.765  30.320  1.00  0.00     0.074 A 
ATOM     42  C   UNL A   1      44.093  27.442  29.771  1.00  0.00     0.031 C 
ATOM     43  C   UNL A   1      37.742  29.995  28.896  1.00  0.00     0.029 A 
ATOM     44  C   UNL A   1      38.681  30.857  29.607  1.00  0.00     0.049 A 
ATOM     45  H   UNL A   1      40.695  30.493  29.989  1.00  0.00     0.167 HD
ATOM     46  C   UNL A   1      44.853  29.479  30.956  1.00  0.00     0.037 A 
ATOM     47  C   UNL A   1      38.387  32.059  30.139  1.00  0.00     0.037 A 
ATOM     48  C   UNL A   1      44.659  30.810  31.471  1.00  0.00     0.049 A 
ATOM     49  C   UNL A   1      39.470  32.831  30.846  1.00  0.00     0.074 A 
ATOM     50  C   UNL A   1      45.582  31.645  32.076  1.00  0.00     0.029 A 
ATOM     51  N   UNL A   1      43.456  31.501  31.439  1.00  0.00    -0.354 N 
ATOM     52  N   UNL A   1      40.722  32.504  31.053  1.00  0.00    -0.248 NA
ATOM     53  C   UNL A   1      39.097  34.147  31.388  1.00  0.00     0.031 C 
ATOM     54  C   UNL A   1      44.926  32.820  32.456  1.00  0.00     0.029 A 
ATOM     55  C   UNL A   1      43.608  32.743  32.034  1.00  0.00     0.049 A 
ATOM     56  H   UNL A   1      42.619  31.160  31.050  1.00  0.00     0.167 HD
ATOM     57  C   UNL A   1      41.294  33.579  31.717  1.00  0.00     0.074 A 
ATOM     58  C   UNL A   1      40.256  34.578  31.866  1.00  0.00     0.031 C 
ATOM     59  C   UNL A   1      42.565  33.728  32.164  1.00  0.00     0.037 A 
BRANCH  46  60
ATOM     60  C   UNL A   1      46.202  28.838  31.132  1.00  0.00     0.064 A 
ATOM     61  C   UNL A   1      47.207  28.956  30.160  1.00  0.00     0.173 A 
ATOM     62  C   UNL A   1      46.506  28.125  32.301  1.00  0.00     0.173 A 
ATOM     63  F   UNL A   1      46.968  29.618  29.018  1.00  0.00    -0.203 F 
ATOM     64  C   UNL A   1      48.452  28.356  30.336  1.00  0.00     0.198 A 
ATOM     65  C   UNL A   1      47.762  27.556  32.490  1.00  0.00     0.198 A 
ATOM     66  F   UNL A   1      45.585  27.985  33.268  1.00  0.00    -0.203 F 
ATOM     67  F   UNL A   1      49.375  28.435  29.368  1.00  0.00    -0.200 F 
ATOM     68  C   UNL A   1      48.730  27.663  31.504  1.00  0.00     0.200 A 
ATOM     69  F   UNL A   1      48.035  26.900  33.626  1.00  0.00    -0.200 F 
ATOM     70  F   UNL A   1      49.931  27.093  31.677  1.00  0.00    -0.200 F 
ENDBRANCH  46  60
BRANCH  47  71
ATOM     71  C   UNL A   1      37.015  32.616  30.007  1.00  0.00     0.064 A 
ATOM     72  C   UNL A   1      36.081  32.481  31.045  1.00  0.00     0.173 A 
ATOM     73  C   UNL A   1      36.605  33.289  28.847  1.00  0.00     0.173 A 
ATOM     74  F   UNL A   1      36.418  31.828  32.167  1.00  0.00    -0.203 F 
ATOM     75  C   UNL A   1      34.785  32.975  30.918  1.00  0.00     0.198 A 
ATOM     76  C   UNL A   1      35.318  33.811  28.734  1.00  0.00     0.198 A 
ATOM     77  F   UNL A   1      37.461  33.453  27.828  1.00  0.00    -0.203 F 
ATOM     78  F   UNL A   1      33.899  32.787  31.905  1.00  0.00    -0.200 F 
ATOM     79  C   UNL A   1      34.406  33.645  29.765  1.00  0.00     0.200 A 
ATOM     80  F   UNL A   1      34.962  34.473  27.624  1.00  0.00    -0.200 F 
ATOM     81  F   UNL A   1      33.160  34.125  29.644  1.00  0.00    -0.200 F 
ENDBRANCH  47  71
BRANCH  59  82
ATOM     82  C   UNL A   1      42.917  35.034  32.820  1.00  0.00     0.064 A 
ATOM     83  C   UNL A   1      43.431  36.113  32.087  1.00  0.00     0.173 A 
ATOM     84  C   UNL A   1      42.700  35.217  34.194  1.00  0.00     0.173 A 
ATOM     85  F   UNL A   1      43.671  35.984  30.773  1.00  0.00    -0.203 F 
ATOM     86  C   UNL A   1      43.740  37.319  32.711  1.00  0.00     0.198 A 
ATOM     87  C   UNL A   1      42.978  36.434  34.808  1.00  0.00     0.198 A 
ATOM     88  F   UNL A   1      42.203  34.219  34.940  1.00  0.00    -0.203 F 
ATOM     89  F   UNL A   1      44.279  38.320  32.001  1.00  0.00    -0.200 F 
ATOM     90  C   UNL A   1      43.506  37.481  34.069  1.00  0.00     0.200 A 
ATOM     91  F   UNL A   1      42.735  36.595  36.116  1.00  0.00    -0.200 F 
ATOM     92  F   UNL A   1      43.796  38.645  34.665  1.00  0.00    -0.200 F 
ENDBRANCH  59  82
ENDBRANCH  33  34
ENDBRANCH  25  28
ENDBRANCH  23  24
ENDBRANCH  22  23
ENDBRANCH   1  22
TORSDOF 14
ENDMDL
