MODEL 1
REMARK VINA RESULT:     -13.0      0.000      0.000
REMARK SMILES CCN(CC)c1ccc([C@@H]2[NH2+][C@H](C(=O)NCCCNC(=O)c3ccc(-c4c5nc(c(-c6c(F)c(F)c(F)c(F)c6F)c6ccc([nH]6)c(-c6c(F)c(F)c(F)c(F)c6F)c6nc(c(-c7c(F)c(F)c(F)c(F)c7F)c7ccc4[nH]7)C=C6)C=C5)cc3)Cc3c2[nH]c2ccccc32)cc1
REMARK SMILES IDX 16 1 15 2 13 3 14 4 12 6 10 7 11 8 87 9 86 12 88 13 85 14
REMARK SMILES IDX 94 15 89 16 93 18 90 19 92 20 91 21 9 22 6 23 7 24 96 25
REMARK SMILES IDX 8 26 95 27 3 28 2 29 1 30 4 31 5 32 17 33 18 34 19 35 20 36
REMARK SMILES IDX 21 38 22 39 23 40 84 41 24 42 83 43 25 44 26 45 27 46 77 47
REMARK SMILES IDX 28 48 82 49 76 50 78 51 29 52 81 53 75 54 74 55 30 57 62 58
REMARK SMILES IDX 42 59 61 60 43 61 46 62 60 63 79 64 44 65 45 66 59 68 80 69
REMARK SMILES IDX 47 70 31 71 32 72 40 73 33 74 34 75 38 76 41 77 35 78 36 79
REMARK SMILES IDX 39 80 37 81 63 82 64 83 72 84 65 85 66 86 70 87 73 88 67 89
REMARK SMILES IDX 68 90 71 91 69 92 48 93 49 94 57 95 50 96 51 97 55 98 58 99
REMARK SMILES IDX 52 100 53 101 56 102 54 103
REMARK H PARENT 15 5 11 10 11 11 88 17 19 37 78 56 46 67
REMARK Flexibility Score: inf
ROOT
ATOM      1  C   UNL A   1      32.473  26.609  25.597  1.00  0.00     0.118 C 
ENDROOT
BRANCH   1   2
ATOM      2  N   UNL A   1      32.040  25.615  26.558  1.00  0.00    -0.351 N 
ATOM      3  C   UNL A   1      31.830  24.279  26.549  1.00  0.00     0.278 C 
ATOM      4  O   UNL A   1      31.538  23.809  27.660  1.00  0.00    -0.268 OA
ATOM      5  H   UNL A   1      31.853  26.012  27.440  1.00  0.00     0.163 HD
BRANCH   3   6
ATOM      6  C   UNL A   1      31.788  23.357  25.295  1.00  0.00     0.277 C 
ATOM      7  C   UNL A   1      33.591  22.612  23.578  1.00  0.00     0.262 C 
ATOM      8  N   UNL A   1      33.033  23.622  24.514  1.00  0.00    -0.325 N 
ATOM      9  C   UNL A   1      32.792  21.355  23.652  1.00  0.00     0.083 A 
ATOM     10  H   UNL A   1      32.853  24.459  23.961  1.00  0.00     0.347 HD
ATOM     11  H   UNL A   1      33.745  23.663  25.244  1.00  0.00     0.347 HD
ATOM     12  C   UNL A   1      32.052  20.935  24.728  1.00  0.00    -0.006 A 
ATOM     13  N   UNL A   1      32.667  20.319  22.760  1.00  0.00    -0.353 N 
ATOM     14  C   UNL A   1      31.287  21.917  25.505  1.00  0.00     0.114 C 
ATOM     15  C   UNL A   1      32.447  19.585  24.849  1.00  0.00     0.003 A 
ATOM     16  C   UNL A   1      32.549  19.163  23.519  1.00  0.00     0.046 A 
ATOM     17  H   UNL A   1      32.662  20.384  21.777  1.00  0.00     0.166 HD
ATOM     18  C   UNL A   1      32.732  18.658  25.870  1.00  0.00     0.010 A 
ATOM     19  C   UNL A   1      32.610  17.816  23.162  1.00  0.00     0.026 A 
ATOM     20  C   UNL A   1      33.030  17.338  25.511  1.00  0.00     0.001 A 
ATOM     21  C   UNL A   1      32.879  16.909  24.191  1.00  0.00     0.002 A 
BRANCH   7  22
ATOM     22  C   UNL A   1      35.079  22.374  23.984  1.00  0.00     0.016 A 
ATOM     23  C   UNL A   1      37.640  22.341  25.303  1.00  0.00     0.037 A 
ATOM     24  C   UNL A   1      36.765  21.255  25.365  1.00  0.00     0.026 A 
ATOM     25  C   UNL A   1      37.292  23.334  24.380  1.00  0.00     0.026 A 
ATOM     26  C   UNL A   1      35.510  21.271  24.732  1.00  0.00     0.012 A 
ATOM     27  C   UNL A   1      36.058  23.341  23.708  1.00  0.00     0.012 A 
BRANCH  23  28
ATOM     28  N   UNL A   1      38.767  22.447  26.113  1.00  0.00    -0.372 N 
BRANCH  28  29
ATOM     29  C   UNL A   1      39.595  21.250  26.357  1.00  0.00     0.113 C 
ATOM     30  C   UNL A   1      40.684  21.458  27.397  1.00  0.00     0.027 C 
ENDBRANCH  28  29
BRANCH  28  31
ATOM     31  C   UNL A   1      39.408  23.747  26.366  1.00  0.00     0.113 C 
ATOM     32  C   UNL A   1      38.682  24.579  27.422  1.00  0.00     0.027 C 
ENDBRANCH  28  31
ENDBRANCH  23  28
ENDBRANCH   7  22
ENDBRANCH   3   6
ENDBRANCH   1   2
BRANCH   1  33
ATOM     33  C   UNL A   1      33.663  27.425  26.070  1.00  0.00     0.042 C 
BRANCH  33  34
ATOM     34  C   UNL A   1      33.853  28.687  25.241  1.00  0.00     0.118 C 
BRANCH  34  35
ATOM     35  N   UNL A   1      33.134  29.844  25.758  1.00  0.00    -0.352 N 
ATOM     36  C   UNL A   1      33.409  30.686  26.808  1.00  0.00     0.251 C 
ATOM     37  H   UNL A   1      32.307  30.060  25.270  1.00  0.00     0.163 HD
ATOM     38  O   UNL A   1      32.590  31.543  27.117  1.00  0.00    -0.269 OA
BRANCH  36  39
ATOM     39  C   UNL A   1      34.666  30.566  27.583  1.00  0.00     0.039 A 
ATOM     40  C   UNL A   1      35.537  31.662  27.627  1.00  0.00     0.014 A 
ATOM     41  C   UNL A   1      35.023  29.380  28.224  1.00  0.00     0.014 A 
ATOM     42  C   UNL A   1      36.731  31.580  28.347  1.00  0.00     0.010 A 
ATOM     43  C   UNL A   1      36.150  29.338  29.036  1.00  0.00     0.010 A 
ATOM     44  C   UNL A   1      37.034  30.424  29.082  1.00  0.00    -0.014 A 
BRANCH  44  45
ATOM     45  C   UNL A   1      38.290  30.289  29.861  1.00  0.00     0.031 A 
ATOM     46  C   UNL A   1      39.454  29.538  29.271  1.00  0.00     0.074 A 
ATOM     47  C   UNL A   1      38.356  30.755  31.122  1.00  0.00     0.049 A 
ATOM     48  N   UNL A   1      40.580  29.171  29.830  1.00  0.00    -0.248 NA
ATOM     49  C   UNL A   1      39.310  29.093  27.875  1.00  0.00     0.031 C 
ATOM     50  C   UNL A   1      37.282  31.459  31.822  1.00  0.00     0.029 A 
ATOM     51  N   UNL A   1      39.373  30.698  32.041  1.00  0.00    -0.354 N 
ATOM     52  C   UNL A   1      41.247  28.413  28.874  1.00  0.00     0.074 A 
ATOM     53  C   UNL A   1      40.377  28.325  27.723  1.00  0.00     0.031 C 
ATOM     54  C   UNL A   1      37.710  31.805  33.047  1.00  0.00     0.029 A 
ATOM     55  C   UNL A   1      39.069  31.307  33.233  1.00  0.00     0.049 A 
ATOM     56  H   UNL A   1      40.237  30.263  31.862  1.00  0.00     0.167 HD
ATOM     57  C   UNL A   1      42.482  27.862  28.942  1.00  0.00     0.037 A 
ATOM     58  C   UNL A   1      39.809  31.446  34.350  1.00  0.00     0.037 A 
ATOM     59  C   UNL A   1      43.368  28.017  30.064  1.00  0.00     0.049 A 
ATOM     60  C   UNL A   1      41.193  30.861  34.389  1.00  0.00     0.074 A 
ATOM     61  C   UNL A   1      44.675  27.584  30.200  1.00  0.00     0.029 A 
ATOM     62  N   UNL A   1      43.036  28.669  31.243  1.00  0.00    -0.354 N 
ATOM     63  N   UNL A   1      41.835  30.192  33.462  1.00  0.00    -0.248 NA
ATOM     64  C   UNL A   1      41.955  31.051  35.630  1.00  0.00     0.031 C 
ATOM     65  C   UNL A   1      45.121  27.942  31.477  1.00  0.00     0.029 A 
ATOM     66  C   UNL A   1      44.107  28.635  32.121  1.00  0.00     0.049 A 
ATOM     67  H   UNL A   1      42.167  29.093  31.428  1.00  0.00     0.167 HD
ATOM     68  C   UNL A   1      43.084  29.903  33.995  1.00  0.00     0.074 A 
ATOM     69  C   UNL A   1      43.111  30.480  35.325  1.00  0.00     0.031 C 
ATOM     70  C   UNL A   1      44.115  29.221  33.436  1.00  0.00     0.037 A 
BRANCH  57  71
ATOM     71  C   UNL A   1      42.938  27.042  27.768  1.00  0.00     0.064 A 
ATOM     72  C   UNL A   1      42.642  25.674  27.656  1.00  0.00     0.173 A 
ATOM     73  C   UNL A   1      43.688  27.633  26.738  1.00  0.00     0.173 A 
ATOM     74  F   UNL A   1      41.940  25.055  28.617  1.00  0.00    -0.203 F 
ATOM     75  C   UNL A   1      43.121  24.920  26.588  1.00  0.00     0.198 A 
ATOM     76  C   UNL A   1      44.134  26.884  25.652  1.00  0.00     0.198 A 
ATOM     77  F   UNL A   1      43.994  28.939  26.787  1.00  0.00    -0.203 F 
ATOM     78  F   UNL A   1      42.888  23.601  26.544  1.00  0.00    -0.200 F 
ATOM     79  C   UNL A   1      43.863  25.526  25.585  1.00  0.00     0.200 A 
ATOM     80  F   UNL A   1      44.840  27.473  24.678  1.00  0.00    -0.200 F 
ATOM     81  F   UNL A   1      44.328  24.797  24.560  1.00  0.00    -0.200 F 
ENDBRANCH  57  71
BRANCH  58  82
ATOM     82  C   UNL A   1      39.269  32.221  35.496  1.00  0.00     0.064 A 
ATOM     83  C   UNL A   1      38.497  31.587  36.478  1.00  0.00     0.173 A 
ATOM     84  C   UNL A   1      39.539  33.587  35.655  1.00  0.00     0.173 A 
ATOM     85  F   UNL A   1      38.200  30.285  36.358  1.00  0.00    -0.203 F 
ATOM     86  C   UNL A   1      38.006  32.293  37.574  1.00  0.00     0.198 A 
ATOM     87  C   UNL A   1      39.067  34.287  36.764  1.00  0.00     0.198 A 
ATOM     88  F   UNL A   1      40.280  34.237  34.746  1.00  0.00    -0.203 F 
ATOM     89  F   UNL A   1      37.246  31.669  38.485  1.00  0.00    -0.200 F 
ATOM     90  C   UNL A   1      38.298  33.640  37.721  1.00  0.00     0.200 A 
ATOM     91  F   UNL A   1      39.363  35.585  36.910  1.00  0.00    -0.200 F 
ATOM     92  F   UNL A   1      37.836  34.316  38.782  1.00  0.00    -0.200 F 
ENDBRANCH  58  82
BRANCH  70  93
ATOM     93  C   UNL A   1      45.369  29.092  34.247  1.00  0.00     0.064 A 
ATOM     94  C   UNL A   1      46.380  30.065  34.196  1.00  0.00     0.173 A 
ATOM     95  C   UNL A   1      45.543  28.006  35.118  1.00  0.00     0.173 A 
ATOM     96  F   UNL A   1      46.265  31.114  33.368  1.00  0.00    -0.203 F 
ATOM     97  C   UNL A   1      47.529  29.942  34.972  1.00  0.00     0.198 A 
ATOM     98  C   UNL A   1      46.680  27.901  35.912  1.00  0.00     0.198 A 
ATOM     99  F   UNL A   1      44.603  27.054  35.207  1.00  0.00    -0.203 F 
ATOM    100  F   UNL A   1      48.501  30.859  34.876  1.00  0.00    -0.200 F 
ATOM    101  C   UNL A   1      47.675  28.865  35.834  1.00  0.00     0.200 A 
ATOM    102  F   UNL A   1      46.814  26.867  36.755  1.00  0.00    -0.200 F 
ATOM    103  F   UNL A   1      48.779  28.751  36.586  1.00  0.00    -0.200 F 
ENDBRANCH  70  93
ENDBRANCH  44  45
ENDBRANCH  36  39
ENDBRANCH  34  35
ENDBRANCH  33  34
ENDBRANCH   1  33
TORSDOF 14
ENDMDL
MODEL 2
REMARK VINA RESULT:     -13.0      0.641      7.160
REMARK SMILES CCN(CC)c1ccc([C@@H]2[NH2+][C@H](C(=O)NCCCNC(=O)c3ccc(-c4c5nc(c(-c6c(F)c(F)c(F)c(F)c6F)c6ccc([nH]6)c(-c6c(F)c(F)c(F)c(F)c6F)c6nc(c(-c7c(F)c(F)c(F)c(F)c7F)c7ccc4[nH]7)C=C6)C=C5)cc3)Cc3c2[nH]c2ccccc32)cc1
REMARK SMILES IDX 16 1 15 2 13 3 14 4 12 6 10 7 11 8 87 9 86 12 88 13 85 14
REMARK SMILES IDX 94 15 89 16 93 18 90 19 92 20 91 21 9 22 6 23 7 24 96 25
REMARK SMILES IDX 8 26 95 27 3 28 2 29 1 30 4 31 5 32 17 33 18 34 19 35 20 36
REMARK SMILES IDX 21 38 22 39 23 40 84 41 24 42 83 43 25 44 26 45 27 46 77 47
REMARK SMILES IDX 28 48 82 49 76 50 78 51 29 52 81 53 75 54 74 55 30 57 62 58
REMARK SMILES IDX 42 59 61 60 43 61 46 62 60 63 79 64 44 65 45 66 59 68 80 69
REMARK SMILES IDX 47 70 31 71 32 72 40 73 33 74 34 75 38 76 41 77 35 78 36 79
REMARK SMILES IDX 39 80 37 81 63 82 64 83 72 84 65 85 66 86 70 87 73 88 67 89
REMARK SMILES IDX 68 90 71 91 69 92 48 93 49 94 57 95 50 96 51 97 55 98 58 99
REMARK SMILES IDX 52 100 53 101 56 102 54 103
REMARK H PARENT 15 5 11 10 11 11 88 17 19 37 78 56 46 67
REMARK Flexibility Score: inf
ROOT
ATOM      1  C   UNL A   1      31.868  26.694  25.903  1.00  0.00     0.118 C 
ENDROOT
BRANCH   1   2
ATOM      2  N   UNL A   1      31.773  25.579  26.824  1.00  0.00    -0.351 N 
ATOM      3  C   UNL A   1      31.817  24.231  26.729  1.00  0.00     0.278 C 
ATOM      4  O   UNL A   1      31.781  23.649  27.824  1.00  0.00    -0.268 OA
ATOM      5  H   UNL A   1      31.645  25.880  27.753  1.00  0.00     0.163 HD
BRANCH   3   6
ATOM      6  C   UNL A   1      31.766  23.393  25.417  1.00  0.00     0.277 C 
ATOM      7  C   UNL A   1      33.554  22.776  23.636  1.00  0.00     0.262 C 
ATOM      8  N   UNL A   1      33.001  23.718  24.642  1.00  0.00    -0.325 N 
ATOM      9  C   UNL A   1      32.764  21.511  23.635  1.00  0.00     0.083 A 
ATOM     10  H   UNL A   1      32.809  24.589  24.147  1.00  0.00     0.347 HD
ATOM     11  H   UNL A   1      33.721  23.716  25.365  1.00  0.00     0.347 HD
ATOM     12  C   UNL A   1      32.039  21.016  24.689  1.00  0.00    -0.006 A 
ATOM     13  N   UNL A   1      32.635  20.536  22.678  1.00  0.00    -0.353 N 
ATOM     14  C   UNL A   1      31.277  21.939  25.538  1.00  0.00     0.114 C 
ATOM     15  C   UNL A   1      32.444  19.664  24.717  1.00  0.00     0.003 A 
ATOM     16  C   UNL A   1      32.533  19.331  23.361  1.00  0.00     0.046 A 
ATOM     17  H   UNL A   1      32.618  20.665  21.702  1.00  0.00     0.166 HD
ATOM     18  C   UNL A   1      32.745  18.674  25.671  1.00  0.00     0.010 A 
ATOM     19  C   UNL A   1      32.598  18.011  22.915  1.00  0.00     0.026 A 
ATOM     20  C   UNL A   1      33.048  17.382  25.223  1.00  0.00     0.001 A 
ATOM     21  C   UNL A   1      32.884  17.040  23.879  1.00  0.00     0.002 A 
BRANCH   7  22
ATOM     22  C   UNL A   1      35.048  22.522  24.009  1.00  0.00     0.016 A 
ATOM     23  C   UNL A   1      37.614  22.385  25.311  1.00  0.00     0.037 A 
ATOM     24  C   UNL A   1      36.761  21.281  25.245  1.00  0.00     0.026 A 
ATOM     25  C   UNL A   1      37.242  23.473  24.513  1.00  0.00     0.026 A 
ATOM     26  C   UNL A   1      35.504  21.347  24.619  1.00  0.00     0.012 A 
ATOM     27  C   UNL A   1      36.006  23.534  23.848  1.00  0.00     0.012 A 
BRANCH  23  28
ATOM     28  N   UNL A   1      38.741  22.417  26.126  1.00  0.00    -0.372 N 
BRANCH  28  29
ATOM     29  C   UNL A   1      39.524  21.182  26.325  1.00  0.00     0.113 C 
ATOM     30  C   UNL A   1      40.669  21.331  27.313  1.00  0.00     0.027 C 
ENDBRANCH  28  29
BRANCH  28  31
ATOM     31  C   UNL A   1      39.429  23.681  26.432  1.00  0.00     0.113 C 
ATOM     32  C   UNL A   1      38.830  24.416  27.630  1.00  0.00     0.027 C 
ENDBRANCH  28  31
ENDBRANCH  23  28
ENDBRANCH   7  22
ENDBRANCH   3   6
ENDBRANCH   1   2
BRANCH   1  33
ATOM     33  C   UNL A   1      31.992  28.038  26.597  1.00  0.00     0.042 C 
BRANCH  33  34
ATOM     34  C   UNL A   1      32.900  28.992  25.834  1.00  0.00     0.118 C 
BRANCH  34  35
ATOM     35  N   UNL A   1      32.644  30.398  26.113  1.00  0.00    -0.352 N 
ATOM     36  C   UNL A   1      33.277  31.287  26.947  1.00  0.00     0.251 C 
ATOM     37  H   UNL A   1      31.883  30.779  25.616  1.00  0.00     0.163 HD
ATOM     38  O   UNL A   1      32.809  32.410  27.092  1.00  0.00    -0.269 OA
BRANCH  36  39
ATOM     39  C   UNL A   1      34.502  30.907  27.690  1.00  0.00     0.039 A 
ATOM     40  C   UNL A   1      35.469  31.889  27.939  1.00  0.00     0.014 A 
ATOM     41  C   UNL A   1      34.734  29.595  28.100  1.00  0.00     0.014 A 
ATOM     42  C   UNL A   1      36.636  31.562  28.634  1.00  0.00     0.010 A 
ATOM     43  C   UNL A   1      35.836  29.297  28.892  1.00  0.00     0.010 A 
ATOM     44  C   UNL A   1      36.816  30.267  29.143  1.00  0.00    -0.014 A 
BRANCH  44  45
ATOM     45  C   UNL A   1      38.038  29.872  29.886  1.00  0.00     0.031 A 
ATOM     46  C   UNL A   1      38.234  30.348  31.302  1.00  0.00     0.074 A 
ATOM     47  C   UNL A   1      39.006  29.170  29.269  1.00  0.00     0.049 A 
ATOM     48  N   UNL A   1      39.285  30.250  32.076  1.00  0.00    -0.248 NA
ATOM     49  C   UNL A   1      37.111  31.079  31.911  1.00  0.00     0.031 C 
ATOM     50  C   UNL A   1      38.956  28.691  27.888  1.00  0.00     0.029 A 
ATOM     51  N   UNL A   1      40.228  28.745  29.726  1.00  0.00    -0.354 N 
ATOM     52  C   UNL A   1      38.967  30.951  33.234  1.00  0.00     0.074 A 
ATOM     53  C   UNL A   1      37.650  31.514  33.039  1.00  0.00     0.031 C 
ATOM     54  C   UNL A   1      40.077  28.002  27.623  1.00  0.00     0.029 A 
ATOM     55  C   UNL A   1      40.942  28.031  28.797  1.00  0.00     0.049 A 
ATOM     56  H   UNL A   1      40.559  28.933  30.634  1.00  0.00     0.167 HD
ATOM     57  C   UNL A   1      39.697  31.090  34.367  1.00  0.00     0.037 A 
ATOM     58  C   UNL A   1      42.161  27.465  28.887  1.00  0.00     0.037 A 
ATOM     59  C   UNL A   1      40.974  30.465  34.579  1.00  0.00     0.049 A 
ATOM     60  C   UNL A   1      42.938  27.597  30.168  1.00  0.00     0.074 A 
ATOM     61  C   UNL A   1      41.756  30.458  35.720  1.00  0.00     0.029 A 
ATOM     62  N   UNL A   1      41.654  29.722  33.623  1.00  0.00    -0.354 N 
ATOM     63  N   UNL A   1      42.607  28.216  31.276  1.00  0.00    -0.248 NA
ATOM     64  C   UNL A   1      44.256  26.953  30.210  1.00  0.00     0.031 C 
ATOM     65  C   UNL A   1      42.926  29.742  35.443  1.00  0.00     0.029 A 
ATOM     66  C   UNL A   1      42.854  29.267  34.143  1.00  0.00     0.049 A 
ATOM     67  H   UNL A   1      41.329  29.544  32.711  1.00  0.00     0.167 HD
ATOM     68  C   UNL A   1      43.661  28.015  32.155  1.00  0.00     0.074 A 
ATOM     69  C   UNL A   1      44.639  27.207  31.453  1.00  0.00     0.031 C 
ATOM     70  C   UNL A   1      43.809  28.459  33.428  1.00  0.00     0.037 A 
BRANCH  57  71
ATOM     71  C   UNL A   1      39.124  31.952  35.457  1.00  0.00     0.064 A 
ATOM     72  C   UNL A   1      39.368  33.333  35.517  1.00  0.00     0.173 A 
ATOM     73  C   UNL A   1      38.320  31.387  36.459  1.00  0.00     0.173 A 
ATOM     74  F   UNL A   1      40.140  33.924  34.592  1.00  0.00    -0.203 F 
ATOM     75  C   UNL A   1      38.874  34.105  36.566  1.00  0.00     0.198 A 
ATOM     76  C   UNL A   1      37.797  32.169  37.487  1.00  0.00     0.198 A 
ATOM     77  F   UNL A   1      38.046  30.074  36.448  1.00  0.00    -0.203 F 
ATOM     78  F   UNL A   1      39.184  35.407  36.641  1.00  0.00    -0.200 F 
ATOM     79  C   UNL A   1      38.085  33.524  37.547  1.00  0.00     0.200 A 
ATOM     80  F   UNL A   1      37.025  31.608  38.427  1.00  0.00    -0.200 F 
ATOM     81  F   UNL A   1      37.615  34.268  38.558  1.00  0.00    -0.200 F 
ENDBRANCH  57  71
BRANCH  58  82
ATOM     82  C   UNL A   1      42.690  26.675  27.747  1.00  0.00     0.064 A 
ATOM     83  C   UNL A   1      43.393  27.307  26.712  1.00  0.00     0.173 A 
ATOM     84  C   UNL A   1      42.539  25.283  27.681  1.00  0.00     0.173 A 
ATOM     85  F   UNL A   1      43.547  28.638  26.726  1.00  0.00    -0.203 F 
ATOM     86  C   UNL A   1      43.919  26.578  25.649  1.00  0.00     0.198 A 
ATOM     87  C   UNL A   1      43.086  24.551  26.628  1.00  0.00     0.198 A 
ATOM     88  F   UNL A   1      41.880  24.631  28.650  1.00  0.00    -0.203 F 
ATOM     89  F   UNL A   1      44.564  27.210  24.659  1.00  0.00    -0.200 F 
ATOM     90  C   UNL A   1      43.773  25.199  25.612  1.00  0.00     0.200 A 
ATOM     91  F   UNL A   1      42.955  23.218  26.603  1.00  0.00    -0.200 F 
ATOM     92  F   UNL A   1      44.290  24.496  24.595  1.00  0.00    -0.200 F 
ENDBRANCH  58  82
BRANCH  70  93
ATOM     93  C   UNL A   1      45.056  28.052  34.155  1.00  0.00     0.064 A 
ATOM     94  C   UNL A   1      46.225  28.825  34.096  1.00  0.00     0.173 A 
ATOM     95  C   UNL A   1      45.068  26.898  34.953  1.00  0.00     0.173 A 
ATOM     96  F   UNL A   1      46.267  29.929  33.335  1.00  0.00    -0.203 F 
ATOM     97  C   UNL A   1      47.368  28.445  34.794  1.00  0.00     0.198 A 
ATOM     98  C   UNL A   1      46.203  26.536  35.671  1.00  0.00     0.198 A 
ATOM     99  F   UNL A   1      43.973  26.129  35.046  1.00  0.00    -0.203 F 
ATOM    100  F   UNL A   1      48.487  29.174  34.690  1.00  0.00    -0.200 F 
ATOM    101  C   UNL A   1      47.354  27.306  35.586  1.00  0.00     0.200 A 
ATOM    102  F   UNL A   1      46.184  25.443  36.446  1.00  0.00    -0.200 F 
ATOM    103  F   UNL A   1      48.453  26.946  36.263  1.00  0.00    -0.200 F 
ENDBRANCH  70  93
ENDBRANCH  44  45
ENDBRANCH  36  39
ENDBRANCH  34  35
ENDBRANCH  33  34
ENDBRANCH   1  33
TORSDOF 14
ENDMDL
MODEL 3
REMARK VINA RESULT:     -13.0      3.714      6.921
REMARK SMILES CCN(CC)c1ccc([C@@H]2[NH2+][C@H](C(=O)NCCCNC(=O)c3ccc(-c4c5nc(c(-c6c(F)c(F)c(F)c(F)c6F)c6ccc([nH]6)c(-c6c(F)c(F)c(F)c(F)c6F)c6nc(c(-c7c(F)c(F)c(F)c(F)c7F)c7ccc4[nH]7)C=C6)C=C5)cc3)Cc3c2[nH]c2ccccc32)cc1
REMARK SMILES IDX 16 1 15 2 13 3 14 4 12 6 10 7 11 8 87 9 86 12 88 13 85 14
REMARK SMILES IDX 94 15 89 16 93 18 90 19 92 20 91 21 9 22 6 23 7 24 96 25
REMARK SMILES IDX 8 26 95 27 3 28 2 29 1 30 4 31 5 32 17 33 18 34 19 35 20 36
REMARK SMILES IDX 21 38 22 39 23 40 84 41 24 42 83 43 25 44 26 45 27 46 77 47
REMARK SMILES IDX 28 48 82 49 76 50 78 51 29 52 81 53 75 54 74 55 30 57 62 58
REMARK SMILES IDX 42 59 61 60 43 61 46 62 60 63 79 64 44 65 45 66 59 68 80 69
REMARK SMILES IDX 47 70 31 71 32 72 40 73 33 74 34 75 38 76 41 77 35 78 36 79
REMARK SMILES IDX 39 80 37 81 63 82 64 83 72 84 65 85 66 86 70 87 73 88 67 89
REMARK SMILES IDX 68 90 71 91 69 92 48 93 49 94 57 95 50 96 51 97 55 98 58 99
REMARK SMILES IDX 52 100 53 101 56 102 54 103
REMARK H PARENT 15 5 11 10 11 11 88 17 19 37 78 56 46 67
REMARK Flexibility Score: inf
ROOT
ATOM      1  C   UNL A   1      34.252  21.577  24.835  1.00  0.00     0.118 C 
ENDROOT
BRANCH   1   2
ATOM      2  N   UNL A   1      34.460  22.537  23.771  1.00  0.00    -0.351 N 
ATOM      3  C   UNL A   1      33.792  23.606  23.280  1.00  0.00     0.278 C 
ATOM      4  O   UNL A   1      34.404  24.212  22.386  1.00  0.00    -0.268 OA
ATOM      5  H   UNL A   1      35.298  22.370  23.283  1.00  0.00     0.163 HD
BRANCH   3   6
ATOM      6  C   UNL A   1      32.334  24.027  23.629  1.00  0.00     0.277 C 
ATOM      7  C   UNL A   1      31.294  25.335  25.619  1.00  0.00     0.262 C 
ATOM      8  N   UNL A   1      32.325  24.416  25.071  1.00  0.00    -0.325 N 
ATOM      9  C   UNL A   1      30.419  25.832  24.518  1.00  0.00     0.083 A 
ATOM     10  H   UNL A   1      32.249  23.549  25.602  1.00  0.00     0.347 HD
ATOM     11  H   UNL A   1      33.179  24.967  25.156  1.00  0.00     0.347 HD
ATOM     12  C   UNL A   1      30.769  25.930  23.195  1.00  0.00    -0.006 A 
ATOM     13  N   UNL A   1      29.155  26.366  24.550  1.00  0.00    -0.353 N 
ATOM     14  C   UNL A   1      31.585  24.874  22.585  1.00  0.00     0.114 C 
ATOM     15  C   UNL A   1      30.330  27.231  22.870  1.00  0.00     0.003 A 
ATOM     16  C   UNL A   1      29.119  27.340  23.563  1.00  0.00     0.046 A 
ATOM     17  H   UNL A   1      28.421  26.108  25.154  1.00  0.00     0.166 HD
ATOM     18  C   UNL A   1      30.763  28.328  22.101  1.00  0.00     0.010 A 
ATOM     19  C   UNL A   1      28.183  28.337  23.286  1.00  0.00     0.026 A 
ATOM     20  C   UNL A   1      29.928  29.448  22.002  1.00  0.00     0.001 A 
ATOM     21  C   UNL A   1      28.627  29.411  22.508  1.00  0.00     0.002 A 
BRANCH   7  22
ATOM     22  C   UNL A   1      32.045  26.503  26.331  1.00  0.00     0.016 A 
ATOM     23  C   UNL A   1      33.323  28.993  27.014  1.00  0.00     0.037 A 
ATOM     24  C   UNL A   1      32.034  28.682  27.451  1.00  0.00     0.026 A 
ATOM     25  C   UNL A   1      34.025  27.932  26.428  1.00  0.00     0.026 A 
ATOM     26  C   UNL A   1      31.403  27.473  27.112  1.00  0.00     0.012 A 
ATOM     27  C   UNL A   1      33.417  26.703  26.121  1.00  0.00     0.012 A 
BRANCH  23  28
ATOM     28  N   UNL A   1      33.869  30.267  27.127  1.00  0.00    -0.372 N 
BRANCH  28  29
ATOM     29  C   UNL A   1      32.973  31.422  27.324  1.00  0.00     0.113 C 
ATOM     30  C   UNL A   1      33.647  32.624  27.966  1.00  0.00     0.027 C 
ENDBRANCH  28  29
BRANCH  28  31
ATOM     31  C   UNL A   1      35.279  30.465  27.500  1.00  0.00     0.113 C 
ATOM     32  C   UNL A   1      35.686  29.684  28.748  1.00  0.00     0.027 C 
ENDBRANCH  28  31
ENDBRANCH  23  28
ENDBRANCH   7  22
ENDBRANCH   3   6
ENDBRANCH   1   2
BRANCH   1  33
ATOM     33  C   UNL A   1      34.905  21.981  26.145  1.00  0.00     0.042 C 
BRANCH  33  34
ATOM     34  C   UNL A   1      36.311  22.527  25.936  1.00  0.00     0.118 C 
BRANCH  34  35
ATOM     35  N   UNL A   1      37.346  21.501  25.938  1.00  0.00    -0.352 N 
ATOM     36  C   UNL A   1      38.704  21.586  26.127  1.00  0.00     0.251 C 
ATOM     37  H   UNL A   1      37.014  20.589  25.775  1.00  0.00     0.163 HD
ATOM     38  O   UNL A   1      39.391  20.582  25.980  1.00  0.00    -0.269 OA
BRANCH  36  39
ATOM     39  C   UNL A   1      39.354  22.868  26.484  1.00  0.00     0.039 A 
ATOM     40  C   UNL A   1      40.307  22.875  27.510  1.00  0.00     0.014 A 
ATOM     41  C   UNL A   1      39.005  24.066  25.862  1.00  0.00     0.014 A 
ATOM     42  C   UNL A   1      40.937  24.069  27.872  1.00  0.00     0.010 A 
ATOM     43  C   UNL A   1      39.714  25.228  26.141  1.00  0.00     0.010 A 
ATOM     44  C   UNL A   1      40.665  25.252  27.170  1.00  0.00    -0.014 A 
BRANCH  44  45
ATOM     45  C   UNL A   1      41.307  26.544  27.519  1.00  0.00     0.031 A 
ATOM     46  C   UNL A   1      42.724  26.812  27.085  1.00  0.00     0.074 A 
ATOM     47  C   UNL A   1      40.659  27.432  28.294  1.00  0.00     0.049 A 
ATOM     48  N   UNL A   1      43.523  27.798  27.407  1.00  0.00    -0.248 NA
ATOM     49  C   UNL A   1      43.345  25.804  26.210  1.00  0.00     0.031 C 
ATOM     50  C   UNL A   1      39.302  27.270  28.816  1.00  0.00     0.029 A 
ATOM     51  N   UNL A   1      41.062  28.648  28.786  1.00  0.00    -0.354 N 
ATOM     52  C   UNL A   1      44.747  27.500  26.820  1.00  0.00     0.074 A 
ATOM     53  C   UNL A   1      44.602  26.216  26.170  1.00  0.00     0.031 C 
ATOM     54  C   UNL A   1      38.969  28.364  29.520  1.00  0.00     0.029 A 
ATOM     55  C   UNL A   1      40.104  29.280  29.538  1.00  0.00     0.049 A 
ATOM     56  H   UNL A   1      41.953  29.030  28.614  1.00  0.00     0.167 HD
ATOM     57  C   UNL A   1      45.881  28.241  26.803  1.00  0.00     0.037 A 
ATOM     58  C   UNL A   1      40.142  30.469  30.171  1.00  0.00     0.037 A 
ATOM     59  C   UNL A   1      45.992  29.549  27.389  1.00  0.00     0.049 A 
ATOM     60  C   UNL A   1      41.397  31.294  30.105  1.00  0.00     0.074 A 
ATOM     61  C   UNL A   1      47.059  30.427  27.349  1.00  0.00     0.029 A 
ATOM     62  N   UNL A   1      44.988  30.171  28.118  1.00  0.00    -0.354 N 
ATOM     63  N   UNL A   1      42.532  31.028  29.504  1.00  0.00    -0.248 NA
ATOM     64  C   UNL A   1      41.376  32.584  30.807  1.00  0.00     0.031 C 
ATOM     65  C   UNL A   1      46.714  31.566  28.085  1.00  0.00     0.029 A 
ATOM     66  C   UNL A   1      45.416  31.415  28.549  1.00  0.00     0.049 A 
ATOM     67  H   UNL A   1      44.101  29.784  28.301  1.00  0.00     0.167 HD
ATOM     68  C   UNL A   1      43.351  32.125  29.731  1.00  0.00     0.074 A 
ATOM     69  C   UNL A   1      42.577  33.065  30.518  1.00  0.00     0.031 C 
ATOM     70  C   UNL A   1      44.628  32.337  29.325  1.00  0.00     0.037 A 
BRANCH  57  71
ATOM     71  C   UNL A   1      47.085  27.646  26.127  1.00  0.00     0.064 A 
ATOM     72  C   UNL A   1      48.040  26.899  26.834  1.00  0.00     0.173 A 
ATOM     73  C   UNL A   1      47.288  27.830  24.750  1.00  0.00     0.173 A 
ATOM     74  F   UNL A   1      47.903  26.704  28.155  1.00  0.00    -0.203 F 
ATOM     75  C   UNL A   1      49.177  26.404  26.201  1.00  0.00     0.198 A 
ATOM     76  C   UNL A   1      48.409  27.301  24.113  1.00  0.00     0.198 A 
ATOM     77  F   UNL A   1      46.404  28.527  24.022  1.00  0.00    -0.203 F 
ATOM     78  F   UNL A   1      50.112  25.759  26.914  1.00  0.00    -0.200 F 
ATOM     79  C   UNL A   1      49.359  26.601  24.841  1.00  0.00     0.200 A 
ATOM     80  F   UNL A   1      48.575  27.482  22.796  1.00  0.00    -0.200 F 
ATOM     81  F   UNL A   1      50.457  26.129  24.234  1.00  0.00    -0.200 F 
ENDBRANCH  57  71
BRANCH  58  82
ATOM     82  C   UNL A   1      38.930  30.967  30.869  1.00  0.00     0.064 A 
ATOM     83  C   UNL A   1      38.716  30.664  32.220  1.00  0.00     0.173 A 
ATOM     84  C   UNL A   1      37.988  31.779  30.223  1.00  0.00     0.173 A 
ATOM     85  F   UNL A   1      39.583  29.877  32.874  1.00  0.00    -0.203 F 
ATOM     86  C   UNL A   1      37.599  31.146  32.898  1.00  0.00     0.198 A 
ATOM     87  C   UNL A   1      36.882  32.281  30.908  1.00  0.00     0.198 A 
ATOM     88  F   UNL A   1      38.152  32.104  28.932  1.00  0.00    -0.203 F 
ATOM     89  F   UNL A   1      37.403  30.817  34.182  1.00  0.00    -0.200 F 
ATOM     90  C   UNL A   1      36.687  31.961  32.244  1.00  0.00     0.200 A 
ATOM     91  F   UNL A   1      36.011  33.080  30.278  1.00  0.00    -0.200 F 
ATOM     92  F   UNL A   1      35.619  32.435  32.900  1.00  0.00    -0.200 F 
ENDBRANCH  58  82
BRANCH  70  93
ATOM     93  C   UNL A   1      45.255  33.647  29.697  1.00  0.00     0.064 A 
ATOM     94  C   UNL A   1      45.040  34.806  28.936  1.00  0.00     0.173 A 
ATOM     95  C   UNL A   1      46.045  33.753  30.852  1.00  0.00     0.173 A 
ATOM     96  F   UNL A   1      44.304  34.751  27.816  1.00  0.00    -0.203 F 
ATOM     97  C   UNL A   1      45.612  36.020  29.307  1.00  0.00     0.198 A 
ATOM     98  C   UNL A   1      46.592  34.974  31.235  1.00  0.00     0.198 A 
ATOM     99  F   UNL A   1      46.275  32.675  31.615  1.00  0.00    -0.203 F 
ATOM    100  F   UNL A   1      45.430  37.105  28.543  1.00  0.00    -0.200 F 
ATOM    101  C   UNL A   1      46.381  36.104  30.459  1.00  0.00     0.200 A 
ATOM    102  F   UNL A   1      47.324  35.057  32.354  1.00  0.00    -0.200 F 
ATOM    103  F   UNL A   1      46.925  37.275  30.818  1.00  0.00    -0.200 F 
ENDBRANCH  70  93
ENDBRANCH  44  45
ENDBRANCH  36  39
ENDBRANCH  34  35
ENDBRANCH  33  34
ENDBRANCH   1  33
TORSDOF 14
ENDMDL
