MODEL 1
REMARK VINA RESULT:     -12.8      0.000      0.000
REMARK SMILES Cc1c(CC(=O)NCCCNC(=O)c2ccc(-c3c4nc(c(-c5c(F)c(F)c(F)c(F)c5F)c5ccc([nH]5)c(-c5c(F)c(F)c(F)c(F)c5F)c5nc(c(-c6c(F)c(F)c(F)c(F)c6F)c6ccc3[nH]6)C=C5)C=C4)cc2)c(O)oc2cc(=O)cc(O)c1-2
REMARK SMILES IDX 9 1 8 2 7 3 5 4 6 5 4 7 3 8 1 9 2 10 87 11 77 12 80 13 85 14
REMARK SMILES IDX 79 15 81 16 84 17 82 18 83 19 78 20 86 22 10 24 11 25 12 26
REMARK SMILES IDX 13 28 14 29 15 30 76 31 16 32 75 33 17 34 18 35 19 36 69 37
REMARK SMILES IDX 20 38 74 39 68 40 70 41 21 42 73 43 67 44 66 45 22 47 54 48
REMARK SMILES IDX 34 49 53 50 35 51 38 52 52 53 71 54 36 55 37 56 51 58 72 59
REMARK SMILES IDX 39 60 23 61 24 62 32 63 25 64 26 65 30 66 33 67 27 68 28 69
REMARK SMILES IDX 31 70 29 71 55 72 56 73 64 74 57 75 58 76 62 77 65 78 59 79
REMARK SMILES IDX 60 80 63 81 61 82 40 83 41 84 49 85 42 86 43 87 47 88 50 89
REMARK SMILES IDX 44 90 45 91 48 92 46 93
REMARK H PARENT 7 6 78 21 86 23 11 27 70 46 38 57
REMARK Flexibility Score: inf
ROOT
ATOM      1  C   UNL A   1      33.090  27.832  26.821  1.00  0.00     0.042 C 
ENDROOT
BRANCH   1   2
ATOM      2  C   UNL A   1      32.191  27.064  25.859  1.00  0.00     0.117 C 
BRANCH   2   3
ATOM      3  N   UNL A   1      31.433  26.029  26.536  1.00  0.00    -0.356 N 
ATOM      4  C   UNL A   1      31.711  24.703  26.671  1.00  0.00     0.224 C 
ATOM      5  O   UNL A   1      30.899  24.001  27.279  1.00  0.00    -0.275 OA
ATOM      6  H   UNL A   1      30.596  26.329  26.958  1.00  0.00     0.163 HD
BRANCH   4   7
ATOM      7  C   UNL A   1      33.024  24.128  26.146  1.00  0.00     0.143 C 
BRANCH   7   8
ATOM      8  C   UNL A   1      32.895  22.952  25.190  1.00  0.00     0.046 A 
ATOM      9  C   UNL A   1      33.507  21.398  27.121  1.00  0.00     0.046 C 
ATOM     10  C   UNL A   1      33.047  21.554  25.686  1.00  0.00    -0.026 A 
ATOM     11  C   UNL A   1      32.795  20.502  24.853  1.00  0.00     0.063 A 
ATOM     12  C   UNL A   1      32.621  23.144  23.878  1.00  0.00     0.286 A 
ATOM     13  C   UNL A   1      32.459  20.790  23.444  1.00  0.00     0.146 A 
ATOM     14  C   UNL A   1      32.829  19.071  25.238  1.00  0.00     0.130 A 
ATOM     15  O   UNL A   1      32.400  22.100  23.012  1.00  0.00    -0.425 OA
ATOM     16  C   UNL A   1      32.239  19.823  22.548  1.00  0.00     0.100 A 
ATOM     17  C   UNL A   1      32.621  18.096  24.342  1.00  0.00     0.099 A 
ATOM     18  C   UNL A   1      32.318  18.407  22.932  1.00  0.00     0.186 A 
ATOM     19  O   UNL A   1      32.125  17.513  22.117  1.00  0.00    -0.290 OA
BRANCH  12  20
ATOM     20  O   UNL A   1      32.501  24.391  23.303  1.00  0.00    -0.480 OA
ATOM     21  H   UNL A   1      32.735  25.156  23.790  1.00  0.00     0.297 HD
ENDBRANCH  12  20
BRANCH  14  22
ATOM     22  O   UNL A   1      33.030  18.759  26.565  1.00  0.00    -0.507 OA
ATOM     23  H   UNL A   1      32.740  17.934  26.902  1.00  0.00     0.293 HD
ENDBRANCH  14  22
ENDBRANCH   7   8
ENDBRANCH   4   7
ENDBRANCH   2   3
ENDBRANCH   1   2
BRANCH   1  24
ATOM     24  C   UNL A   1      33.986  28.853  26.128  1.00  0.00     0.118 C 
BRANCH  24  25
ATOM     25  N   UNL A   1      33.827  30.197  26.671  1.00  0.00    -0.352 N 
ATOM     26  C   UNL A   1      34.556  30.857  27.626  1.00  0.00     0.251 C 
ATOM     27  H   UNL A   1      33.079  30.712  26.291  1.00  0.00     0.163 HD
ATOM     28  O   UNL A   1      34.136  31.910  28.098  1.00  0.00    -0.269 OA
BRANCH  26  29
ATOM     29  C   UNL A   1      35.838  30.299  28.100  1.00  0.00     0.039 A 
ATOM     30  C   UNL A   1      36.963  30.398  27.279  1.00  0.00     0.014 A 
ATOM     31  C   UNL A   1      35.924  29.662  29.340  1.00  0.00     0.014 A 
ATOM     32  C   UNL A   1      38.192  29.916  27.732  1.00  0.00     0.010 A 
ATOM     33  C   UNL A   1      37.163  29.255  29.824  1.00  0.00     0.010 A 
ATOM     34  C   UNL A   1      38.309  29.374  29.023  1.00  0.00    -0.014 A 
BRANCH  34  35
ATOM     35  C   UNL A   1      39.620  28.919  29.547  1.00  0.00     0.031 A 
ATOM     36  C   UNL A   1      40.333  29.723  30.595  1.00  0.00     0.074 A 
ATOM     37  C   UNL A   1      40.185  27.805  29.044  1.00  0.00     0.049 A 
ATOM     38  N   UNL A   1      41.502  29.513  31.145  1.00  0.00    -0.248 NA
ATOM     39  C   UNL A   1      39.653  30.937  31.077  1.00  0.00     0.031 C 
ATOM     40  C   UNL A   1      39.603  26.962  27.998  1.00  0.00     0.029 A 
ATOM     41  N   UNL A   1      41.376  27.190  29.343  1.00  0.00    -0.354 N 
ATOM     42  C   UNL A   1      41.696  30.564  32.031  1.00  0.00     0.074 A 
ATOM     43  C   UNL A   1      40.557  31.446  31.901  1.00  0.00     0.031 C 
ATOM     44  C   UNL A   1      40.421  25.923  27.766  1.00  0.00     0.029 A 
ATOM     45  C   UNL A   1      41.602  26.046  28.616  1.00  0.00     0.049 A 
ATOM     46  H   UNL A   1      42.007  27.535  30.014  1.00  0.00     0.167 HD
ATOM     47  C   UNL A   1      42.718  30.757  32.897  1.00  0.00     0.037 A 
ATOM     48  C   UNL A   1      42.646  25.196  28.632  1.00  0.00     0.037 A 
ATOM     49  C   UNL A   1      43.840  29.866  33.034  1.00  0.00     0.049 A 
ATOM     50  C   UNL A   1      43.789  25.456  29.576  1.00  0.00     0.074 A 
ATOM     51  C   UNL A   1      44.904  29.952  33.913  1.00  0.00     0.029 A 
ATOM     52  N   UNL A   1      44.042  28.726  32.269  1.00  0.00    -0.354 N 
ATOM     53  N   UNL A   1      43.934  26.420  30.452  1.00  0.00    -0.248 NA
ATOM     54  C   UNL A   1      44.913  24.509  29.534  1.00  0.00     0.031 C 
ATOM     55  C   UNL A   1      45.778  28.896  33.644  1.00  0.00     0.029 A 
ATOM     56  C   UNL A   1      45.231  28.118  32.637  1.00  0.00     0.049 A 
ATOM     57  H   UNL A   1      43.432  28.400  31.569  1.00  0.00     0.167 HD
ATOM     58  C   UNL A   1      45.148  26.186  31.081  1.00  0.00     0.074 A 
ATOM     59  C   UNL A   1      45.694  24.977  30.499  1.00  0.00     0.031 C 
ATOM     60  C   UNL A   1      45.758  26.910  32.051  1.00  0.00     0.037 A 
BRANCH  47  61
ATOM     61  C   UNL A   1      42.666  31.970  33.781  1.00  0.00     0.064 A 
ATOM     62  C   UNL A   1      42.046  31.931  35.040  1.00  0.00     0.173 A 
ATOM     63  C   UNL A   1      43.296  33.162  33.396  1.00  0.00     0.173 A 
ATOM     64  F   UNL A   1      41.419  30.819  35.451  1.00  0.00    -0.203 F 
ATOM     65  C   UNL A   1      42.042  33.049  35.871  1.00  0.00     0.198 A 
ATOM     66  C   UNL A   1      43.318  34.267  34.243  1.00  0.00     0.198 A 
ATOM     67  F   UNL A   1      43.908  33.251  32.206  1.00  0.00    -0.203 F 
ATOM     68  F   UNL A   1      41.408  33.001  37.051  1.00  0.00    -0.200 F 
ATOM     69  C   UNL A   1      42.687  34.211  35.478  1.00  0.00     0.200 A 
ATOM     70  F   UNL A   1      43.954  35.385  33.868  1.00  0.00    -0.200 F 
ATOM     71  F   UNL A   1      42.697  35.280  36.286  1.00  0.00    -0.200 F 
ENDBRANCH  47  61
BRANCH  48  72
ATOM     72  C   UNL A   1      42.636  24.001  27.747  1.00  0.00     0.064 A 
ATOM     73  C   UNL A   1      42.250  22.747  28.243  1.00  0.00     0.173 A 
ATOM     74  C   UNL A   1      42.983  24.087  26.391  1.00  0.00     0.173 A 
ATOM     75  F   UNL A   1      41.930  22.608  29.537  1.00  0.00    -0.203 F 
ATOM     76  C   UNL A   1      42.220  21.625  27.417  1.00  0.00     0.198 A 
ATOM     77  C   UNL A   1      42.924  22.970  25.560  1.00  0.00     0.198 A 
ATOM     78  F   UNL A   1      43.357  25.264  25.868  1.00  0.00    -0.203 F 
ATOM     79  F   UNL A   1      41.881  20.432  27.925  1.00  0.00    -0.200 F 
ATOM     80  C   UNL A   1      42.548  21.739  26.075  1.00  0.00     0.200 A 
ATOM     81  F   UNL A   1      43.227  23.087  24.260  1.00  0.00    -0.200 F 
ATOM     82  F   UNL A   1      42.505  20.662  25.279  1.00  0.00    -0.200 F 
ENDBRANCH  48  72
BRANCH  60  83
ATOM     83  C   UNL A   1      47.081  26.416  32.565  1.00  0.00     0.064 A 
ATOM     84  C   UNL A   1      47.158  25.478  33.603  1.00  0.00     0.173 A 
ATOM     85  C   UNL A   1      48.276  26.817  31.949  1.00  0.00     0.173 A 
ATOM     86  F   UNL A   1      46.043  25.072  34.231  1.00  0.00    -0.203 F 
ATOM     87  C   UNL A   1      48.386  24.968  34.016  1.00  0.00     0.198 A 
ATOM     88  C   UNL A   1      49.499  26.280  32.343  1.00  0.00     0.198 A 
ATOM     89  F   UNL A   1      48.256  27.706  30.944  1.00  0.00    -0.203 F 
ATOM     90  F   UNL A   1      48.440  24.096  35.032  1.00  0.00    -0.200 F 
ATOM     91  C   UNL A   1      49.554  25.359  33.377  1.00  0.00     0.200 A 
ATOM     92  F   UNL A   1      50.624  26.645  31.711  1.00  0.00    -0.200 F 
ATOM     93  F   UNL A   1      50.731  24.848  33.759  1.00  0.00    -0.200 F 
ENDBRANCH  60  83
ENDBRANCH  34  35
ENDBRANCH  26  29
ENDBRANCH  24  25
ENDBRANCH   1  24
TORSDOF 13
ENDMDL
MODEL 2
REMARK VINA RESULT:     -12.8      1.917      2.910
REMARK SMILES Cc1c(CC(=O)NCCCNC(=O)c2ccc(-c3c4nc(c(-c5c(F)c(F)c(F)c(F)c5F)c5ccc([nH]5)c(-c5c(F)c(F)c(F)c(F)c5F)c5nc(c(-c6c(F)c(F)c(F)c(F)c6F)c6ccc3[nH]6)C=C5)C=C4)cc2)c(O)oc2cc(=O)cc(O)c1-2
REMARK SMILES IDX 9 1 8 2 7 3 5 4 6 5 4 7 3 8 1 9 2 10 87 11 77 12 80 13 85 14
REMARK SMILES IDX 79 15 81 16 84 17 82 18 83 19 78 20 86 22 10 24 11 25 12 26
REMARK SMILES IDX 13 28 14 29 15 30 76 31 16 32 75 33 17 34 18 35 19 36 69 37
REMARK SMILES IDX 20 38 74 39 68 40 70 41 21 42 73 43 67 44 66 45 22 47 54 48
REMARK SMILES IDX 34 49 53 50 35 51 38 52 52 53 71 54 36 55 37 56 51 58 72 59
REMARK SMILES IDX 39 60 23 61 24 62 32 63 25 64 26 65 30 66 33 67 27 68 28 69
REMARK SMILES IDX 31 70 29 71 55 72 56 73 64 74 57 75 58 76 62 77 65 78 59 79
REMARK SMILES IDX 60 80 63 81 61 82 40 83 41 84 49 85 42 86 43 87 47 88 50 89
REMARK SMILES IDX 44 90 45 91 48 92 46 93
REMARK H PARENT 7 6 78 21 86 23 11 27 70 46 38 57
REMARK Flexibility Score: inf
ROOT
ATOM      1  C   UNL A   1      31.975  28.408  26.541  1.00  0.00     0.042 C 
ENDROOT
BRANCH   1   2
ATOM      2  C   UNL A   1      31.745  27.166  25.687  1.00  0.00     0.117 C 
BRANCH   2   3
ATOM      3  N   UNL A   1      31.073  26.117  26.429  1.00  0.00    -0.356 N 
ATOM      4  C   UNL A   1      31.450  24.823  26.630  1.00  0.00     0.224 C 
ATOM      5  O   UNL A   1      30.700  24.097  27.286  1.00  0.00    -0.275 OA
ATOM      6  H   UNL A   1      30.222  26.377  26.848  1.00  0.00     0.163 HD
BRANCH   4   7
ATOM      7  C   UNL A   1      32.796  24.318  26.116  1.00  0.00     0.143 C 
BRANCH   7   8
ATOM      8  C   UNL A   1      32.740  23.108  25.195  1.00  0.00     0.046 A 
ATOM      9  C   UNL A   1      33.390  21.646  27.185  1.00  0.00     0.046 C 
ATOM     10  C   UNL A   1      32.949  21.736  25.738  1.00  0.00    -0.026 A 
ATOM     11  C   UNL A   1      32.762  20.647  24.935  1.00  0.00     0.063 A 
ATOM     12  C   UNL A   1      32.481  23.247  23.873  1.00  0.00     0.286 A 
ATOM     13  C   UNL A   1      32.439  20.875  23.512  1.00  0.00     0.146 A 
ATOM     14  C   UNL A   1      32.856  19.232  25.366  1.00  0.00     0.130 A 
ATOM     15  O   UNL A   1      32.326  22.166  23.038  1.00  0.00    -0.425 OA
ATOM     16  C   UNL A   1      32.280  19.871  22.644  1.00  0.00     0.100 A 
ATOM     17  C   UNL A   1      32.710  18.221  24.498  1.00  0.00     0.099 A 
ATOM     18  C   UNL A   1      32.419  18.473  23.074  1.00  0.00     0.186 A 
ATOM     19  O   UNL A   1      32.283  17.546  22.285  1.00  0.00    -0.290 OA
BRANCH  12  20
ATOM     20  O   UNL A   1      32.313  24.468  23.257  1.00  0.00    -0.480 OA
ATOM     21  H   UNL A   1      31.869  25.161  23.704  1.00  0.00     0.297 HD
ENDBRANCH  12  20
BRANCH  14  22
ATOM     22  O   UNL A   1      33.048  18.971  26.705  1.00  0.00    -0.507 OA
ATOM     23  H   UNL A   1      32.318  18.971  27.293  1.00  0.00     0.293 HD
ENDBRANCH  14  22
ENDBRANCH   7   8
ENDBRANCH   4   7
ENDBRANCH   2   3
ENDBRANCH   1   2
BRANCH   1  24
ATOM     24  C   UNL A   1      33.041  29.341  25.976  1.00  0.00     0.118 C 
BRANCH  24  25
ATOM     25  N   UNL A   1      32.812  30.736  26.337  1.00  0.00    -0.352 N 
ATOM     26  C   UNL A   1      33.459  31.531  27.247  1.00  0.00     0.251 C 
ATOM     27  H   UNL A   1      32.078  31.175  25.850  1.00  0.00     0.163 HD
ATOM     28  O   UNL A   1      32.981  32.620  27.557  1.00  0.00    -0.269 OA
BRANCH  26  29
ATOM     29  C   UNL A   1      34.719  31.079  27.867  1.00  0.00     0.039 A 
ATOM     30  C   UNL A   1      35.786  31.976  27.963  1.00  0.00     0.014 A 
ATOM     31  C   UNL A   1      34.856  29.768  28.333  1.00  0.00     0.014 A 
ATOM     32  C   UNL A   1      36.969  31.577  28.586  1.00  0.00     0.010 A 
ATOM     33  C   UNL A   1      36.004  29.397  29.026  1.00  0.00     0.010 A 
ATOM     34  C   UNL A   1      37.074  30.296  29.155  1.00  0.00    -0.014 A 
BRANCH  34  35
ATOM     35  C   UNL A   1      38.298  29.879  29.881  1.00  0.00     0.031 A 
ATOM     36  C   UNL A   1      38.590  30.430  31.247  1.00  0.00     0.074 A 
ATOM     37  C   UNL A   1      39.167  29.037  29.289  1.00  0.00     0.049 A 
ATOM     38  N   UNL A   1      39.625  30.221  32.020  1.00  0.00    -0.248 NA
ATOM     39  C   UNL A   1      37.597  31.358  31.813  1.00  0.00     0.031 C 
ATOM     40  C   UNL A   1      39.007  28.464  27.951  1.00  0.00     0.029 A 
ATOM     41  N   UNL A   1      40.357  28.517  29.734  1.00  0.00    -0.354 N 
ATOM     42  C   UNL A   1      39.409  30.988  33.156  1.00  0.00     0.074 A 
ATOM     43  C   UNL A   1      38.179  31.719  32.948  1.00  0.00     0.031 C 
ATOM     44  C   UNL A   1      40.042  27.648  27.697  1.00  0.00     0.029 A 
ATOM     45  C   UNL A   1      40.957  27.669  28.834  1.00  0.00     0.049 A 
ATOM     46  H   UNL A   1      40.743  28.732  30.613  1.00  0.00     0.167 HD
ATOM     47  C   UNL A   1      40.155  31.050  34.284  1.00  0.00     0.037 A 
ATOM     48  C   UNL A   1      42.116  26.989  28.918  1.00  0.00     0.037 A 
ATOM     49  C   UNL A   1      41.369  30.306  34.491  1.00  0.00     0.049 A 
ATOM     50  C   UNL A   1      42.948  27.108  30.167  1.00  0.00     0.074 A 
ATOM     51  C   UNL A   1      42.174  30.270  35.616  1.00  0.00     0.029 A 
ATOM     52  N   UNL A   1      41.955  29.470  33.551  1.00  0.00    -0.354 N 
ATOM     53  N   UNL A   1      42.704  27.790  31.260  1.00  0.00    -0.248 NA
ATOM     54  C   UNL A   1      44.214  26.363  30.196  1.00  0.00     0.031 C 
ATOM     55  C   UNL A   1      43.274  29.455  35.337  1.00  0.00     0.029 A 
ATOM     56  C   UNL A   1      43.126  28.936  34.061  1.00  0.00     0.049 A 
ATOM     57  H   UNL A   1      41.591  29.285  32.655  1.00  0.00     0.167 HD
ATOM     58  C   UNL A   1      43.769  27.539  32.113  1.00  0.00     0.074 A 
ATOM     59  C   UNL A   1      44.655  26.628  31.418  1.00  0.00     0.031 C 
ATOM     60  C   UNL A   1      43.995  28.025  33.359  1.00  0.00     0.037 A 
BRANCH  47  61
ATOM     61  C   UNL A   1      39.672  31.941  35.392  1.00  0.00     0.064 A 
ATOM     62  C   UNL A   1      40.110  33.270  35.506  1.00  0.00     0.173 A 
ATOM     63  C   UNL A   1      38.717  31.484  36.311  1.00  0.00     0.173 A 
ATOM     64  F   UNL A   1      41.032  33.752  34.660  1.00  0.00    -0.203 F 
ATOM     65  C   UNL A   1      39.623  34.101  36.512  1.00  0.00     0.198 A 
ATOM     66  C   UNL A   1      38.207  32.328  37.295  1.00  0.00     0.198 A 
ATOM     67  F   UNL A   1      38.260  30.225  36.245  1.00  0.00    -0.203 F 
ATOM     68  F   UNL A   1      40.087  35.353  36.625  1.00  0.00    -0.200 F 
ATOM     69  C   UNL A   1      38.665  33.634  37.397  1.00  0.00     0.200 A 
ATOM     70  F   UNL A   1      37.270  31.880  38.141  1.00  0.00    -0.200 F 
ATOM     71  F   UNL A   1      38.184  34.441  38.354  1.00  0.00    -0.200 F 
ENDBRANCH  47  61
BRANCH  48  72
ATOM     72  C   UNL A   1      42.536  26.107  27.797  1.00  0.00     0.064 A 
ATOM     73  C   UNL A   1      42.037  24.801  27.688  1.00  0.00     0.173 A 
ATOM     74  C   UNL A   1      43.417  26.554  26.801  1.00  0.00     0.173 A 
ATOM     75  F   UNL A   1      41.209  24.320  28.626  1.00  0.00    -0.203 F 
ATOM     76  C   UNL A   1      42.410  23.974  26.631  1.00  0.00     0.198 A 
ATOM     77  C   UNL A   1      43.765  25.735  25.729  1.00  0.00     0.198 A 
ATOM     78  F   UNL A   1      43.920  27.796  26.858  1.00  0.00    -0.203 F 
ATOM     79  F   UNL A   1      41.946  22.718  26.570  1.00  0.00    -0.200 F 
ATOM     80  C   UNL A   1      43.266  24.445  25.647  1.00  0.00     0.200 A 
ATOM     81  F   UNL A   1      44.582  26.199  24.772  1.00  0.00    -0.200 F 
ATOM     82  F   UNL A   1      43.613  23.652  24.624  1.00  0.00    -0.200 F 
ENDBRANCH  48  72
BRANCH  60  83
ATOM     83  C   UNL A   1      45.240  27.575  34.069  1.00  0.00     0.064 A 
ATOM     84  C   UNL A   1      46.430  28.312  33.997  1.00  0.00     0.173 A 
ATOM     85  C   UNL A   1      45.214  26.446  34.902  1.00  0.00     0.173 A 
ATOM     86  F   UNL A   1      46.508  29.394  33.206  1.00  0.00    -0.203 F 
ATOM     87  C   UNL A   1      47.553  27.929  34.724  1.00  0.00     0.198 A 
ATOM     88  C   UNL A   1      46.330  26.085  35.652  1.00  0.00     0.198 A 
ATOM     89  F   UNL A   1      44.097  25.712  35.013  1.00  0.00    -0.203 F 
ATOM     90  F   UNL A   1      48.691  28.629  34.616  1.00  0.00    -0.200 F 
ATOM     91  C   UNL A   1      47.499  26.823  35.561  1.00  0.00     0.200 A 
ATOM     92  F   UNL A   1      46.268  25.027  36.475  1.00  0.00    -0.200 F 
ATOM     93  F   UNL A   1      48.574  26.471  36.278  1.00  0.00    -0.200 F 
ENDBRANCH  60  83
ENDBRANCH  34  35
ENDBRANCH  26  29
ENDBRANCH  24  25
ENDBRANCH   1  24
TORSDOF 13
ENDMDL
MODEL 3
REMARK VINA RESULT:     -12.8      4.320      7.854
REMARK SMILES Cc1c(CC(=O)NCCCNC(=O)c2ccc(-c3c4nc(c(-c5c(F)c(F)c(F)c(F)c5F)c5ccc([nH]5)c(-c5c(F)c(F)c(F)c(F)c5F)c5nc(c(-c6c(F)c(F)c(F)c(F)c6F)c6ccc3[nH]6)C=C5)C=C4)cc2)c(O)oc2cc(=O)cc(O)c1-2
REMARK SMILES IDX 9 1 8 2 7 3 5 4 6 5 4 7 3 8 1 9 2 10 87 11 77 12 80 13 85 14
REMARK SMILES IDX 79 15 81 16 84 17 82 18 83 19 78 20 86 22 10 24 11 25 12 26
REMARK SMILES IDX 13 28 14 29 15 30 76 31 16 32 75 33 17 34 18 35 19 36 69 37
REMARK SMILES IDX 20 38 74 39 68 40 70 41 21 42 73 43 67 44 66 45 22 47 54 48
REMARK SMILES IDX 34 49 53 50 35 51 38 52 52 53 71 54 36 55 37 56 51 58 72 59
REMARK SMILES IDX 39 60 23 61 24 62 32 63 25 64 26 65 30 66 33 67 27 68 28 69
REMARK SMILES IDX 31 70 29 71 55 72 56 73 64 74 57 75 58 76 62 77 65 78 59 79
REMARK SMILES IDX 60 80 63 81 61 82 40 83 41 84 49 85 42 86 43 87 47 88 50 89
REMARK SMILES IDX 44 90 45 91 48 92 46 93
REMARK H PARENT 7 6 78 21 86 23 11 27 70 46 38 57
REMARK Flexibility Score: inf
ROOT
ATOM      1  C   UNL A   1      37.874  19.643  24.977  1.00  0.00     0.042 C 
ENDROOT
BRANCH   1   2
ATOM      2  C   UNL A   1      36.801  20.695  24.716  1.00  0.00     0.117 C 
BRANCH   2   3
ATOM      3  N   UNL A   1      35.946  20.894  25.871  1.00  0.00    -0.356 N 
ATOM      4  C   UNL A   1      34.611  21.155  25.922  1.00  0.00     0.224 C 
ATOM      5  O   UNL A   1      34.093  21.309  27.031  1.00  0.00    -0.275 OA
ATOM      6  H   UNL A   1      36.397  20.832  26.743  1.00  0.00     0.163 HD
BRANCH   4   7
ATOM      7  C   UNL A   1      33.776  21.182  24.644  1.00  0.00     0.143 C 
BRANCH   7   8
ATOM      8  C   UNL A   1      32.867  22.391  24.473  1.00  0.00     0.046 A 
ATOM      9  C   UNL A   1      34.730  23.518  23.138  1.00  0.00     0.046 C 
ATOM     10  C   UNL A   1      33.299  23.547  23.637  1.00  0.00    -0.026 A 
ATOM     11  C   UNL A   1      32.427  24.565  23.375  1.00  0.00     0.063 A 
ATOM     12  C   UNL A   1      31.646  22.436  25.055  1.00  0.00     0.286 A 
ATOM     13  C   UNL A   1      31.095  24.525  24.011  1.00  0.00     0.146 A 
ATOM     14  C   UNL A   1      32.699  25.728  22.497  1.00  0.00     0.130 A 
ATOM     15  O   UNL A   1      30.765  23.469  24.836  1.00  0.00    -0.425 OA
ATOM     16  C   UNL A   1      30.193  25.498  23.846  1.00  0.00     0.100 A 
ATOM     17  C   UNL A   1      31.803  26.713  22.338  1.00  0.00     0.099 A 
ATOM     18  C   UNL A   1      30.490  26.667  23.008  1.00  0.00     0.186 A 
ATOM     19  O   UNL A   1      29.674  27.568  22.858  1.00  0.00    -0.290 OA
BRANCH  12  20
ATOM     20  O   UNL A   1      31.162  21.444  25.880  1.00  0.00    -0.480 OA
ATOM     21  H   UNL A   1      31.336  21.472  26.800  1.00  0.00     0.297 HD
ENDBRANCH  12  20
BRANCH  14  22
ATOM     22  O   UNL A   1      33.885  25.752  21.798  1.00  0.00    -0.507 OA
ATOM     23  H   UNL A   1      34.605  26.263  22.111  1.00  0.00     0.293 HD
ENDBRANCH  14  22
ENDBRANCH   7   8
ENDBRANCH   4   7
ENDBRANCH   2   3
ENDBRANCH   1   2
BRANCH   1  24
ATOM     24  C   UNL A   1      39.058  20.173  25.780  1.00  0.00     0.118 C 
BRANCH  24  25
ATOM     25  N   UNL A   1      40.109  19.176  25.950  1.00  0.00    -0.352 N 
ATOM     26  C   UNL A   1      41.457  19.336  26.137  1.00  0.00     0.251 C 
ATOM     27  H   UNL A   1      39.801  18.241  25.928  1.00  0.00     0.163 HD
ATOM     28  O   UNL A   1      42.207  18.367  26.050  1.00  0.00    -0.269 OA
BRANCH  26  29
ATOM     29  C   UNL A   1      42.014  20.671  26.429  1.00  0.00     0.039 A 
ATOM     30  C   UNL A   1      42.305  21.530  25.366  1.00  0.00     0.014 A 
ATOM     31  C   UNL A   1      42.269  21.067  27.745  1.00  0.00     0.014 A 
ATOM     32  C   UNL A   1      42.790  22.812  25.628  1.00  0.00     0.010 A 
ATOM     33  C   UNL A   1      42.674  22.372  28.008  1.00  0.00     0.010 A 
ATOM     34  C   UNL A   1      42.944  23.255  26.952  1.00  0.00    -0.014 A 
BRANCH  34  35
ATOM     35  C   UNL A   1      43.393  24.637  27.250  1.00  0.00     0.031 A 
ATOM     36  C   UNL A   1      42.428  25.637  27.820  1.00  0.00     0.074 A 
ATOM     37  C   UNL A   1      44.658  25.000  26.966  1.00  0.00     0.049 A 
ATOM     38  N   UNL A   1      42.619  26.901  28.106  1.00  0.00    -0.248 NA
ATOM     39  C   UNL A   1      41.060  25.163  28.084  1.00  0.00     0.031 C 
ATOM     40  C   UNL A   1      45.674  24.126  26.378  1.00  0.00     0.029 A 
ATOM     41  N   UNL A   1      45.306  26.199  27.130  1.00  0.00    -0.354 N 
ATOM     42  C   UNL A   1      41.401  27.367  28.580  1.00  0.00     0.074 A 
ATOM     43  C   UNL A   1      40.459  26.275  28.483  1.00  0.00     0.031 C 
ATOM     44  C   UNL A   1      46.825  24.806  26.262  1.00  0.00     0.029 A 
ATOM     45  C   UNL A   1      46.619  26.174  26.727  1.00  0.00     0.049 A 
ATOM     46  H   UNL A   1      44.871  27.000  27.500  1.00  0.00     0.167 HD
ATOM     47  C   UNL A   1      41.106  28.590  29.080  1.00  0.00     0.037 A 
ATOM     48  C   UNL A   1      47.551  27.147  26.732  1.00  0.00     0.037 A 
ATOM     49  C   UNL A   1      42.053  29.668  29.189  1.00  0.00     0.049 A 
ATOM     50  C   UNL A   1      47.185  28.510  27.256  1.00  0.00     0.074 A 
ATOM     51  C   UNL A   1      41.861  30.931  29.721  1.00  0.00     0.029 A 
ATOM     52  N   UNL A   1      43.370  29.611  28.756  1.00  0.00    -0.354 N 
ATOM     53  N   UNL A   1      46.046  28.924  27.757  1.00  0.00    -0.248 NA
ATOM     54  C   UNL A   1      48.232  29.540  27.215  1.00  0.00     0.031 C 
ATOM     55  C   UNL A   1      43.045  31.655  29.561  1.00  0.00     0.029 A 
ATOM     56  C   UNL A   1      43.993  30.827  28.984  1.00  0.00     0.049 A 
ATOM     57  H   UNL A   1      43.797  28.823  28.348  1.00  0.00     0.167 HD
ATOM     58  C   UNL A   1      46.245  30.251  28.113  1.00  0.00     0.074 A 
ATOM     59  C   UNL A   1      47.620  30.569  27.786  1.00  0.00     0.031 C 
ATOM     60  C   UNL A   1      45.365  31.127  28.658  1.00  0.00     0.037 A 
BRANCH  47  61
ATOM     61  C   UNL A   1      39.705  28.827  29.565  1.00  0.00     0.064 A 
ATOM     62  C   UNL A   1      39.334  28.556  30.892  1.00  0.00     0.173 A 
ATOM     63  C   UNL A   1      38.741  29.390  28.717  1.00  0.00     0.173 A 
ATOM     64  F   UNL A   1      40.215  28.007  31.741  1.00  0.00    -0.203 F 
ATOM     65  C   UNL A   1      38.044  28.821  31.344  1.00  0.00     0.198 A 
ATOM     66  C   UNL A   1      37.461  29.684  29.182  1.00  0.00     0.198 A 
ATOM     67  F   UNL A   1      39.043  29.674  27.441  1.00  0.00    -0.203 F 
ATOM     68  F   UNL A   1      37.702  28.515  32.603  1.00  0.00    -0.200 F 
ATOM     69  C   UNL A   1      37.113  29.395  30.493  1.00  0.00     0.200 A 
ATOM     70  F   UNL A   1      36.566  30.253  28.362  1.00  0.00    -0.200 F 
ATOM     71  F   UNL A   1      35.876  29.666  30.935  1.00  0.00    -0.200 F 
ENDBRANCH  47  61
BRANCH  48  72
ATOM     72  C   UNL A   1      48.928  26.851  26.256  1.00  0.00     0.064 A 
ATOM     73  C   UNL A   1      49.904  26.372  27.142  1.00  0.00     0.173 A 
ATOM     74  C   UNL A   1      49.291  27.012  24.911  1.00  0.00     0.173 A 
ATOM     75  F   UNL A   1      49.612  26.221  28.442  1.00  0.00    -0.203 F 
ATOM     76  C   UNL A   1      51.191  26.074  26.701  1.00  0.00     0.198 A 
ATOM     77  C   UNL A   1      50.571  26.686  24.467  1.00  0.00     0.198 A 
ATOM     78  F   UNL A   1      48.393  27.466  24.023  1.00  0.00    -0.203 F 
ATOM     79  F   UNL A   1      52.115  25.652  27.576  1.00  0.00    -0.200 F 
ATOM     80  C   UNL A   1      51.521  26.223  25.363  1.00  0.00     0.200 A 
ATOM     81  F   UNL A   1      50.882  26.817  23.170  1.00  0.00    -0.200 F 
ATOM     82  F   UNL A   1      52.756  25.923  24.939  1.00  0.00    -0.200 F 
ENDBRANCH  48  72
BRANCH  60  83
ATOM     83  C   UNL A   1      45.856  32.516  28.954  1.00  0.00     0.064 A 
ATOM     84  C   UNL A   1      46.504  32.821  30.159  1.00  0.00     0.173 A 
ATOM     85  C   UNL A   1      45.757  33.526  27.985  1.00  0.00     0.173 A 
ATOM     86  F   UNL A   1      46.614  31.892  31.121  1.00  0.00    -0.203 F 
ATOM     87  C   UNL A   1      47.025  34.091  30.388  1.00  0.00     0.198 A 
ATOM     88  C   UNL A   1      46.309  34.785  28.205  1.00  0.00     0.198 A 
ATOM     89  F   UNL A   1      45.155  33.282  26.812  1.00  0.00    -0.203 F 
ATOM     90  F   UNL A   1      47.613  34.371  31.560  1.00  0.00    -0.200 F 
ATOM     91  C   UNL A   1      46.939  35.068  29.406  1.00  0.00     0.200 A 
ATOM     92  F   UNL A   1      46.240  35.721  27.248  1.00  0.00    -0.200 F 
ATOM     93  F   UNL A   1      47.463  36.282  29.620  1.00  0.00    -0.200 F 
ENDBRANCH  60  83
ENDBRANCH  34  35
ENDBRANCH  26  29
ENDBRANCH  24  25
ENDBRANCH   1  24
TORSDOF 13
ENDMDL
