MODEL 1
REMARK VINA RESULT:     -13.0      0.000      0.000
REMARK SMILES C=CC[C@@]1(C(=O)NCCCNC(=O)c2ccc(-c3c4nc(c(-c5c(F)c(F)c(F)c(F)c5F)c5ccc([nH]5)c(-c5c(F)c(F)c(F)c(F)c5F)c5nc(c(-c6c(F)c(F)c(F)c(F)c6F)c6ccc3[nH]6)C=C5)C=C4)cc2)CCCN(c2nccc(N3CCC(O)CC3)n2)C1
REMARK SMILES IDX 8 1 7 2 5 3 6 4 4 6 77 7 94 8 78 9 80 10 79 11 3 12 2 13
REMARK SMILES IDX 1 14 81 15 82 16 93 17 83 18 85 19 84 20 86 21 87 22 92 23
REMARK SMILES IDX 88 24 91 25 89 26 90 27 9 29 10 30 11 31 12 32 13 34 14 35
REMARK SMILES IDX 15 36 76 37 16 38 75 39 17 40 18 41 19 42 69 43 20 44 74 45
REMARK SMILES IDX 68 46 70 47 21 48 73 49 67 50 66 51 22 53 54 54 34 55 53 56
REMARK SMILES IDX 35 57 38 58 52 59 71 60 36 61 37 62 51 64 72 65 39 66 23 67
REMARK SMILES IDX 24 68 32 69 25 70 26 71 30 72 33 73 27 74 28 75 31 76 29 77
REMARK SMILES IDX 55 78 56 79 64 80 57 81 58 82 62 83 65 84 59 85 60 86 63 87
REMARK SMILES IDX 61 88 40 89 41 90 49 91 42 92 43 93 47 94 50 95 44 96 45 97
REMARK SMILES IDX 48 98 46 99
REMARK H PARENT 7 5 90 28 11 33 70 52 38 63
REMARK Flexibility Score: inf
ROOT
ATOM      1  C   UNL A   1      32.111  28.203  26.669  1.00  0.00     0.117 C 
ENDROOT
BRANCH   1   2
ATOM      2  N   UNL A   1      31.082  27.367  26.083  1.00  0.00    -0.355 N 
ATOM      3  C   UNL A   1      30.840  27.030  24.776  1.00  0.00     0.228 C 
ATOM      4  O   UNL A   1      30.016  26.117  24.624  1.00  0.00    -0.274 OA
ATOM      5  H   UNL A   1      30.452  26.977  26.731  1.00  0.00     0.163 HD
BRANCH   3   6
ATOM      6  C   UNL A   1      31.348  27.855  23.559  1.00  0.00     0.070 C 
ATOM      7  C   UNL A   1      30.868  27.204  22.208  1.00  0.00     0.021 C 
ATOM      8  C   UNL A   1      32.879  28.047  23.459  1.00  0.00     0.137 C 
ATOM      9  C   UNL A   1      31.726  26.058  21.657  1.00  0.00     0.023 C 
ATOM     10  N   UNL A   1      33.615  26.858  23.014  1.00  0.00    -0.340 N 
ATOM     11  C   UNL A   1      33.221  26.377  21.697  1.00  0.00     0.120 C 
BRANCH   6  12
ATOM     12  C   UNL A   1      30.618  29.241  23.778  1.00  0.00     0.045 C 
BRANCH  12  13
ATOM     13  C   UNL A   1      29.563  29.650  22.778  1.00  0.00    -0.034 C 
ATOM     14  C   UNL A   1      28.264  29.767  23.094  1.00  0.00     0.004 C 
ENDBRANCH  12  13
ENDBRANCH   6  12
BRANCH  10  15
ATOM     15  C   UNL A   1      33.808  25.823  23.922  1.00  0.00     0.227 A 
ATOM     16  N   UNL A   1      33.926  26.146  25.215  1.00  0.00    -0.221 NA
ATOM     17  N   UNL A   1      33.814  24.553  23.491  1.00  0.00    -0.196 NA
ATOM     18  C   UNL A   1      34.027  25.166  26.111  1.00  0.00     0.119 A 
ATOM     19  C   UNL A   1      33.878  23.562  24.411  1.00  0.00     0.134 A 
ATOM     20  C   UNL A   1      34.001  23.850  25.758  1.00  0.00     0.067 A 
BRANCH  19  21
ATOM     21  N   UNL A   1      33.856  22.235  24.002  1.00  0.00    -0.356 N 
ATOM     22  C   UNL A   1      32.577  21.590  23.731  1.00  0.00     0.121 C 
ATOM     23  C   UNL A   1      34.968  21.349  24.349  1.00  0.00     0.121 C 
ATOM     24  C   UNL A   1      32.155  20.738  24.921  1.00  0.00     0.053 C 
ATOM     25  C   UNL A   1      34.588  20.527  25.578  1.00  0.00     0.053 C 
ATOM     26  C   UNL A   1      33.278  19.782  25.329  1.00  0.00     0.118 C 
BRANCH  26  27
ATOM     27  O   UNL A   1      32.903  19.064  26.501  1.00  0.00    -0.393 OA
ATOM     28  H   UNL A   1      33.097  18.122  26.380  1.00  0.00     0.210 HD
ENDBRANCH  26  27
ENDBRANCH  19  21
ENDBRANCH  10  15
ENDBRANCH   3   6
ENDBRANCH   1   2
BRANCH   1  29
ATOM     29  C   UNL A   1      31.726  29.654  26.917  1.00  0.00     0.042 C 
BRANCH  29  30
ATOM     30  C   UNL A   1      32.618  30.728  26.309  1.00  0.00     0.118 C 
BRANCH  30  31
ATOM     31  N   UNL A   1      32.528  32.046  26.917  1.00  0.00    -0.352 N 
ATOM     32  C   UNL A   1      33.460  32.775  27.627  1.00  0.00     0.251 C 
ATOM     33  H   UNL A   1      31.658  32.493  26.803  1.00  0.00     0.163 HD
ATOM     34  O   UNL A   1      33.207  33.927  27.975  1.00  0.00    -0.269 OA
BRANCH  32  35
ATOM     35  C   UNL A   1      34.743  32.163  28.047  1.00  0.00     0.039 A 
ATOM     36  C   UNL A   1      35.879  32.979  28.113  1.00  0.00     0.014 A 
ATOM     37  C   UNL A   1      34.833  30.824  28.424  1.00  0.00     0.014 A 
ATOM     38  C   UNL A   1      37.059  32.489  28.678  1.00  0.00     0.010 A 
ATOM     39  C   UNL A   1      35.975  30.367  29.077  1.00  0.00     0.010 A 
ATOM     40  C   UNL A   1      37.093  31.201  29.235  1.00  0.00    -0.014 A 
BRANCH  40  41
ATOM     41  C   UNL A   1      38.256  30.721  30.030  1.00  0.00     0.031 A 
ATOM     42  C   UNL A   1      39.211  29.717  29.450  1.00  0.00     0.074 A 
ATOM     43  C   UNL A   1      38.385  31.105  31.316  1.00  0.00     0.049 A 
ATOM     44  N   UNL A   1      40.196  29.078  30.030  1.00  0.00    -0.248 NA
ATOM     45  C   UNL A   1      39.008  29.354  28.039  1.00  0.00     0.031 C 
ATOM     46  C   UNL A   1      37.491  32.027  32.019  1.00  0.00     0.029 A 
ATOM     47  N   UNL A   1      39.311  30.754  32.269  1.00  0.00    -0.354 N 
ATOM     48  C   UNL A   1      40.708  28.220  29.065  1.00  0.00     0.074 A 
ATOM     49  C   UNL A   1      39.896  28.384  27.879  1.00  0.00     0.031 C 
ATOM     50  C   UNL A   1      37.924  32.188  33.279  1.00  0.00     0.029 A 
ATOM     51  C   UNL A   1      39.099  31.348  33.489  1.00  0.00     0.049 A 
ATOM     52  H   UNL A   1      40.055  30.133  32.093  1.00  0.00     0.167 HD
ATOM     53  C   UNL A   1      41.771  27.384  29.155  1.00  0.00     0.037 A 
ATOM     54  C   UNL A   1      39.769  31.224  34.650  1.00  0.00     0.037 A 
ATOM     55  C   UNL A   1      42.603  27.251  30.323  1.00  0.00     0.049 A 
ATOM     56  C   UNL A   1      40.955  30.303  34.720  1.00  0.00     0.074 A 
ATOM     57  C   UNL A   1      43.751  26.496  30.486  1.00  0.00     0.029 A 
ATOM     58  N   UNL A   1      42.372  27.893  31.531  1.00  0.00    -0.354 N 
ATOM     59  N   UNL A   1      41.469  29.546  33.783  1.00  0.00    -0.248 NA
ATOM     60  C   UNL A   1      41.653  30.220  36.011  1.00  0.00     0.031 C 
ATOM     61  C   UNL A   1      44.194  26.651  31.803  1.00  0.00     0.029 A 
ATOM     62  C   UNL A   1      43.344  27.533  32.451  1.00  0.00     0.049 A 
ATOM     63  H   UNL A   1      41.627  28.512  31.709  1.00  0.00     0.167 HD
ATOM     64  C   UNL A   1      42.558  28.910  34.361  1.00  0.00     0.074 A 
ATOM     65  C   UNL A   1      42.642  29.383  35.727  1.00  0.00     0.031 C 
ATOM     66  C   UNL A   1      43.410  28.011  33.809  1.00  0.00     0.037 A 
BRANCH  53  67
ATOM     67  C   UNL A   1      42.096  26.551  27.949  1.00  0.00     0.064 A 
ATOM     68  C   UNL A   1      41.464  25.320  27.714  1.00  0.00     0.173 A 
ATOM     69  C   UNL A   1      43.040  26.993  27.010  1.00  0.00     0.173 A 
ATOM     70  F   UNL A   1      40.563  24.846  28.587  1.00  0.00    -0.203 F 
ATOM     71  C   UNL A   1      41.796  24.544  26.607  1.00  0.00     0.198 A 
ATOM     72  C   UNL A   1      43.345  26.228  25.887  1.00  0.00     0.198 A 
ATOM     73  F   UNL A   1      43.667  28.166  27.181  1.00  0.00    -0.203 F 
ATOM     74  F   UNL A   1      41.223  23.344  26.436  1.00  0.00    -0.200 F 
ATOM     75  C   UNL A   1      42.732  25.001  25.692  1.00  0.00     0.200 A 
ATOM     76  F   UNL A   1      44.243  26.676  24.997  1.00  0.00    -0.200 F 
ATOM     77  F   UNL A   1      43.050  24.252  24.627  1.00  0.00    -0.200 F 
ENDBRANCH  53  67
BRANCH  54  78
ATOM     78  C   UNL A   1      39.348  32.017  35.834  1.00  0.00     0.064 A 
ATOM     79  C   UNL A   1      39.910  33.276  36.086  1.00  0.00     0.173 A 
ATOM     80  C   UNL A   1      38.372  31.547  36.725  1.00  0.00     0.173 A 
ATOM     81  F   UNL A   1      40.863  33.758  35.274  1.00  0.00    -0.203 F 
ATOM     82  C   UNL A   1      39.519  34.032  37.188  1.00  0.00     0.198 A 
ATOM     83  C   UNL A   1      37.965  32.315  37.814  1.00  0.00     0.198 A 
ATOM     84  F   UNL A   1      37.802  30.350  36.525  1.00  0.00    -0.203 F 
ATOM     85  F   UNL A   1      40.096  35.219  37.423  1.00  0.00    -0.200 F 
ATOM     86  C   UNL A   1      38.541  33.554  38.048  1.00  0.00     0.200 A 
ATOM     87  F   UNL A   1      37.011  31.855  38.636  1.00  0.00    -0.200 F 
ATOM     88  F   UNL A   1      38.159  34.285  39.104  1.00  0.00    -0.200 F 
ENDBRANCH  54  78
BRANCH  66  89
ATOM     89  C   UNL A   1      44.516  27.495  34.679  1.00  0.00     0.064 A 
ATOM     90  C   UNL A   1      45.752  28.152  34.759  1.00  0.00     0.173 A 
ATOM     91  C   UNL A   1      44.325  26.352  35.470  1.00  0.00     0.173 A 
ATOM     92  F   UNL A   1      45.989  29.238  34.007  1.00  0.00    -0.203 F 
ATOM     93  C   UNL A   1      46.765  27.672  35.586  1.00  0.00     0.198 A 
ATOM     94  C   UNL A   1      45.331  25.891  36.316  1.00  0.00     0.198 A 
ATOM     95  F   UNL A   1      43.159  25.690  35.432  1.00  0.00    -0.203 F 
ATOM     96  F   UNL A   1      47.952  28.293  35.616  1.00  0.00    -0.200 F 
ATOM     97  C   UNL A   1      46.550  26.548  36.368  1.00  0.00     0.200 A 
ATOM     98  F   UNL A   1      45.119  24.809  37.079  1.00  0.00    -0.200 F 
ATOM     99  F   UNL A   1      47.524  26.092  37.169  1.00  0.00    -0.200 F 
ENDBRANCH  66  89
ENDBRANCH  40  41
ENDBRANCH  32  35
ENDBRANCH  30  31
ENDBRANCH  29  30
ENDBRANCH   1  29
TORSDOF 15
ENDMDL
MODEL 2
REMARK VINA RESULT:     -12.8      4.247     10.010
REMARK SMILES C=CC[C@@]1(C(=O)NCCCNC(=O)c2ccc(-c3c4nc(c(-c5c(F)c(F)c(F)c(F)c5F)c5ccc([nH]5)c(-c5c(F)c(F)c(F)c(F)c5F)c5nc(c(-c6c(F)c(F)c(F)c(F)c6F)c6ccc3[nH]6)C=C5)C=C4)cc2)CCCN(c2nccc(N3CCC(O)CC3)n2)C1
REMARK SMILES IDX 8 1 7 2 5 3 6 4 4 6 77 7 94 8 78 9 80 10 79 11 3 12 2 13
REMARK SMILES IDX 1 14 81 15 82 16 93 17 83 18 85 19 84 20 86 21 87 22 92 23
REMARK SMILES IDX 88 24 91 25 89 26 90 27 9 29 10 30 11 31 12 32 13 34 14 35
REMARK SMILES IDX 15 36 76 37 16 38 75 39 17 40 18 41 19 42 69 43 20 44 74 45
REMARK SMILES IDX 68 46 70 47 21 48 73 49 67 50 66 51 22 53 54 54 34 55 53 56
REMARK SMILES IDX 35 57 38 58 52 59 71 60 36 61 37 62 51 64 72 65 39 66 23 67
REMARK SMILES IDX 24 68 32 69 25 70 26 71 30 72 33 73 27 74 28 75 31 76 29 77
REMARK SMILES IDX 55 78 56 79 64 80 57 81 58 82 62 83 65 84 59 85 60 86 63 87
REMARK SMILES IDX 61 88 40 89 41 90 49 91 42 92 43 93 47 94 50 95 44 96 45 97
REMARK SMILES IDX 48 98 46 99
REMARK H PARENT 7 5 90 28 11 33 70 52 38 63
REMARK Flexibility Score: inf
ROOT
ATOM      1  C   UNL A   1      36.049  23.108  24.106  1.00  0.00     0.117 C 
ENDROOT
BRANCH   1   2
ATOM      2  N   UNL A   1      34.860  22.860  23.316  1.00  0.00    -0.355 N 
ATOM      3  C   UNL A   1      33.618  22.414  23.684  1.00  0.00     0.228 C 
ATOM      4  O   UNL A   1      32.751  22.519  22.806  1.00  0.00    -0.274 OA
ATOM      5  H   UNL A   1      34.962  23.043  22.353  1.00  0.00     0.163 HD
BRANCH   3   6
ATOM      6  C   UNL A   1      33.335  21.618  24.991  1.00  0.00     0.070 C 
ATOM      7  C   UNL A   1      31.796  21.309  25.131  1.00  0.00     0.021 C 
ATOM      8  C   UNL A   1      33.790  22.289  26.308  1.00  0.00     0.137 C 
ATOM      9  C   UNL A   1      30.928  22.417  25.740  1.00  0.00     0.023 C 
ATOM     10  N   UNL A   1      32.942  23.401  26.751  1.00  0.00    -0.340 N 
ATOM     11  C   UNL A   1      31.555  23.027  26.993  1.00  0.00     0.120 C 
BRANCH   6  12
ATOM     12  C   UNL A   1      34.132  20.277  24.735  1.00  0.00     0.045 C 
BRANCH  12  13
ATOM     13  C   UNL A   1      33.374  18.974  24.828  1.00  0.00    -0.034 C 
ATOM     14  C   UNL A   1      33.573  17.952  23.982  1.00  0.00     0.004 C 
ENDBRANCH  12  13
ENDBRANCH   6  12
BRANCH  10  15
ATOM     15  C   UNL A   1      33.057  24.621  26.095  1.00  0.00     0.227 A 
ATOM     16  N   UNL A   1      34.285  25.029  25.757  1.00  0.00    -0.221 NA
ATOM     17  N   UNL A   1      31.953  25.312  25.777  1.00  0.00    -0.196 NA
ATOM     18  C   UNL A   1      34.413  26.154  25.053  1.00  0.00     0.119 A 
ATOM     19  C   UNL A   1      32.087  26.432  25.029  1.00  0.00     0.134 A 
ATOM     20  C   UNL A   1      33.338  26.892  24.657  1.00  0.00     0.067 A 
BRANCH  19  21
ATOM     21  N   UNL A   1      30.962  27.156  24.657  1.00  0.00    -0.356 N 
ATOM     22  C   UNL A   1      30.186  26.727  23.500  1.00  0.00     0.121 C 
ATOM     23  C   UNL A   1      30.852  28.568  25.024  1.00  0.00     0.121 C 
ATOM     24  C   UNL A   1      30.549  27.567  22.282  1.00  0.00     0.053 C 
ATOM     25  C   UNL A   1      31.269  29.428  23.834  1.00  0.00     0.053 C 
ATOM     26  C   UNL A   1      30.445  29.060  22.602  1.00  0.00     0.118 C 
BRANCH  26  27
ATOM     27  O   UNL A   1      30.882  29.828  21.484  1.00  0.00    -0.393 OA
ATOM     28  H   UNL A   1      31.712  29.461  21.145  1.00  0.00     0.210 HD
ENDBRANCH  26  27
ENDBRANCH  19  21
ENDBRANCH  10  15
ENDBRANCH   3   6
ENDBRANCH   1   2
BRANCH   1  29
ATOM     29  C   UNL A   1      37.040  21.957  24.195  1.00  0.00     0.042 C 
BRANCH  29  30
ATOM     30  C   UNL A   1      37.375  21.427  25.583  1.00  0.00     0.118 C 
BRANCH  30  31
ATOM     31  N   UNL A   1      38.552  20.577  25.671  1.00  0.00    -0.352 N 
ATOM     32  C   UNL A   1      39.774  20.792  26.274  1.00  0.00     0.251 C 
ATOM     33  H   UNL A   1      38.462  19.704  25.227  1.00  0.00     0.163 HD
ATOM     34  O   UNL A   1      40.609  19.891  26.314  1.00  0.00    -0.269 OA
BRANCH  32  35
ATOM     35  C   UNL A   1      40.131  22.126  26.813  1.00  0.00     0.039 A 
ATOM     36  C   UNL A   1      41.045  22.194  27.872  1.00  0.00     0.014 A 
ATOM     37  C   UNL A   1      39.624  23.304  26.265  1.00  0.00     0.014 A 
ATOM     38  C   UNL A   1      41.547  23.431  28.284  1.00  0.00     0.010 A 
ATOM     39  C   UNL A   1      40.197  24.526  26.606  1.00  0.00     0.010 A 
ATOM     40  C   UNL A   1      41.184  24.603  27.602  1.00  0.00    -0.014 A 
BRANCH  40  41
ATOM     41  C   UNL A   1      41.852  25.905  27.869  1.00  0.00     0.031 A 
ATOM     42  C   UNL A   1      41.120  27.002  28.588  1.00  0.00     0.074 A 
ATOM     43  C   UNL A   1      43.080  26.138  27.363  1.00  0.00     0.049 A 
ATOM     44  N   UNL A   1      41.479  28.245  28.792  1.00  0.00    -0.248 NA
ATOM     45  C   UNL A   1      39.789  26.669  29.117  1.00  0.00     0.031 C 
ATOM     46  C   UNL A   1      43.874  25.178  26.593  1.00  0.00     0.029 A 
ATOM     47  N   UNL A   1      43.870  27.261  27.404  1.00  0.00    -0.354 N 
ATOM     48  C   UNL A   1      40.410  28.845  29.442  1.00  0.00     0.074 A 
ATOM     49  C   UNL A   1      39.370  27.846  29.558  1.00  0.00     0.031 C 
ATOM     50  C   UNL A   1      45.045  25.743  26.257  1.00  0.00     0.029 A 
ATOM     51  C   UNL A   1      45.068  27.117  26.747  1.00  0.00     0.049 A 
ATOM     52  H   UNL A   1      43.601  28.091  27.861  1.00  0.00     0.167 HD
ATOM     53  C   UNL A   1      40.311  30.110  29.918  1.00  0.00     0.037 A 
ATOM     54  C   UNL A   1      46.069  27.996  26.552  1.00  0.00     0.037 A 
ATOM     55  C   UNL A   1      41.362  31.092  29.838  1.00  0.00     0.049 A 
ATOM     56  C   UNL A   1      45.943  29.389  27.104  1.00  0.00     0.074 A 
ATOM     57  C   UNL A   1      41.391  32.372  30.362  1.00  0.00     0.029 A 
ATOM     58  N   UNL A   1      42.572  30.898  29.189  1.00  0.00    -0.354 N 
ATOM     59  N   UNL A   1      44.953  29.925  27.774  1.00  0.00    -0.248 NA
ATOM     60  C   UNL A   1      47.074  30.298  26.870  1.00  0.00     0.031 C 
ATOM     61  C   UNL A   1      42.604  32.966  29.999  1.00  0.00     0.029 A 
ATOM     62  C   UNL A   1      43.347  32.044  29.281  1.00  0.00     0.049 A 
ATOM     63  H   UNL A   1      42.841  30.070  28.730  1.00  0.00     0.167 HD
ATOM     64  C   UNL A   1      45.345  31.225  28.058  1.00  0.00     0.074 A 
ATOM     65  C   UNL A   1      46.672  31.393  27.501  1.00  0.00     0.031 C 
ATOM     66  C   UNL A   1      44.665  32.195  28.718  1.00  0.00     0.037 A 
BRANCH  53  67
ATOM     67  C   UNL A   1      39.018  30.501  30.573  1.00  0.00     0.064 A 
ATOM     68  C   UNL A   1      37.920  30.950  29.823  1.00  0.00     0.173 A 
ATOM     69  C   UNL A   1      38.869  30.413  31.965  1.00  0.00     0.173 A 
ATOM     70  F   UNL A   1      38.014  31.063  28.490  1.00  0.00    -0.203 F 
ATOM     71  C   UNL A   1      36.736  31.336  30.446  1.00  0.00     0.198 A 
ATOM     72  C   UNL A   1      37.672  30.771  32.582  1.00  0.00     0.198 A 
ATOM     73  F   UNL A   1      39.884  29.983  32.729  1.00  0.00    -0.203 F 
ATOM     74  F   UNL A   1      35.722  31.819  29.714  1.00  0.00    -0.200 F 
ATOM     75  C   UNL A   1      36.612  31.242  31.824  1.00  0.00     0.200 A 
ATOM     76  F   UNL A   1      37.549  30.669  33.912  1.00  0.00    -0.200 F 
ATOM     77  F   UNL A   1      35.471  31.614  32.421  1.00  0.00    -0.200 F 
ENDBRANCH  53  67
BRANCH  54  78
ATOM     78  C   UNL A   1      47.293  27.572  25.824  1.00  0.00     0.064 A 
ATOM     79  C   UNL A   1      47.372  27.695  24.430  1.00  0.00     0.173 A 
ATOM     80  C   UNL A   1      48.408  27.056  26.499  1.00  0.00     0.173 A 
ATOM     81  F   UNL A   1      46.322  28.164  23.739  1.00  0.00    -0.203 F 
ATOM     82  C   UNL A   1      48.516  27.309  23.737  1.00  0.00     0.198 A 
ATOM     83  C   UNL A   1      49.562  26.692  25.806  1.00  0.00     0.198 A 
ATOM     84  F   UNL A   1      48.383  26.923  27.833  1.00  0.00    -0.203 F 
ATOM     85  F   UNL A   1      48.553  27.406  22.401  1.00  0.00    -0.200 F 
ATOM     86  C   UNL A   1      49.613  26.814  24.426  1.00  0.00     0.200 A 
ATOM     87  F   UNL A   1      50.624  26.226  26.477  1.00  0.00    -0.200 F 
ATOM     88  F   UNL A   1      50.718  26.450  23.760  1.00  0.00    -0.200 F 
ENDBRANCH  54  78
BRANCH  66  89
ATOM     89  C   UNL A   1      45.351  33.517  28.887  1.00  0.00     0.064 A 
ATOM     90  C   UNL A   1      46.201  33.766  29.974  1.00  0.00     0.173 A 
ATOM     91  C   UNL A   1      45.187  34.532  27.933  1.00  0.00     0.173 A 
ATOM     92  F   UNL A   1      46.375  32.832  30.922  1.00  0.00    -0.203 F 
ATOM     93  C   UNL A   1      46.847  34.992  30.110  1.00  0.00     0.198 A 
ATOM     94  C   UNL A   1      45.855  35.746  28.059  1.00  0.00     0.198 A 
ATOM     95  F   UNL A   1      44.387  34.341  26.873  1.00  0.00    -0.203 F 
ATOM     96  F   UNL A   1      47.623  35.222  31.178  1.00  0.00    -0.200 F 
ATOM     97  C   UNL A   1      46.680  35.977  29.149  1.00  0.00     0.200 A 
ATOM     98  F   UNL A   1      45.700  36.695  27.124  1.00  0.00    -0.200 F 
ATOM     99  F   UNL A   1      47.308  37.154  29.277  1.00  0.00    -0.200 F 
ENDBRANCH  66  89
ENDBRANCH  40  41
ENDBRANCH  32  35
ENDBRANCH  30  31
ENDBRANCH  29  30
ENDBRANCH   1  29
TORSDOF 15
ENDMDL
MODEL 3
REMARK VINA RESULT:     -12.6      1.431      2.214
REMARK SMILES C=CC[C@@]1(C(=O)NCCCNC(=O)c2ccc(-c3c4nc(c(-c5c(F)c(F)c(F)c(F)c5F)c5ccc([nH]5)c(-c5c(F)c(F)c(F)c(F)c5F)c5nc(c(-c6c(F)c(F)c(F)c(F)c6F)c6ccc3[nH]6)C=C5)C=C4)cc2)CCCN(c2nccc(N3CCC(O)CC3)n2)C1
REMARK SMILES IDX 8 1 7 2 5 3 6 4 4 6 77 7 94 8 78 9 80 10 79 11 3 12 2 13
REMARK SMILES IDX 1 14 81 15 82 16 93 17 83 18 85 19 84 20 86 21 87 22 92 23
REMARK SMILES IDX 88 24 91 25 89 26 90 27 9 29 10 30 11 31 12 32 13 34 14 35
REMARK SMILES IDX 15 36 76 37 16 38 75 39 17 40 18 41 19 42 69 43 20 44 74 45
REMARK SMILES IDX 68 46 70 47 21 48 73 49 67 50 66 51 22 53 54 54 34 55 53 56
REMARK SMILES IDX 35 57 38 58 52 59 71 60 36 61 37 62 51 64 72 65 39 66 23 67
REMARK SMILES IDX 24 68 32 69 25 70 26 71 30 72 33 73 27 74 28 75 31 76 29 77
REMARK SMILES IDX 55 78 56 79 64 80 57 81 58 82 62 83 65 84 59 85 60 86 63 87
REMARK SMILES IDX 61 88 40 89 41 90 49 91 42 92 43 93 47 94 50 95 44 96 45 97
REMARK SMILES IDX 48 98 46 99
REMARK H PARENT 7 5 90 28 11 33 70 52 38 63
REMARK Flexibility Score: inf
ROOT
ATOM      1  C   UNL A   1      32.587  29.671  26.241  1.00  0.00     0.117 C 
ENDROOT
BRANCH   1   2
ATOM      2  N   UNL A   1      31.682  28.539  26.272  1.00  0.00    -0.355 N 
ATOM      3  C   UNL A   1      31.149  27.792  25.254  1.00  0.00     0.228 C 
ATOM      4  O   UNL A   1      30.584  26.752  25.619  1.00  0.00    -0.274 OA
ATOM      5  H   UNL A   1      31.403  28.261  27.174  1.00  0.00     0.163 HD
BRANCH   3   6
ATOM      6  C   UNL A   1      31.030  28.289  23.784  1.00  0.00     0.070 C 
ATOM      7  C   UNL A   1      30.031  27.383  22.970  1.00  0.00     0.021 C 
ATOM      8  C   UNL A   1      32.349  28.356  22.979  1.00  0.00     0.137 C 
ATOM      9  C   UNL A   1      30.607  26.090  22.378  1.00  0.00     0.023 C 
ATOM     10  N   UNL A   1      32.863  27.053  22.543  1.00  0.00    -0.340 N 
ATOM     11  C   UNL A   1      31.949  26.315  21.682  1.00  0.00     0.120 C 
BRANCH   6  12
ATOM     12  C   UNL A   1      30.413  29.732  23.977  1.00  0.00     0.045 C 
BRANCH  12  13
ATOM     13  C   UNL A   1      29.141  30.062  23.232  1.00  0.00    -0.034 C 
ATOM     14  C   UNL A   1      28.363  31.111  23.545  1.00  0.00     0.004 C 
ENDBRANCH  12  13
ENDBRANCH   6  12
BRANCH  10  15
ATOM     15  C   UNL A   1      33.483  26.239  23.484  1.00  0.00     0.227 A 
ATOM     16  N   UNL A   1      33.865  26.802  24.636  1.00  0.00    -0.221 NA
ATOM     17  N   UNL A   1      33.628  24.928  23.237  1.00  0.00    -0.196 NA
ATOM     18  C   UNL A   1      34.384  26.024  25.585  1.00  0.00     0.119 A 
ATOM     19  C   UNL A   1      34.120  24.139  24.220  1.00  0.00     0.134 A 
ATOM     20  C   UNL A   1      34.527  24.677  25.427  1.00  0.00     0.067 A 
BRANCH  19  21
ATOM     21  N   UNL A   1      34.255  22.773  24.009  1.00  0.00    -0.356 N 
ATOM     22  C   UNL A   1      33.080  21.982  23.662  1.00  0.00     0.121 C 
ATOM     23  C   UNL A   1      35.364  22.047  24.630  1.00  0.00     0.121 C 
ATOM     24  C   UNL A   1      32.548  21.262  24.894  1.00  0.00     0.053 C 
ATOM     25  C   UNL A   1      34.865  21.365  25.901  1.00  0.00     0.053 C 
ATOM     26  C   UNL A   1      33.664  20.476  25.586  1.00  0.00     0.118 C 
BRANCH  26  27
ATOM     27  O   UNL A   1      33.172  19.890  26.788  1.00  0.00    -0.393 OA
ATOM     28  H   UNL A   1      33.840  19.290  27.153  1.00  0.00     0.210 HD
ENDBRANCH  26  27
ENDBRANCH  19  21
ENDBRANCH  10  15
ENDBRANCH   3   6
ENDBRANCH   1   2
BRANCH   1  29
ATOM     29  C   UNL A   1      32.073  30.951  26.884  1.00  0.00     0.042 C 
BRANCH  29  30
ATOM     30  C   UNL A   1      33.103  32.007  27.261  1.00  0.00     0.118 C 
BRANCH  30  31
ATOM     31  N   UNL A   1      32.572  33.321  27.592  1.00  0.00    -0.352 N 
ATOM     32  C   UNL A   1      33.080  34.318  28.398  1.00  0.00     0.251 C 
ATOM     33  H   UNL A   1      31.708  33.532  27.171  1.00  0.00     0.163 HD
ATOM     34  O   UNL A   1      32.509  35.406  28.466  1.00  0.00    -0.269 OA
BRANCH  32  35
ATOM     35  C   UNL A   1      34.268  34.076  29.250  1.00  0.00     0.039 A 
ATOM     36  C   UNL A   1      34.082  33.457  30.492  1.00  0.00     0.014 A 
ATOM     37  C   UNL A   1      35.557  34.399  28.828  1.00  0.00     0.014 A 
ATOM     38  C   UNL A   1      35.188  33.046  31.241  1.00  0.00     0.010 A 
ATOM     39  C   UNL A   1      36.656  33.901  29.523  1.00  0.00     0.010 A 
ATOM     40  C   UNL A   1      36.484  33.196  30.725  1.00  0.00    -0.014 A 
BRANCH  40  41
ATOM     41  C   UNL A   1      37.668  32.585  31.388  1.00  0.00     0.031 A 
ATOM     42  C   UNL A   1      38.395  31.441  30.742  1.00  0.00     0.074 A 
ATOM     43  C   UNL A   1      38.018  32.989  32.626  1.00  0.00     0.049 A 
ATOM     44  N   UNL A   1      39.355  30.690  31.223  1.00  0.00    -0.248 NA
ATOM     45  C   UNL A   1      37.959  31.064  29.389  1.00  0.00     0.031 C 
ATOM     46  C   UNL A   1      37.356  34.049  33.390  1.00  0.00     0.029 A 
ATOM     47  N   UNL A   1      39.007  32.544  33.469  1.00  0.00    -0.354 N 
ATOM     48  C   UNL A   1      39.614  29.738  30.245  1.00  0.00     0.074 A 
ATOM     49  C   UNL A   1      38.680  29.975  29.166  1.00  0.00     0.031 C 
ATOM     50  C   UNL A   1      37.972  34.188  34.575  1.00  0.00     0.029 A 
ATOM     51  C   UNL A   1      39.041  33.201  34.675  1.00  0.00     0.049 A 
ATOM     52  H   UNL A   1      39.632  31.821  33.232  1.00  0.00     0.167 HD
ATOM     53  C   UNL A   1      40.559  28.766  30.240  1.00  0.00     0.037 A 
ATOM     54  C   UNL A   1      39.837  33.023  35.746  1.00  0.00     0.037 A 
ATOM     55  C   UNL A   1      41.513  28.557  31.298  1.00  0.00     0.049 A 
ATOM     56  C   UNL A   1      40.889  31.949  35.710  1.00  0.00     0.074 A 
ATOM     57  C   UNL A   1      42.562  27.656  31.350  1.00  0.00     0.029 A 
ATOM     58  N   UNL A   1      41.533  29.263  32.491  1.00  0.00    -0.354 N 
ATOM     59  N   UNL A   1      41.168  31.098  34.754  1.00  0.00    -0.248 NA
ATOM     60  C   UNL A   1      41.736  31.812  36.904  1.00  0.00     0.031 C 
ATOM     61  C   UNL A   1      43.193  27.790  32.591  1.00  0.00     0.029 A 
ATOM     62  C   UNL A   1      42.563  28.802  33.297  1.00  0.00     0.049 A 
ATOM     63  H   UNL A   1      40.908  29.985  32.732  1.00  0.00     0.167 HD
ATOM     64  C   UNL A   1      42.229  30.336  35.219  1.00  0.00     0.074 A 
ATOM     65  C   UNL A   1      42.557  30.837  36.538  1.00  0.00     0.031 C 
ATOM     66  C   UNL A   1      42.873  29.310  34.609  1.00  0.00     0.037 A 
BRANCH  53  67
ATOM     67  C   UNL A   1      40.605  27.857  29.046  1.00  0.00     0.064 A 
ATOM     68  C   UNL A   1      41.449  28.119  27.955  1.00  0.00     0.173 A 
ATOM     69  C   UNL A   1      39.806  26.705  28.996  1.00  0.00     0.173 A 
ATOM     70  F   UNL A   1      42.224  29.213  27.948  1.00  0.00    -0.203 F 
ATOM     71  C   UNL A   1      41.460  27.282  26.842  1.00  0.00     0.198 A 
ATOM     72  C   UNL A   1      39.844  25.854  27.894  1.00  0.00     0.198 A 
ATOM     73  F   UNL A   1      38.987  26.404  30.015  1.00  0.00    -0.203 F 
ATOM     74  F   UNL A   1      42.230  27.585  25.787  1.00  0.00    -0.200 F 
ATOM     75  C   UNL A   1      40.662  26.149  26.815  1.00  0.00     0.200 A 
ATOM     76  F   UNL A   1      39.080  24.753  27.873  1.00  0.00    -0.200 F 
ATOM     77  F   UNL A   1      40.674  25.346  25.742  1.00  0.00    -0.200 F 
ENDBRANCH  53  67
BRANCH  54  78
ATOM     78  C   UNL A   1      39.688  33.904  36.933  1.00  0.00     0.064 A 
ATOM     79  C   UNL A   1      40.333  35.148  36.983  1.00  0.00     0.173 A 
ATOM     80  C   UNL A   1      38.892  33.536  38.027  1.00  0.00     0.173 A 
ATOM     81  F   UNL A   1      41.123  35.534  35.970  1.00  0.00    -0.203 F 
ATOM     82  C   UNL A   1      40.195  35.986  38.087  1.00  0.00     0.198 A 
ATOM     83  C   UNL A   1      38.735  34.386  39.120  1.00  0.00     0.198 A 
ATOM     84  F   UNL A   1      38.251  32.358  38.024  1.00  0.00    -0.203 F 
ATOM     85  F   UNL A   1      40.849  37.155  38.124  1.00  0.00    -0.200 F 
ATOM     86  C   UNL A   1      39.391  35.608  39.152  1.00  0.00     0.200 A 
ATOM     87  F   UNL A   1      37.947  34.023  40.141  1.00  0.00    -0.200 F 
ATOM     88  F   UNL A   1      39.251  36.419  40.210  1.00  0.00    -0.200 F 
ENDBRANCH  54  78
BRANCH  66  89
ATOM     89  C   UNL A   1      44.006  28.674  35.356  1.00  0.00     0.064 A 
ATOM     90  C   UNL A   1      45.328  29.111  35.192  1.00  0.00     0.173 A 
ATOM     91  C   UNL A   1      43.763  27.641  36.274  1.00  0.00     0.173 A 
ATOM     92  F   UNL A   1      45.613  30.084  34.311  1.00  0.00    -0.203 F 
ATOM     93  C   UNL A   1      46.369  28.524  35.906  1.00  0.00     0.198 A 
ATOM     94  C   UNL A   1      44.804  27.074  37.005  1.00  0.00     0.198 A 
ATOM     95  F   UNL A   1      42.515  27.190  36.469  1.00  0.00    -0.203 F 
ATOM     96  F   UNL A   1      47.630  28.930  35.702  1.00  0.00    -0.200 F 
ATOM     97  C   UNL A   1      46.105  27.513  36.816  1.00  0.00     0.200 A 
ATOM     98  F   UNL A   1      44.546  26.103  37.892  1.00  0.00    -0.200 F 
ATOM     99  F   UNL A   1      47.108  26.953  37.508  1.00  0.00    -0.200 F 
ENDBRANCH  66  89
ENDBRANCH  40  41
ENDBRANCH  32  35
ENDBRANCH  30  31
ENDBRANCH  29  30
ENDBRANCH   1  29
TORSDOF 15
ENDMDL
