MODEL 1
REMARK VINA RESULT:     -10.6      0.000      0.000
REMARK SMILES CCN(Cc1ccc(Br)s1)C(=O)C[N@@H+](C)CC(=O)NCCCNC(=O)c1ccc(-c2c3nc(c(-c4c(F)c(F)c(F)c(F)c4F)c4ccc([nH]4)c(-c4c(F)c(F)c(F)c(F)c4F)c4nc(c(-c5c(F)c(F)c(F)c(F)c5F)c5ccc2[nH]5)C=C4)C=C3)cc1
REMARK SMILES IDX 17 1 18 2 19 3 16 5 14 6 15 7 13 9 11 10 12 11 3 12 2 13
REMARK SMILES IDX 1 14 4 15 5 16 6 17 10 18 7 19 8 20 9 21 20 22 21 23 22 24
REMARK SMILES IDX 23 25 24 26 25 28 26 29 27 30 88 31 28 32 87 33 29 34 30 35
REMARK SMILES IDX 31 36 81 37 32 38 86 39 80 40 82 41 33 42 85 43 79 44 78 45
REMARK SMILES IDX 34 47 66 48 46 49 65 50 47 51 50 52 64 53 83 54 48 55 49 56
REMARK SMILES IDX 63 58 84 59 51 60 35 61 36 62 44 63 37 64 38 65 42 66 45 67
REMARK SMILES IDX 39 68 40 69 43 70 41 71 67 72 68 73 76 74 69 75 70 76 74 77
REMARK SMILES IDX 77 78 71 79 72 80 75 81 73 82 52 83 53 84 61 85 54 86 55 87
REMARK SMILES IDX 59 88 62 89 56 90 57 91 60 92 58 93
REMARK H PARENT 19 4 14 8 23 27 82 46 50 57
REMARK Flexibility Score: inf
ROOT
ATOM      1  C   UNL A   1      29.881  29.850  23.390  1.00  0.00     0.275 C 
ATOM      2  O   UNL A   1      29.184  30.253  22.455  1.00  0.00    -0.269 OA
ATOM      3  N   UNL A   1      30.305  30.787  24.282  1.00  0.00    -0.351 N 
ATOM      4  H   UNL A   1      29.953  31.693  24.125  1.00  0.00     0.163 HD
ENDROOT
BRANCH   1   5
ATOM      5  C   UNL A   1      30.204  28.363  23.563  1.00  0.00     0.363 C 
BRANCH   5   6
ATOM      6  N   UNL A   1      31.491  27.896  23.018  1.00  0.00    -0.322 N 
ATOM      7  C   UNL A   1      32.376  28.919  22.502  1.00  0.00     0.333 C 
ATOM      8  H   UNL A   1      31.949  27.575  23.871  1.00  0.00     0.348 HD
BRANCH   6   9
ATOM      9  C   UNL A   1      31.420  26.710  22.149  1.00  0.00     0.363 C 
BRANCH   9  10
ATOM     10  C   UNL A   1      32.668  25.826  22.285  1.00  0.00     0.278 C 
ATOM     11  O   UNL A   1      33.554  25.889  21.427  1.00  0.00    -0.268 OA
BRANCH  10  12
ATOM     12  N   UNL A   1      32.798  24.992  23.399  1.00  0.00    -0.333 N 
BRANCH  12  13
ATOM     13  C   UNL A   1      33.713  23.860  23.281  1.00  0.00     0.116 C 
ATOM     14  C   UNL A   1      33.001  22.616  22.760  1.00  0.00     0.027 C 
ENDBRANCH  12  13
BRANCH  12  15
ATOM     15  C   UNL A   1      31.979  25.060  24.608  1.00  0.00     0.166 C 
BRANCH  15  16
ATOM     16  C   UNL A   1      32.379  26.136  25.589  1.00  0.00     0.025 A 
ATOM     17  C   UNL A   1      31.551  26.713  26.543  1.00  0.00     0.018 A 
ATOM     18  S   UNL A   1      33.958  26.815  25.684  1.00  0.00    -0.131 S 
ATOM     19  C   UNL A   1      32.172  27.794  27.237  1.00  0.00     0.028 A 
ATOM     20  C   UNL A   1      33.459  27.977  26.807  1.00  0.00     0.070 A 
ATOM     21  Br  UNL A   1      34.562  29.368  27.407  1.00  0.00    -0.039 Br
ENDBRANCH  15  16
ENDBRANCH  12  15
ENDBRANCH  10  12
ENDBRANCH   9  10
ENDBRANCH   6   9
ENDBRANCH   5   6
ENDBRANCH   1   5
BRANCH   3  22
ATOM     22  C   UNL A   1      31.189  30.669  25.422  1.00  0.00     0.118 C 
BRANCH  22  23
ATOM     23  C   UNL A   1      31.022  31.849  26.373  1.00  0.00     0.042 C 
BRANCH  23  24
ATOM     24  C   UNL A   1      32.324  32.396  26.939  1.00  0.00     0.118 C 
BRANCH  24  25
ATOM     25  N   UNL A   1      32.232  33.798  27.304  1.00  0.00    -0.352 N 
ATOM     26  C   UNL A   1      32.894  34.516  28.268  1.00  0.00     0.251 C 
ATOM     27  H   UNL A   1      31.588  34.318  26.773  1.00  0.00     0.163 HD
ATOM     28  O   UNL A   1      32.514  35.655  28.526  1.00  0.00    -0.269 OA
BRANCH  26  29
ATOM     29  C   UNL A   1      34.043  33.945  29.013  1.00  0.00     0.039 A 
ATOM     30  C   UNL A   1      35.327  34.417  28.714  1.00  0.00     0.014 A 
ATOM     31  C   UNL A   1      33.892  32.907  29.935  1.00  0.00     0.014 A 
ATOM     32  C   UNL A   1      36.442  33.877  29.361  1.00  0.00     0.010 A 
ATOM     33  C   UNL A   1      34.994  32.432  30.646  1.00  0.00     0.010 A 
ATOM     34  C   UNL A   1      36.284  32.891  30.346  1.00  0.00    -0.014 A 
BRANCH  34  35
ATOM     35  C   UNL A   1      37.461  32.284  31.025  1.00  0.00     0.031 A 
ATOM     36  C   UNL A   1      38.246  31.198  30.337  1.00  0.00     0.074 A 
ATOM     37  C   UNL A   1      37.799  32.674  32.268  1.00  0.00     0.049 A 
ATOM     38  N   UNL A   1      39.261  30.501  30.780  1.00  0.00    -0.248 NA
ATOM     39  C   UNL A   1      37.814  30.828  28.980  1.00  0.00     0.031 C 
ATOM     40  C   UNL A   1      37.097  33.683  33.059  1.00  0.00     0.029 A 
ATOM     41  N   UNL A   1      38.820  32.260  33.087  1.00  0.00    -0.354 N 
ATOM     42  C   UNL A   1      39.568  29.596  29.771  1.00  0.00     0.074 A 
ATOM     43  C   UNL A   1      38.602  29.799  28.713  1.00  0.00     0.031 C 
ATOM     44  C   UNL A   1      37.721  33.828  34.240  1.00  0.00     0.029 A 
ATOM     45  C   UNL A   1      38.846  32.900  34.302  1.00  0.00     0.049 A 
ATOM     46  H   UNL A   1      39.472  31.569  32.829  1.00  0.00     0.167 HD
ATOM     47  C   UNL A   1      40.578  28.695  29.718  1.00  0.00     0.037 A 
ATOM     48  C   UNL A   1      39.684  32.754  35.345  1.00  0.00     0.037 A 
ATOM     49  C   UNL A   1      41.566  28.525  30.749  1.00  0.00     0.049 A 
ATOM     50  C   UNL A   1      40.814  31.764  35.252  1.00  0.00     0.074 A 
ATOM     51  C   UNL A   1      42.666  27.685  30.761  1.00  0.00     0.029 A 
ATOM     52  N   UNL A   1      41.578  29.218  31.950  1.00  0.00    -0.354 N 
ATOM     53  N   UNL A   1      41.128  30.958  34.268  1.00  0.00    -0.248 NA
ATOM     54  C   UNL A   1      41.712  31.673  36.412  1.00  0.00     0.031 C 
ATOM     55  C   UNL A   1      43.325  27.846  31.984  1.00  0.00     0.029 A 
ATOM     56  C   UNL A   1      42.659  28.816  32.717  1.00  0.00     0.049 A 
ATOM     57  H   UNL A   1      40.915  29.895  32.217  1.00  0.00     0.167 HD
ATOM     58  C   UNL A   1      42.272  30.285  34.676  1.00  0.00     0.074 A 
ATOM     59  C   UNL A   1      42.605  30.786  35.993  1.00  0.00     0.031 C 
ATOM     60  C   UNL A   1      42.983  29.337  34.019  1.00  0.00     0.037 A 
BRANCH  47  61
ATOM     61  C   UNL A   1      40.669  27.829  28.495  1.00  0.00     0.064 A 
ATOM     62  C   UNL A   1      41.413  28.219  27.372  1.00  0.00     0.173 A 
ATOM     63  C   UNL A   1      40.028  26.581  28.458  1.00  0.00     0.173 A 
ATOM     64  F   UNL A   1      42.033  29.408  27.353  1.00  0.00    -0.203 F 
ATOM     65  C   UNL A   1      41.486  27.406  26.243  1.00  0.00     0.198 A 
ATOM     66  C   UNL A   1      40.127  25.759  27.338  1.00  0.00     0.198 A 
ATOM     67  F   UNL A   1      39.310  26.157  29.508  1.00  0.00    -0.203 F 
ATOM     68  F   UNL A   1      42.160  27.824  25.162  1.00  0.00    -0.200 F 
ATOM     69  C   UNL A   1      40.849  26.175  26.229  1.00  0.00     0.200 A 
ATOM     70  F   UNL A   1      39.522  24.563  27.331  1.00  0.00    -0.200 F 
ATOM     71  F   UNL A   1      40.924  25.393  25.144  1.00  0.00    -0.200 F 
ENDBRANCH  47  61
BRANCH  48  72
ATOM     72  C   UNL A   1      39.509  33.593  36.560  1.00  0.00     0.064 A 
ATOM     73  C   UNL A   1      38.784  33.118  37.661  1.00  0.00     0.173 A 
ATOM     74  C   UNL A   1      40.059  34.880  36.644  1.00  0.00     0.173 A 
ATOM     75  F   UNL A   1      38.222  31.900  37.617  1.00  0.00    -0.203 F 
ATOM     76  C   UNL A   1      38.600  33.905  38.795  1.00  0.00     0.198 A 
ATOM     77  C   UNL A   1      39.895  35.657  37.789  1.00  0.00     0.198 A 
ATOM     78  F   UNL A   1      40.765  35.378  35.619  1.00  0.00    -0.203 F 
ATOM     79  F   UNL A   1      37.868  33.443  39.817  1.00  0.00    -0.200 F 
ATOM     80  C   UNL A   1      39.160  35.173  38.861  1.00  0.00     0.200 A 
ATOM     81  F   UNL A   1      40.449  36.876  37.855  1.00  0.00    -0.200 F 
ATOM     82  F   UNL A   1      38.986  35.928  39.953  1.00  0.00    -0.200 F 
ENDBRANCH  48  72
BRANCH  60  83
ATOM     83  C   UNL A   1      44.211  28.805  34.696  1.00  0.00     0.064 A 
ATOM     84  C   UNL A   1      44.167  27.664  35.508  1.00  0.00     0.173 A 
ATOM     85  C   UNL A   1      45.455  29.424  34.494  1.00  0.00     0.173 A 
ATOM     86  F   UNL A   1      42.999  27.046  35.742  1.00  0.00    -0.203 F 
ATOM     87  C   UNL A   1      45.321  27.171  36.110  1.00  0.00     0.198 A 
ATOM     88  C   UNL A   1      46.610  28.914  35.078  1.00  0.00     0.198 A 
ATOM     89  F   UNL A   1      45.549  30.517  33.721  1.00  0.00    -0.203 F 
ATOM     90  F   UNL A   1      45.250  26.103  36.917  1.00  0.00    -0.200 F 
ATOM     91  C   UNL A   1      46.542  27.793  35.891  1.00  0.00     0.200 A 
ATOM     92  F   UNL A   1      47.790  29.510  34.856  1.00  0.00    -0.200 F 
ATOM     93  F   UNL A   1      47.653  27.313  36.467  1.00  0.00    -0.200 F 
ENDBRANCH  60  83
ENDBRANCH  34  35
ENDBRANCH  26  29
ENDBRANCH  24  25
ENDBRANCH  23  24
ENDBRANCH  22  23
ENDBRANCH   3  22
TORSDOF 17
ENDMDL
MODEL 2
REMARK VINA RESULT:     -10.5      5.266     10.495
REMARK SMILES CCN(Cc1ccc(Br)s1)C(=O)C[N@@H+](C)CC(=O)NCCCNC(=O)c1ccc(-c2c3nc(c(-c4c(F)c(F)c(F)c(F)c4F)c4ccc([nH]4)c(-c4c(F)c(F)c(F)c(F)c4F)c4nc(c(-c5c(F)c(F)c(F)c(F)c5F)c5ccc2[nH]5)C=C4)C=C3)cc1
REMARK SMILES IDX 17 1 18 2 19 3 16 5 14 6 15 7 13 9 11 10 12 11 3 12 2 13
REMARK SMILES IDX 1 14 4 15 5 16 6 17 10 18 7 19 8 20 9 21 20 22 21 23 22 24
REMARK SMILES IDX 23 25 24 26 25 28 26 29 27 30 88 31 28 32 87 33 29 34 30 35
REMARK SMILES IDX 31 36 81 37 32 38 86 39 80 40 82 41 33 42 85 43 79 44 78 45
REMARK SMILES IDX 34 47 66 48 46 49 65 50 47 51 50 52 64 53 83 54 48 55 49 56
REMARK SMILES IDX 63 58 84 59 51 60 35 61 36 62 44 63 37 64 38 65 42 66 45 67
REMARK SMILES IDX 39 68 40 69 43 70 41 71 67 72 68 73 76 74 69 75 70 76 74 77
REMARK SMILES IDX 77 78 71 79 72 80 75 81 73 82 52 83 53 84 61 85 54 86 55 87
REMARK SMILES IDX 59 88 62 89 56 90 57 91 60 92 58 93
REMARK H PARENT 19 4 14 8 23 27 82 46 50 57
REMARK Flexibility Score: inf
ROOT
ATOM      1  C   UNL A   1      34.017  19.635  24.905  1.00  0.00     0.275 C 
ATOM      2  O   UNL A   1      33.304  18.636  25.028  1.00  0.00    -0.269 OA
ATOM      3  N   UNL A   1      35.360  19.443  25.016  1.00  0.00    -0.351 N 
ATOM      4  H   UNL A   1      35.634  18.504  25.118  1.00  0.00     0.163 HD
ENDROOT
BRANCH   1   5
ATOM      5  C   UNL A   1      33.418  21.009  24.591  1.00  0.00     0.363 C 
BRANCH   5   6
ATOM      6  N   UNL A   1      33.035  21.845  25.743  1.00  0.00    -0.322 N 
ATOM      7  C   UNL A   1      33.488  21.391  27.041  1.00  0.00     0.333 C 
ATOM      8  H   UNL A   1      33.592  22.680  25.561  1.00  0.00     0.348 HD
BRANCH   6   9
ATOM      9  C   UNL A   1      31.638  22.309  25.755  1.00  0.00     0.363 C 
BRANCH   9  10
ATOM     10  C   UNL A   1      31.527  23.780  26.176  1.00  0.00     0.278 C 
ATOM     11  O   UNL A   1      31.098  24.061  27.300  1.00  0.00    -0.268 OA
BRANCH  10  12
ATOM     12  N   UNL A   1      31.951  24.778  25.294  1.00  0.00    -0.333 N 
BRANCH  12  13
ATOM     13  C   UNL A   1      32.799  25.835  25.840  1.00  0.00     0.116 C 
ATOM     14  C   UNL A   1      33.993  26.118  24.935  1.00  0.00     0.027 C 
ENDBRANCH  12  13
BRANCH  12  15
ATOM     15  C   UNL A   1      31.488  24.945  23.918  1.00  0.00     0.166 C 
BRANCH  15  16
ATOM     16  C   UNL A   1      30.607  26.149  23.683  1.00  0.00     0.025 A 
ATOM     17  C   UNL A   1      29.250  26.229  23.966  1.00  0.00     0.018 A 
ATOM     18  S   UNL A   1      31.166  27.639  23.027  1.00  0.00    -0.131 S 
ATOM     19  C   UNL A   1      28.659  27.447  23.515  1.00  0.00     0.028 A 
ATOM     20  C   UNL A   1      29.595  28.261  22.935  1.00  0.00     0.070 A 
ATOM     21  Br  UNL A   1      29.184  29.900  22.127  1.00  0.00    -0.039 Br
ENDBRANCH  15  16
ENDBRANCH  12  15
ENDBRANCH  10  12
ENDBRANCH   9  10
ENDBRANCH   6   9
ENDBRANCH   5   6
ENDBRANCH   1   5
BRANCH   3  22
ATOM     22  C   UNL A   1      36.450  20.396  25.009  1.00  0.00     0.118 C 
BRANCH  22  23
ATOM     23  C   UNL A   1      37.792  19.696  24.819  1.00  0.00     0.042 C 
BRANCH  23  24
ATOM     24  C   UNL A   1      38.909  20.215  25.712  1.00  0.00     0.118 C 
BRANCH  24  25
ATOM     25  N   UNL A   1      39.994  19.263  25.863  1.00  0.00    -0.352 N 
ATOM     26  C   UNL A   1      41.329  19.461  26.111  1.00  0.00     0.251 C 
ATOM     27  H   UNL A   1      39.728  18.320  25.771  1.00  0.00     0.163 HD
ATOM     28  O   UNL A   1      42.101  18.511  26.009  1.00  0.00    -0.269 OA
BRANCH  26  29
ATOM     29  C   UNL A   1      41.862  20.795  26.486  1.00  0.00     0.039 A 
ATOM     30  C   UNL A   1      42.102  21.056  27.840  1.00  0.00     0.014 A 
ATOM     31  C   UNL A   1      42.055  21.811  25.548  1.00  0.00     0.014 A 
ATOM     32  C   UNL A   1      42.563  22.312  28.243  1.00  0.00     0.010 A 
ATOM     33  C   UNL A   1      42.601  23.034  25.937  1.00  0.00     0.010 A 
ATOM     34  C   UNL A   1      42.834  23.308  27.292  1.00  0.00    -0.014 A 
BRANCH  34  35
ATOM     35  C   UNL A   1      43.298  24.660  27.702  1.00  0.00     0.031 A 
ATOM     36  C   UNL A   1      42.292  25.719  28.070  1.00  0.00     0.074 A 
ATOM     37  C   UNL A   1      44.612  24.952  27.706  1.00  0.00     0.049 A 
ATOM     38  N   UNL A   1      42.487  26.972  28.395  1.00  0.00    -0.248 NA
ATOM     39  C   UNL A   1      40.875  25.323  28.043  1.00  0.00     0.031 C 
ATOM     40  C   UNL A   1      45.685  24.031  27.330  1.00  0.00     0.029 A 
ATOM     41  N   UNL A   1      45.270  26.112  28.031  1.00  0.00    -0.354 N 
ATOM     42  C   UNL A   1      41.222  27.517  28.581  1.00  0.00     0.074 A 
ATOM     43  C   UNL A   1      40.265  26.472  28.287  1.00  0.00     0.031 C 
ATOM     44  C   UNL A   1      46.867  24.653  27.470  1.00  0.00     0.029 A 
ATOM     45  C   UNL A   1      46.635  26.025  27.912  1.00  0.00     0.049 A 
ATOM     46  H   UNL A   1      44.806  26.931  28.322  1.00  0.00     0.167 HD
ATOM     47  C   UNL A   1      40.888  28.764  28.985  1.00  0.00     0.037 A 
ATOM     48  C   UNL A   1      47.589  26.947  28.136  1.00  0.00     0.037 A 
ATOM     49  C   UNL A   1      41.839  29.789  29.324  1.00  0.00     0.049 A 
ATOM     50  C   UNL A   1      47.194  28.320  28.610  1.00  0.00     0.074 A 
ATOM     51  C   UNL A   1      41.601  31.064  29.805  1.00  0.00     0.029 A 
ATOM     52  N   UNL A   1      43.214  29.649  29.222  1.00  0.00    -0.354 N 
ATOM     53  N   UNL A   1      45.997  28.802  28.839  1.00  0.00    -0.248 NA
ATOM     54  C   UNL A   1      48.283  29.272  28.865  1.00  0.00     0.031 C 
ATOM     55  C   UNL A   1      42.832  31.708  29.965  1.00  0.00     0.029 A 
ATOM     56  C   UNL A   1      43.839  30.820  29.621  1.00  0.00     0.049 A 
ATOM     57  H   UNL A   1      43.679  28.838  28.913  1.00  0.00     0.167 HD
ATOM     58  C   UNL A   1      46.189  30.100  29.291  1.00  0.00     0.074 A 
ATOM     59  C   UNL A   1      47.619  30.328  29.315  1.00  0.00     0.031 C 
ATOM     60  C   UNL A   1      45.264  31.023  29.653  1.00  0.00     0.037 A 
BRANCH  47  61
ATOM     61  C   UNL A   1      39.425  29.088  29.095  1.00  0.00     0.064 A 
ATOM     62  C   UNL A   1      38.752  29.038  30.324  1.00  0.00     0.173 A 
ATOM     63  C   UNL A   1      38.697  29.479  27.962  1.00  0.00     0.173 A 
ATOM     64  F   UNL A   1      39.401  28.658  31.435  1.00  0.00    -0.203 F 
ATOM     65  C   UNL A   1      37.394  29.338  30.410  1.00  0.00     0.198 A 
ATOM     66  C   UNL A   1      37.346  29.805  28.057  1.00  0.00     0.198 A 
ATOM     67  F   UNL A   1      39.294  29.549  26.763  1.00  0.00    -0.203 F 
ATOM     68  F   UNL A   1      36.761  29.233  31.587  1.00  0.00    -0.200 F 
ATOM     69  C   UNL A   1      36.694  29.727  29.278  1.00  0.00     0.200 A 
ATOM     70  F   UNL A   1      36.673  30.194  26.964  1.00  0.00    -0.200 F 
ATOM     71  F   UNL A   1      35.389  30.019  29.364  1.00  0.00    -0.200 F 
ENDBRANCH  47  61
BRANCH  48  72
ATOM     72  C   UNL A   1      49.021  26.593  27.949  1.00  0.00     0.064 A 
ATOM     73  C   UNL A   1      49.831  26.278  29.048  1.00  0.00     0.173 A 
ATOM     74  C   UNL A   1      49.606  26.562  26.675  1.00  0.00     0.173 A 
ATOM     75  F   UNL A   1      49.320  26.315  30.288  1.00  0.00    -0.203 F 
ATOM     76  C   UNL A   1      51.177  25.963  28.883  1.00  0.00     0.198 A 
ATOM     77  C   UNL A   1      50.946  26.222  26.508  1.00  0.00     0.198 A 
ATOM     78  F   UNL A   1      48.871  26.850  25.591  1.00  0.00    -0.203 F 
ATOM     79  F   UNL A   1      51.940  25.706  29.955  1.00  0.00    -0.200 F 
ATOM     80  C   UNL A   1      51.733  25.929  27.613  1.00  0.00     0.200 A 
ATOM     81  F   UNL A   1      51.477  26.177  25.279  1.00  0.00    -0.200 F 
ATOM     82  F   UNL A   1      53.027  25.622  27.454  1.00  0.00    -0.200 F 
ENDBRANCH  48  72
BRANCH  60  83
ATOM     83  C   UNL A   1      45.768  32.348  30.142  1.00  0.00     0.064 A 
ATOM     84  C   UNL A   1      45.957  33.429  29.270  1.00  0.00     0.173 A 
ATOM     85  C   UNL A   1      46.024  32.549  31.507  1.00  0.00     0.173 A 
ATOM     86  F   UNL A   1      45.740  33.281  27.954  1.00  0.00    -0.203 F 
ATOM     87  C   UNL A   1      46.405  34.659  29.744  1.00  0.00     0.198 A 
ATOM     88  C   UNL A   1      46.447  33.787  31.981  1.00  0.00     0.198 A 
ATOM     89  F   UNL A   1      45.852  31.546  32.382  1.00  0.00    -0.203 F 
ATOM     90  F   UNL A   1      46.620  35.667  28.887  1.00  0.00    -0.200 F 
ATOM     91  C   UNL A   1      46.644  34.838  31.099  1.00  0.00     0.200 A 
ATOM     92  F   UNL A   1      46.666  33.961  33.291  1.00  0.00    -0.200 F 
ATOM     93  F   UNL A   1      47.069  36.025  31.554  1.00  0.00    -0.200 F 
ENDBRANCH  60  83
ENDBRANCH  34  35
ENDBRANCH  26  29
ENDBRANCH  24  25
ENDBRANCH  23  24
ENDBRANCH  22  23
ENDBRANCH   3  22
TORSDOF 17
ENDMDL
MODEL 3
REMARK VINA RESULT:     -10.5      5.598     11.031
REMARK SMILES CCN(Cc1ccc(Br)s1)C(=O)C[N@@H+](C)CC(=O)NCCCNC(=O)c1ccc(-c2c3nc(c(-c4c(F)c(F)c(F)c(F)c4F)c4ccc([nH]4)c(-c4c(F)c(F)c(F)c(F)c4F)c4nc(c(-c5c(F)c(F)c(F)c(F)c5F)c5ccc2[nH]5)C=C4)C=C3)cc1
REMARK SMILES IDX 17 1 18 2 19 3 16 5 14 6 15 7 13 9 11 10 12 11 3 12 2 13
REMARK SMILES IDX 1 14 4 15 5 16 6 17 10 18 7 19 8 20 9 21 20 22 21 23 22 24
REMARK SMILES IDX 23 25 24 26 25 28 26 29 27 30 88 31 28 32 87 33 29 34 30 35
REMARK SMILES IDX 31 36 81 37 32 38 86 39 80 40 82 41 33 42 85 43 79 44 78 45
REMARK SMILES IDX 34 47 66 48 46 49 65 50 47 51 50 52 64 53 83 54 48 55 49 56
REMARK SMILES IDX 63 58 84 59 51 60 35 61 36 62 44 63 37 64 38 65 42 66 45 67
REMARK SMILES IDX 39 68 40 69 43 70 41 71 67 72 68 73 76 74 69 75 70 76 74 77
REMARK SMILES IDX 77 78 71 79 72 80 75 81 73 82 52 83 53 84 61 85 54 86 55 87
REMARK SMILES IDX 59 88 62 89 56 90 57 91 60 92 58 93
REMARK H PARENT 19 4 14 8 23 27 82 46 50 57
REMARK Flexibility Score: inf
ROOT
ATOM      1  C   UNL A   1      34.099  19.242  24.840  1.00  0.00     0.275 C 
ATOM      2  O   UNL A   1      33.426  18.216  24.971  1.00  0.00    -0.269 OA
ATOM      3  N   UNL A   1      35.445  19.113  25.001  1.00  0.00    -0.351 N 
ATOM      4  H   UNL A   1      35.755  18.191  25.144  1.00  0.00     0.163 HD
ENDROOT
BRANCH   1   5
ATOM      5  C   UNL A   1      33.453  20.577  24.461  1.00  0.00     0.363 C 
BRANCH   5   6
ATOM      6  N   UNL A   1      33.081  21.473  25.570  1.00  0.00    -0.322 N 
ATOM      7  C   UNL A   1      33.531  21.078  26.889  1.00  0.00     0.333 C 
ATOM      8  H   UNL A   1      33.646  22.292  25.347  1.00  0.00     0.348 HD
BRANCH   6   9
ATOM      9  C   UNL A   1      31.689  21.952  25.561  1.00  0.00     0.363 C 
BRANCH   9  10
ATOM     10  C   UNL A   1      31.576  23.391  26.082  1.00  0.00     0.278 C 
ATOM     11  O   UNL A   1      31.380  23.588  27.286  1.00  0.00    -0.268 OA
BRANCH  10  12
ATOM     12  N   UNL A   1      31.736  24.457  25.192  1.00  0.00    -0.333 N 
BRANCH  12  13
ATOM     13  C   UNL A   1      30.929  25.651  25.430  1.00  0.00     0.116 C 
ATOM     14  C   UNL A   1      31.737  26.743  26.124  1.00  0.00     0.027 C 
ENDBRANCH  12  13
BRANCH  12  15
ATOM     15  C   UNL A   1      32.516  24.418  23.956  1.00  0.00     0.166 C 
BRANCH  15  16
ATOM     16  C   UNL A   1      33.998  24.192  24.144  1.00  0.00     0.025 A 
ATOM     17  C   UNL A   1      34.854  23.615  23.216  1.00  0.00     0.018 A 
ATOM     18  S   UNL A   1      34.868  24.637  25.561  1.00  0.00    -0.131 S 
ATOM     19  C   UNL A   1      36.171  23.415  23.726  1.00  0.00     0.028 A 
ATOM     20  C   UNL A   1      36.276  23.876  25.011  1.00  0.00     0.070 A 
ATOM     21  Br  UNL A   1      37.820  23.693  26.054  1.00  0.00    -0.039 Br
ENDBRANCH  15  16
ENDBRANCH  12  15
ENDBRANCH  10  12
ENDBRANCH   9  10
ENDBRANCH   6   9
ENDBRANCH   5   6
ENDBRANCH   1   5
BRANCH   3  22
ATOM     22  C   UNL A   1      36.491  20.112  25.000  1.00  0.00     0.118 C 
BRANCH  22  23
ATOM     23  C   UNL A   1      37.863  19.473  24.804  1.00  0.00     0.042 C 
BRANCH  23  24
ATOM     24  C   UNL A   1      38.958  20.037  25.696  1.00  0.00     0.118 C 
BRANCH  24  25
ATOM     25  N   UNL A   1      40.039  19.095  25.920  1.00  0.00    -0.352 N 
ATOM     26  C   UNL A   1      41.380  19.306  26.125  1.00  0.00     0.251 C 
ATOM     27  H   UNL A   1      39.766  18.150  25.925  1.00  0.00     0.163 HD
ATOM     28  O   UNL A   1      42.143  18.343  26.101  1.00  0.00    -0.269 OA
BRANCH  26  29
ATOM     29  C   UNL A   1      41.928  20.664  26.358  1.00  0.00     0.039 A 
ATOM     30  C   UNL A   1      42.212  21.047  27.675  1.00  0.00     0.014 A 
ATOM     31  C   UNL A   1      42.094  21.589  25.325  1.00  0.00     0.014 A 
ATOM     32  C   UNL A   1      42.690  22.332  27.946  1.00  0.00     0.010 A 
ATOM     33  C   UNL A   1      42.656  22.839  25.584  1.00  0.00     0.010 A 
ATOM     34  C   UNL A   1      42.933  23.235  26.900  1.00  0.00    -0.014 A 
BRANCH  34  35
ATOM     35  C   UNL A   1      43.414  24.616  27.170  1.00  0.00     0.031 A 
ATOM     36  C   UNL A   1      42.470  25.640  27.744  1.00  0.00     0.074 A 
ATOM     37  C   UNL A   1      44.677  24.964  26.864  1.00  0.00     0.049 A 
ATOM     38  N   UNL A   1      42.675  26.909  27.995  1.00  0.00    -0.248 NA
ATOM     39  C   UNL A   1      41.106  25.183  28.052  1.00  0.00     0.031 C 
ATOM     40  C   UNL A   1      45.677  24.080  26.265  1.00  0.00     0.029 A 
ATOM     41  N   UNL A   1      45.336  26.160  27.010  1.00  0.00    -0.354 N 
ATOM     42  C   UNL A   1      41.462  27.403  28.460  1.00  0.00     0.074 A 
ATOM     43  C   UNL A   1      40.514  26.311  28.413  1.00  0.00     0.031 C 
ATOM     44  C   UNL A   1      46.829  24.756  26.116  1.00  0.00     0.029 A 
ATOM     45  C   UNL A   1      46.639  26.128  26.578  1.00  0.00     0.049 A 
ATOM     46  H   UNL A   1      44.913  26.965  27.387  1.00  0.00     0.167 HD
ATOM     47  C   UNL A   1      41.170  28.646  28.911  1.00  0.00     0.037 A 
ATOM     48  C   UNL A   1      47.574  27.096  26.560  1.00  0.00     0.037 A 
ATOM     49  C   UNL A   1      42.124  29.719  29.003  1.00  0.00     0.049 A 
ATOM     50  C   UNL A   1      47.233  28.463  27.091  1.00  0.00     0.074 A 
ATOM     51  C   UNL A   1      41.942  30.995  29.507  1.00  0.00     0.029 A 
ATOM     52  N   UNL A   1      43.444  29.636  28.588  1.00  0.00    -0.354 N 
ATOM     53  N   UNL A   1      46.100  28.899  27.584  1.00  0.00    -0.248 NA
ATOM     54  C   UNL A   1      48.305  29.468  27.071  1.00  0.00     0.031 C 
ATOM     55  C   UNL A   1      43.145  31.696  29.366  1.00  0.00     0.029 A 
ATOM     56  C   UNL A   1      44.087  30.843  28.813  1.00  0.00     0.049 A 
ATOM     57  H   UNL A   1      43.863  28.837  28.193  1.00  0.00     0.167 HD
ATOM     58  C   UNL A   1      46.329  30.216  27.958  1.00  0.00     0.074 A 
ATOM     59  C   UNL A   1      47.713  30.506  27.647  1.00  0.00     0.031 C 
ATOM     60  C   UNL A   1      45.469  31.107  28.510  1.00  0.00     0.037 A 
BRANCH  47  61
ATOM     61  C   UNL A   1      39.759  28.909  29.352  1.00  0.00     0.064 A 
ATOM     62  C   UNL A   1      38.786  29.378  28.457  1.00  0.00     0.173 A 
ATOM     63  C   UNL A   1      39.370  28.663  30.677  1.00  0.00     0.173 A 
ATOM     64  F   UNL A   1      39.111  29.641  27.183  1.00  0.00    -0.203 F 
ATOM     65  C   UNL A   1      37.481  29.622  28.881  1.00  0.00     0.198 A 
ATOM     66  C   UNL A   1      38.057  28.881  31.089  1.00  0.00     0.198 A 
ATOM     67  F   UNL A   1      40.260  28.208  31.571  1.00  0.00    -0.203 F 
ATOM     68  F   UNL A   1      36.582  30.119  28.020  1.00  0.00    -0.200 F 
ATOM     69  C   UNL A   1      37.116  29.367  30.194  1.00  0.00     0.200 A 
ATOM     70  F   UNL A   1      37.703  28.622  32.356  1.00  0.00    -0.200 F 
ATOM     71  F   UNL A   1      35.860  29.598  30.598  1.00  0.00    -0.200 F 
ENDBRANCH  47  61
BRANCH  48  72
ATOM     72  C   UNL A   1      48.939  26.799  26.052  1.00  0.00     0.064 A 
ATOM     73  C   UNL A   1      49.274  27.040  24.713  1.00  0.00     0.173 A 
ATOM     74  C   UNL A   1      49.932  26.271  26.891  1.00  0.00     0.173 A 
ATOM     75  F   UNL A   1      48.351  27.525  23.869  1.00  0.00    -0.203 F 
ATOM     76  C   UNL A   1      50.546  26.746  24.226  1.00  0.00     0.198 A 
ATOM     77  C   UNL A   1      51.210  26.002  26.408  1.00  0.00     0.198 A 
ATOM     78  F   UNL A   1      49.662  26.028  28.181  1.00  0.00    -0.203 F 
ATOM     79  F   UNL A   1      50.827  26.947  22.931  1.00  0.00    -0.200 F 
ATOM     80  C   UNL A   1      51.515  26.233  25.075  1.00  0.00     0.200 A 
ATOM     81  F   UNL A   1      52.149  25.518  27.234  1.00  0.00    -0.200 F 
ATOM     82  F   UNL A   1      52.739  25.954  24.606  1.00  0.00    -0.200 F 
ENDBRANCH  48  72
BRANCH  60  83
ATOM     83  C   UNL A   1      46.008  32.465  28.847  1.00  0.00     0.064 A 
ATOM     84  C   UNL A   1      46.587  32.737  30.094  1.00  0.00     0.173 A 
ATOM     85  C   UNL A   1      45.983  33.494  27.893  1.00  0.00     0.173 A 
ATOM     86  F   UNL A   1      46.621  31.790  31.044  1.00  0.00    -0.203 F 
ATOM     87  C   UNL A   1      47.103  33.998  30.382  1.00  0.00     0.198 A 
ATOM     88  C   UNL A   1      46.523  34.745  28.176  1.00  0.00     0.198 A 
ATOM     89  F   UNL A   1      45.445  33.281  26.683  1.00  0.00    -0.203 F 
ATOM     90  F   UNL A   1      47.614  34.249  31.596  1.00  0.00    -0.200 F 
ATOM     91  C   UNL A   1      47.076  34.998  29.422  1.00  0.00     0.200 A 
ATOM     92  F   UNL A   1      46.506  35.707  27.243  1.00  0.00    -0.200 F 
ATOM     93  F   UNL A   1      47.579  36.209  29.699  1.00  0.00    -0.200 F 
ENDBRANCH  60  83
ENDBRANCH  34  35
ENDBRANCH  26  29
ENDBRANCH  24  25
ENDBRANCH  23  24
ENDBRANCH  22  23
ENDBRANCH   3  22
TORSDOF 17
ENDMDL
