MODEL 1
REMARK VINA RESULT:     -11.7      0.000      0.000
REMARK SMILES CCc1ccsc1CNC(=O)N[C@@H](CCO)C(=O)NCCCNC(=O)c1ccc(-c2c3nc(c(-c4c(F)c(F)c(F)c(F)c4F)c4ccc([nH]4)c(-c4c(F)c(F)c(F)c(F)c4F)c4nc(c(-c5c(F)c(F)c(F)c(F)c5F)c5ccc2[nH]5)C=C4)C=C3)cc1
REMARK SMILES IDX 20 1 19 2 17 3 18 4 13 6 12 7 9 8 10 9 11 11 8 13 7 14 3 15
REMARK SMILES IDX 4 16 5 17 6 18 2 19 1 20 14 21 15 22 16 23 21 25 22 26 23 27
REMARK SMILES IDX 24 28 25 30 26 31 27 32 88 33 28 34 87 35 29 36 30 37 31 38
REMARK SMILES IDX 81 39 32 40 86 41 80 42 82 43 33 44 85 45 79 46 78 47 34 49
REMARK SMILES IDX 66 50 46 51 65 52 47 53 50 54 64 55 83 56 48 57 49 58 63 60
REMARK SMILES IDX 84 61 51 62 35 63 36 64 44 65 37 66 38 67 42 68 45 69 39 70
REMARK SMILES IDX 40 71 43 72 41 73 67 74 68 75 76 76 69 77 70 78 74 79 77 80
REMARK SMILES IDX 71 81 72 82 75 83 73 84 52 85 53 86 61 87 54 88 55 89 59 90
REMARK SMILES IDX 62 91 56 92 57 93 60 94 58 95
REMARK H PARENT 19 5 9 10 12 12 16 24 23 29 82 48 50 59
REMARK Flexibility Score: inf
ROOT
ATOM      1  C   UNL A   1      31.849  30.603  26.159  1.00  0.00     0.117 C 
ENDROOT
BRANCH   1   2
ATOM      2  N   UNL A   1      31.153  30.328  24.915  1.00  0.00    -0.354 N 
ATOM      3  C   UNL A   1      30.963  29.202  24.183  1.00  0.00     0.242 C 
ATOM      4  O   UNL A   1      30.111  29.295  23.291  1.00  0.00    -0.273 OA
ATOM      5  H   UNL A   1      30.729  31.124  24.522  1.00  0.00     0.163 HD
BRANCH   3   6
ATOM      6  C   UNL A   1      31.554  27.825  24.542  1.00  0.00     0.175 C 
BRANCH   6   7
ATOM      7  N   UNL A   1      30.579  26.789  24.878  1.00  0.00    -0.326 N 
ATOM      8  N   UNL A   1      31.616  25.488  26.551  1.00  0.00    -0.333 N 
ATOM      9  C   UNL A   1      30.531  25.945  25.920  1.00  0.00     0.315 C 
ATOM     10  H   UNL A   1      31.433  25.165  27.463  1.00  0.00     0.165 HD
ATOM     11  O   UNL A   1      29.422  25.562  26.293  1.00  0.00    -0.249 OA
ATOM     12  H   UNL A   1      29.839  26.694  24.236  1.00  0.00     0.166 HD
BRANCH   8  13
ATOM     13  C   UNL A   1      33.008  25.370  26.163  1.00  0.00     0.165 C 
BRANCH  13  14
ATOM     14  C   UNL A   1      33.563  23.990  26.421  1.00  0.00     0.027 A 
ATOM     15  C   UNL A   1      34.817  23.471  26.089  1.00  0.00    -0.033 A 
ATOM     16  C   UNL A   1      34.906  22.079  26.458  1.00  0.00     0.016 A 
ATOM     17  C   UNL A   1      33.779  21.605  27.080  1.00  0.00     0.065 A 
ATOM     18  S   UNL A   1      32.605  22.817  27.254  1.00  0.00    -0.147 S 
BRANCH  15  19
ATOM     19  C   UNL A   1      35.987  24.137  25.401  1.00  0.00     0.033 C 
ATOM     20  C   UNL A   1      36.765  23.322  24.386  1.00  0.00     0.009 C 
ENDBRANCH  15  19
ENDBRANCH  13  14
ENDBRANCH   8  13
ENDBRANCH   6   7
BRANCH   6  21
ATOM     21  C   UNL A   1      32.608  27.330  23.534  1.00  0.00     0.063 C 
BRANCH  21  22
ATOM     22  C   UNL A   1      32.132  26.464  22.371  1.00  0.00     0.158 C 
BRANCH  22  23
ATOM     23  O   UNL A   1      31.129  27.095  21.588  1.00  0.00    -0.396 OA
ATOM     24  H   UNL A   1      30.686  26.432  21.037  1.00  0.00     0.210 HD
ENDBRANCH  22  23
ENDBRANCH  21  22
ENDBRANCH   6  21
ENDBRANCH   3   6
ENDBRANCH   1   2
BRANCH   1  25
ATOM     25  C   UNL A   1      31.515  31.968  26.728  1.00  0.00     0.042 C 
BRANCH  25  26
ATOM     26  C   UNL A   1      32.709  32.687  27.337  1.00  0.00     0.118 C 
BRANCH  26  27
ATOM     27  N   UNL A   1      32.445  34.092  27.636  1.00  0.00    -0.352 N 
ATOM     28  C   UNL A   1      32.995  34.916  28.588  1.00  0.00     0.251 C 
ATOM     29  H   UNL A   1      31.766  34.517  27.065  1.00  0.00     0.163 HD
ATOM     30  O   UNL A   1      32.515  36.027  28.795  1.00  0.00    -0.269 OA
BRANCH  28  31
ATOM     31  C   UNL A   1      34.146  34.451  29.383  1.00  0.00     0.039 A 
ATOM     32  C   UNL A   1      33.925  33.870  30.634  1.00  0.00     0.014 A 
ATOM     33  C   UNL A   1      35.442  34.564  28.879  1.00  0.00     0.014 A 
ATOM     34  C   UNL A   1      35.000  33.322  31.336  1.00  0.00     0.010 A 
ATOM     35  C   UNL A   1      36.486  33.911  29.517  1.00  0.00     0.010 A 
ATOM     36  C   UNL A   1      36.280  33.295  30.760  1.00  0.00    -0.014 A 
BRANCH  36  37
ATOM     37  C   UNL A   1      37.431  32.653  31.442  1.00  0.00     0.031 A 
ATOM     38  C   UNL A   1      38.146  31.507  30.780  1.00  0.00     0.074 A 
ATOM     39  C   UNL A   1      37.773  33.042  32.686  1.00  0.00     0.049 A 
ATOM     40  N   UNL A   1      39.100  30.743  31.247  1.00  0.00    -0.248 NA
ATOM     41  C   UNL A   1      37.695  31.138  29.427  1.00  0.00     0.031 C 
ATOM     42  C   UNL A   1      37.108  34.091  33.461  1.00  0.00     0.029 A 
ATOM     43  N   UNL A   1      38.761  32.588  33.523  1.00  0.00    -0.354 N 
ATOM     44  C   UNL A   1      39.336  29.792  30.264  1.00  0.00     0.074 A 
ATOM     45  C   UNL A   1      38.383  30.030  29.204  1.00  0.00     0.031 C 
ATOM     46  C   UNL A   1      37.727  34.223  34.645  1.00  0.00     0.029 A 
ATOM     47  C   UNL A   1      38.806  33.244  34.729  1.00  0.00     0.049 A 
ATOM     48  H   UNL A   1      39.380  31.861  33.283  1.00  0.00     0.167 HD
ATOM     49  C   UNL A   1      40.285  28.827  30.231  1.00  0.00     0.037 A 
ATOM     50  C   UNL A   1      39.626  33.072  35.783  1.00  0.00     0.037 A 
ATOM     51  C   UNL A   1      41.265  28.632  31.264  1.00  0.00     0.049 A 
ATOM     52  C   UNL A   1      40.701  32.022  35.704  1.00  0.00     0.074 A 
ATOM     53  C   UNL A   1      42.319  27.737  31.297  1.00  0.00     0.029 A 
ATOM     54  N   UNL A   1      41.311  29.351  32.450  1.00  0.00    -0.354 N 
ATOM     55  N   UNL A   1      40.964  31.178  34.736  1.00  0.00    -0.248 NA
ATOM     56  C   UNL A   1      41.599  31.907  36.861  1.00  0.00     0.031 C 
ATOM     57  C   UNL A   1      42.982  27.890  32.520  1.00  0.00     0.029 A 
ATOM     58  C   UNL A   1      42.369  28.912  33.227  1.00  0.00     0.049 A 
ATOM     59  H   UNL A   1      40.685  30.068  32.701  1.00  0.00     0.167 HD
ATOM     60  C   UNL A   1      42.072  30.453  35.152  1.00  0.00     0.074 A 
ATOM     61  C   UNL A   1      42.442  30.969  36.454  1.00  0.00     0.031 C 
ATOM     62  C   UNL A   1      42.725  29.450  34.516  1.00  0.00     0.037 A 
BRANCH  49  63
ATOM     63  C   UNL A   1      40.317  27.926  29.030  1.00  0.00     0.064 A 
ATOM     64  C   UNL A   1      39.599  26.721  28.993  1.00  0.00     0.173 A 
ATOM     65  C   UNL A   1      41.057  28.282  27.892  1.00  0.00     0.173 A 
ATOM     66  F   UNL A   1      38.886  26.326  30.059  1.00  0.00    -0.203 F 
ATOM     67  C   UNL A   1      39.650  25.888  27.878  1.00  0.00     0.198 A 
ATOM     68  C   UNL A   1      41.079  27.462  26.765  1.00  0.00     0.198 A 
ATOM     69  F   UNL A   1      41.759  29.424  27.872  1.00  0.00    -0.203 F 
ATOM     70  F   UNL A   1      39.004  24.714  27.890  1.00  0.00    -0.200 F 
ATOM     71  C   UNL A   1      40.384  26.263  26.763  1.00  0.00     0.200 A 
ATOM     72  F   UNL A   1      41.779  27.833  25.684  1.00  0.00    -0.200 F 
ATOM     73  F   UNL A   1      40.428  25.464  25.688  1.00  0.00    -0.200 F 
ENDBRANCH  49  63
BRANCH  50  74
ATOM     74  C   UNL A   1      39.491  33.940  36.981  1.00  0.00     0.064 A 
ATOM     75  C   UNL A   1      40.105  35.201  37.026  1.00  0.00     0.173 A 
ATOM     76  C   UNL A   1      38.751  33.536  38.101  1.00  0.00     0.173 A 
ATOM     77  F   UNL A   1      40.837  35.626  35.986  1.00  0.00    -0.203 F 
ATOM     78  C   UNL A   1      40.003  36.012  38.154  1.00  0.00     0.198 A 
ATOM     79  C   UNL A   1      38.627  34.360  39.219  1.00  0.00     0.198 A 
ATOM     80  F   UNL A   1      38.138  32.343  38.106  1.00  0.00    -0.203 F 
ATOM     81  F   UNL A   1      40.638  37.191  38.188  1.00  0.00    -0.200 F 
ATOM     82  C   UNL A   1      39.260  35.593  39.248  1.00  0.00     0.200 A 
ATOM     83  F   UNL A   1      37.896  33.958  40.267  1.00  0.00    -0.200 F 
ATOM     84  F   UNL A   1      39.161  36.375  40.331  1.00  0.00    -0.200 F 
ENDBRANCH  50  74
BRANCH  62  85
ATOM     85  C   UNL A   1      43.928  28.871  35.201  1.00  0.00     0.064 A 
ATOM     86  C   UNL A   1      43.823  27.777  36.071  1.00  0.00     0.173 A 
ATOM     87  C   UNL A   1      45.205  29.395  34.952  1.00  0.00     0.173 A 
ATOM     88  F   UNL A   1      42.622  27.250  36.352  1.00  0.00    -0.203 F 
ATOM     89  C   UNL A   1      44.952  27.245  36.688  1.00  0.00     0.198 A 
ATOM     90  C   UNL A   1      46.334  28.843  35.546  1.00  0.00     0.198 A 
ATOM     91  F   UNL A   1      45.357  30.438  34.121  1.00  0.00    -0.203 F 
ATOM     92  F   UNL A   1      44.824  26.231  37.555  1.00  0.00    -0.200 F 
ATOM     93  C   UNL A   1      46.207  27.773  36.420  1.00  0.00     0.200 A 
ATOM     94  F   UNL A   1      47.547  29.344  35.274  1.00  0.00    -0.200 F 
ATOM     95  F   UNL A   1      47.293  27.256  37.010  1.00  0.00    -0.200 F 
ENDBRANCH  62  85
ENDBRANCH  36  37
ENDBRANCH  28  31
ENDBRANCH  26  27
ENDBRANCH  25  26
ENDBRANCH   1  25
TORSDOF 17
ENDMDL
MODEL 2
REMARK VINA RESULT:     -11.5      0.243      1.620
REMARK SMILES CCc1ccsc1CNC(=O)N[C@@H](CCO)C(=O)NCCCNC(=O)c1ccc(-c2c3nc(c(-c4c(F)c(F)c(F)c(F)c4F)c4ccc([nH]4)c(-c4c(F)c(F)c(F)c(F)c4F)c4nc(c(-c5c(F)c(F)c(F)c(F)c5F)c5ccc2[nH]5)C=C4)C=C3)cc1
REMARK SMILES IDX 20 1 19 2 17 3 18 4 13 6 12 7 9 8 10 9 11 11 8 13 7 14 3 15
REMARK SMILES IDX 4 16 5 17 6 18 2 19 1 20 14 21 15 22 16 23 21 25 22 26 23 27
REMARK SMILES IDX 24 28 25 30 26 31 27 32 88 33 28 34 87 35 29 36 30 37 31 38
REMARK SMILES IDX 81 39 32 40 86 41 80 42 82 43 33 44 85 45 79 46 78 47 34 49
REMARK SMILES IDX 66 50 46 51 65 52 47 53 50 54 64 55 83 56 48 57 49 58 63 60
REMARK SMILES IDX 84 61 51 62 35 63 36 64 44 65 37 66 38 67 42 68 45 69 39 70
REMARK SMILES IDX 40 71 43 72 41 73 67 74 68 75 76 76 69 77 70 78 74 79 77 80
REMARK SMILES IDX 71 81 72 82 75 83 73 84 52 85 53 86 61 87 54 88 55 89 59 90
REMARK SMILES IDX 62 91 56 92 57 93 60 94 58 95
REMARK H PARENT 19 5 9 10 12 12 16 24 23 29 82 48 50 59
REMARK Flexibility Score: inf
ROOT
ATOM      1  C   UNL A   1      31.905  30.436  26.032  1.00  0.00     0.117 C 
ENDROOT
BRANCH   1   2
ATOM      2  N   UNL A   1      31.135  30.198  24.824  1.00  0.00    -0.354 N 
ATOM      3  C   UNL A   1      30.879  29.090  24.086  1.00  0.00     0.242 C 
ATOM      4  O   UNL A   1      29.981  29.217  23.245  1.00  0.00    -0.273 OA
ATOM      5  H   UNL A   1      30.708  31.010  24.468  1.00  0.00     0.163 HD
BRANCH   3   6
ATOM      6  C   UNL A   1      31.457  27.694  24.389  1.00  0.00     0.175 C 
BRANCH   6   7
ATOM      7  N   UNL A   1      30.497  26.707  24.879  1.00  0.00    -0.326 N 
ATOM      8  N   UNL A   1      31.651  25.501  26.547  1.00  0.00    -0.333 N 
ATOM      9  C   UNL A   1      30.524  25.938  25.979  1.00  0.00     0.315 C 
ATOM     10  H   UNL A   1      31.541  25.247  27.492  1.00  0.00     0.165 HD
ATOM     11  O   UNL A   1      29.444  25.609  26.471  1.00  0.00    -0.249 OA
ATOM     12  H   UNL A   1      29.702  26.585  24.310  1.00  0.00     0.166 HD
BRANCH   8  13
ATOM     13  C   UNL A   1      33.002  25.324  26.052  1.00  0.00     0.165 C 
BRANCH  13  14
ATOM     14  C   UNL A   1      33.554  23.953  26.361  1.00  0.00     0.027 A 
ATOM     15  C   UNL A   1      34.844  23.458  26.154  1.00  0.00    -0.033 A 
ATOM     16  C   UNL A   1      34.921  22.066  26.526  1.00  0.00     0.016 A 
ATOM     17  C   UNL A   1      33.746  21.569  27.031  1.00  0.00     0.065 A 
ATOM     18  S   UNL A   1      32.539  22.759  27.091  1.00  0.00    -0.147 S 
BRANCH  15  19
ATOM     19  C   UNL A   1      36.064  24.148  25.588  1.00  0.00     0.033 C 
ATOM     20  C   UNL A   1      37.266  23.286  25.248  1.00  0.00     0.009 C 
ENDBRANCH  15  19
ENDBRANCH  13  14
ENDBRANCH   8  13
ENDBRANCH   6   7
BRANCH   6  21
ATOM     21  C   UNL A   1      32.339  27.138  23.255  1.00  0.00     0.063 C 
BRANCH  21  22
ATOM     22  C   UNL A   1      31.714  26.132  22.293  1.00  0.00     0.158 C 
BRANCH  22  23
ATOM     23  O   UNL A   1      31.405  26.698  21.028  1.00  0.00    -0.396 OA
ATOM     24  H   UNL A   1      31.571  27.652  21.052  1.00  0.00     0.210 HD
ENDBRANCH  22  23
ENDBRANCH  21  22
ENDBRANCH   6  21
ENDBRANCH   3   6
ENDBRANCH   1   2
BRANCH   1  25
ATOM     25  C   UNL A   1      31.559  31.754  26.697  1.00  0.00     0.042 C 
BRANCH  25  26
ATOM     26  C   UNL A   1      32.768  32.508  27.231  1.00  0.00     0.118 C 
BRANCH  26  27
ATOM     27  N   UNL A   1      32.485  33.907  27.539  1.00  0.00    -0.352 N 
ATOM     28  C   UNL A   1      33.020  34.730  28.499  1.00  0.00     0.251 C 
ATOM     29  H   UNL A   1      31.803  34.327  26.967  1.00  0.00     0.163 HD
ATOM     30  O   UNL A   1      32.525  35.834  28.712  1.00  0.00    -0.269 OA
BRANCH  28  31
ATOM     31  C   UNL A   1      34.173  34.273  29.297  1.00  0.00     0.039 A 
ATOM     32  C   UNL A   1      33.950  33.580  30.489  1.00  0.00     0.014 A 
ATOM     33  C   UNL A   1      35.474  34.506  28.851  1.00  0.00     0.014 A 
ATOM     34  C   UNL A   1      35.035  33.044  31.184  1.00  0.00     0.010 A 
ATOM     35  C   UNL A   1      36.537  33.868  29.473  1.00  0.00     0.010 A 
ATOM     36  C   UNL A   1      36.332  33.141  30.655  1.00  0.00    -0.014 A 
BRANCH  36  37
ATOM     37  C   UNL A   1      37.499  32.519  31.326  1.00  0.00     0.031 A 
ATOM     38  C   UNL A   1      38.222  31.380  30.659  1.00  0.00     0.074 A 
ATOM     39  C   UNL A   1      37.850  32.916  32.565  1.00  0.00     0.049 A 
ATOM     40  N   UNL A   1      39.193  30.631  31.118  1.00  0.00    -0.248 NA
ATOM     41  C   UNL A   1      37.761  31.001  29.313  1.00  0.00     0.031 C 
ATOM     42  C   UNL A   1      37.180  33.958  33.344  1.00  0.00     0.029 A 
ATOM     43  N   UNL A   1      38.854  32.478  33.392  1.00  0.00    -0.354 N 
ATOM     44  C   UNL A   1      39.430  29.680  30.134  1.00  0.00     0.074 A 
ATOM     45  C   UNL A   1      38.462  29.901  29.085  1.00  0.00     0.031 C 
ATOM     46  C   UNL A   1      37.810  34.103  34.520  1.00  0.00     0.029 A 
ATOM     47  C   UNL A   1      38.903  33.139  34.595  1.00  0.00     0.049 A 
ATOM     48  H   UNL A   1      39.480  31.759  33.147  1.00  0.00     0.167 HD
ATOM     49  C   UNL A   1      40.393  28.728  30.093  1.00  0.00     0.037 A 
ATOM     50  C   UNL A   1      39.737  32.982  35.640  1.00  0.00     0.037 A 
ATOM     51  C   UNL A   1      41.387  28.550  31.116  1.00  0.00     0.049 A 
ATOM     52  C   UNL A   1      40.826  31.946  35.552  1.00  0.00     0.074 A 
ATOM     53  C   UNL A   1      42.453  27.671  31.140  1.00  0.00     0.029 A 
ATOM     54  N   UNL A   1      41.436  29.274  32.299  1.00  0.00    -0.354 N 
ATOM     55  N   UNL A   1      41.090  31.103  34.584  1.00  0.00    -0.248 NA
ATOM     56  C   UNL A   1      41.739  31.848  36.699  1.00  0.00     0.031 C 
ATOM     57  C   UNL A   1      43.128  27.836  32.354  1.00  0.00     0.029 A 
ATOM     58  C   UNL A   1      42.509  28.852  33.065  1.00  0.00     0.049 A 
ATOM     59  H   UNL A   1      40.803  29.983  32.555  1.00  0.00     0.167 HD
ATOM     60  C   UNL A   1      42.213  30.395  34.989  1.00  0.00     0.074 A 
ATOM     61  C   UNL A   1      42.590  30.920  36.285  1.00  0.00     0.031 C 
ATOM     62  C   UNL A   1      42.872  29.399  34.348  1.00  0.00     0.037 A 
BRANCH  49  63
ATOM     63  C   UNL A   1      40.423  27.824  28.895  1.00  0.00     0.064 A 
ATOM     64  C   UNL A   1      39.678  26.635  28.849  1.00  0.00     0.173 A 
ATOM     65  C   UNL A   1      41.189  28.160  27.769  1.00  0.00     0.173 A 
ATOM     66  F   UNL A   1      38.939  26.260  29.904  1.00  0.00    -0.203 F 
ATOM     67  C   UNL A   1      39.728  25.799  27.736  1.00  0.00     0.198 A 
ATOM     68  C   UNL A   1      41.211  27.338  26.644  1.00  0.00     0.198 A 
ATOM     69  F   UNL A   1      41.918  29.286  27.758  1.00  0.00    -0.203 F 
ATOM     70  F   UNL A   1      39.055  24.640  27.741  1.00  0.00    -0.200 F 
ATOM     71  C   UNL A   1      40.489  26.155  26.633  1.00  0.00     0.200 A 
ATOM     72  F   UNL A   1      41.936  27.689  25.574  1.00  0.00    -0.200 F 
ATOM     73  F   UNL A   1      40.531  25.352  25.560  1.00  0.00    -0.200 F 
ENDBRANCH  49  63
BRANCH  50  74
ATOM     74  C   UNL A   1      39.604  33.852  36.837  1.00  0.00     0.064 A 
ATOM     75  C   UNL A   1      38.852  33.436  37.945  1.00  0.00     0.173 A 
ATOM     76  C   UNL A   1      40.222  35.109  36.903  1.00  0.00     0.173 A 
ATOM     77  F   UNL A   1      38.228  32.249  37.924  1.00  0.00    -0.203 F 
ATOM     78  C   UNL A   1      38.703  34.255  39.063  1.00  0.00     0.198 A 
ATOM     79  C   UNL A   1      40.095  35.916  38.033  1.00  0.00     0.198 A 
ATOM     80  F   UNL A   1      40.959  35.549  35.873  1.00  0.00    -0.203 F 
ATOM     81  F   UNL A   1      37.940  33.853  40.088  1.00  0.00    -0.200 F 
ATOM     82  C   UNL A   1      39.329  35.492  39.108  1.00  0.00     0.200 A 
ATOM     83  F   UNL A   1      40.713  37.103  38.078  1.00  0.00    -0.200 F 
ATOM     84  F   UNL A   1      39.187  36.277  40.183  1.00  0.00    -0.200 F 
ENDBRANCH  50  74
BRANCH  62  85
ATOM     85  C   UNL A   1      44.091  28.839  35.022  1.00  0.00     0.064 A 
ATOM     86  C   UNL A   1      45.366  29.376  34.800  1.00  0.00     0.173 A 
ATOM     87  C   UNL A   1      43.971  27.777  35.931  1.00  0.00     0.173 A 
ATOM     88  F   UNL A   1      45.533  30.382  33.929  1.00  0.00    -0.203 F 
ATOM     89  C   UNL A   1      46.483  28.851  35.444  1.00  0.00     0.198 A 
ATOM     90  C   UNL A   1      45.085  27.276  36.596  1.00  0.00     0.198 A 
ATOM     91  F   UNL A   1      42.770  27.235  36.183  1.00  0.00    -0.203 F 
ATOM     92  F   UNL A   1      47.700  29.346  35.180  1.00  0.00    -0.200 F 
ATOM     93  C   UNL A   1      46.342  27.808  36.346  1.00  0.00     0.200 A 
ATOM     94  F   UNL A   1      44.944  26.277  37.479  1.00  0.00    -0.200 F 
ATOM     95  F   UNL A   1      47.417  27.309  36.970  1.00  0.00    -0.200 F 
ENDBRANCH  62  85
ENDBRANCH  36  37
ENDBRANCH  28  31
ENDBRANCH  26  27
ENDBRANCH  25  26
ENDBRANCH   1  25
TORSDOF 17
ENDMDL
MODEL 3
REMARK VINA RESULT:     -11.4      0.674      2.158
REMARK SMILES CCc1ccsc1CNC(=O)N[C@@H](CCO)C(=O)NCCCNC(=O)c1ccc(-c2c3nc(c(-c4c(F)c(F)c(F)c(F)c4F)c4ccc([nH]4)c(-c4c(F)c(F)c(F)c(F)c4F)c4nc(c(-c5c(F)c(F)c(F)c(F)c5F)c5ccc2[nH]5)C=C4)C=C3)cc1
REMARK SMILES IDX 20 1 19 2 17 3 18 4 13 6 12 7 9 8 10 9 11 11 8 13 7 14 3 15
REMARK SMILES IDX 4 16 5 17 6 18 2 19 1 20 14 21 15 22 16 23 21 25 22 26 23 27
REMARK SMILES IDX 24 28 25 30 26 31 27 32 88 33 28 34 87 35 29 36 30 37 31 38
REMARK SMILES IDX 81 39 32 40 86 41 80 42 82 43 33 44 85 45 79 46 78 47 34 49
REMARK SMILES IDX 66 50 46 51 65 52 47 53 50 54 64 55 83 56 48 57 49 58 63 60
REMARK SMILES IDX 84 61 51 62 35 63 36 64 44 65 37 66 38 67 42 68 45 69 39 70
REMARK SMILES IDX 40 71 43 72 41 73 67 74 68 75 76 76 69 77 70 78 74 79 77 80
REMARK SMILES IDX 71 81 72 82 75 83 73 84 52 85 53 86 61 87 54 88 55 89 59 90
REMARK SMILES IDX 62 91 56 92 57 93 60 94 58 95
REMARK H PARENT 19 5 9 10 12 12 16 24 23 29 82 48 50 59
REMARK Flexibility Score: inf
ROOT
ATOM      1  C   UNL A   1      31.840  30.661  26.287  1.00  0.00     0.117 C 
ENDROOT
BRANCH   1   2
ATOM      2  N   UNL A   1      31.179  30.452  25.012  1.00  0.00    -0.354 N 
ATOM      3  C   UNL A   1      31.028  29.371  24.207  1.00  0.00     0.242 C 
ATOM      4  O   UNL A   1      30.195  29.504  23.302  1.00  0.00    -0.273 OA
ATOM      5  H   UNL A   1      30.748  31.264  24.659  1.00  0.00     0.163 HD
BRANCH   3   6
ATOM      6  C   UNL A   1      31.638  27.985  24.493  1.00  0.00     0.175 C 
BRANCH   6   7
ATOM      7  N   UNL A   1      30.685  26.944  24.874  1.00  0.00    -0.326 N 
ATOM      8  N   UNL A   1      31.898  25.478  26.268  1.00  0.00    -0.333 N 
ATOM      9  C   UNL A   1      30.753  26.012  25.837  1.00  0.00     0.315 C 
ATOM     10  H   UNL A   1      31.832  25.080  27.167  1.00  0.00     0.165 HD
ATOM     11  O   UNL A   1      29.693  25.621  26.327  1.00  0.00    -0.249 OA
ATOM     12  H   UNL A   1      29.860  26.922  24.336  1.00  0.00     0.166 HD
BRANCH   8  13
ATOM     13  C   UNL A   1      33.219  25.367  25.681  1.00  0.00     0.165 C 
BRANCH  13  14
ATOM     14  C   UNL A   1      33.644  23.930  25.487  1.00  0.00     0.027 A 
ATOM     15  C   UNL A   1      33.313  23.047  24.456  1.00  0.00    -0.033 A 
ATOM     16  C   UNL A   1      33.879  21.743  24.702  1.00  0.00     0.016 A 
ATOM     17  C   UNL A   1      34.636  21.681  25.844  1.00  0.00     0.065 A 
ATOM     18  S   UNL A   1      34.702  23.183  26.631  1.00  0.00    -0.147 S 
BRANCH  15  19
ATOM     19  C   UNL A   1      32.459  23.271  23.228  1.00  0.00     0.033 C 
ATOM     20  C   UNL A   1      30.958  23.367  23.422  1.00  0.00     0.009 C 
ENDBRANCH  15  19
ENDBRANCH  13  14
ENDBRANCH   8  13
ENDBRANCH   6   7
BRANCH   6  21
ATOM     21  C   UNL A   1      32.617  27.511  23.404  1.00  0.00     0.063 C 
BRANCH  21  22
ATOM     22  C   UNL A   1      32.056  26.685  22.250  1.00  0.00     0.158 C 
BRANCH  22  23
ATOM     23  O   UNL A   1      30.969  27.322  21.594  1.00  0.00    -0.396 OA
ATOM     24  H   UNL A   1      31.128  28.277  21.560  1.00  0.00     0.210 HD
ENDBRANCH  22  23
ENDBRANCH  21  22
ENDBRANCH   6  21
ENDBRANCH   3   6
ENDBRANCH   1   2
BRANCH   1  25
ATOM     25  C   UNL A   1      31.527  32.015  26.895  1.00  0.00     0.042 C 
BRANCH  25  26
ATOM     26  C   UNL A   1      32.761  32.798  27.315  1.00  0.00     0.118 C 
BRANCH  26  27
ATOM     27  N   UNL A   1      32.474  34.190  27.652  1.00  0.00    -0.352 N 
ATOM     28  C   UNL A   1      33.005  34.996  28.630  1.00  0.00     0.251 C 
ATOM     29  H   UNL A   1      31.791  34.620  27.088  1.00  0.00     0.163 HD
ATOM     30  O   UNL A   1      32.506  36.093  28.864  1.00  0.00    -0.269 OA
BRANCH  28  31
ATOM     31  C   UNL A   1      34.158  34.525  29.419  1.00  0.00     0.039 A 
ATOM     32  C   UNL A   1      33.942  33.961  30.678  1.00  0.00     0.014 A 
ATOM     33  C   UNL A   1      35.450  34.619  28.902  1.00  0.00     0.014 A 
ATOM     34  C   UNL A   1      35.017  33.408  31.376  1.00  0.00     0.010 A 
ATOM     35  C   UNL A   1      36.492  33.961  29.537  1.00  0.00     0.010 A 
ATOM     36  C   UNL A   1      36.292  33.360  30.788  1.00  0.00    -0.014 A 
BRANCH  36  37
ATOM     37  C   UNL A   1      37.442  32.714  31.467  1.00  0.00     0.031 A 
ATOM     38  C   UNL A   1      38.158  31.573  30.796  1.00  0.00     0.074 A 
ATOM     39  C   UNL A   1      37.782  33.092  32.714  1.00  0.00     0.049 A 
ATOM     40  N   UNL A   1      39.112  30.805  31.258  1.00  0.00    -0.248 NA
ATOM     41  C   UNL A   1      37.709  31.215  29.439  1.00  0.00     0.031 C 
ATOM     42  C   UNL A   1      37.116  34.134  33.498  1.00  0.00     0.029 A 
ATOM     43  N   UNL A   1      38.769  32.631  33.549  1.00  0.00    -0.354 N 
ATOM     44  C   UNL A   1      39.349  29.863  30.267  1.00  0.00     0.074 A 
ATOM     45  C   UNL A   1      38.397  30.109  29.208  1.00  0.00     0.031 C 
ATOM     46  C   UNL A   1      37.733  34.256  34.683  1.00  0.00     0.029 A 
ATOM     47  C   UNL A   1      38.812  33.277  34.760  1.00  0.00     0.049 A 
ATOM     48  H   UNL A   1      39.388  31.906  33.304  1.00  0.00     0.167 HD
ATOM     49  C   UNL A   1      40.298  28.898  30.227  1.00  0.00     0.037 A 
ATOM     50  C   UNL A   1      39.630  33.096  35.814  1.00  0.00     0.037 A 
ATOM     51  C   UNL A   1      41.277  28.694  31.260  1.00  0.00     0.049 A 
ATOM     52  C   UNL A   1      40.706  32.046  35.727  1.00  0.00     0.074 A 
ATOM     53  C   UNL A   1      42.331  27.800  31.287  1.00  0.00     0.029 A 
ATOM     54  N   UNL A   1      41.321  29.404  32.452  1.00  0.00    -0.354 N 
ATOM     55  N   UNL A   1      40.971  31.211  34.753  1.00  0.00    -0.248 NA
ATOM     56  C   UNL A   1      41.603  31.922  36.885  1.00  0.00     0.031 C 
ATOM     57  C   UNL A   1      42.992  27.943  32.511  1.00  0.00     0.029 A 
ATOM     58  C   UNL A   1      42.378  28.959  33.226  1.00  0.00     0.049 A 
ATOM     59  H   UNL A   1      40.694  30.118  32.708  1.00  0.00     0.167 HD
ATOM     60  C   UNL A   1      42.079  30.483  35.164  1.00  0.00     0.074 A 
ATOM     61  C   UNL A   1      42.446  30.988  36.471  1.00  0.00     0.031 C 
ATOM     62  C   UNL A   1      42.732  29.485  34.520  1.00  0.00     0.037 A 
BRANCH  49  63
ATOM     63  C   UNL A   1      40.332  28.007  29.018  1.00  0.00     0.064 A 
ATOM     64  C   UNL A   1      41.076  28.340  27.876  1.00  0.00     0.173 A 
ATOM     65  C   UNL A   1      39.628  26.793  29.010  1.00  0.00     0.173 A 
ATOM     66  F   UNL A   1      41.755  29.496  27.827  1.00  0.00    -0.203 F 
ATOM     67  C   UNL A   1      41.085  27.512  26.757  1.00  0.00     0.198 A 
ATOM     68  C   UNL A   1      39.666  25.950  27.901  1.00  0.00     0.198 A 
ATOM     69  F   UNL A   1      38.904  26.423  30.076  1.00  0.00    -0.203 F 
ATOM     70  F   UNL A   1      41.754  27.881  25.657  1.00  0.00    -0.200 F 
ATOM     71  C   UNL A   1      40.386  26.314  26.774  1.00  0.00     0.200 A 
ATOM     72  F   UNL A   1      39.001  24.787  27.924  1.00  0.00    -0.200 F 
ATOM     73  F   UNL A   1      40.400  25.514  25.699  1.00  0.00    -0.200 F 
ENDBRANCH  49  63
BRANCH  50  74
ATOM     74  C   UNL A   1      39.494  33.954  37.020  1.00  0.00     0.064 A 
ATOM     75  C   UNL A   1      38.772  33.511  38.137  1.00  0.00     0.173 A 
ATOM     76  C   UNL A   1      40.078  35.227  37.084  1.00  0.00     0.173 A 
ATOM     77  F   UNL A   1      38.181  32.307  38.118  1.00  0.00    -0.203 F 
ATOM     78  C   UNL A   1      38.620  34.317  39.263  1.00  0.00     0.198 A 
ATOM     79  C   UNL A   1      39.948  36.022  38.221  1.00  0.00     0.198 A 
ATOM     80  F   UNL A   1      40.785  35.694  36.045  1.00  0.00    -0.203 F 
ATOM     81  F   UNL A   1      37.885  33.887  40.298  1.00  0.00    -0.200 F 
ATOM     82  C   UNL A   1      39.212  35.571  39.307  1.00  0.00     0.200 A 
ATOM     83  F   UNL A   1      40.534  37.226  38.265  1.00  0.00    -0.200 F 
ATOM     84  F   UNL A   1      39.067  36.344  40.390  1.00  0.00    -0.200 F 
ENDBRANCH  50  74
BRANCH  62  85
ATOM     85  C   UNL A   1      43.934  28.901  35.203  1.00  0.00     0.064 A 
ATOM     86  C   UNL A   1      45.221  29.415  34.995  1.00  0.00     0.173 A 
ATOM     87  C   UNL A   1      43.787  27.838  36.107  1.00  0.00     0.173 A 
ATOM     88  F   UNL A   1      45.414  30.421  34.129  1.00  0.00    -0.203 F 
ATOM     89  C   UNL A   1      46.323  28.868  35.647  1.00  0.00     0.198 A 
ATOM     90  C   UNL A   1      44.885  27.314  36.780  1.00  0.00     0.198 A 
ATOM     91  F   UNL A   1      42.574  27.317  36.347  1.00  0.00    -0.203 F 
ATOM     92  F   UNL A   1      47.551  29.342  35.395  1.00  0.00    -0.200 F 
ATOM     93  C   UNL A   1      46.154  27.824  36.544  1.00  0.00     0.200 A 
ATOM     94  F   UNL A   1      44.718  26.315  37.658  1.00  0.00    -0.200 F 
ATOM     95  F   UNL A   1      47.214  27.303  37.175  1.00  0.00    -0.200 F 
ENDBRANCH  62  85
ENDBRANCH  36  37
ENDBRANCH  28  31
ENDBRANCH  26  27
ENDBRANCH  25  26
ENDBRANCH   1  25
TORSDOF 17
ENDMDL
