MODEL 1
REMARK VINA RESULT:     -12.8      0.000      0.000
REMARK SMILES C[NH2+][C@@]1(C(=O)NCCCNC(=O)c2ccc(-c3c4nc(c(-c5c(F)c(F)c(F)c(F)c5F)c5ccc([nH]5)c(-c5c(F)c(F)c(F)c(F)c5F)c5nc(c(-c6c(F)c(F)c(F)c(F)c6F)c6ccc3[nH]6)C=C5)C=C4)cc2)CCC[C@@H]([N@@H+](C)C2CC[NH+](C)CC2)C1
REMARK SMILES IDX 8 1 7 2 6 3 4 4 5 5 3 7 76 8 89 9 77 10 79 11 78 12 2 13
REMARK SMILES IDX 1 14 80 17 81 18 82 20 83 21 88 22 84 23 87 24 85 25 86 26
REMARK SMILES IDX 9 28 10 29 11 30 12 32 13 33 14 34 75 35 15 36 74 37 16 38
REMARK SMILES IDX 17 39 18 40 68 41 19 42 73 43 67 44 69 45 20 46 72 47 66 48
REMARK SMILES IDX 65 49 21 51 53 52 33 53 52 54 34 55 37 56 51 57 70 58 35 59
REMARK SMILES IDX 36 60 50 62 71 63 38 64 22 65 23 66 31 67 24 68 25 69 29 70
REMARK SMILES IDX 32 71 26 72 27 73 30 74 28 75 54 76 55 77 63 78 56 79 57 80
REMARK SMILES IDX 61 81 64 82 58 83 59 84 62 85 60 86 39 87 40 88 48 89 41 90
REMARK SMILES IDX 42 91 46 92 49 93 43 94 44 95 47 96 45 97
REMARK H PARENT 6 6 2 15 2 16 80 19 85 27 10 31 69 50 37 61
REMARK Flexibility Score: inf
ROOT
ATOM      1  C   UNL A   1      33.438  29.054  23.757  1.00  0.00     0.042 C 
ENDROOT
BRANCH   1   2
ATOM      2  C   UNL A   1      32.530  28.023  23.134  1.00  0.00     0.118 C 
BRANCH   2   3
ATOM      3  N   UNL A   1      33.152  27.284  22.078  1.00  0.00    -0.351 N 
ATOM      4  C   UNL A   1      33.123  25.950  21.841  1.00  0.00     0.281 C 
ATOM      5  O   UNL A   1      33.273  25.649  20.648  1.00  0.00    -0.268 OA
ATOM      6  H   UNL A   1      33.673  27.819  21.436  1.00  0.00     0.163 HD
BRANCH   4   7
ATOM      7  C   UNL A   1      32.875  24.837  22.955  1.00  0.00     0.181 C 
ATOM      8  C   UNL A   1      32.818  25.464  24.365  1.00  0.00     0.079 C 
ATOM      9  C   UNL A   1      33.787  23.593  22.871  1.00  0.00     0.144 C 
ATOM     10  C   UNL A   1      34.057  25.466  25.253  1.00  0.00     0.013 C 
ATOM     11  C   UNL A   1      34.992  23.459  23.829  1.00  0.00     0.190 C 
ATOM     12  C   UNL A   1      35.154  24.442  24.991  1.00  0.00     0.065 C 
BRANCH   7  13
ATOM     13  N   UNL A   1      31.436  24.390  22.739  1.00  0.00    -0.336 N 
ATOM     14  C   UNL A   1      30.426  25.011  23.596  1.00  0.00     0.331 C 
ATOM     15  H   UNL A   1      31.190  24.596  21.770  1.00  0.00     0.346 HD
ATOM     16  H   UNL A   1      31.421  23.398  22.976  1.00  0.00     0.346 HD
ENDBRANCH   7  13
BRANCH  11  17
ATOM     17  N   UNL A   1      35.430  22.065  24.101  1.00  0.00    -0.332 N 
ATOM     18  C   UNL A   1      36.887  21.983  24.291  1.00  0.00     0.333 C 
ATOM     19  H   UNL A   1      35.101  21.654  23.227  1.00  0.00     0.348 HD
BRANCH  17  20
ATOM     20  C   UNL A   1      34.716  21.152  25.038  1.00  0.00     0.195 C 
ATOM     21  C   UNL A   1      33.498  20.406  24.484  1.00  0.00     0.126 C 
ATOM     22  C   UNL A   1      34.404  21.608  26.480  1.00  0.00     0.126 C 
ATOM     23  C   UNL A   1      32.191  21.164  24.664  1.00  0.00     0.268 C 
ATOM     24  C   UNL A   1      33.018  22.224  26.694  1.00  0.00     0.268 C 
ATOM     25  N   UNL A   1      31.912  21.495  26.065  1.00  0.00    -0.337 N 
ATOM     26  C   UNL A   1      30.693  22.316  26.127  1.00  0.00     0.332 C 
ATOM     27  H   UNL A   1      31.791  20.621  26.575  1.00  0.00     0.347 HD
ENDBRANCH  17  20
ENDBRANCH  11  17
ENDBRANCH   4   7
ENDBRANCH   2   3
ENDBRANCH   1   2
BRANCH   1  28
ATOM     28  C   UNL A   1      33.328  29.045  25.261  1.00  0.00     0.118 C 
BRANCH  28  29
ATOM     29  N   UNL A   1      32.770  30.298  25.767  1.00  0.00    -0.352 N 
ATOM     30  C   UNL A   1      33.149  31.083  26.831  1.00  0.00     0.251 C 
ATOM     31  H   UNL A   1      31.994  30.636  25.263  1.00  0.00     0.163 HD
ATOM     32  O   UNL A   1      32.413  31.977  27.222  1.00  0.00    -0.269 OA
BRANCH  30  33
ATOM     33  C   UNL A   1      34.433  30.818  27.512  1.00  0.00     0.039 A 
ATOM     34  C   UNL A   1      35.342  31.861  27.700  1.00  0.00     0.014 A 
ATOM     35  C   UNL A   1      34.726  29.544  27.988  1.00  0.00     0.014 A 
ATOM     36  C   UNL A   1      36.508  31.626  28.428  1.00  0.00     0.010 A 
ATOM     37  C   UNL A   1      35.778  29.362  28.864  1.00  0.00     0.010 A 
ATOM     38  C   UNL A   1      36.711  30.386  29.055  1.00  0.00    -0.014 A 
BRANCH  38  39
ATOM     39  C   UNL A   1      37.922  30.092  29.858  1.00  0.00     0.031 A 
ATOM     40  C   UNL A   1      38.975  29.172  29.294  1.00  0.00     0.074 A 
ATOM     41  C   UNL A   1      38.033  30.582  31.107  1.00  0.00     0.049 A 
ATOM     42  N   UNL A   1      40.050  28.694  29.865  1.00  0.00    -0.248 NA
ATOM     43  C   UNL A   1      38.764  28.677  27.921  1.00  0.00     0.031 C 
ATOM     44  C   UNL A   1      37.044  31.424  31.781  1.00  0.00     0.029 A 
ATOM     45  N   UNL A   1      39.030  30.435  32.037  1.00  0.00    -0.354 N 
ATOM     46  C   UNL A   1      40.615  27.828  28.936  1.00  0.00     0.074 A 
ATOM     47  C   UNL A   1      39.722  27.774  27.803  1.00  0.00     0.031 C 
ATOM     48  C   UNL A   1      37.503  31.757  32.998  1.00  0.00     0.029 A 
ATOM     49  C   UNL A   1      38.794  31.111  33.209  1.00  0.00     0.049 A 
ATOM     50  H   UNL A   1      39.839  29.896  31.879  1.00  0.00     0.167 HD
ATOM     51  C   UNL A   1      41.795  27.171  29.002  1.00  0.00     0.037 A 
ATOM     52  C   UNL A   1      39.540  31.193  34.326  1.00  0.00     0.037 A 
ATOM     53  C   UNL A   1      42.700  27.278  30.112  1.00  0.00     0.049 A 
ATOM     54  C   UNL A   1      40.857  30.466  34.368  1.00  0.00     0.074 A 
ATOM     55  C   UNL A   1      43.956  26.719  30.259  1.00  0.00     0.029 A 
ATOM     56  N   UNL A   1      42.443  28.003  31.268  1.00  0.00    -0.354 N 
ATOM     57  N   UNL A   1      41.418  29.712  33.453  1.00  0.00    -0.248 NA
ATOM     58  C   UNL A   1      41.650  30.607  35.596  1.00  0.00     0.031 C 
ATOM     59  C   UNL A   1      44.436  27.061  31.526  1.00  0.00     0.029 A 
ATOM     60  C   UNL A   1      43.508  27.886  32.142  1.00  0.00     0.049 A 
ATOM     61  H   UNL A   1      41.624  28.522  31.439  1.00  0.00     0.167 HD
ATOM     62  C   UNL A   1      42.641  29.318  33.979  1.00  0.00     0.074 A 
ATOM     63  C   UNL A   1      42.746  29.930  35.288  1.00  0.00     0.031 C 
ATOM     64  C   UNL A   1      43.592  28.520  33.434  1.00  0.00     0.037 A 
BRANCH  51  65
ATOM     65  C   UNL A   1      42.176  26.300  27.838  1.00  0.00     0.064 A 
ATOM     66  C   UNL A   1      41.674  24.997  27.693  1.00  0.00     0.173 A 
ATOM     67  C   UNL A   1      43.036  26.784  26.841  1.00  0.00     0.173 A 
ATOM     68  F   UNL A   1      40.861  24.477  28.625  1.00  0.00    -0.203 F 
ATOM     69  C   UNL A   1      42.046  24.201  26.613  1.00  0.00     0.198 A 
ATOM     70  C   UNL A   1      43.375  25.998  25.742  1.00  0.00     0.198 A 
ATOM     71  F   UNL A   1      43.546  28.022  26.929  1.00  0.00    -0.203 F 
ATOM     72  F   UNL A   1      41.601  22.939  26.529  1.00  0.00    -0.200 F 
ATOM     73  C   UNL A   1      42.888  24.705  25.634  1.00  0.00     0.200 A 
ATOM     74  F   UNL A   1      44.179  26.492  24.790  1.00  0.00    -0.200 F 
ATOM     75  F   UNL A   1      43.236  23.941  24.589  1.00  0.00    -0.200 F 
ENDBRANCH  51  65
BRANCH  52  76
ATOM     76  C   UNL A   1      39.078  32.016  35.474  1.00  0.00     0.064 A 
ATOM     77  C   UNL A   1      39.390  33.381  35.555  1.00  0.00     0.173 A 
ATOM     78  C   UNL A   1      38.321  31.461  36.517  1.00  0.00     0.173 A 
ATOM     79  F   UNL A   1      40.122  33.957  34.589  1.00  0.00    -0.203 F 
ATOM     80  C   UNL A   1      38.991  34.150  36.646  1.00  0.00     0.198 A 
ATOM     81  C   UNL A   1      37.895  32.238  37.592  1.00  0.00     0.198 A 
ATOM     82  F   UNL A   1      37.984  30.163  36.486  1.00  0.00    -0.203 F 
ATOM     83  F   UNL A   1      39.351  35.438  36.721  1.00  0.00    -0.200 F 
ATOM     84  C   UNL A   1      38.239  33.579  37.662  1.00  0.00     0.200 A 
ATOM     85  F   UNL A   1      37.151  31.687  38.561  1.00  0.00    -0.200 F 
ATOM     86  F   UNL A   1      37.854  34.320  38.710  1.00  0.00    -0.200 F 
ENDBRANCH  52  76
BRANCH  64  87
ATOM     87  C   UNL A   1      44.847  28.304  34.226  1.00  0.00     0.064 A 
ATOM     88  C   UNL A   1      45.940  29.177  34.129  1.00  0.00     0.173 A 
ATOM     89  C   UNL A   1      44.935  27.236  35.132  1.00  0.00     0.173 A 
ATOM     90  F   UNL A   1      45.909  30.206  33.270  1.00  0.00    -0.203 F 
ATOM     91  C   UNL A   1      47.087  28.971  34.890  1.00  0.00     0.198 A 
ATOM     92  C   UNL A   1      46.070  27.055  35.916  1.00  0.00     0.198 A 
ATOM     93  F   UNL A   1      43.913  26.379  35.269  1.00  0.00    -0.203 F 
ATOM     94  F   UNL A   1      48.141  29.786  34.743  1.00  0.00    -0.200 F 
ATOM     95  C   UNL A   1      47.148  27.916  35.789  1.00  0.00     0.200 A 
ATOM     96  F   UNL A   1      46.117  26.047  36.798  1.00  0.00    -0.200 F 
ATOM     97  F   UNL A   1      48.249  27.727  36.528  1.00  0.00    -0.200 F 
ENDBRANCH  64  87
ENDBRANCH  38  39
ENDBRANCH  30  33
ENDBRANCH  28  29
ENDBRANCH   1  28
TORSDOF 13
ENDMDL
MODEL 2
REMARK VINA RESULT:     -12.8      2.043      3.358
REMARK SMILES C[NH2+][C@@]1(C(=O)NCCCNC(=O)c2ccc(-c3c4nc(c(-c5c(F)c(F)c(F)c(F)c5F)c5ccc([nH]5)c(-c5c(F)c(F)c(F)c(F)c5F)c5nc(c(-c6c(F)c(F)c(F)c(F)c6F)c6ccc3[nH]6)C=C5)C=C4)cc2)CCC[C@@H]([N@@H+](C)C2CC[NH+](C)CC2)C1
REMARK SMILES IDX 8 1 7 2 6 3 4 4 5 5 3 7 76 8 89 9 77 10 79 11 78 12 2 13
REMARK SMILES IDX 1 14 80 17 81 18 82 20 83 21 88 22 84 23 87 24 85 25 86 26
REMARK SMILES IDX 9 28 10 29 11 30 12 32 13 33 14 34 75 35 15 36 74 37 16 38
REMARK SMILES IDX 17 39 18 40 68 41 19 42 73 43 67 44 69 45 20 46 72 47 66 48
REMARK SMILES IDX 65 49 21 51 53 52 33 53 52 54 34 55 37 56 51 57 70 58 35 59
REMARK SMILES IDX 36 60 50 62 71 63 38 64 22 65 23 66 31 67 24 68 25 69 29 70
REMARK SMILES IDX 32 71 26 72 27 73 30 74 28 75 54 76 55 77 63 78 56 79 57 80
REMARK SMILES IDX 61 81 64 82 58 83 59 84 62 85 60 86 39 87 40 88 48 89 41 90
REMARK SMILES IDX 42 91 46 92 49 93 43 94 44 95 47 96 45 97
REMARK H PARENT 6 6 2 15 2 16 80 19 85 27 10 31 69 50 37 61
REMARK Flexibility Score: inf
ROOT
ATOM      1  C   UNL A   1      31.404  32.246  26.658  1.00  0.00     0.042 C 
ENDROOT
BRANCH   1   2
ATOM      2  C   UNL A   1      31.652  30.833  26.191  1.00  0.00     0.118 C 
BRANCH   2   3
ATOM      3  N   UNL A   1      32.508  30.090  27.065  1.00  0.00    -0.351 N 
ATOM      4  C   UNL A   1      33.343  29.065  26.768  1.00  0.00     0.281 C 
ATOM      5  O   UNL A   1      34.306  28.963  27.541  1.00  0.00    -0.268 OA
ATOM      6  H   UNL A   1      32.487  30.362  28.011  1.00  0.00     0.163 HD
BRANCH   4   7
ATOM      7  C   UNL A   1      33.167  28.083  25.525  1.00  0.00     0.181 C 
ATOM      8  C   UNL A   1      31.674  27.863  25.197  1.00  0.00     0.079 C 
ATOM      9  C   UNL A   1      33.983  26.773  25.587  1.00  0.00     0.144 C 
ATOM     10  C   UNL A   1      30.947  26.631  25.725  1.00  0.00     0.013 C 
ATOM     11  C   UNL A   1      33.287  25.454  25.989  1.00  0.00     0.190 C 
ATOM     12  C   UNL A   1      31.762  25.405  26.115  1.00  0.00     0.065 C 
BRANCH   7  13
ATOM     13  N   UNL A   1      33.648  28.890  24.327  1.00  0.00    -0.336 N 
ATOM     14  C   UNL A   1      32.825  28.816  23.119  1.00  0.00     0.331 C 
ATOM     15  H   UNL A   1      33.694  29.868  24.611  1.00  0.00     0.346 HD
ATOM     16  H   UNL A   1      34.547  28.483  24.068  1.00  0.00     0.346 HD
ENDBRANCH   7  13
BRANCH  11  17
ATOM     17  N   UNL A   1      33.929  24.217  25.469  1.00  0.00    -0.332 N 
ATOM     18  C   UNL A   1      34.958  24.524  24.463  1.00  0.00     0.333 C 
ATOM     19  H   UNL A   1      33.087  23.788  25.085  1.00  0.00     0.348 HD
BRANCH  17  20
ATOM     20  C   UNL A   1      34.355  23.089  26.344  1.00  0.00     0.195 C 
ATOM     21  C   UNL A   1      35.603  22.312  25.911  1.00  0.00     0.126 C 
ATOM     22  C   UNL A   1      33.312  22.089  26.886  1.00  0.00     0.126 C 
ATOM     23  C   UNL A   1      35.295  21.129  25.005  1.00  0.00     0.268 C 
ATOM     24  C   UNL A   1      33.120  20.816  26.056  1.00  0.00     0.268 C 
ATOM     25  N   UNL A   1      34.362  20.174  25.611  1.00  0.00    -0.337 N 
ATOM     26  C   UNL A   1      34.040  19.130  24.626  1.00  0.00     0.332 C 
ATOM     27  H   UNL A   1      34.813  19.775  26.433  1.00  0.00     0.347 HD
ENDBRANCH  17  20
ENDBRANCH  11  17
ENDBRANCH   4   7
ENDBRANCH   2   3
ENDBRANCH   1   2
BRANCH   1  28
ATOM     28  C   UNL A   1      32.636  32.839  27.293  1.00  0.00     0.118 C 
BRANCH  28  29
ATOM     29  N   UNL A   1      32.444  34.250  27.626  1.00  0.00    -0.352 N 
ATOM     30  C   UNL A   1      32.993  35.017  28.627  1.00  0.00     0.251 C 
ATOM     31  H   UNL A   1      31.819  34.731  27.036  1.00  0.00     0.163 HD
ATOM     32  O   UNL A   1      32.532  36.123  28.869  1.00  0.00    -0.269 OA
BRANCH  30  33
ATOM     33  C   UNL A   1      34.119  34.484  29.421  1.00  0.00     0.039 A 
ATOM     34  C   UNL A   1      33.869  33.867  30.647  1.00  0.00     0.014 A 
ATOM     35  C   UNL A   1      35.422  34.572  28.938  1.00  0.00     0.014 A 
ATOM     36  C   UNL A   1      34.925  33.281  31.344  1.00  0.00     0.010 A 
ATOM     37  C   UNL A   1      36.426  33.831  29.530  1.00  0.00     0.010 A 
ATOM     38  C   UNL A   1      36.204  33.218  30.767  1.00  0.00    -0.014 A 
BRANCH  38  39
ATOM     39  C   UNL A   1      37.354  32.588  31.456  1.00  0.00     0.031 A 
ATOM     40  C   UNL A   1      38.085  31.454  30.782  1.00  0.00     0.074 A 
ATOM     41  C   UNL A   1      37.684  32.975  32.702  1.00  0.00     0.049 A 
ATOM     42  N   UNL A   1      39.040  30.691  31.246  1.00  0.00    -0.248 NA
ATOM     43  C   UNL A   1      37.648  31.093  29.420  1.00  0.00     0.031 C 
ATOM     44  C   UNL A   1      37.002  34.012  33.479  1.00  0.00     0.029 A 
ATOM     45  N   UNL A   1      38.677  32.534  33.539  1.00  0.00    -0.354 N 
ATOM     46  C   UNL A   1      39.287  29.752  30.251  1.00  0.00     0.074 A 
ATOM     47  C   UNL A   1      38.327  29.980  29.199  1.00  0.00     0.031 C 
ATOM     48  C   UNL A   1      37.624  34.159  34.659  1.00  0.00     0.029 A 
ATOM     49  C   UNL A   1      38.715  33.194  34.743  1.00  0.00     0.049 A 
ATOM     50  H   UNL A   1      39.303  31.813  33.299  1.00  0.00     0.167 HD
ATOM     51  C   UNL A   1      40.257  28.812  30.200  1.00  0.00     0.037 A 
ATOM     52  C   UNL A   1      39.541  33.031  35.794  1.00  0.00     0.037 A 
ATOM     53  C   UNL A   1      41.242  28.632  31.230  1.00  0.00     0.049 A 
ATOM     54  C   UNL A   1      40.622  31.989  35.705  1.00  0.00     0.074 A 
ATOM     55  C   UNL A   1      42.317  27.763  31.255  1.00  0.00     0.029 A 
ATOM     56  N   UNL A   1      41.272  29.345  32.421  1.00  0.00    -0.354 N 
ATOM     57  N   UNL A   1      40.897  31.159  34.727  1.00  0.00    -0.248 NA
ATOM     58  C   UNL A   1      41.516  31.866  36.863  1.00  0.00     0.031 C 
ATOM     59  C   UNL A   1      42.965  27.911  32.484  1.00  0.00     0.029 A 
ATOM     60  C   UNL A   1      42.334  28.918  33.197  1.00  0.00     0.049 A 
ATOM     61  H   UNL A   1      40.632  30.048  32.674  1.00  0.00     0.167 HD
ATOM     62  C   UNL A   1      42.012  30.440  35.137  1.00  0.00     0.074 A 
ATOM     63  C   UNL A   1      42.372  30.944  36.446  1.00  0.00     0.031 C 
ATOM     64  C   UNL A   1      42.678  29.450  34.492  1.00  0.00     0.037 A 
BRANCH  51  65
ATOM     65  C   UNL A   1      40.309  27.926  28.987  1.00  0.00     0.064 A 
ATOM     66  C   UNL A   1      39.613  26.708  28.929  1.00  0.00     0.173 A 
ATOM     67  C   UNL A   1      41.045  28.312  27.857  1.00  0.00     0.173 A 
ATOM     68  F   UNL A   1      38.906  26.282  29.987  1.00  0.00    -0.203 F 
ATOM     69  C   UNL A   1      39.679  25.895  27.801  1.00  0.00     0.198 A 
ATOM     70  C   UNL A   1      41.078  27.514  26.716  1.00  0.00     0.198 A 
ATOM     71  F   UNL A   1      41.730  29.465  27.856  1.00  0.00    -0.203 F 
ATOM     72  F   UNL A   1      39.056  24.709  27.795  1.00  0.00    -0.200 F 
ATOM     73  C   UNL A   1      40.404  26.304  26.692  1.00  0.00     0.200 A 
ATOM     74  F   UNL A   1      41.769  27.917  25.639  1.00  0.00    -0.200 F 
ATOM     75  F   UNL A   1      40.458  25.525  25.602  1.00  0.00    -0.200 F 
ENDBRANCH  51  65
BRANCH  52  76
ATOM     76  C   UNL A   1      39.397  33.892  36.996  1.00  0.00     0.064 A 
ATOM     77  C   UNL A   1      38.697  33.443  38.126  1.00  0.00     0.173 A 
ATOM     78  C   UNL A   1      39.947  35.182  37.045  1.00  0.00     0.173 A 
ATOM     79  F   UNL A   1      38.141  32.222  38.124  1.00  0.00    -0.203 F 
ATOM     80  C   UNL A   1      38.527  34.259  39.242  1.00  0.00     0.198 A 
ATOM     81  C   UNL A   1      39.805  35.985  38.175  1.00  0.00     0.198 A 
ATOM     82  F   UNL A   1      40.636  35.659  35.998  1.00  0.00    -0.203 F 
ATOM     83  F   UNL A   1      37.808  33.821  40.285  1.00  0.00    -0.200 F 
ATOM     84  C   UNL A   1      39.086  35.528  39.268  1.00  0.00     0.200 A 
ATOM     85  F   UNL A   1      40.363  37.203  38.203  1.00  0.00    -0.200 F 
ATOM     86  F   UNL A   1      38.924  36.311  40.343  1.00  0.00    -0.200 F 
ENDBRANCH  52  76
BRANCH  64  87
ATOM     87  C   UNL A   1      43.891  28.883  35.169  1.00  0.00     0.064 A 
ATOM     88  C   UNL A   1      45.176  29.389  34.923  1.00  0.00     0.173 A 
ATOM     89  C   UNL A   1      43.757  27.853  36.112  1.00  0.00     0.173 A 
ATOM     90  F   UNL A   1      45.358  30.365  34.022  1.00  0.00    -0.203 F 
ATOM     91  C   UNL A   1      46.286  28.862  35.578  1.00  0.00     0.198 A 
ATOM     92  C   UNL A   1      44.864  27.356  36.791  1.00  0.00     0.198 A 
ATOM     93  F   UNL A   1      42.548  27.344  36.390  1.00  0.00    -0.203 F 
ATOM     94  F   UNL A   1      47.511  29.323  35.291  1.00  0.00    -0.200 F 
ATOM     95  C   UNL A   1      46.128  27.854  36.517  1.00  0.00     0.200 A 
ATOM     96  F   UNL A   1      44.707  26.395  37.712  1.00  0.00    -0.200 F 
ATOM     97  F   UNL A   1      47.197  27.357  37.155  1.00  0.00    -0.200 F 
ENDBRANCH  64  87
ENDBRANCH  38  39
ENDBRANCH  30  33
ENDBRANCH  28  29
ENDBRANCH   1  28
TORSDOF 13
ENDMDL
MODEL 3
REMARK VINA RESULT:     -12.7      2.050      3.583
REMARK SMILES C[NH2+][C@@]1(C(=O)NCCCNC(=O)c2ccc(-c3c4nc(c(-c5c(F)c(F)c(F)c(F)c5F)c5ccc([nH]5)c(-c5c(F)c(F)c(F)c(F)c5F)c5nc(c(-c6c(F)c(F)c(F)c(F)c6F)c6ccc3[nH]6)C=C5)C=C4)cc2)CCC[C@@H]([N@@H+](C)C2CC[NH+](C)CC2)C1
REMARK SMILES IDX 8 1 7 2 6 3 4 4 5 5 3 7 76 8 89 9 77 10 79 11 78 12 2 13
REMARK SMILES IDX 1 14 80 17 81 18 82 20 83 21 88 22 84 23 87 24 85 25 86 26
REMARK SMILES IDX 9 28 10 29 11 30 12 32 13 33 14 34 75 35 15 36 74 37 16 38
REMARK SMILES IDX 17 39 18 40 68 41 19 42 73 43 67 44 69 45 20 46 72 47 66 48
REMARK SMILES IDX 65 49 21 51 53 52 33 53 52 54 34 55 37 56 51 57 70 58 35 59
REMARK SMILES IDX 36 60 50 62 71 63 38 64 22 65 23 66 31 67 24 68 25 69 29 70
REMARK SMILES IDX 32 71 26 72 27 73 30 74 28 75 54 76 55 77 63 78 56 79 57 80
REMARK SMILES IDX 61 81 64 82 58 83 59 84 62 85 60 86 39 87 40 88 48 89 41 90
REMARK SMILES IDX 42 91 46 92 49 93 43 94 44 95 47 96 45 97
REMARK H PARENT 6 6 2 15 2 16 80 19 85 27 10 31 69 50 37 61
REMARK Flexibility Score: inf
ROOT
ATOM      1  C   UNL A   1      31.397  32.294  26.755  1.00  0.00     0.042 C 
ENDROOT
BRANCH   1   2
ATOM      2  C   UNL A   1      31.640  30.882  26.280  1.00  0.00     0.118 C 
BRANCH   2   3
ATOM      3  N   UNL A   1      32.490  30.130  27.151  1.00  0.00    -0.351 N 
ATOM      4  C   UNL A   1      33.329  29.110  26.848  1.00  0.00     0.281 C 
ATOM      5  O   UNL A   1      34.286  29.000  27.628  1.00  0.00    -0.268 OA
ATOM      6  H   UNL A   1      32.460  30.389  28.100  1.00  0.00     0.163 HD
BRANCH   4   7
ATOM      7  C   UNL A   1      33.164  28.143  25.590  1.00  0.00     0.181 C 
ATOM      8  C   UNL A   1      31.675  27.949  25.229  1.00  0.00     0.079 C 
ATOM      9  C   UNL A   1      33.961  26.821  25.655  1.00  0.00     0.144 C 
ATOM     10  C   UNL A   1      30.920  26.722  25.729  1.00  0.00     0.013 C 
ATOM     11  C   UNL A   1      33.237  25.509  26.029  1.00  0.00     0.190 C 
ATOM     12  C   UNL A   1      31.709  25.480  26.122  1.00  0.00     0.065 C 
BRANCH   7  13
ATOM     13  N   UNL A   1      33.682  28.956  24.411  1.00  0.00    -0.336 N 
ATOM     14  C   UNL A   1      32.874  28.920  23.192  1.00  0.00     0.331 C 
ATOM     15  H   UNL A   1      33.748  29.929  24.711  1.00  0.00     0.346 HD
ATOM     16  H   UNL A   1      34.574  28.531  24.159  1.00  0.00     0.346 HD
ENDBRANCH   7  13
BRANCH  11  17
ATOM     17  N   UNL A   1      33.872  24.268  25.509  1.00  0.00    -0.332 N 
ATOM     18  C   UNL A   1      34.872  24.566  24.471  1.00  0.00     0.333 C 
ATOM     19  H   UNL A   1      33.022  23.829  25.154  1.00  0.00     0.348 HD
BRANCH  17  20
ATOM     20  C   UNL A   1      34.328  23.155  26.388  1.00  0.00     0.195 C 
ATOM     21  C   UNL A   1      35.604  22.419  25.965  1.00  0.00     0.126 C 
ATOM     22  C   UNL A   1      33.314  22.121  26.922  1.00  0.00     0.126 C 
ATOM     23  C   UNL A   1      35.341  21.226  25.056  1.00  0.00     0.268 C 
ATOM     24  C   UNL A   1      33.170  20.843  26.091  1.00  0.00     0.268 C 
ATOM     25  N   UNL A   1      34.435  20.242  25.656  1.00  0.00    -0.337 N 
ATOM     26  C   UNL A   1      34.156  19.187  24.669  1.00  0.00     0.332 C 
ATOM     27  H   UNL A   1      34.893  19.857  26.482  1.00  0.00     0.347 HD
ENDBRANCH  17  20
ENDBRANCH  11  17
ENDBRANCH   4   7
ENDBRANCH   2   3
ENDBRANCH   1   2
BRANCH   1  28
ATOM     28  C   UNL A   1      32.653  32.907  27.320  1.00  0.00     0.118 C 
BRANCH  28  29
ATOM     29  N   UNL A   1      32.460  34.315  27.661  1.00  0.00    -0.352 N 
ATOM     30  C   UNL A   1      33.008  35.078  28.666  1.00  0.00     0.251 C 
ATOM     31  H   UNL A   1      31.833  34.798  27.075  1.00  0.00     0.163 HD
ATOM     32  O   UNL A   1      32.545  36.182  28.915  1.00  0.00    -0.269 OA
BRANCH  30  33
ATOM     33  C   UNL A   1      34.136  34.542  29.456  1.00  0.00     0.039 A 
ATOM     34  C   UNL A   1      33.884  33.888  30.663  1.00  0.00     0.014 A 
ATOM     35  C   UNL A   1      35.441  34.666  28.989  1.00  0.00     0.014 A 
ATOM     36  C   UNL A   1      34.944  33.300  31.354  1.00  0.00     0.010 A 
ATOM     37  C   UNL A   1      36.452  33.926  29.570  1.00  0.00     0.010 A 
ATOM     38  C   UNL A   1      36.229  33.276  30.788  1.00  0.00    -0.014 A 
BRANCH  38  39
ATOM     39  C   UNL A   1      37.384  32.646  31.470  1.00  0.00     0.031 A 
ATOM     40  C   UNL A   1      38.105  31.505  30.796  1.00  0.00     0.074 A 
ATOM     41  C   UNL A   1      37.726  33.040  32.710  1.00  0.00     0.049 A 
ATOM     42  N   UNL A   1      39.062  30.742  31.257  1.00  0.00    -0.248 NA
ATOM     43  C   UNL A   1      37.655  31.137  29.442  1.00  0.00     0.031 C 
ATOM     44  C   UNL A   1      37.055  34.084  33.487  1.00  0.00     0.029 A 
ATOM     45  N   UNL A   1      38.725  32.602  33.541  1.00  0.00    -0.354 N 
ATOM     46  C   UNL A   1      39.297  29.797  30.266  1.00  0.00     0.074 A 
ATOM     47  C   UNL A   1      38.328  30.021  29.221  1.00  0.00     0.031 C 
ATOM     48  C   UNL A   1      37.687  34.237  34.660  1.00  0.00     0.029 A 
ATOM     49  C   UNL A   1      38.776  33.269  34.740  1.00  0.00     0.049 A 
ATOM     50  H   UNL A   1      39.347  31.877  33.300  1.00  0.00     0.167 HD
ATOM     51  C   UNL A   1      40.264  28.852  30.212  1.00  0.00     0.037 A 
ATOM     52  C   UNL A   1      39.611  33.110  35.785  1.00  0.00     0.037 A 
ATOM     53  C   UNL A   1      41.257  28.676  31.235  1.00  0.00     0.049 A 
ATOM     54  C   UNL A   1      40.689  32.064  35.693  1.00  0.00     0.074 A 
ATOM     55  C   UNL A   1      42.329  27.805  31.256  1.00  0.00     0.029 A 
ATOM     56  N   UNL A   1      41.300  29.397  32.421  1.00  0.00    -0.354 N 
ATOM     57  N   UNL A   1      40.952  31.227  34.718  1.00  0.00    -0.248 NA
ATOM     58  C   UNL A   1      41.592  31.946  36.844  1.00  0.00     0.031 C 
ATOM     59  C   UNL A   1      42.989  27.959  32.478  1.00  0.00     0.029 A 
ATOM     60  C   UNL A   1      42.368  28.972  33.190  1.00  0.00     0.049 A 
ATOM     61  H   UNL A   1      40.664  30.104  32.675  1.00  0.00     0.167 HD
ATOM     62  C   UNL A   1      42.068  30.507  35.122  1.00  0.00     0.074 A 
ATOM     63  C   UNL A   1      42.442  31.019  36.425  1.00  0.00     0.031 C 
ATOM     64  C   UNL A   1      42.725  29.512  34.478  1.00  0.00     0.037 A 
BRANCH  51  65
ATOM     65  C   UNL A   1      40.302  27.959  29.005  1.00  0.00     0.064 A 
ATOM     66  C   UNL A   1      41.046  28.290  27.862  1.00  0.00     0.173 A 
ATOM     67  C   UNL A   1      39.606  26.741  29.001  1.00  0.00     0.173 A 
ATOM     68  F   UNL A   1      41.718  29.450  27.804  1.00  0.00    -0.203 F 
ATOM     69  C   UNL A   1      41.063  27.454  26.748  1.00  0.00     0.198 A 
ATOM     70  C   UNL A   1      39.656  25.889  27.900  1.00  0.00     0.198 A 
ATOM     71  F   UNL A   1      38.879  26.373  30.067  1.00  0.00    -0.203 F 
ATOM     72  F   UNL A   1      41.731  27.823  25.646  1.00  0.00    -0.200 F 
ATOM     73  C   UNL A   1      40.376  26.250  26.772  1.00  0.00     0.200 A 
ATOM     74  F   UNL A   1      39.002  24.720  27.930  1.00  0.00    -0.200 F 
ATOM     75  F   UNL A   1      40.402  25.441  25.704  1.00  0.00    -0.200 F 
ENDBRANCH  51  65
BRANCH  52  76
ATOM     76  C   UNL A   1      39.481  33.980  36.983  1.00  0.00     0.064 A 
ATOM     77  C   UNL A   1      40.093  35.241  37.029  1.00  0.00     0.173 A 
ATOM     78  C   UNL A   1      38.751  33.571  38.110  1.00  0.00     0.173 A 
ATOM     79  F   UNL A   1      40.813  35.672  35.982  1.00  0.00    -0.203 F 
ATOM     80  C   UNL A   1      40.006  36.045  38.163  1.00  0.00     0.198 A 
ATOM     81  C   UNL A   1      38.637  34.391  39.231  1.00  0.00     0.198 A 
ATOM     82  F   UNL A   1      38.135  32.380  38.116  1.00  0.00    -0.203 F 
ATOM     83  F   UNL A   1      40.647  37.221  38.197  1.00  0.00    -0.200 F 
ATOM     84  C   UNL A   1      39.274  35.622  39.262  1.00  0.00     0.200 A 
ATOM     85  F   UNL A   1      37.912  33.986  40.283  1.00  0.00    -0.200 F 
ATOM     86  F   UNL A   1      39.189  36.397  40.352  1.00  0.00    -0.200 F 
ENDBRANCH  52  76
BRANCH  64  87
ATOM     87  C   UNL A   1      43.943  28.945  35.147  1.00  0.00     0.064 A 
ATOM     88  C   UNL A   1      43.865  27.843  36.011  1.00  0.00     0.173 A 
ATOM     89  C   UNL A   1      45.210  29.485  34.879  1.00  0.00     0.173 A 
ATOM     90  F   UNL A   1      42.675  27.300  36.308  1.00  0.00    -0.203 F 
ATOM     91  C   UNL A   1      45.011  27.320  36.604  1.00  0.00     0.198 A 
ATOM     92  C   UNL A   1      46.356  28.935  35.445  1.00  0.00     0.198 A 
ATOM     93  F   UNL A   1      45.339  30.532  34.051  1.00  0.00    -0.203 F 
ATOM     94  F   UNL A   1      44.908  26.300  37.467  1.00  0.00    -0.200 F 
ATOM     95  C   UNL A   1      46.255  27.860  36.314  1.00  0.00     0.200 A 
ATOM     96  F   UNL A   1      47.559  29.446  35.147  1.00  0.00    -0.200 F 
ATOM     97  F   UNL A   1      47.357  27.346  36.877  1.00  0.00    -0.200 F 
ENDBRANCH  64  87
ENDBRANCH  38  39
ENDBRANCH  30  33
ENDBRANCH  28  29
ENDBRANCH   1  28
TORSDOF 13
ENDMDL
