MODEL 1
REMARK VINA RESULT:     -11.7      0.000      0.000
REMARK SMILES COc1ccc2c(c1)c(Cc1nc(-c3ccc(C(=O)NCCCNC(=O)c4ccc(-c5c6nc(c(-c7c(F)c(F)c(F)c(F)c7F)c7ccc([nH]7)c(-c7c(F)c(F)c(F)c(F)c7F)c7nc(c(-c8c(F)c(F)c(F)c(F)c8F)c8ccc5[nH]8)C=C7)C=C6)cc4)cc3)cs1)c(C)n2C(=O)c1ccc(Cl)cc1
REMARK SMILES IDX 18 1 19 2 20 3 17 5 14 6 15 7 91 8 16 9 90 10 13 11 11 12
REMARK SMILES IDX 12 13 93 14 92 15 10 16 9 17 3 18 4 19 8 20 5 21 7 22 6 23
REMARK SMILES IDX 96 24 94 25 95 26 2 27 1 28 97 29 98 30 99 31 100 32 105 33
REMARK SMILES IDX 101 34 104 35 102 36 103 37 21 38 22 39 23 40 24 41 25 42
REMARK SMILES IDX 26 44 27 45 28 46 89 47 29 48 88 49 30 50 31 51 32 52 82 53
REMARK SMILES IDX 33 54 87 55 81 56 83 57 34 58 86 59 80 60 79 61 35 63 67 64
REMARK SMILES IDX 47 65 66 66 48 67 51 68 65 69 84 70 49 71 50 72 64 74 85 75
REMARK SMILES IDX 52 76 36 77 37 78 45 79 38 80 39 81 43 82 46 83 40 84 41 85
REMARK SMILES IDX 44 86 42 87 68 88 69 89 77 90 70 91 71 92 75 93 78 94 72 95
REMARK SMILES IDX 73 96 76 97 74 98 53 99 54 100 62 101 55 102 56 103 60 104
REMARK SMILES IDX 63 105 57 106 58 107 61 108 59 109
REMARK H PARENT 20 4 24 43 83 62 51 73
REMARK Flexibility Score: inf
ROOT
ATOM      1  C   UNL A   1      45.738  24.761  25.946  1.00  0.00     0.251 C 
ATOM      2  O   UNL A   1      46.845  25.113  25.535  1.00  0.00    -0.269 OA
ATOM      3  N   UNL A   1      44.849  24.261  25.026  1.00  0.00    -0.352 N 
ATOM      4  H   UNL A   1      45.200  24.246  24.106  1.00  0.00     0.163 HD
ENDROOT
BRANCH   1   5
ATOM      5  C   UNL A   1      45.406  24.969  27.381  1.00  0.00     0.039 A 
ATOM      6  C   UNL A   1      44.993  25.178  30.169  1.00  0.00     0.001 A 
ATOM      7  C   UNL A   1      45.048  23.923  29.554  1.00  0.00     0.011 A 
ATOM      8  C   UNL A   1      45.028  26.320  29.358  1.00  0.00     0.011 A 
ATOM      9  C   UNL A   1      45.260  23.822  28.175  1.00  0.00     0.014 A 
ATOM     10  C   UNL A   1      45.198  26.216  27.972  1.00  0.00     0.014 A 
BRANCH   6  11
ATOM     11  C   UNL A   1      44.871  25.325  31.614  1.00  0.00     0.081 A 
ATOM     12  C   UNL A   1      44.182  24.708  33.629  1.00  0.00     0.098 A 
ATOM     13  N   UNL A   1      44.058  24.476  32.338  1.00  0.00    -0.241 NA
ATOM     14  S   UNL A   1      45.134  26.079  34.033  1.00  0.00    -0.126 S 
ATOM     15  C   UNL A   1      45.490  26.302  32.368  1.00  0.00     0.095 A 
BRANCH  12  16
ATOM     16  C   UNL A   1      43.574  23.842  34.691  1.00  0.00     0.105 C 
BRANCH  16  17
ATOM     17  C   UNL A   1      44.625  23.292  35.624  1.00  0.00    -0.012 A 
ATOM     18  C   UNL A   1      44.977  25.261  38.884  1.00  0.00     0.119 A 
ATOM     19  C   UNL A   1      46.065  24.555  39.365  1.00  0.00     0.048 A 
ATOM     20  C   UNL A   1      44.434  24.910  37.649  1.00  0.00     0.057 A 
ATOM     21  C   UNL A   1      46.609  23.488  38.635  1.00  0.00     0.031 A 
ATOM     22  C   UNL A   1      44.952  23.827  36.901  1.00  0.00     0.008 A 
ATOM     23  C   UNL A   1      46.013  23.083  37.420  1.00  0.00     0.057 A 
ATOM     24  N   UNL A   1      46.268  22.013  36.538  1.00  0.00    -0.280 N 
ATOM     25  C   UNL A   1      45.447  22.192  35.409  1.00  0.00     0.028 A 
ATOM     26  C   UNL A   1      45.432  21.327  34.187  1.00  0.00     0.065 C 
BRANCH  18  27
ATOM     27  O   UNL A   1      44.346  26.297  39.516  1.00  0.00    -0.497 OA
ATOM     28  C   UNL A   1      44.478  26.351  40.930  1.00  0.00     0.278 C 
ENDBRANCH  18  27
BRANCH  24  29
ATOM     29  C   UNL A   1      47.196  20.949  36.754  1.00  0.00     0.262 C 
ATOM     30  O   UNL A   1      48.166  20.832  36.020  1.00  0.00    -0.268 OA
BRANCH  29  31
ATOM     31  C   UNL A   1      47.110  19.955  37.841  1.00  0.00     0.040 A 
ATOM     32  C   UNL A   1      48.084  19.893  38.844  1.00  0.00     0.015 A 
ATOM     33  C   UNL A   1      46.032  19.062  37.832  1.00  0.00     0.015 A 
ATOM     34  C   UNL A   1      48.016  18.874  39.798  1.00  0.00     0.021 A 
ATOM     35  C   UNL A   1      45.968  18.051  38.791  1.00  0.00     0.021 A 
ATOM     36  C   UNL A   1      46.968  17.951  39.758  1.00  0.00     0.041 A 
ATOM     37  Cl  UNL A   1      46.918  16.665  40.900  1.00  0.00    -0.084 Cl
ENDBRANCH  29  31
ENDBRANCH  24  29
ENDBRANCH  16  17
ENDBRANCH  12  16
ENDBRANCH   6  11
ENDBRANCH   1   5
BRANCH   3  38
ATOM     38  C   UNL A   1      43.495  23.748  25.138  1.00  0.00     0.118 C 
BRANCH  38  39
ATOM     39  C   UNL A   1      43.369  22.242  24.944  1.00  0.00     0.042 C 
BRANCH  39  40
ATOM     40  C   UNL A   1      42.826  21.443  26.127  1.00  0.00     0.118 C 
BRANCH  40  41
ATOM     41  N   UNL A   1      41.385  21.450  26.285  1.00  0.00    -0.352 N 
ATOM     42  C   UNL A   1      40.437  22.386  26.591  1.00  0.00     0.251 C 
ATOM     43  H   UNL A   1      40.992  20.561  26.133  1.00  0.00     0.163 HD
ATOM     44  O   UNL A   1      39.265  22.030  26.438  1.00  0.00    -0.269 OA
BRANCH  42  45
ATOM     45  C   UNL A   1      40.695  23.749  27.136  1.00  0.00     0.039 A 
ATOM     46  C   UNL A   1      41.530  24.055  28.208  1.00  0.00     0.014 A 
ATOM     47  C   UNL A   1      39.971  24.801  26.541  1.00  0.00     0.014 A 
ATOM     48  C   UNL A   1      41.561  25.346  28.740  1.00  0.00     0.010 A 
ATOM     49  C   UNL A   1      40.027  26.100  27.045  1.00  0.00     0.010 A 
ATOM     50  C   UNL A   1      40.786  26.367  28.180  1.00  0.00    -0.014 A 
BRANCH  50  51
ATOM     51  C   UNL A   1      40.852  27.700  28.786  1.00  0.00     0.031 A 
ATOM     52  C   UNL A   1      41.959  28.598  28.333  1.00  0.00     0.074 A 
ATOM     53  C   UNL A   1      39.916  28.200  29.618  1.00  0.00     0.049 A 
ATOM     54  N   UNL A   1      42.853  29.203  29.050  1.00  0.00    -0.248 NA
ATOM     55  C   UNL A   1      42.089  28.838  26.889  1.00  0.00     0.031 C 
ATOM     56  C   UNL A   1      38.612  27.632  29.965  1.00  0.00     0.029 A 
ATOM     57  N   UNL A   1      39.911  29.405  30.264  1.00  0.00    -0.354 N 
ATOM     58  C   UNL A   1      43.585  30.002  28.173  1.00  0.00     0.074 A 
ATOM     59  C   UNL A   1      43.116  29.688  26.846  1.00  0.00     0.031 C 
ATOM     60  C   UNL A   1      37.867  28.574  30.583  1.00  0.00     0.029 A 
ATOM     61  C   UNL A   1      38.681  29.760  30.792  1.00  0.00     0.049 A 
ATOM     62  H   UNL A   1      40.713  29.972  30.347  1.00  0.00     0.167 HD
ATOM     63  C   UNL A   1      44.435  30.979  28.599  1.00  0.00     0.037 A 
ATOM     64  C   UNL A   1      38.333  30.959  31.316  1.00  0.00     0.037 A 
ATOM     65  C   UNL A   1      44.822  30.804  29.970  1.00  0.00     0.049 A 
ATOM     66  C   UNL A   1      39.572  31.681  31.688  1.00  0.00     0.074 A 
ATOM     67  C   UNL A   1      45.486  29.817  30.673  1.00  0.00     0.029 A 
ATOM     68  N   UNL A   1      44.290  31.631  30.925  1.00  0.00    -0.354 N 
ATOM     69  N   UNL A   1      40.341  31.360  32.690  1.00  0.00    -0.248 NA
ATOM     70  C   UNL A   1      40.161  32.582  30.710  1.00  0.00     0.031 C 
ATOM     71  C   UNL A   1      44.897  29.825  31.971  1.00  0.00     0.029 A 
ATOM     72  C   UNL A   1      43.927  30.826  31.973  1.00  0.00     0.049 A 
ATOM     73  H   UNL A   1      44.189  32.610  30.869  1.00  0.00     0.167 HD
ATOM     74  C   UNL A   1      41.621  31.675  32.264  1.00  0.00     0.074 A 
ATOM     75  C   UNL A   1      41.437  32.530  31.097  1.00  0.00     0.031 C 
ATOM     76  C   UNL A   1      42.706  30.989  32.724  1.00  0.00     0.037 A 
BRANCH  63  77
ATOM     77  C   UNL A   1      44.730  32.250  27.846  1.00  0.00     0.064 A 
ATOM     78  C   UNL A   1      45.958  32.398  27.168  1.00  0.00     0.173 A 
ATOM     79  C   UNL A   1      43.973  33.428  28.004  1.00  0.00     0.173 A 
ATOM     80  F   UNL A   1      46.774  31.348  26.991  1.00  0.00    -0.203 F 
ATOM     81  C   UNL A   1      46.414  33.644  26.730  1.00  0.00     0.198 A 
ATOM     82  C   UNL A   1      44.407  34.663  27.520  1.00  0.00     0.198 A 
ATOM     83  F   UNL A   1      42.843  33.444  28.723  1.00  0.00    -0.203 F 
ATOM     84  F   UNL A   1      47.635  33.756  26.190  1.00  0.00    -0.200 F 
ATOM     85  C   UNL A   1      45.638  34.776  26.908  1.00  0.00     0.200 A 
ATOM     86  F   UNL A   1      43.653  35.752  27.720  1.00  0.00    -0.200 F 
ATOM     87  F   UNL A   1      46.095  35.979  26.536  1.00  0.00    -0.200 F 
ENDBRANCH  63  77
BRANCH  64  88
ATOM     88  C   UNL A   1      37.003  31.610  31.319  1.00  0.00     0.064 A 
ATOM     89  C   UNL A   1      36.345  31.923  32.518  1.00  0.00     0.173 A 
ATOM     90  C   UNL A   1      36.464  32.168  30.144  1.00  0.00     0.173 A 
ATOM     91  F   UNL A   1      36.823  31.476  33.690  1.00  0.00    -0.203 F 
ATOM     92  C   UNL A   1      35.219  32.752  32.541  1.00  0.00     0.198 A 
ATOM     93  C   UNL A   1      35.333  32.984  30.165  1.00  0.00     0.198 A 
ATOM     94  F   UNL A   1      37.075  32.005  28.962  1.00  0.00    -0.203 F 
ATOM     95  F   UNL A   1      34.650  33.075  33.710  1.00  0.00    -0.200 F 
ATOM     96  C   UNL A   1      34.718  33.286  31.365  1.00  0.00     0.200 A 
ATOM     97  F   UNL A   1      34.881  33.521  29.024  1.00  0.00    -0.200 F 
ATOM     98  F   UNL A   1      33.670  34.121  31.392  1.00  0.00    -0.200 F 
ENDBRANCH  64  88
BRANCH  76  99
ATOM     99  C   UNL A   1      42.526  30.093  33.914  1.00  0.00     0.064 A 
ATOM    100  C   UNL A   1      42.025  28.782  33.826  1.00  0.00     0.173 A 
ATOM    101  C   UNL A   1      43.034  30.512  35.151  1.00  0.00     0.173 A 
ATOM    102  F   UNL A   1      41.624  28.274  32.653  1.00  0.00    -0.203 F 
ATOM    103  C   UNL A   1      41.995  27.947  34.941  1.00  0.00     0.198 A 
ATOM    104  C   UNL A   1      43.037  29.662  36.253  1.00  0.00     0.198 A 
ATOM    105  F   UNL A   1      43.582  31.731  35.276  1.00  0.00    -0.203 F 
ATOM    106  F   UNL A   1      41.508  26.703  34.834  1.00  0.00    -0.200 F 
ATOM    107  C   UNL A   1      42.510  28.384  36.150  1.00  0.00     0.200 A 
ATOM    108  F   UNL A   1      43.584  30.068  37.407  1.00  0.00    -0.200 F 
ATOM    109  F   UNL A   1      42.528  27.563  37.209  1.00  0.00    -0.200 F 
ENDBRANCH  76  99
ENDBRANCH  50  51
ENDBRANCH  42  45
ENDBRANCH  40  41
ENDBRANCH  39  40
ENDBRANCH  38  39
ENDBRANCH   3  38
TORSDOF 16
ENDMDL
MODEL 2
REMARK VINA RESULT:     -11.6      5.935     11.197
REMARK SMILES COc1ccc2c(c1)c(Cc1nc(-c3ccc(C(=O)NCCCNC(=O)c4ccc(-c5c6nc(c(-c7c(F)c(F)c(F)c(F)c7F)c7ccc([nH]7)c(-c7c(F)c(F)c(F)c(F)c7F)c7nc(c(-c8c(F)c(F)c(F)c(F)c8F)c8ccc5[nH]8)C=C7)C=C6)cc4)cc3)cs1)c(C)n2C(=O)c1ccc(Cl)cc1
REMARK SMILES IDX 18 1 19 2 20 3 17 5 14 6 15 7 91 8 16 9 90 10 13 11 11 12
REMARK SMILES IDX 12 13 93 14 92 15 10 16 9 17 3 18 4 19 8 20 5 21 7 22 6 23
REMARK SMILES IDX 96 24 94 25 95 26 2 27 1 28 97 29 98 30 99 31 100 32 105 33
REMARK SMILES IDX 101 34 104 35 102 36 103 37 21 38 22 39 23 40 24 41 25 42
REMARK SMILES IDX 26 44 27 45 28 46 89 47 29 48 88 49 30 50 31 51 32 52 82 53
REMARK SMILES IDX 33 54 87 55 81 56 83 57 34 58 86 59 80 60 79 61 35 63 67 64
REMARK SMILES IDX 47 65 66 66 48 67 51 68 65 69 84 70 49 71 50 72 64 74 85 75
REMARK SMILES IDX 52 76 36 77 37 78 45 79 38 80 39 81 43 82 46 83 40 84 41 85
REMARK SMILES IDX 44 86 42 87 68 88 69 89 77 90 70 91 71 92 75 93 78 94 72 95
REMARK SMILES IDX 73 96 76 97 74 98 53 99 54 100 62 101 55 102 56 103 60 104
REMARK SMILES IDX 63 105 57 106 58 107 61 108 59 109
REMARK H PARENT 20 4 24 43 83 62 51 73
REMARK Flexibility Score: inf
ROOT
ATOM      1  C   UNL A   1      40.319  21.616  26.617  1.00  0.00     0.251 C 
ATOM      2  O   UNL A   1      40.716  22.644  27.168  1.00  0.00    -0.269 OA
ATOM      3  N   UNL A   1      41.196  20.562  26.531  1.00  0.00    -0.352 N 
ATOM      4  H   UNL A   1      42.080  20.752  26.922  1.00  0.00     0.163 HD
ENDROOT
BRANCH   1   5
ATOM      5  C   UNL A   1      38.958  21.603  26.016  1.00  0.00     0.039 A 
ATOM      6  C   UNL A   1      36.326  21.330  25.023  1.00  0.00     0.001 A 
ATOM      7  C   UNL A   1      37.231  20.268  24.931  1.00  0.00     0.011 A 
ATOM      8  C   UNL A   1      36.790  22.560  25.508  1.00  0.00     0.011 A 
ATOM      9  C   UNL A   1      38.531  20.402  25.429  1.00  0.00     0.014 A 
ATOM     10  C   UNL A   1      38.104  22.705  25.968  1.00  0.00     0.014 A 
BRANCH   6  11
ATOM     11  C   UNL A   1      34.936  21.199  24.604  1.00  0.00     0.081 A 
ATOM     12  C   UNL A   1      33.115  21.837  23.514  1.00  0.00     0.098 A 
ATOM     13  N   UNL A   1      34.323  22.206  23.886  1.00  0.00    -0.241 NA
ATOM     14  S   UNL A   1      32.579  20.340  24.162  1.00  0.00    -0.126 S 
ATOM     15  C   UNL A   1      34.115  20.127  24.898  1.00  0.00     0.095 A 
BRANCH  12  16
ATOM     16  C   UNL A   1      32.258  22.628  22.570  1.00  0.00     0.105 C 
BRANCH  16  17
ATOM     17  C   UNL A   1      31.990  24.016  23.099  1.00  0.00    -0.012 A 
ATOM     18  C   UNL A   1      30.378  24.059  26.568  1.00  0.00     0.119 A 
ATOM     19  C   UNL A   1      30.188  25.427  26.625  1.00  0.00     0.048 A 
ATOM     20  C   UNL A   1      30.968  23.503  25.435  1.00  0.00     0.057 A 
ATOM     21  C   UNL A   1      30.600  26.254  25.569  1.00  0.00     0.031 A 
ATOM     22  C   UNL A   1      31.408  24.315  24.363  1.00  0.00     0.008 A 
ATOM     23  C   UNL A   1      31.266  25.701  24.453  1.00  0.00     0.057 A 
ATOM     24  N   UNL A   1      31.867  26.275  23.315  1.00  0.00    -0.280 N 
ATOM     25  C   UNL A   1      32.252  25.223  22.464  1.00  0.00     0.028 A 
ATOM     26  C   UNL A   1      32.872  25.371  21.109  1.00  0.00     0.065 C 
BRANCH  18  27
ATOM     27  O   UNL A   1      30.046  23.158  27.544  1.00  0.00    -0.497 OA
ATOM     28  C   UNL A   1      28.891  22.366  27.307  1.00  0.00     0.278 C 
ENDBRANCH  18  27
BRANCH  24  29
ATOM     29  C   UNL A   1      32.044  27.672  23.072  1.00  0.00     0.262 C 
ATOM     30  O   UNL A   1      33.144  28.098  22.754  1.00  0.00    -0.268 OA
BRANCH  29  31
ATOM     31  C   UNL A   1      30.976  28.688  23.142  1.00  0.00     0.040 A 
ATOM     32  C   UNL A   1      31.015  29.717  24.090  1.00  0.00     0.015 A 
ATOM     33  C   UNL A   1      29.909  28.583  22.241  1.00  0.00     0.015 A 
ATOM     34  C   UNL A   1      29.935  30.598  24.185  1.00  0.00     0.021 A 
ATOM     35  C   UNL A   1      28.837  29.470  22.339  1.00  0.00     0.021 A 
ATOM     36  C   UNL A   1      28.847  30.462  23.320  1.00  0.00     0.041 A 
ATOM     37  Cl  UNL A   1      27.494  31.514  23.477  1.00  0.00    -0.084 Cl
ENDBRANCH  29  31
ENDBRANCH  24  29
ENDBRANCH  16  17
ENDBRANCH  12  16
ENDBRANCH   6  11
ENDBRANCH   1   5
BRANCH   3  38
ATOM     38  C   UNL A   1      41.082  19.224  25.979  1.00  0.00     0.118 C 
BRANCH  38  39
ATOM     39  C   UNL A   1      42.354  18.389  26.074  1.00  0.00     0.042 C 
BRANCH  39  40
ATOM     40  C   UNL A   1      43.673  19.157  26.131  1.00  0.00     0.118 C 
BRANCH  40  41
ATOM     41  N   UNL A   1      44.104  19.767  24.888  1.00  0.00    -0.352 N 
ATOM     42  C   UNL A   1      44.382  21.036  24.464  1.00  0.00     0.251 C 
ATOM     43  H   UNL A   1      44.227  19.101  24.174  1.00  0.00     0.163 HD
ATOM     44  O   UNL A   1      44.916  21.123  23.355  1.00  0.00    -0.269 OA
BRANCH  42  45
ATOM     45  C   UNL A   1      44.048  22.295  25.188  1.00  0.00     0.039 A 
ATOM     46  C   UNL A   1      43.211  23.307  24.724  1.00  0.00     0.014 A 
ATOM     47  C   UNL A   1      44.697  22.488  26.424  1.00  0.00     0.014 A 
ATOM     48  C   UNL A   1      43.109  24.517  25.413  1.00  0.00     0.010 A 
ATOM     49  C   UNL A   1      44.569  23.681  27.135  1.00  0.00     0.010 A 
ATOM     50  C   UNL A   1      43.811  24.721  26.605  1.00  0.00    -0.014 A 
BRANCH  50  51
ATOM     51  C   UNL A   1      43.672  26.015  27.280  1.00  0.00     0.031 A 
ATOM     52  C   UNL A   1      44.744  27.027  27.034  1.00  0.00     0.074 A 
ATOM     53  C   UNL A   1      42.589  26.383  27.995  1.00  0.00     0.049 A 
ATOM     54  N   UNL A   1      45.473  27.659  27.900  1.00  0.00    -0.248 NA
ATOM     55  C   UNL A   1      45.048  27.367  25.637  1.00  0.00     0.031 C 
ATOM     56  C   UNL A   1      41.307  25.687  28.124  1.00  0.00     0.029 A 
ATOM     57  N   UNL A   1      42.387  27.541  28.693  1.00  0.00    -0.354 N 
ATOM     58  C   UNL A   1      46.242  28.570  27.176  1.00  0.00     0.074 A 
ATOM     59  C   UNL A   1      45.989  28.301  25.783  1.00  0.00     0.031 C 
ATOM     60  C   UNL A   1      40.402  26.524  28.677  1.00  0.00     0.029 A 
ATOM     61  C   UNL A   1      41.068  27.758  29.059  1.00  0.00     0.049 A 
ATOM     62  H   UNL A   1      43.114  28.165  28.918  1.00  0.00     0.167 HD
ATOM     63  C   UNL A   1      46.933  29.586  27.767  1.00  0.00     0.037 A 
ATOM     64  C   UNL A   1      40.544  28.889  29.587  1.00  0.00     0.037 A 
ATOM     65  C   UNL A   1      47.143  29.357  29.169  1.00  0.00     0.049 A 
ATOM     66  C   UNL A   1      41.650  29.686  30.167  1.00  0.00     0.074 A 
ATOM     67  C   UNL A   1      47.792  28.388  29.908  1.00  0.00     0.029 A 
ATOM     68  N   UNL A   1      46.413  30.077  30.079  1.00  0.00    -0.354 N 
ATOM     69  N   UNL A   1      42.301  29.369  31.250  1.00  0.00    -0.248 NA
ATOM     70  C   UNL A   1      42.283  30.693  29.329  1.00  0.00     0.031 C 
ATOM     71  C   UNL A   1      47.033  28.265  31.109  1.00  0.00     0.029 A 
ATOM     72  C   UNL A   1      45.985  29.180  31.023  1.00  0.00     0.049 A 
ATOM     73  H   UNL A   1      46.232  31.045  30.059  1.00  0.00     0.167 HD
ATOM     74  C   UNL A   1      43.593  29.815  31.026  1.00  0.00     0.074 A 
ATOM     75  C   UNL A   1      43.493  30.723  29.890  1.00  0.00     0.031 C 
ATOM     76  C   UNL A   1      44.663  29.194  31.601  1.00  0.00     0.037 A 
BRANCH  63  77
ATOM     77  C   UNL A   1      47.212  30.921  27.128  1.00  0.00     0.064 A 
ATOM     78  C   UNL A   1      48.528  31.428  27.099  1.00  0.00     0.173 A 
ATOM     79  C   UNL A   1      46.195  31.840  26.799  1.00  0.00     0.173 A 
ATOM     80  F   UNL A   1      49.570  30.648  27.428  1.00  0.00    -0.203 F 
ATOM     81  C   UNL A   1      48.796  32.769  26.814  1.00  0.00     0.198 A 
ATOM     82  C   UNL A   1      46.471  33.166  26.465  1.00  0.00     0.198 A 
ATOM     83  F   UNL A   1      44.899  31.516  26.894  1.00  0.00    -0.203 F 
ATOM     84  F   UNL A   1      50.050  33.232  26.907  1.00  0.00    -0.200 F 
ATOM     85  C   UNL A   1      47.767  33.638  26.499  1.00  0.00     0.200 A 
ATOM     86  F   UNL A   1      45.459  33.999  26.182  1.00  0.00    -0.200 F 
ATOM     87  F   UNL A   1      48.016  34.935  26.276  1.00  0.00    -0.200 F 
ENDBRANCH  63  77
BRANCH  64  88
ATOM     88  C   UNL A   1      39.173  29.426  29.435  1.00  0.00     0.064 A 
ATOM     89  C   UNL A   1      38.611  29.651  28.170  1.00  0.00     0.173 A 
ATOM     90  C   UNL A   1      38.293  29.491  30.533  1.00  0.00     0.173 A 
ATOM     91  F   UNL A   1      39.368  29.556  27.066  1.00  0.00    -0.203 F 
ATOM     92  C   UNL A   1      37.247  29.917  28.010  1.00  0.00     0.198 A 
ATOM     93  C   UNL A   1      36.935  29.769  30.375  1.00  0.00     0.198 A 
ATOM     94  F   UNL A   1      38.715  29.198  31.771  1.00  0.00    -0.203 F 
ATOM     95  F   UNL A   1      36.735  30.070  26.782  1.00  0.00    -0.200 F 
ATOM     96  C   UNL A   1      36.410  29.970  29.113  1.00  0.00     0.200 A 
ATOM     97  F   UNL A   1      36.131  29.783  31.447  1.00  0.00    -0.200 F 
ATOM     98  F   UNL A   1      35.095  30.173  28.956  1.00  0.00    -0.200 F 
ENDBRANCH  64  88
BRANCH  76  99
ATOM     99  C   UNL A   1      44.404  28.214  32.707  1.00  0.00     0.064 A 
ATOM    100  C   UNL A   1      44.151  26.849  32.486  1.00  0.00     0.173 A 
ATOM    101  C   UNL A   1      44.587  28.634  34.031  1.00  0.00     0.173 A 
ATOM    102  F   UNL A   1      44.073  26.353  31.244  1.00  0.00    -0.203 F 
ATOM    103  C   UNL A   1      44.042  25.956  33.550  1.00  0.00     0.198 A 
ATOM    104  C   UNL A   1      44.515  27.732  35.089  1.00  0.00     0.198 A 
ATOM    105  F   UNL A   1      44.894  29.914  34.295  1.00  0.00    -0.203 F 
ATOM    106  F   UNL A   1      43.794  24.660  33.316  1.00  0.00    -0.200 F 
ATOM    107  C   UNL A   1      44.233  26.397  34.849  1.00  0.00     0.200 A 
ATOM    108  F   UNL A   1      44.754  28.151  36.340  1.00  0.00    -0.200 F 
ATOM    109  F   UNL A   1      44.179  25.528  35.869  1.00  0.00    -0.200 F 
ENDBRANCH  76  99
ENDBRANCH  50  51
ENDBRANCH  42  45
ENDBRANCH  40  41
ENDBRANCH  39  40
ENDBRANCH  38  39
ENDBRANCH   3  38
TORSDOF 16
ENDMDL
MODEL 3
REMARK VINA RESULT:     -11.6      5.358     13.332
REMARK SMILES COc1ccc2c(c1)c(Cc1nc(-c3ccc(C(=O)NCCCNC(=O)c4ccc(-c5c6nc(c(-c7c(F)c(F)c(F)c(F)c7F)c7ccc([nH]7)c(-c7c(F)c(F)c(F)c(F)c7F)c7nc(c(-c8c(F)c(F)c(F)c(F)c8F)c8ccc5[nH]8)C=C7)C=C6)cc4)cc3)cs1)c(C)n2C(=O)c1ccc(Cl)cc1
REMARK SMILES IDX 18 1 19 2 20 3 17 5 14 6 15 7 91 8 16 9 90 10 13 11 11 12
REMARK SMILES IDX 12 13 93 14 92 15 10 16 9 17 3 18 4 19 8 20 5 21 7 22 6 23
REMARK SMILES IDX 96 24 94 25 95 26 2 27 1 28 97 29 98 30 99 31 100 32 105 33
REMARK SMILES IDX 101 34 104 35 102 36 103 37 21 38 22 39 23 40 24 41 25 42
REMARK SMILES IDX 26 44 27 45 28 46 89 47 29 48 88 49 30 50 31 51 32 52 82 53
REMARK SMILES IDX 33 54 87 55 81 56 83 57 34 58 86 59 80 60 79 61 35 63 67 64
REMARK SMILES IDX 47 65 66 66 48 67 51 68 65 69 84 70 49 71 50 72 64 74 85 75
REMARK SMILES IDX 52 76 36 77 37 78 45 79 38 80 39 81 43 82 46 83 40 84 41 85
REMARK SMILES IDX 44 86 42 87 68 88 69 89 77 90 70 91 71 92 75 93 78 94 72 95
REMARK SMILES IDX 73 96 76 97 74 98 53 99 54 100 62 101 55 102 56 103 60 104
REMARK SMILES IDX 63 105 57 106 58 107 61 108 59 109
REMARK H PARENT 20 4 24 43 83 62 51 73
REMARK Flexibility Score: inf
ROOT
ATOM      1  C   UNL A   1      37.928  31.849  33.728  1.00  0.00     0.251 C 
ATOM      2  O   UNL A   1      38.055  30.659  34.022  1.00  0.00    -0.269 OA
ATOM      3  N   UNL A   1      36.722  32.446  34.006  1.00  0.00    -0.352 N 
ATOM      4  H   UNL A   1      36.066  31.836  34.415  1.00  0.00     0.163 HD
ENDROOT
BRANCH   1   5
ATOM      5  C   UNL A   1      39.044  32.538  33.027  1.00  0.00     0.039 A 
ATOM      6  C   UNL A   1      41.243  33.583  31.591  1.00  0.00     0.001 A 
ATOM      7  C   UNL A   1      41.416  32.503  32.463  1.00  0.00     0.011 A 
ATOM      8  C   UNL A   1      39.987  34.204  31.540  1.00  0.00     0.011 A 
ATOM      9  C   UNL A   1      40.325  31.982  33.167  1.00  0.00     0.014 A 
ATOM     10  C   UNL A   1      38.906  33.706  32.277  1.00  0.00     0.014 A 
BRANCH   6  11
ATOM     11  C   UNL A   1      42.332  34.093  30.768  1.00  0.00     0.081 A 
ATOM     12  C   UNL A   1      43.259  34.724  28.856  1.00  0.00     0.098 A 
ATOM     13  N   UNL A   1      42.216  34.125  29.393  1.00  0.00    -0.241 NA
ATOM     14  S   UNL A   1      44.521  35.113  29.954  1.00  0.00    -0.126 S 
ATOM     15  C   UNL A   1      43.549  34.538  31.248  1.00  0.00     0.095 A 
BRANCH  12  16
ATOM     16  C   UNL A   1      43.354  35.081  27.402  1.00  0.00     0.105 C 
BRANCH  16  17
ATOM     17  C   UNL A   1      43.917  36.468  27.210  1.00  0.00    -0.012 A 
ATOM     18  C   UNL A   1      47.507  36.505  25.890  1.00  0.00     0.119 A 
ATOM     19  C   UNL A   1      47.681  37.875  25.977  1.00  0.00     0.048 A 
ATOM     20  C   UNL A   1      46.289  35.951  26.279  1.00  0.00     0.057 A 
ATOM     21  C   UNL A   1      46.644  38.703  26.430  1.00  0.00     0.031 A 
ATOM     22  C   UNL A   1      45.221  36.765  26.724  1.00  0.00     0.008 A 
ATOM     23  C   UNL A   1      45.385  38.152  26.753  1.00  0.00     0.057 A 
ATOM     24  N   UNL A   1      44.156  38.728  27.133  1.00  0.00    -0.280 N 
ATOM     25  C   UNL A   1      43.283  37.677  27.469  1.00  0.00     0.028 A 
ATOM     26  C   UNL A   1      41.887  37.826  27.990  1.00  0.00     0.065 C 
BRANCH  18  27
ATOM     27  O   UNL A   1      48.431  35.603  25.438  1.00  0.00    -0.497 OA
ATOM     28  C   UNL A   1      48.995  34.734  26.410  1.00  0.00     0.278 C 
ENDBRANCH  18  27
BRANCH  24  29
ATOM     29  C   UNL A   1      43.859  40.125  27.172  1.00  0.00     0.262 C 
ATOM     30  O   UNL A   1      43.970  40.738  28.223  1.00  0.00    -0.268 OA
BRANCH  29  31
ATOM     31  C   UNL A   1      43.444  40.937  26.013  1.00  0.00     0.040 A 
ATOM     32  C   UNL A   1      44.355  41.764  25.345  1.00  0.00     0.015 A 
ATOM     33  C   UNL A   1      42.106  40.872  25.608  1.00  0.00     0.015 A 
ATOM     34  C   UNL A   1      43.899  42.590  24.315  1.00  0.00     0.021 A 
ATOM     35  C   UNL A   1      41.659  41.695  24.575  1.00  0.00     0.021 A 
ATOM     36  C   UNL A   1      42.552  42.563  23.945  1.00  0.00     0.041 A 
ATOM     37  Cl  UNL A   1      41.982  43.621  22.714  1.00  0.00    -0.084 Cl
ENDBRANCH  29  31
ENDBRANCH  24  29
ENDBRANCH  16  17
ENDBRANCH  12  16
ENDBRANCH   6  11
ENDBRANCH   1   5
BRANCH   3  38
ATOM     38  C   UNL A   1      36.222  33.796  33.819  1.00  0.00     0.118 C 
BRANCH  38  39
ATOM     39  C   UNL A   1      35.220  33.949  32.681  1.00  0.00     0.042 C 
BRANCH  39  40
ATOM     40  C   UNL A   1      34.543  32.670  32.190  1.00  0.00     0.118 C 
BRANCH  40  41
ATOM     41  N   UNL A   1      34.446  32.521  30.751  1.00  0.00    -0.352 N 
ATOM     42  C   UNL A   1      35.143  31.850  29.786  1.00  0.00     0.251 C 
ATOM     43  H   UNL A   1      33.689  33.027  30.378  1.00  0.00     0.163 HD
ATOM     44  O   UNL A   1      34.618  31.821  28.670  1.00  0.00    -0.269 OA
BRANCH  42  45
ATOM     45  C   UNL A   1      36.481  31.215  29.953  1.00  0.00     0.039 A 
ATOM     46  C   UNL A   1      37.704  31.780  29.598  1.00  0.00     0.014 A 
ATOM     47  C   UNL A   1      36.483  29.900  30.460  1.00  0.00     0.014 A 
ATOM     48  C   UNL A   1      38.877  31.024  29.642  1.00  0.00     0.010 A 
ATOM     49  C   UNL A   1      37.658  29.153  30.542  1.00  0.00     0.010 A 
ATOM     50  C   UNL A   1      38.854  29.697  30.085  1.00  0.00    -0.014 A 
BRANCH  50  51
ATOM     51  C   UNL A   1      40.115  28.949  30.101  1.00  0.00     0.031 A 
ATOM     52  C   UNL A   1      40.800  28.804  31.422  1.00  0.00     0.074 A 
ATOM     53  C   UNL A   1      40.618  28.290  29.038  1.00  0.00     0.049 A 
ATOM     54  N   UNL A   1      42.016  29.121  31.742  1.00  0.00    -0.248 NA
ATOM     55  C   UNL A   1      40.019  28.242  32.534  1.00  0.00     0.031 C 
ATOM     56  C   UNL A   1      39.984  28.042  27.741  1.00  0.00     0.029 A 
ATOM     57  N   UNL A   1      41.798  27.607  28.943  1.00  0.00    -0.354 N 
ATOM     58  C   UNL A   1      42.203  28.688  33.053  1.00  0.00     0.074 A 
ATOM     59  C   UNL A   1      40.922  28.215  33.514  1.00  0.00     0.031 C 
ATOM     60  C   UNL A   1      40.690  27.102  27.075  1.00  0.00     0.029 A 
ATOM     61  C   UNL A   1      41.887  26.782  27.834  1.00  0.00     0.049 A 
ATOM     62  H   UNL A   1      42.522  27.694  29.605  1.00  0.00     0.167 HD
ATOM     63  C   UNL A   1      43.434  28.612  33.636  1.00  0.00     0.037 A 
ATOM     64  C   UNL A   1      42.845  25.859  27.580  1.00  0.00     0.037 A 
ATOM     65  C   UNL A   1      44.410  29.411  32.952  1.00  0.00     0.049 A 
ATOM     66  C   UNL A   1      44.035  26.186  28.399  1.00  0.00     0.074 A 
ATOM     67  C   UNL A   1      44.542  30.759  32.678  1.00  0.00     0.029 A 
ATOM     68  N   UNL A   1      45.359  28.791  32.181  1.00  0.00    -0.354 N 
ATOM     69  N   UNL A   1      44.823  27.201  28.186  1.00  0.00    -0.248 NA
ATOM     70  C   UNL A   1      44.161  25.561  29.706  1.00  0.00     0.031 C 
ATOM     71  C   UNL A   1      45.195  30.818  31.412  1.00  0.00     0.029 A 
ATOM     72  C   UNL A   1      45.429  29.503  31.013  1.00  0.00     0.049 A 
ATOM     73  H   UNL A   1      45.885  27.993  32.420  1.00  0.00     0.167 HD
ATOM     74  C   UNL A   1      45.236  27.596  29.447  1.00  0.00     0.074 A 
ATOM     75  C   UNL A   1      44.898  26.484  30.326  1.00  0.00     0.031 C 
ATOM     76  C   UNL A   1      45.556  28.896  29.710  1.00  0.00     0.037 A 
BRANCH  63  77
ATOM     77  C   UNL A   1      43.823  27.612  34.693  1.00  0.00     0.064 A 
ATOM     78  C   UNL A   1      43.752  26.230  34.418  1.00  0.00     0.173 A 
ATOM     79  C   UNL A   1      43.990  27.957  36.050  1.00  0.00     0.173 A 
ATOM     80  F   UNL A   1      43.560  25.791  33.164  1.00  0.00    -0.203 F 
ATOM     81  C   UNL A   1      43.792  25.272  35.434  1.00  0.00     0.198 A 
ATOM     82  C   UNL A   1      44.081  26.996  37.057  1.00  0.00     0.198 A 
ATOM     83  F   UNL A   1      43.963  29.233  36.457  1.00  0.00    -0.203 F 
ATOM     84  F   UNL A   1      43.609  23.978  35.137  1.00  0.00    -0.200 F 
ATOM     85  C   UNL A   1      43.955  25.655  36.753  1.00  0.00     0.200 A 
ATOM     86  F   UNL A   1      44.218  27.386  38.331  1.00  0.00    -0.200 F 
ATOM     87  F   UNL A   1      43.941  24.743  37.733  1.00  0.00    -0.200 F 
ENDBRANCH  63  77
BRANCH  64  88
ATOM     88  C   UNL A   1      42.722  24.588  26.830  1.00  0.00     0.064 A 
ATOM     89  C   UNL A   1      43.383  24.392  25.608  1.00  0.00     0.173 A 
ATOM     90  C   UNL A   1      42.152  23.446  27.425  1.00  0.00     0.173 A 
ATOM     91  F   UNL A   1      43.999  25.417  25.000  1.00  0.00    -0.203 F 
ATOM     92  C   UNL A   1      43.477  23.126  25.021  1.00  0.00     0.198 A 
ATOM     93  C   UNL A   1      42.234  22.185  26.833  1.00  0.00     0.198 A 
ATOM     94  F   UNL A   1      41.583  23.513  28.637  1.00  0.00    -0.203 F 
ATOM     95  F   UNL A   1      44.165  22.967  23.882  1.00  0.00    -0.200 F 
ATOM     96  C   UNL A   1      42.907  22.024  25.637  1.00  0.00     0.200 A 
ATOM     97  F   UNL A   1      41.709  21.123  27.458  1.00  0.00    -0.200 F 
ATOM     98  F   UNL A   1      43.041  20.803  25.101  1.00  0.00    -0.200 F 
ENDBRANCH  64  88
BRANCH  76  99
ATOM     99  C   UNL A   1      45.739  29.830  28.550  1.00  0.00     0.064 A 
ATOM    100  C   UNL A   1      44.676  30.503  27.923  1.00  0.00     0.173 A 
ATOM    101  C   UNL A   1      47.043  30.183  28.174  1.00  0.00     0.173 A 
ATOM    102  F   UNL A   1      43.409  30.298  28.306  1.00  0.00    -0.203 F 
ATOM    103  C   UNL A   1      44.911  31.455  26.933  1.00  0.00     0.198 A 
ATOM    104  C   UNL A   1      47.274  31.161  27.211  1.00  0.00     0.198 A 
ATOM    105  F   UNL A   1      48.096  29.618  28.785  1.00  0.00    -0.203 F 
ATOM    106  F   UNL A   1      43.881  32.080  26.345  1.00  0.00    -0.200 F 
ATOM    107  C   UNL A   1      46.209  31.789  26.585  1.00  0.00     0.200 A 
ATOM    108  F   UNL A   1      48.531  31.521  26.916  1.00  0.00    -0.200 F 
ATOM    109  F   UNL A   1      46.435  32.742  25.669  1.00  0.00    -0.200 F 
ENDBRANCH  76  99
ENDBRANCH  50  51
ENDBRANCH  42  45
ENDBRANCH  40  41
ENDBRANCH  39  40
ENDBRANCH  38  39
ENDBRANCH   3  38
TORSDOF 16
ENDMDL
