MODEL 1
REMARK VINA RESULT:     -13.7      0.000      0.000
REMARK SMILES Cc1ccccc1OCc1nc2cc(C(=O)NCCCNC(=O)c3ccc(-c4c5nc(c(-c6c(F)c(F)c(F)c(F)c6F)c6ccc([nH]6)c(-c6c(F)c(F)c(F)c(F)c6F)c6nc(c(-c7c(F)c(F)c(F)c(F)c7F)c7ccc4[nH]7)C=C6)C=C5)cc3)ccc2n1C[C@H](C)O
REMARK SMILES IDX 18 1 17 2 15 3 16 4 14 6 10 7 11 8 90 9 12 10 89 11 13 12
REMARK SMILES IDX 88 13 87 14 9 15 8 16 7 17 1 18 2 19 3 20 4 21 6 22 5 23
REMARK SMILES IDX 91 24 92 25 93 26 94 27 19 29 20 30 21 31 22 32 23 34 24 35
REMARK SMILES IDX 25 36 86 37 26 38 85 39 27 40 28 41 29 42 79 43 30 44 84 45
REMARK SMILES IDX 78 46 80 47 31 48 83 49 77 50 76 51 32 53 64 54 44 55 63 56
REMARK SMILES IDX 45 57 48 58 62 59 81 60 46 61 47 62 61 64 82 65 49 66 33 67
REMARK SMILES IDX 34 68 42 69 35 70 36 71 40 72 43 73 37 74 38 75 41 76 39 77
REMARK SMILES IDX 65 78 66 79 74 80 67 81 68 82 72 83 75 84 69 85 70 86 73 87
REMARK SMILES IDX 71 88 50 89 51 90 59 91 52 92 53 93 57 94 60 95 54 96 55 97
REMARK SMILES IDX 58 98 56 99
REMARK H PARENT 17 5 94 28 21 33 80 52 48 63
REMARK Flexibility Score: inf
ROOT
ATOM      1  C   UNL A   1      37.565  21.216  24.630  1.00  0.00     0.118 C 
ENDROOT
BRANCH   1   2
ATOM      2  N   UNL A   1      36.277  20.683  25.091  1.00  0.00    -0.352 N 
ATOM      3  C   UNL A   1      35.042  21.317  25.104  1.00  0.00     0.251 C 
ATOM      4  O   UNL A   1      34.035  20.777  25.536  1.00  0.00    -0.269 OA
ATOM      5  H   UNL A   1      36.290  19.760  25.435  1.00  0.00     0.163 HD
BRANCH   3   6
ATOM      6  C   UNL A   1      34.988  22.660  24.493  1.00  0.00     0.042 A 
ATOM      7  C   UNL A   1      32.105  25.694  23.027  1.00  0.00     0.148 A 
ATOM      8  N   UNL A   1      32.520  24.570  22.453  1.00  0.00    -0.229 NA
ATOM      9  N   UNL A   1      32.406  25.621  24.363  1.00  0.00    -0.322 N 
ATOM     10  C   UNL A   1      33.453  24.059  23.337  1.00  0.00     0.090 A 
ATOM     11  C   UNL A   1      33.593  24.924  24.417  1.00  0.00     0.068 A 
ATOM     12  C   UNL A   1      34.166  22.856  23.367  1.00  0.00     0.044 A 
ATOM     13  C   UNL A   1      34.615  24.865  25.363  1.00  0.00     0.029 A 
ATOM     14  C   UNL A   1      35.353  23.694  25.363  1.00  0.00     0.016 A 
BRANCH   7  15
ATOM     15  C   UNL A   1      31.891  27.040  22.398  1.00  0.00     0.304 C 
BRANCH  15  16
ATOM     16  O   UNL A   1      31.081  27.746  23.365  1.00  0.00    -0.485 OA
BRANCH  16  17
ATOM     17  C   UNL A   1      30.033  28.469  22.872  1.00  0.00     0.122 A 
ATOM     18  C   UNL A   1      28.374  26.794  23.876  1.00  0.00     0.048 C 
ATOM     19  C   UNL A   1      28.714  28.045  23.126  1.00  0.00    -0.009 A 
ATOM     20  C   UNL A   1      27.647  28.865  22.736  1.00  0.00     0.007 A 
ATOM     21  C   UNL A   1      27.885  30.095  22.131  1.00  0.00     0.001 A 
ATOM     22  C   UNL A   1      30.269  29.703  22.269  1.00  0.00     0.047 A 
ATOM     23  C   UNL A   1      29.194  30.516  21.904  1.00  0.00     0.004 A 
ENDBRANCH  16  17
ENDBRANCH  15  16
ENDBRANCH   7  15
BRANCH   9  24
ATOM     24  C   UNL A   1      31.503  25.732  25.500  1.00  0.00     0.155 C 
BRANCH  24  25
ATOM     25  C   UNL A   1      30.655  24.510  25.858  1.00  0.00     0.131 C 
ATOM     26  C   UNL A   1      31.459  23.549  26.727  1.00  0.00     0.040 C 
BRANCH  25  27
ATOM     27  O   UNL A   1      30.278  23.842  24.655  1.00  0.00    -0.392 OA
ATOM     28  H   UNL A   1      30.353  24.455  23.907  1.00  0.00     0.211 HD
ENDBRANCH  25  27
ENDBRANCH  24  25
ENDBRANCH   9  24
ENDBRANCH   3   6
ENDBRANCH   1   2
BRANCH   1  29
ATOM     29  C   UNL A   1      38.586  21.342  25.763  1.00  0.00     0.042 C 
BRANCH  29  30
ATOM     30  C   UNL A   1      39.049  22.764  25.999  1.00  0.00     0.118 C 
BRANCH  30  31
ATOM     31  N   UNL A   1      40.487  22.920  26.208  1.00  0.00    -0.352 N 
ATOM     32  C   UNL A   1      41.183  24.086  26.507  1.00  0.00     0.251 C 
ATOM     33  H   UNL A   1      41.027  22.101  26.127  1.00  0.00     0.163 HD
ATOM     34  O   UNL A   1      42.387  24.086  26.661  1.00  0.00    -0.269 OA
BRANCH  32  35
ATOM     35  C   UNL A   1      40.385  25.307  26.778  1.00  0.00     0.039 A 
ATOM     36  C   UNL A   1      40.775  26.481  26.127  1.00  0.00     0.014 A 
ATOM     37  C   UNL A   1      39.546  25.351  27.888  1.00  0.00     0.014 A 
ATOM     38  C   UNL A   1      40.575  27.697  26.768  1.00  0.00     0.010 A 
ATOM     39  C   UNL A   1      39.457  26.540  28.583  1.00  0.00     0.010 A 
ATOM     40  C   UNL A   1      40.050  27.694  28.058  1.00  0.00    -0.014 A 
BRANCH  40  41
ATOM     41  C   UNL A   1      40.185  28.819  28.971  1.00  0.00     0.031 A 
ATOM     42  C   UNL A   1      39.171  29.890  28.973  1.00  0.00     0.074 A 
ATOM     43  C   UNL A   1      41.196  28.847  29.872  1.00  0.00     0.049 A 
ATOM     44  N   UNL A   1      39.363  31.044  29.515  1.00  0.00    -0.248 NA
ATOM     45  C   UNL A   1      37.882  29.782  28.294  1.00  0.00     0.031 C 
ATOM     46  C   UNL A   1      41.326  29.721  31.037  1.00  0.00     0.029 A 
ATOM     47  N   UNL A   1      42.453  28.221  29.774  1.00  0.00    -0.354 N 
ATOM     48  C   UNL A   1      38.148  31.676  29.559  1.00  0.00     0.074 A 
ATOM     49  C   UNL A   1      37.310  30.938  28.650  1.00  0.00     0.031 C 
ATOM     50  C   UNL A   1      42.625  29.839  31.349  1.00  0.00     0.029 A 
ATOM     51  C   UNL A   1      43.375  29.161  30.309  1.00  0.00     0.049 A 
ATOM     52  H   UNL A   1      42.650  27.326  29.414  1.00  0.00     0.167 HD
ATOM     53  C   UNL A   1      37.966  32.659  30.483  1.00  0.00     0.037 A 
ATOM     54  C   UNL A   1      44.331  29.736  29.521  1.00  0.00     0.037 A 
ATOM     55  C   UNL A   1      39.244  33.133  31.020  1.00  0.00     0.049 A 
ATOM     56  C   UNL A   1      44.246  31.247  29.414  1.00  0.00     0.074 A 
ATOM     57  C   UNL A   1      39.886  33.105  32.245  1.00  0.00     0.029 A 
ATOM     58  N   UNL A   1      40.185  33.593  30.113  1.00  0.00    -0.354 N 
ATOM     59  N   UNL A   1      43.325  31.977  29.979  1.00  0.00    -0.248 NA
ATOM     60  C   UNL A   1      45.135  32.040  28.561  1.00  0.00     0.031 C 
ATOM     61  C   UNL A   1      41.242  33.515  32.041  1.00  0.00     0.029 A 
ATOM     62  C   UNL A   1      41.409  33.822  30.702  1.00  0.00     0.049 A 
ATOM     63  H   UNL A   1      40.002  33.740  29.158  1.00  0.00     0.167 HD
ATOM     64  C   UNL A   1      43.423  33.266  29.525  1.00  0.00     0.074 A 
ATOM     65  C   UNL A   1      44.578  33.260  28.647  1.00  0.00     0.031 C 
ATOM     66  C   UNL A   1      42.517  34.233  29.853  1.00  0.00     0.037 A 
BRANCH  53  67
ATOM     67  C   UNL A   1      36.621  33.113  31.002  1.00  0.00     0.064 A 
ATOM     68  C   UNL A   1      35.804  33.949  30.212  1.00  0.00     0.173 A 
ATOM     69  C   UNL A   1      36.134  32.876  32.307  1.00  0.00     0.173 A 
ATOM     70  F   UNL A   1      36.149  34.271  28.957  1.00  0.00    -0.203 F 
ATOM     71  C   UNL A   1      34.612  34.502  30.693  1.00  0.00     0.198 A 
ATOM     72  C   UNL A   1      34.914  33.378  32.763  1.00  0.00     0.198 A 
ATOM     73  F   UNL A   1      36.841  32.208  33.225  1.00  0.00    -0.203 F 
ATOM     74  F   UNL A   1      33.910  35.343  29.919  1.00  0.00    -0.200 F 
ATOM     75  C   UNL A   1      34.160  34.206  31.962  1.00  0.00     0.200 A 
ATOM     76  F   UNL A   1      34.496  33.078  34.001  1.00  0.00    -0.200 F 
ATOM     77  F   UNL A   1      33.017  34.732  32.422  1.00  0.00    -0.200 F 
ENDBRANCH  53  67
BRANCH  54  78
ATOM     78  C   UNL A   1      44.800  28.823  28.443  1.00  0.00     0.064 A 
ATOM     79  C   UNL A   1      45.610  27.726  28.803  1.00  0.00     0.173 A 
ATOM     80  C   UNL A   1      44.170  28.781  27.196  1.00  0.00     0.173 A 
ATOM     81  F   UNL A   1      46.236  27.715  29.992  1.00  0.00    -0.203 F 
ATOM     82  C   UNL A   1      45.673  26.583  28.011  1.00  0.00     0.198 A 
ATOM     83  C   UNL A   1      44.256  27.642  26.392  1.00  0.00     0.198 A 
ATOM     84  F   UNL A   1      43.366  29.780  26.806  1.00  0.00    -0.203 F 
ATOM     85  F   UNL A   1      46.341  25.504  28.445  1.00  0.00    -0.200 F 
ATOM     86  C   UNL A   1      44.972  26.532  26.818  1.00  0.00     0.200 A 
ATOM     87  F   UNL A   1      43.556  27.582  25.251  1.00  0.00    -0.200 F 
ATOM     88  F   UNL A   1      44.948  25.400  26.103  1.00  0.00    -0.200 F 
ENDBRANCH  54  78
BRANCH  66  89
ATOM     89  C   UNL A   1      42.587  35.647  29.347  1.00  0.00     0.064 A 
ATOM     90  C   UNL A   1      42.006  36.041  28.131  1.00  0.00     0.173 A 
ATOM     91  C   UNL A   1      43.342  36.633  30.019  1.00  0.00     0.173 A 
ATOM     92  F   UNL A   1      41.312  35.167  27.389  1.00  0.00    -0.203 F 
ATOM     93  C   UNL A   1      42.142  37.343  27.641  1.00  0.00     0.198 A 
ATOM     94  C   UNL A   1      43.522  37.915  29.501  1.00  0.00     0.198 A 
ATOM     95  F   UNL A   1      43.901  36.393  31.214  1.00  0.00    -0.203 F 
ATOM     96  F   UNL A   1      41.527  37.692  26.503  1.00  0.00    -0.200 F 
ATOM     97  C   UNL A   1      42.911  38.274  28.318  1.00  0.00     0.200 A 
ATOM     98  F   UNL A   1      44.282  38.799  30.163  1.00  0.00    -0.200 F 
ATOM     99  F   UNL A   1      43.059  39.514  27.834  1.00  0.00    -0.200 F 
ENDBRANCH  66  89
ENDBRANCH  40  41
ENDBRANCH  32  35
ENDBRANCH  30  31
ENDBRANCH  29  30
ENDBRANCH   1  29
TORSDOF 16
ENDMDL
MODEL 2
REMARK VINA RESULT:     -13.6      3.777     10.266
REMARK SMILES Cc1ccccc1OCc1nc2cc(C(=O)NCCCNC(=O)c3ccc(-c4c5nc(c(-c6c(F)c(F)c(F)c(F)c6F)c6ccc([nH]6)c(-c6c(F)c(F)c(F)c(F)c6F)c6nc(c(-c7c(F)c(F)c(F)c(F)c7F)c7ccc4[nH]7)C=C6)C=C5)cc3)ccc2n1C[C@H](C)O
REMARK SMILES IDX 18 1 17 2 15 3 16 4 14 6 10 7 11 8 90 9 12 10 89 11 13 12
REMARK SMILES IDX 88 13 87 14 9 15 8 16 7 17 1 18 2 19 3 20 4 21 6 22 5 23
REMARK SMILES IDX 91 24 92 25 93 26 94 27 19 29 20 30 21 31 22 32 23 34 24 35
REMARK SMILES IDX 25 36 86 37 26 38 85 39 27 40 28 41 29 42 79 43 30 44 84 45
REMARK SMILES IDX 78 46 80 47 31 48 83 49 77 50 76 51 32 53 64 54 44 55 63 56
REMARK SMILES IDX 45 57 48 58 62 59 81 60 46 61 47 62 61 64 82 65 49 66 33 67
REMARK SMILES IDX 34 68 42 69 35 70 36 71 40 72 43 73 37 74 38 75 41 76 39 77
REMARK SMILES IDX 65 78 66 79 74 80 67 81 68 82 72 83 75 84 69 85 70 86 73 87
REMARK SMILES IDX 71 88 50 89 51 90 59 91 52 92 53 93 57 94 60 95 54 96 55 97
REMARK SMILES IDX 58 98 56 99
REMARK H PARENT 17 5 94 28 21 33 80 52 48 63
REMARK Flexibility Score: inf
ROOT
ATOM      1  C   UNL A   1      32.098  29.631  27.174  1.00  0.00     0.118 C 
ENDROOT
BRANCH   1   2
ATOM      2  N   UNL A   1      31.602  29.430  25.806  1.00  0.00    -0.352 N 
ATOM      3  C   UNL A   1      31.667  28.280  25.030  1.00  0.00     0.251 C 
ATOM      4  O   UNL A   1      31.238  28.239  23.887  1.00  0.00    -0.269 OA
ATOM      5  H   UNL A   1      31.169  30.208  25.386  1.00  0.00     0.163 HD
BRANCH   3   6
ATOM      6  C   UNL A   1      32.217  27.078  25.686  1.00  0.00     0.042 A 
ATOM      7  C   UNL A   1      32.461  22.674  25.218  1.00  0.00     0.148 A 
ATOM      8  N   UNL A   1      31.453  23.429  25.645  1.00  0.00    -0.229 NA
ATOM      9  N   UNL A   1      33.341  23.486  24.551  1.00  0.00    -0.322 N 
ATOM     10  C   UNL A   1      31.961  24.715  25.633  1.00  0.00     0.090 A 
ATOM     11  C   UNL A   1      33.290  24.687  25.223  1.00  0.00     0.068 A 
ATOM     12  C   UNL A   1      31.375  25.964  25.866  1.00  0.00     0.044 A 
ATOM     13  C   UNL A   1      34.185  25.749  25.337  1.00  0.00     0.029 A 
ATOM     14  C   UNL A   1      33.612  26.978  25.613  1.00  0.00     0.016 A 
BRANCH   7  15
ATOM     15  C   UNL A   1      32.945  21.365  25.770  1.00  0.00     0.304 C 
BRANCH  15  16
ATOM     16  O   UNL A   1      31.948  20.416  25.327  1.00  0.00    -0.485 OA
BRANCH  16  17
ATOM     17  C   UNL A   1      32.411  19.220  24.857  1.00  0.00     0.122 A 
ATOM     18  C   UNL A   1      32.153  20.042  22.443  1.00  0.00     0.048 C 
ATOM     19  C   UNL A   1      32.543  19.022  23.469  1.00  0.00    -0.009 A 
ATOM     20  C   UNL A   1      33.146  17.846  23.002  1.00  0.00     0.007 A 
ATOM     21  C   UNL A   1      33.635  16.900  23.896  1.00  0.00     0.001 A 
ATOM     22  C   UNL A   1      32.903  18.272  25.751  1.00  0.00     0.047 A 
ATOM     23  C   UNL A   1      33.519  17.115  25.269  1.00  0.00     0.004 A 
ENDBRANCH  16  17
ENDBRANCH  15  16
ENDBRANCH   7  15
BRANCH   9  24
ATOM     24  C   UNL A   1      33.817  23.369  23.180  1.00  0.00     0.155 C 
BRANCH  24  25
ATOM     25  C   UNL A   1      32.905  23.880  22.063  1.00  0.00     0.131 C 
ATOM     26  C   UNL A   1      33.088  25.383  21.881  1.00  0.00     0.040 C 
BRANCH  25  27
ATOM     27  O   UNL A   1      31.548  23.617  22.420  1.00  0.00    -0.392 OA
ATOM     28  H   UNL A   1      31.052  24.450  22.441  1.00  0.00     0.211 HD
ENDBRANCH  25  27
ENDBRANCH  24  25
ENDBRANCH   9  24
ENDBRANCH   3   6
ENDBRANCH   1   2
BRANCH   1  29
ATOM     29  C   UNL A   1      32.984  30.871  27.299  1.00  0.00     0.042 C 
BRANCH  29  30
ATOM     30  C   UNL A   1      34.429  30.549  27.613  1.00  0.00     0.118 C 
BRANCH  30  31
ATOM     31  N   UNL A   1      35.034  31.371  28.660  1.00  0.00    -0.352 N 
ATOM     32  C   UNL A   1      36.119  31.056  29.470  1.00  0.00     0.251 C 
ATOM     33  H   UNL A   1      34.624  32.253  28.808  1.00  0.00     0.163 HD
ATOM     34  O   UNL A   1      36.533  31.831  30.309  1.00  0.00    -0.269 OA
BRANCH  32  35
ATOM     35  C   UNL A   1      36.849  29.798  29.176  1.00  0.00     0.039 A 
ATOM     36  C   UNL A   1      37.122  28.953  30.255  1.00  0.00     0.014 A 
ATOM     37  C   UNL A   1      37.532  29.663  27.971  1.00  0.00     0.014 A 
ATOM     38  C   UNL A   1      38.281  28.186  30.224  1.00  0.00     0.010 A 
ATOM     39  C   UNL A   1      38.743  29.001  27.987  1.00  0.00     0.010 A 
ATOM     40  C   UNL A   1      39.153  28.336  29.148  1.00  0.00    -0.014 A 
BRANCH  40  41
ATOM     41  C   UNL A   1      40.550  27.931  29.199  1.00  0.00     0.031 A 
ATOM     42  C   UNL A   1      40.936  26.570  28.787  1.00  0.00     0.074 A 
ATOM     43  C   UNL A   1      41.505  28.825  29.549  1.00  0.00     0.049 A 
ATOM     44  N   UNL A   1      42.074  26.038  29.079  1.00  0.00    -0.248 NA
ATOM     45  C   UNL A   1      40.042  25.657  28.078  1.00  0.00     0.031 C 
ATOM     46  C   UNL A   1      42.952  28.695  29.377  1.00  0.00     0.029 A 
ATOM     47  N   UNL A   1      41.360  29.967  30.360  1.00  0.00    -0.354 N 
ATOM     48  C   UNL A   1      42.191  24.897  28.330  1.00  0.00     0.074 A 
ATOM     49  C   UNL A   1      40.857  24.618  27.864  1.00  0.00     0.031 C 
ATOM     50  C   UNL A   1      43.567  29.470  30.283  1.00  0.00     0.029 A 
ATOM     51  C   UNL A   1      42.538  30.008  31.152  1.00  0.00     0.049 A 
ATOM     52  H   UNL A   1      40.605  30.599  30.374  1.00  0.00     0.167 HD
ATOM     53  C   UNL A   1      43.439  24.419  28.074  1.00  0.00     0.037 A 
ATOM     54  C   UNL A   1      42.483  29.843  32.507  1.00  0.00     0.037 A 
ATOM     55  C   UNL A   1      44.433  25.004  28.978  1.00  0.00     0.049 A 
ATOM     56  C   UNL A   1      43.257  28.650  33.037  1.00  0.00     0.074 A 
ATOM     57  C   UNL A   1      45.522  25.848  28.854  1.00  0.00     0.029 A 
ATOM     58  N   UNL A   1      44.214  24.871  30.339  1.00  0.00    -0.354 N 
ATOM     59  N   UNL A   1      43.906  27.800  32.292  1.00  0.00    -0.248 NA
ATOM     60  C   UNL A   1      43.262  28.264  34.450  1.00  0.00     0.031 C 
ATOM     61  C   UNL A   1      45.919  26.251  30.170  1.00  0.00     0.029 A 
ATOM     62  C   UNL A   1      45.093  25.624  31.086  1.00  0.00     0.049 A 
ATOM     63  H   UNL A   1      43.512  24.303  30.729  1.00  0.00     0.167 HD
ATOM     64  C   UNL A   1      44.324  26.746  33.061  1.00  0.00     0.074 A 
ATOM     65  C   UNL A   1      43.907  27.085  34.408  1.00  0.00     0.031 C 
ATOM     66  C   UNL A   1      44.930  25.643  32.531  1.00  0.00     0.037 A 
BRANCH  53  67
ATOM     67  C   UNL A   1      43.793  23.510  26.920  1.00  0.00     0.064 A 
ATOM     68  C   UNL A   1      43.334  22.176  26.904  1.00  0.00     0.173 A 
ATOM     69  C   UNL A   1      44.679  23.840  25.870  1.00  0.00     0.173 A 
ATOM     70  F   UNL A   1      42.498  21.718  27.848  1.00  0.00    -0.203 F 
ATOM     71  C   UNL A   1      43.736  21.256  25.929  1.00  0.00     0.198 A 
ATOM     72  C   UNL A   1      45.030  22.938  24.863  1.00  0.00     0.198 A 
ATOM     73  F   UNL A   1      45.302  25.021  25.803  1.00  0.00    -0.203 F 
ATOM     74  F   UNL A   1      43.320  19.984  26.003  1.00  0.00    -0.200 F 
ATOM     75  C   UNL A   1      44.572  21.641  24.901  1.00  0.00     0.200 A 
ATOM     76  F   UNL A   1      45.845  23.335  23.875  1.00  0.00    -0.200 F 
ATOM     77  F   UNL A   1      44.955  20.762  23.965  1.00  0.00    -0.200 F 
ENDBRANCH  53  67
BRANCH  54  78
ATOM     78  C   UNL A   1      41.222  30.377  33.090  1.00  0.00     0.064 A 
ATOM     79  C   UNL A   1      41.053  31.776  33.147  1.00  0.00     0.173 A 
ATOM     80  C   UNL A   1      40.079  29.582  33.211  1.00  0.00     0.173 A 
ATOM     81  F   UNL A   1      42.119  32.586  33.033  1.00  0.00    -0.203 F 
ATOM     82  C   UNL A   1      39.786  32.350  33.185  1.00  0.00     0.198 A 
ATOM     83  C   UNL A   1      38.810  30.163  33.275  1.00  0.00     0.198 A 
ATOM     84  F   UNL A   1      40.168  28.246  33.140  1.00  0.00    -0.203 F 
ATOM     85  F   UNL A   1      39.653  33.682  33.100  1.00  0.00    -0.200 F 
ATOM     86  C   UNL A   1      38.664  31.542  33.221  1.00  0.00     0.200 A 
ATOM     87  F   UNL A   1      37.723  29.380  33.282  1.00  0.00    -0.200 F 
ATOM     88  F   UNL A   1      37.442  32.087  33.155  1.00  0.00    -0.200 F 
ENDBRANCH  54  78
BRANCH  66  89
ATOM     89  C   UNL A   1      45.373  24.462  33.350  1.00  0.00     0.064 A 
ATOM     90  C   UNL A   1      46.684  24.332  33.834  1.00  0.00     0.173 A 
ATOM     91  C   UNL A   1      44.518  23.361  33.578  1.00  0.00     0.173 A 
ATOM     92  F   UNL A   1      47.591  25.298  33.626  1.00  0.00    -0.203 F 
ATOM     93  C   UNL A   1      47.099  23.194  34.532  1.00  0.00     0.198 A 
ATOM     94  C   UNL A   1      44.950  22.206  34.226  1.00  0.00     0.198 A 
ATOM     95  F   UNL A   1      43.230  23.388  33.209  1.00  0.00    -0.203 F 
ATOM     96  F   UNL A   1      48.344  23.133  35.025  1.00  0.00    -0.200 F 
ATOM     97  C   UNL A   1      46.237  22.126  34.715  1.00  0.00     0.200 A 
ATOM     98  F   UNL A   1      44.105  21.176  34.380  1.00  0.00    -0.200 F 
ATOM     99  F   UNL A   1      46.644  21.027  35.363  1.00  0.00    -0.200 F 
ENDBRANCH  66  89
ENDBRANCH  40  41
ENDBRANCH  32  35
ENDBRANCH  30  31
ENDBRANCH  29  30
ENDBRANCH   1  29
TORSDOF 16
ENDMDL
MODEL 3
REMARK VINA RESULT:     -13.6      3.445      9.984
REMARK SMILES Cc1ccccc1OCc1nc2cc(C(=O)NCCCNC(=O)c3ccc(-c4c5nc(c(-c6c(F)c(F)c(F)c(F)c6F)c6ccc([nH]6)c(-c6c(F)c(F)c(F)c(F)c6F)c6nc(c(-c7c(F)c(F)c(F)c(F)c7F)c7ccc4[nH]7)C=C6)C=C5)cc3)ccc2n1C[C@H](C)O
REMARK SMILES IDX 18 1 17 2 15 3 16 4 14 6 10 7 11 8 90 9 12 10 89 11 13 12
REMARK SMILES IDX 88 13 87 14 9 15 8 16 7 17 1 18 2 19 3 20 4 21 6 22 5 23
REMARK SMILES IDX 91 24 92 25 93 26 94 27 19 29 20 30 21 31 22 32 23 34 24 35
REMARK SMILES IDX 25 36 86 37 26 38 85 39 27 40 28 41 29 42 79 43 30 44 84 45
REMARK SMILES IDX 78 46 80 47 31 48 83 49 77 50 76 51 32 53 64 54 44 55 63 56
REMARK SMILES IDX 45 57 48 58 62 59 81 60 46 61 47 62 61 64 82 65 49 66 33 67
REMARK SMILES IDX 34 68 42 69 35 70 36 71 40 72 43 73 37 74 38 75 41 76 39 77
REMARK SMILES IDX 65 78 66 79 74 80 67 81 68 82 72 83 75 84 69 85 70 86 73 87
REMARK SMILES IDX 71 88 50 89 51 90 59 91 52 92 53 93 57 94 60 95 54 96 55 97
REMARK SMILES IDX 58 98 56 99
REMARK H PARENT 17 5 94 28 21 33 80 52 48 63
REMARK Flexibility Score: inf
ROOT
ATOM      1  C   UNL A   1      31.659  30.530  26.778  1.00  0.00     0.118 C 
ENDROOT
BRANCH   1   2
ATOM      2  N   UNL A   1      31.320  30.324  25.364  1.00  0.00    -0.352 N 
ATOM      3  C   UNL A   1      31.664  29.256  24.546  1.00  0.00     0.251 C 
ATOM      4  O   UNL A   1      31.343  29.204  23.369  1.00  0.00    -0.269 OA
ATOM      5  H   UNL A   1      30.781  31.032  24.942  1.00  0.00     0.163 HD
BRANCH   3   6
ATOM      6  C   UNL A   1      32.380  28.139  25.195  1.00  0.00     0.042 A 
ATOM      7  C   UNL A   1      31.928  23.841  26.192  1.00  0.00     0.148 A 
ATOM      8  N   UNL A   1      31.407  24.911  26.786  1.00  0.00    -0.229 NA
ATOM      9  N   UNL A   1      32.347  24.217  24.942  1.00  0.00    -0.322 N 
ATOM     10  C   UNL A   1      31.931  25.980  26.083  1.00  0.00     0.090 A 
ATOM     11  C   UNL A   1      32.789  25.512  25.094  1.00  0.00     0.068 A 
ATOM     12  C   UNL A   1      31.691  27.357  26.142  1.00  0.00     0.044 A 
ATOM     13  C   UNL A   1      33.682  26.300  24.370  1.00  0.00     0.029 A 
ATOM     14  C   UNL A   1      33.476  27.666  24.463  1.00  0.00     0.016 A 
BRANCH   7  15
ATOM     15  C   UNL A   1      32.522  22.618  26.827  1.00  0.00     0.304 C 
BRANCH  15  16
ATOM     16  O   UNL A   1      33.933  22.926  26.912  1.00  0.00    -0.485 OA
BRANCH  16  17
ATOM     17  C   UNL A   1      34.764  22.205  26.103  1.00  0.00     0.122 A 
ATOM     18  C   UNL A   1      36.489  24.099  26.148  1.00  0.00     0.048 C 
ATOM     19  C   UNL A   1      36.016  22.738  25.739  1.00  0.00    -0.009 A 
ATOM     20  C   UNL A   1      36.917  21.937  25.025  1.00  0.00     0.007 A 
ATOM     21  C   UNL A   1      36.593  20.624  24.703  1.00  0.00     0.001 A 
ATOM     22  C   UNL A   1      34.442  20.888  25.782  1.00  0.00     0.047 A 
ATOM     23  C   UNL A   1      35.361  20.097  25.087  1.00  0.00     0.004 A 
ENDBRANCH  16  17
ENDBRANCH  15  16
ENDBRANCH   7  15
BRANCH   9  24
ATOM     24  C   UNL A   1      31.955  23.662  23.653  1.00  0.00     0.155 C 
BRANCH  24  25
ATOM     25  C   UNL A   1      32.830  22.557  23.058  1.00  0.00     0.131 C 
ATOM     26  C   UNL A   1      34.139  23.143  22.541  1.00  0.00     0.040 C 
BRANCH  25  27
ATOM     27  O   UNL A   1      32.131  21.951  21.971  1.00  0.00    -0.392 OA
ATOM     28  H   UNL A   1      32.631  22.085  21.151  1.00  0.00     0.211 HD
ENDBRANCH  25  27
ENDBRANCH  24  25
ENDBRANCH   9  24
ENDBRANCH   3   6
ENDBRANCH   1   2
BRANCH   1  29
ATOM     29  C   UNL A   1      32.883  31.428  26.962  1.00  0.00     0.042 C 
BRANCH  29  30
ATOM     30  C   UNL A   1      33.998  30.770  27.748  1.00  0.00     0.118 C 
BRANCH  30  31
ATOM     31  N   UNL A   1      34.670  31.638  28.713  1.00  0.00    -0.352 N 
ATOM     32  C   UNL A   1      35.823  31.368  29.443  1.00  0.00     0.251 C 
ATOM     33  H   UNL A   1      34.257  32.518  28.865  1.00  0.00     0.163 HD
ATOM     34  O   UNL A   1      36.288  32.179  30.218  1.00  0.00    -0.269 OA
BRANCH  32  35
ATOM     35  C   UNL A   1      36.550  30.113  29.133  1.00  0.00     0.039 A 
ATOM     36  C   UNL A   1      36.854  29.271  30.206  1.00  0.00     0.014 A 
ATOM     37  C   UNL A   1      37.202  29.978  27.910  1.00  0.00     0.014 A 
ATOM     38  C   UNL A   1      38.014  28.509  30.147  1.00  0.00     0.010 A 
ATOM     39  C   UNL A   1      38.416  29.321  27.897  1.00  0.00     0.010 A 
ATOM     40  C   UNL A   1      38.857  28.659  29.049  1.00  0.00    -0.014 A 
BRANCH  40  41
ATOM     41  C   UNL A   1      40.257  28.260  29.064  1.00  0.00     0.031 A 
ATOM     42  C   UNL A   1      40.629  26.872  28.734  1.00  0.00     0.074 A 
ATOM     43  C   UNL A   1      41.224  29.177  29.305  1.00  0.00     0.049 A 
ATOM     44  N   UNL A   1      41.781  26.364  29.011  1.00  0.00    -0.248 NA
ATOM     45  C   UNL A   1      39.707  25.911  28.134  1.00  0.00     0.031 C 
ATOM     46  C   UNL A   1      42.661  29.036  29.077  1.00  0.00     0.029 A 
ATOM     47  N   UNL A   1      41.111  30.374  30.038  1.00  0.00    -0.354 N 
ATOM     48  C   UNL A   1      41.868  25.172  28.341  1.00  0.00     0.074 A 
ATOM     49  C   UNL A   1      40.515  24.859  27.958  1.00  0.00     0.031 C 
ATOM     50  C   UNL A   1      43.315  29.874  29.896  1.00  0.00     0.029 A 
ATOM     51  C   UNL A   1      42.324  30.472  30.770  1.00  0.00     0.049 A 
ATOM     52  H   UNL A   1      40.356  31.005  30.041  1.00  0.00     0.167 HD
ATOM     53  C   UNL A   1      43.105  24.677  28.064  1.00  0.00     0.037 A 
ATOM     54  C   UNL A   1      42.331  30.405  32.134  1.00  0.00     0.037 A 
ATOM     55  C   UNL A   1      44.137  25.326  28.877  1.00  0.00     0.049 A 
ATOM     56  C   UNL A   1      43.134  29.254  32.713  1.00  0.00     0.074 A 
ATOM     57  C   UNL A   1      45.216  26.160  28.643  1.00  0.00     0.029 A 
ATOM     58  N   UNL A   1      43.981  25.291  30.253  1.00  0.00    -0.354 N 
ATOM     59  N   UNL A   1      43.751  28.353  32.002  1.00  0.00    -0.248 NA
ATOM     60  C   UNL A   1      43.204  28.970  34.149  1.00  0.00     0.031 C 
ATOM     61  C   UNL A   1      45.671  26.656  29.906  1.00  0.00     0.029 A 
ATOM     62  C   UNL A   1      44.890  26.097  30.902  1.00  0.00     0.049 A 
ATOM     63  H   UNL A   1      43.299  24.752  30.714  1.00  0.00     0.167 HD
ATOM     64  C   UNL A   1      44.208  27.357  32.825  1.00  0.00     0.074 A 
ATOM     65  C   UNL A   1      43.851  27.792  34.162  1.00  0.00     0.031 C 
ATOM     66  C   UNL A   1      44.793  26.220  32.348  1.00  0.00     0.037 A 
BRANCH  53  67
ATOM     67  C   UNL A   1      43.409  23.688  26.962  1.00  0.00     0.064 A 
ATOM     68  C   UNL A   1      43.044  22.333  27.109  1.00  0.00     0.173 A 
ATOM     69  C   UNL A   1      44.167  23.972  25.804  1.00  0.00     0.173 A 
ATOM     70  F   UNL A   1      42.337  21.916  28.169  1.00  0.00    -0.203 F 
ATOM     71  C   UNL A   1      43.415  21.352  26.182  1.00  0.00     0.198 A 
ATOM     72  C   UNL A   1      44.481  23.003  24.849  1.00  0.00     0.198 A 
ATOM     73  F   UNL A   1      44.696  25.177  25.572  1.00  0.00    -0.203 F 
ATOM     74  F   UNL A   1      43.097  20.069  26.408  1.00  0.00    -0.200 F 
ATOM     75  C   UNL A   1      44.120  21.690  25.045  1.00  0.00     0.200 A 
ATOM     76  F   UNL A   1      45.169  23.354  23.752  1.00  0.00    -0.200 F 
ATOM     77  F   UNL A   1      44.472  20.753  24.155  1.00  0.00    -0.200 F 
ENDBRANCH  53  67
BRANCH  54  78
ATOM     78  C   UNL A   1      41.097  30.979  32.735  1.00  0.00     0.064 A 
ATOM     79  C   UNL A   1      40.937  32.380  32.721  1.00  0.00     0.173 A 
ATOM     80  C   UNL A   1      39.955  30.200  32.943  1.00  0.00     0.173 A 
ATOM     81  F   UNL A   1      42.002  33.176  32.522  1.00  0.00    -0.203 F 
ATOM     82  C   UNL A   1      39.675  32.965  32.776  1.00  0.00     0.198 A 
ATOM     83  C   UNL A   1      38.693  30.793  33.023  1.00  0.00     0.198 A 
ATOM     84  F   UNL A   1      40.035  28.862  32.942  1.00  0.00    -0.203 F 
ATOM     85  F   UNL A   1      39.545  34.291  32.623  1.00  0.00    -0.200 F 
ATOM     86  C   UNL A   1      38.551  32.168  32.899  1.00  0.00     0.200 A 
ATOM     87  F   UNL A   1      37.602  30.018  33.114  1.00  0.00    -0.200 F 
ATOM     88  F   UNL A   1      37.330  32.716  32.850  1.00  0.00    -0.200 F 
ENDBRANCH  54  78
BRANCH  66  89
ATOM     89  C   UNL A   1      45.278  25.100  33.229  1.00  0.00     0.064 A 
ATOM     90  C   UNL A   1      44.401  24.291  33.968  1.00  0.00     0.173 A 
ATOM     91  C   UNL A   1      46.656  24.878  33.445  1.00  0.00     0.173 A 
ATOM     92  F   UNL A   1      43.074  24.454  33.875  1.00  0.00    -0.203 F 
ATOM     93  C   UNL A   1      44.873  23.301  34.836  1.00  0.00     0.198 A 
ATOM     94  C   UNL A   1      47.122  23.929  34.352  1.00  0.00     0.198 A 
ATOM     95  F   UNL A   1      47.589  25.553  32.759  1.00  0.00    -0.203 F 
ATOM     96  F   UNL A   1      44.002  22.514  35.482  1.00  0.00    -0.200 F 
ATOM     97  C   UNL A   1      46.231  23.131  35.039  1.00  0.00     0.200 A 
ATOM     98  F   UNL A   1      48.442  23.788  34.547  1.00  0.00    -0.200 F 
ATOM     99  F   UNL A   1      46.680  22.199  35.890  1.00  0.00    -0.200 F 
ENDBRANCH  66  89
ENDBRANCH  40  41
ENDBRANCH  32  35
ENDBRANCH  30  31
ENDBRANCH  29  30
ENDBRANCH   1  29
TORSDOF 16
ENDMDL
