MODEL 1
REMARK VINA RESULT:     -14.0      0.000      0.000
REMARK SMILES O=C(NCCCNC(=O)c1ccc([C@H]2Nc3ccc(Cl)cc3[C@@H]3C=CC[C@@H]23)cc1)c1ccc(-c2c3nc(c(-c4c(F)c(F)c(F)c(F)c4F)c4ccc([nH]4)c(-c4c(F)c(F)c(F)c(F)c4F)c4nc(c(-c5c(F)c(F)c(F)c(F)c5F)c5ccc2[nH]5)C=C4)C=C3)cc1
REMARK SMILES IDX 4 1 3 2 1 3 2 4 30 6 31 7 92 8 32 9 91 10 33 11 34 12 35 13
REMARK SMILES IDX 85 14 36 15 90 16 84 17 86 18 37 19 89 20 83 21 82 22 38 24
REMARK SMILES IDX 70 25 50 26 69 27 51 28 54 29 68 30 87 31 52 32 53 33 67 35
REMARK SMILES IDX 88 36 55 37 39 38 40 39 48 40 41 41 42 42 46 43 49 44 43 45
REMARK SMILES IDX 44 46 47 47 45 48 71 49 72 50 80 51 73 52 74 53 78 54 81 55
REMARK SMILES IDX 75 56 76 57 79 58 77 59 56 60 57 61 65 62 58 63 59 64 63 65
REMARK SMILES IDX 66 66 60 67 61 68 64 69 62 70 5 71 6 72 7 73 8 74 9 76 10 77
REMARK SMILES IDX 11 78 29 79 12 80 28 81 13 82 14 83 15 84 27 85 16 86 23 88
REMARK SMILES IDX 26 89 17 90 22 91 24 92 25 93 18 94 21 95 19 96 20 97
REMARK H PARENT 3 5 86 23 54 34 7 75 15 87
REMARK Flexibility Score: inf
ROOT
ATOM      1  C   UNL A   1      32.985  29.175  25.202  1.00  0.00     0.118 C 
ENDROOT
BRANCH   1   2
ATOM      2  N   UNL A   1      32.516  30.443  25.745  1.00  0.00    -0.352 N 
ATOM      3  O   UNL A   1      32.357  32.211  27.125  1.00  0.00    -0.269 OA
ATOM      4  C   UNL A   1      32.993  31.226  26.774  1.00  0.00     0.251 C 
ATOM      5  H   UNL A   1      31.716  30.805  25.298  1.00  0.00     0.163 HD
BRANCH   4   6
ATOM      6  C   UNL A   1      34.249  30.884  27.489  1.00  0.00     0.039 A 
ATOM      7  C   UNL A   1      34.513  29.586  27.924  1.00  0.00     0.014 A 
ATOM      8  C   UNL A   1      35.212  31.882  27.682  1.00  0.00     0.014 A 
ATOM      9  C   UNL A   1      35.644  29.325  28.695  1.00  0.00     0.010 A 
ATOM     10  C   UNL A   1      36.397  31.596  28.374  1.00  0.00     0.010 A 
ATOM     11  C   UNL A   1      36.607  30.322  28.921  1.00  0.00    -0.014 A 
BRANCH  11  12
ATOM     12  C   UNL A   1      37.844  29.986  29.678  1.00  0.00     0.031 A 
ATOM     13  C   UNL A   1      38.079  30.510  31.070  1.00  0.00     0.074 A 
ATOM     14  C   UNL A   1      38.754  29.170  29.109  1.00  0.00     0.049 A 
ATOM     15  N   UNL A   1      39.088  30.288  31.878  1.00  0.00    -0.248 NA
ATOM     16  C   UNL A   1      37.055  31.404  31.629  1.00  0.00     0.031 C 
ATOM     17  C   UNL A   1      38.652  28.612  27.759  1.00  0.00     0.029 A 
ATOM     18  N   UNL A   1      39.933  28.658  29.591  1.00  0.00    -0.354 N 
ATOM     19  C   UNL A   1      38.828  31.021  33.028  1.00  0.00     0.074 A 
ATOM     20  C   UNL A   1      37.581  31.722  32.804  1.00  0.00     0.031 C 
ATOM     21  C   UNL A   1      39.697  27.803  27.537  1.00  0.00     0.029 A 
ATOM     22  C   UNL A   1      40.577  27.835  28.699  1.00  0.00     0.049 A 
ATOM     23  H   UNL A   1      40.282  28.861  30.489  1.00  0.00     0.167 HD
ATOM     24  C   UNL A   1      39.558  31.094  34.169  1.00  0.00     0.037 A 
ATOM     25  C   UNL A   1      41.757  27.193  28.793  1.00  0.00     0.037 A 
ATOM     26  C   UNL A   1      40.796  30.387  34.389  1.00  0.00     0.049 A 
ATOM     27  C   UNL A   1      42.560  27.320  30.057  1.00  0.00     0.074 A 
ATOM     28  C   UNL A   1      41.585  30.365  35.528  1.00  0.00     0.029 A 
ATOM     29  N   UNL A   1      41.431  29.586  33.451  1.00  0.00    -0.354 N 
ATOM     30  N   UNL A   1      42.277  27.977  31.155  1.00  0.00    -0.248 NA
ATOM     31  C   UNL A   1      43.846  26.611  30.095  1.00  0.00     0.031 C 
ATOM     32  C   UNL A   1      42.727  29.605  35.256  1.00  0.00     0.029 A 
ATOM     33  C   UNL A   1      42.618  29.094  33.974  1.00  0.00     0.049 A 
ATOM     34  H   UNL A   1      41.090  29.397  32.547  1.00  0.00     0.167 HD
ATOM     35  C   UNL A   1      43.336  27.745  32.021  1.00  0.00     0.074 A 
ATOM     36  C   UNL A   1      44.257  26.867  31.328  1.00  0.00     0.031 C 
ATOM     37  C   UNL A   1      43.529  28.220  33.276  1.00  0.00     0.037 A 
BRANCH  24  38
ATOM     38  C   UNL A   1      39.054  31.985  35.271  1.00  0.00     0.064 A 
ATOM     39  C   UNL A   1      38.306  31.483  36.347  1.00  0.00     0.173 A 
ATOM     40  C   UNL A   1      39.377  33.351  35.281  1.00  0.00     0.173 A 
ATOM     41  F   UNL A   1      37.962  30.187  36.384  1.00  0.00    -0.203 F 
ATOM     42  C   UNL A   1      37.880  32.319  37.377  1.00  0.00     0.198 A 
ATOM     43  C   UNL A   1      38.977  34.177  36.329  1.00  0.00     0.198 A 
ATOM     44  F   UNL A   1      40.099  33.884  34.283  1.00  0.00    -0.203 F 
ATOM     45  F   UNL A   1      37.128  31.825  38.370  1.00  0.00    -0.200 F 
ATOM     46  C   UNL A   1      38.222  33.663  37.372  1.00  0.00     0.200 A 
ATOM     47  F   UNL A   1      39.323  35.472  36.330  1.00  0.00    -0.200 F 
ATOM     48  F   UNL A   1      37.821  34.462  38.370  1.00  0.00    -0.200 F 
ENDBRANCH  24  38
BRANCH  25  49
ATOM     49  C   UNL A   1      42.250  26.385  27.646  1.00  0.00     0.064 A 
ATOM     50  C   UNL A   1      43.179  26.906  26.737  1.00  0.00     0.173 A 
ATOM     51  C   UNL A   1      41.800  25.072  27.439  1.00  0.00     0.173 A 
ATOM     52  F   UNL A   1      43.624  28.164  26.880  1.00  0.00    -0.203 F 
ATOM     53  C   UNL A   1      43.626  26.152  25.654  1.00  0.00     0.198 A 
ATOM     54  C   UNL A   1      42.275  24.306  26.378  1.00  0.00     0.198 A 
ATOM     55  F   UNL A   1      40.915  24.524  28.284  1.00  0.00    -0.203 F 
ATOM     56  F   UNL A   1      44.478  26.691  24.771  1.00  0.00    -0.200 F 
ATOM     57  C   UNL A   1      43.180  24.850  25.480  1.00  0.00     0.200 A 
ATOM     58  F   UNL A   1      41.856  23.042  26.227  1.00  0.00    -0.200 F 
ATOM     59  F   UNL A   1      43.617  24.123  24.443  1.00  0.00    -0.200 F 
ENDBRANCH  25  49
BRANCH  37  60
ATOM     60  C   UNL A   1      44.767  27.770  33.998  1.00  0.00     0.064 A 
ATOM     61  C   UNL A   1      45.962  28.504  33.947  1.00  0.00     0.173 A 
ATOM     62  C   UNL A   1      44.750  26.599  34.772  1.00  0.00     0.173 A 
ATOM     63  F   UNL A   1      46.036  29.622  33.209  1.00  0.00    -0.203 F 
ATOM     64  C   UNL A   1      47.101  28.064  34.617  1.00  0.00     0.198 A 
ATOM     65  C   UNL A   1      45.880  26.182  35.469  1.00  0.00     0.198 A 
ATOM     66  F   UNL A   1      43.632  25.862  34.860  1.00  0.00    -0.203 F 
ATOM     67  F   UNL A   1      48.247  28.751  34.505  1.00  0.00    -0.200 F 
ATOM     68  C   UNL A   1      47.058  26.909  35.383  1.00  0.00     0.200 A 
ATOM     69  F   UNL A   1      45.831  25.074  36.221  1.00  0.00    -0.200 F 
ATOM     70  F   UNL A   1      48.154  26.492  36.031  1.00  0.00    -0.200 F 
ENDBRANCH  37  60
ENDBRANCH  11  12
ENDBRANCH   4   6
ENDBRANCH   1   2
BRANCH   1  71
ATOM     71  C   UNL A   1      33.977  29.321  24.050  1.00  0.00     0.042 C 
BRANCH  71  72
ATOM     72  C   UNL A   1      33.527  28.761  22.699  1.00  0.00     0.118 C 
BRANCH  72  73
ATOM     73  N   UNL A   1      32.195  29.202  22.301  1.00  0.00    -0.352 N 
ATOM     74  C   UNL A   1      30.952  28.612  22.338  1.00  0.00     0.251 C 
ATOM     75  H   UNL A   1      32.182  30.114  21.930  1.00  0.00     0.163 HD
ATOM     76  O   UNL A   1      30.020  29.214  21.807  1.00  0.00    -0.269 OA
BRANCH  74  77
ATOM     77  C   UNL A   1      30.696  27.272  22.929  1.00  0.00     0.039 A 
ATOM     78  C   UNL A   1      31.334  26.165  22.352  1.00  0.00     0.014 A 
ATOM     79  C   UNL A   1      29.839  27.058  24.006  1.00  0.00     0.014 A 
ATOM     80  C   UNL A   1      31.295  24.911  22.974  1.00  0.00     0.006 A 
ATOM     81  C   UNL A   1      29.812  25.807  24.637  1.00  0.00     0.006 A 
ATOM     82  C   UNL A   1      30.664  24.768  24.216  1.00  0.00    -0.025 A 
BRANCH  82  83
ATOM     83  C   UNL A   1      31.127  23.735  25.258  1.00  0.00     0.114 C 
ATOM     84  N   UNL A   1      31.256  22.352  24.733  1.00  0.00    -0.378 N 
ATOM     85  C   UNL A   1      32.503  24.141  25.840  1.00  0.00     0.031 C 
ATOM     86  C   UNL A   1      32.495  21.691  24.697  1.00  0.00     0.038 A 
ATOM     87  H   UNL A   1      30.455  21.886  24.403  1.00  0.00     0.161 HD
ATOM     88  C   UNL A   1      33.539  23.919  24.722  1.00  0.00     0.049 C 
ATOM     89  C   UNL A   1      32.805  25.507  26.452  1.00  0.00     0.034 C 
ATOM     90  C   UNL A   1      32.576  20.299  24.774  1.00  0.00     0.027 A 
ATOM     91  C   UNL A   1      33.710  22.433  24.696  1.00  0.00    -0.016 A 
ATOM     92  C   UNL A   1      34.612  24.892  25.053  1.00  0.00    -0.023 C 
ATOM     93  C   UNL A   1      34.178  25.808  25.930  1.00  0.00    -0.030 C 
ATOM     94  C   UNL A   1      33.824  19.664  24.838  1.00  0.00     0.022 A 
ATOM     95  C   UNL A   1      34.953  21.798  24.713  1.00  0.00     0.027 A 
ATOM     96  C   UNL A   1      35.001  20.412  24.795  1.00  0.00     0.041 A 
ATOM     97  Cl  UNL A   1      36.528  19.621  24.881  1.00  0.00    -0.084 Cl
ENDBRANCH  82  83
ENDBRANCH  74  77
ENDBRANCH  72  73
ENDBRANCH  71  72
ENDBRANCH   1  71
TORSDOF 11
ENDMDL
MODEL 2
REMARK VINA RESULT:     -13.9      1.799      2.782
REMARK SMILES O=C(NCCCNC(=O)c1ccc([C@H]2Nc3ccc(Cl)cc3[C@@H]3C=CC[C@@H]23)cc1)c1ccc(-c2c3nc(c(-c4c(F)c(F)c(F)c(F)c4F)c4ccc([nH]4)c(-c4c(F)c(F)c(F)c(F)c4F)c4nc(c(-c5c(F)c(F)c(F)c(F)c5F)c5ccc2[nH]5)C=C4)C=C3)cc1
REMARK SMILES IDX 4 1 3 2 1 3 2 4 30 6 31 7 92 8 32 9 91 10 33 11 34 12 35 13
REMARK SMILES IDX 85 14 36 15 90 16 84 17 86 18 37 19 89 20 83 21 82 22 38 24
REMARK SMILES IDX 70 25 50 26 69 27 51 28 54 29 68 30 87 31 52 32 53 33 67 35
REMARK SMILES IDX 88 36 55 37 39 38 40 39 48 40 41 41 42 42 46 43 49 44 43 45
REMARK SMILES IDX 44 46 47 47 45 48 71 49 72 50 80 51 73 52 74 53 78 54 81 55
REMARK SMILES IDX 75 56 76 57 79 58 77 59 56 60 57 61 65 62 58 63 59 64 63 65
REMARK SMILES IDX 66 66 60 67 61 68 64 69 62 70 5 71 6 72 7 73 8 74 9 76 10 77
REMARK SMILES IDX 11 78 29 79 12 80 28 81 13 82 14 83 15 84 27 85 16 86 23 88
REMARK SMILES IDX 26 89 17 90 22 91 24 92 25 93 18 94 21 95 19 96 20 97
REMARK H PARENT 3 5 86 23 54 34 7 75 15 87
REMARK Flexibility Score: inf
ROOT
ATOM      1  C   UNL A   1      32.390  32.477  26.875  1.00  0.00     0.118 C 
ENDROOT
BRANCH   1   2
ATOM      2  N   UNL A   1      32.332  33.828  27.418  1.00  0.00    -0.352 N 
ATOM      3  O   UNL A   1      32.782  35.581  28.751  1.00  0.00    -0.269 OA
ATOM      4  C   UNL A   1      33.095  34.458  28.377  1.00  0.00     0.251 C 
ATOM      5  H   UNL A   1      31.622  34.390  27.030  1.00  0.00     0.163 HD
BRANCH   4   6
ATOM      6  C   UNL A   1      34.271  33.792  28.991  1.00  0.00     0.039 A 
ATOM      7  C   UNL A   1      34.134  32.678  29.817  1.00  0.00     0.014 A 
ATOM      8  C   UNL A   1      35.554  34.268  28.688  1.00  0.00     0.014 A 
ATOM      9  C   UNL A   1      35.246  32.152  30.471  1.00  0.00     0.010 A 
ATOM     10  C   UNL A   1      36.683  33.676  29.270  1.00  0.00     0.010 A 
ATOM     11  C   UNL A   1      36.537  32.636  30.199  1.00  0.00    -0.014 A 
BRANCH  11  12
ATOM     12  C   UNL A   1      37.711  31.995  30.852  1.00  0.00     0.031 A 
ATOM     13  C   UNL A   1      38.142  32.379  32.243  1.00  0.00     0.074 A 
ATOM     14  C   UNL A   1      38.378  31.029  30.189  1.00  0.00     0.049 A 
ATOM     15  N   UNL A   1      39.123  31.898  32.967  1.00  0.00    -0.248 NA
ATOM     16  C   UNL A   1      37.381  33.447  32.906  1.00  0.00     0.031 C 
ATOM     17  C   UNL A   1      38.071  30.579  28.830  1.00  0.00     0.029 A 
ATOM     18  N   UNL A   1      39.439  30.243  30.566  1.00  0.00    -0.354 N 
ATOM     19  C   UNL A   1      39.105  32.608  34.160  1.00  0.00     0.074 A 
ATOM     20  C   UNL A   1      38.036  33.578  34.052  1.00  0.00     0.031 C 
ATOM     21  C   UNL A   1      38.891  29.571  28.504  1.00  0.00     0.029 A 
ATOM     22  C   UNL A   1      39.826  29.347  29.600  1.00  0.00     0.049 A 
ATOM     23  H   UNL A   1      39.879  30.316  31.443  1.00  0.00     0.167 HD
ATOM     24  C   UNL A   1      39.901  32.457  35.248  1.00  0.00     0.037 A 
ATOM     25  C   UNL A   1      40.836  28.456  29.585  1.00  0.00     0.037 A 
ATOM     26  C   UNL A   1      40.961  31.483  35.352  1.00  0.00     0.049 A 
ATOM     27  C   UNL A   1      41.722  28.334  30.792  1.00  0.00     0.074 A 
ATOM     28  C   UNL A   1      41.792  31.228  36.429  1.00  0.00     0.029 A 
ATOM     29  N   UNL A   1      41.341  30.613  34.341  1.00  0.00    -0.354 N 
ATOM     30  N   UNL A   1      41.661  28.979  31.931  1.00  0.00    -0.248 NA
ATOM     31  C   UNL A   1      42.816  27.358  30.712  1.00  0.00     0.031 C 
ATOM     32  C   UNL A   1      42.716  30.248  36.048  1.00  0.00     0.029 A 
ATOM     33  C   UNL A   1      42.417  29.843  34.759  1.00  0.00     0.049 A 
ATOM     34  H   UNL A   1      40.911  30.551  33.457  1.00  0.00     0.167 HD
ATOM     35  C   UNL A   1      42.693  28.473  32.710  1.00  0.00     0.074 A 
ATOM     36  C   UNL A   1      43.349  27.451  31.921  1.00  0.00     0.031 C 
ATOM     37  C   UNL A   1      43.063  28.827  33.965  1.00  0.00     0.037 A 
BRANCH  24  38
ATOM     38  C   UNL A   1      39.678  33.378  36.416  1.00  0.00     0.064 A 
ATOM     39  C   UNL A   1      40.282  34.642  36.490  1.00  0.00     0.173 A 
ATOM     40  C   UNL A   1      38.797  33.014  37.447  1.00  0.00     0.173 A 
ATOM     41  F   UNL A   1      41.138  35.038  35.536  1.00  0.00    -0.203 F 
ATOM     42  C   UNL A   1      40.032  35.496  37.563  1.00  0.00     0.198 A 
ATOM     43  C   UNL A   1      38.525  33.882  38.501  1.00  0.00     0.198 A 
ATOM     44  F   UNL A   1      38.183  31.821  37.424  1.00  0.00    -0.203 F 
ATOM     45  F   UNL A   1      40.656  36.680  37.633  1.00  0.00    -0.200 F 
ATOM     46  C   UNL A   1      39.148  35.119  38.563  1.00  0.00     0.200 A 
ATOM     47  F   UNL A   1      37.658  33.523  39.458  1.00  0.00    -0.200 F 
ATOM     48  F   UNL A   1      38.901  35.947  39.587  1.00  0.00    -0.200 F 
ENDBRANCH  24  38
BRANCH  25  49
ATOM     49  C   UNL A   1      41.063  27.620  28.376  1.00  0.00     0.064 A 
ATOM     50  C   UNL A   1      40.410  26.392  28.209  1.00  0.00     0.173 A 
ATOM     51  C   UNL A   1      41.939  28.036  27.362  1.00  0.00     0.173 A 
ATOM     52  F   UNL A   1      39.578  25.941  29.160  1.00  0.00    -0.203 F 
ATOM     53  C   UNL A   1      40.638  25.604  27.083  1.00  0.00     0.198 A 
ATOM     54  C   UNL A   1      42.138  27.265  26.220  1.00  0.00     0.198 A 
ATOM     55  F   UNL A   1      42.585  29.207  27.470  1.00  0.00    -0.203 F 
ATOM     56  F   UNL A   1      40.038  24.411  26.971  1.00  0.00    -0.200 F 
ATOM     57  C   UNL A   1      41.495  26.045  26.086  1.00  0.00     0.200 A 
ATOM     58  F   UNL A   1      42.953  27.705  25.251  1.00  0.00    -0.200 F 
ATOM     59  F   UNL A   1      41.707  25.289  25.000  1.00  0.00    -0.200 F 
ENDBRANCH  25  49
BRANCH  37  60
ATOM     60  C   UNL A   1      44.211  28.076  34.579  1.00  0.00     0.064 A 
ATOM     61  C   UNL A   1      45.532  28.540  34.488  1.00  0.00     0.173 A 
ATOM     62  C   UNL A   1      43.981  26.888  35.290  1.00  0.00     0.173 A 
ATOM     63  F   UNL A   1      45.808  29.663  33.807  1.00  0.00    -0.203 F 
ATOM     64  C   UNL A   1      46.583  27.824  35.058  1.00  0.00     0.198 A 
ATOM     65  C   UNL A   1      45.030  26.195  35.888  1.00  0.00     0.198 A 
ATOM     66  F   UNL A   1      42.737  26.402  35.413  1.00  0.00    -0.203 F 
ATOM     67  F   UNL A   1      47.842  28.257  34.908  1.00  0.00    -0.200 F 
ATOM     68  C   UNL A   1      46.331  26.658  35.764  1.00  0.00     0.200 A 
ATOM     69  F   UNL A   1      44.781  25.075  36.582  1.00  0.00    -0.200 F 
ATOM     70  F   UNL A   1      47.342  25.974  36.315  1.00  0.00    -0.200 F 
ENDBRANCH  37  60
ENDBRANCH  11  12
ENDBRANCH   4   6
ENDBRANCH   1   2
BRANCH   1  71
ATOM     71  C   UNL A   1      31.028  31.898  26.502  1.00  0.00     0.042 C 
BRANCH  71  72
ATOM     72  C   UNL A   1      31.020  30.873  25.366  1.00  0.00     0.118 C 
BRANCH  72  73
ATOM     73  N   UNL A   1      30.099  31.208  24.286  1.00  0.00    -0.352 N 
ATOM     74  C   UNL A   1      29.524  30.478  23.272  1.00  0.00     0.251 C 
ATOM     75  H   UNL A   1      29.832  32.156  24.284  1.00  0.00     0.163 HD
ATOM     76  O   UNL A   1      28.866  31.091  22.431  1.00  0.00    -0.269 OA
BRANCH  74  77
ATOM     77  C   UNL A   1      29.703  29.011  23.111  1.00  0.00     0.039 A 
ATOM     78  C   UNL A   1      30.892  28.554  22.526  1.00  0.00     0.014 A 
ATOM     79  C   UNL A   1      28.745  28.073  23.489  1.00  0.00     0.014 A 
ATOM     80  C   UNL A   1      31.213  27.190  22.525  1.00  0.00     0.006 A 
ATOM     81  C   UNL A   1      29.071  26.710  23.501  1.00  0.00     0.006 A 
ATOM     82  C   UNL A   1      30.368  26.275  23.166  1.00  0.00    -0.025 A 
BRANCH  82  83
ATOM     83  C   UNL A   1      30.897  24.987  23.818  1.00  0.00     0.114 C 
ATOM     84  N   UNL A   1      31.935  24.281  23.025  1.00  0.00    -0.378 N 
ATOM     85  C   UNL A   1      31.506  25.300  25.206  1.00  0.00     0.031 C 
ATOM     86  C   UNL A   1      33.244  24.117  23.507  1.00  0.00     0.038 A 
ATOM     87  H   UNL A   1      31.701  23.919  22.141  1.00  0.00     0.161 HD
ATOM     88  C   UNL A   1      32.819  26.064  24.951  1.00  0.00     0.049 C 
ATOM     89  C   UNL A   1      30.772  26.051  26.314  1.00  0.00     0.034 C 
ATOM     90  C   UNL A   1      34.031  23.034  23.111  1.00  0.00     0.027 A 
ATOM     91  C   UNL A   1      33.763  24.993  24.503  1.00  0.00    -0.016 A 
ATOM     92  C   UNL A   1      32.984  26.881  26.181  1.00  0.00    -0.023 C 
ATOM     93  C   UNL A   1      31.839  26.943  26.874  1.00  0.00    -0.030 C 
ATOM     94  C   UNL A   1      35.298  22.832  23.679  1.00  0.00     0.022 A 
ATOM     95  C   UNL A   1      35.042  24.819  25.033  1.00  0.00     0.027 A 
ATOM     96  C   UNL A   1      35.799  23.728  24.624  1.00  0.00     0.041 A 
ATOM     97  Cl  UNL A   1      37.352  23.466  25.320  1.00  0.00    -0.084 Cl
ENDBRANCH  82  83
ENDBRANCH  74  77
ENDBRANCH  72  73
ENDBRANCH  71  72
ENDBRANCH   1  71
TORSDOF 11
ENDMDL
MODEL 3
REMARK VINA RESULT:     -13.8      1.654      2.534
REMARK SMILES O=C(NCCCNC(=O)c1ccc([C@H]2Nc3ccc(Cl)cc3[C@@H]3C=CC[C@@H]23)cc1)c1ccc(-c2c3nc(c(-c4c(F)c(F)c(F)c(F)c4F)c4ccc([nH]4)c(-c4c(F)c(F)c(F)c(F)c4F)c4nc(c(-c5c(F)c(F)c(F)c(F)c5F)c5ccc2[nH]5)C=C4)C=C3)cc1
REMARK SMILES IDX 4 1 3 2 1 3 2 4 30 6 31 7 92 8 32 9 91 10 33 11 34 12 35 13
REMARK SMILES IDX 85 14 36 15 90 16 84 17 86 18 37 19 89 20 83 21 82 22 38 24
REMARK SMILES IDX 70 25 50 26 69 27 51 28 54 29 68 30 87 31 52 32 53 33 67 35
REMARK SMILES IDX 88 36 55 37 39 38 40 39 48 40 41 41 42 42 46 43 49 44 43 45
REMARK SMILES IDX 44 46 47 47 45 48 71 49 72 50 80 51 73 52 74 53 78 54 81 55
REMARK SMILES IDX 75 56 76 57 79 58 77 59 56 60 57 61 65 62 58 63 59 64 63 65
REMARK SMILES IDX 66 66 60 67 61 68 64 69 62 70 5 71 6 72 7 73 8 74 9 76 10 77
REMARK SMILES IDX 11 78 29 79 12 80 28 81 13 82 14 83 15 84 27 85 16 86 23 88
REMARK SMILES IDX 26 89 17 90 22 91 24 92 25 93 18 94 21 95 19 96 20 97
REMARK H PARENT 3 5 86 23 54 34 7 75 15 87
REMARK Flexibility Score: inf
ROOT
ATOM      1  C   UNL A   1      33.744  29.403  25.985  1.00  0.00     0.118 C 
ENDROOT
BRANCH   1   2
ATOM      2  N   UNL A   1      33.469  30.702  26.586  1.00  0.00    -0.352 N 
ATOM      3  O   UNL A   1      33.638  32.449  27.991  1.00  0.00    -0.269 OA
ATOM      4  C   UNL A   1      34.128  31.410  27.567  1.00  0.00     0.251 C 
ATOM      5  H   UNL A   1      32.671  31.154  26.227  1.00  0.00     0.163 HD
BRANCH   4   6
ATOM      6  C   UNL A   1      35.408  30.925  28.144  1.00  0.00     0.039 A 
ATOM      7  C   UNL A   1      35.494  29.701  28.808  1.00  0.00     0.014 A 
ATOM      8  C   UNL A   1      36.565  31.695  27.971  1.00  0.00     0.014 A 
ATOM      9  C   UNL A   1      36.679  29.333  29.440  1.00  0.00     0.010 A 
ATOM     10  C   UNL A   1      37.782  31.276  28.525  1.00  0.00     0.010 A 
ATOM     11  C   UNL A   1      37.843  30.108  29.299  1.00  0.00    -0.014 A 
BRANCH  11  12
ATOM     12  C   UNL A   1      39.113  29.641  29.918  1.00  0.00     0.031 A 
ATOM     13  C   UNL A   1      39.611  30.218  31.216  1.00  0.00     0.074 A 
ATOM     14  C   UNL A   1      39.810  28.658  29.313  1.00  0.00     0.049 A 
ATOM     15  N   UNL A   1      40.682  29.902  31.905  1.00  0.00    -0.248 NA
ATOM     16  C   UNL A   1      38.813  31.295  31.819  1.00  0.00     0.031 C 
ATOM     17  C   UNL A   1      39.442  28.030  28.043  1.00  0.00     0.029 A 
ATOM     18  N   UNL A   1      40.960  28.007  29.684  1.00  0.00    -0.354 N 
ATOM     19  C   UNL A   1      40.692  30.744  33.008  1.00  0.00     0.074 A 
ATOM     20  C   UNL A   1      39.538  31.610  32.884  1.00  0.00     0.031 C 
ATOM     21  C   UNL A   1      40.320  27.057  27.763  1.00  0.00     0.029 A 
ATOM     22  C   UNL A   1      41.350  27.036  28.794  1.00  0.00     0.049 A 
ATOM     23  H   UNL A   1      41.456  28.216  30.508  1.00  0.00     0.167 HD
ATOM     24  C   UNL A   1      41.577  30.784  34.036  1.00  0.00     0.037 A 
ATOM     25  C   UNL A   1      42.429  26.229  28.794  1.00  0.00     0.037 A 
ATOM     26  C   UNL A   1      42.721  29.914  34.159  1.00  0.00     0.049 A 
ATOM     27  C   UNL A   1      43.410  26.320  29.929  1.00  0.00     0.074 A 
ATOM     28  C   UNL A   1      43.649  29.852  35.184  1.00  0.00     0.029 A 
ATOM     29  N   UNL A   1      43.099  28.963  33.222  1.00  0.00    -0.354 N 
ATOM     30  N   UNL A   1      43.378  27.087  30.990  1.00  0.00    -0.248 NA
ATOM     31  C   UNL A   1      44.575  25.428  29.866  1.00  0.00     0.031 C 
ATOM     32  C   UNL A   1      44.623  28.909  34.838  1.00  0.00     0.029 A 
ATOM     33  C   UNL A   1      44.265  28.332  33.631  1.00  0.00     0.049 A 
ATOM     34  H   UNL A   1      42.611  28.765  32.390  1.00  0.00     0.167 HD
ATOM     35  C   UNL A   1      44.505  26.757  31.731  1.00  0.00     0.074 A 
ATOM     36  C   UNL A   1      45.186  25.703  31.008  1.00  0.00     0.031 C 
ATOM     37  C   UNL A   1      44.936  27.284  32.904  1.00  0.00     0.037 A 
BRANCH  24  38
ATOM     38  C   UNL A   1      41.362  31.816  35.109  1.00  0.00     0.064 A 
ATOM     39  C   UNL A   1      42.071  33.027  35.127  1.00  0.00     0.173 A 
ATOM     40  C   UNL A   1      40.388  31.616  36.100  1.00  0.00     0.173 A 
ATOM     41  F   UNL A   1      43.019  33.267  34.209  1.00  0.00    -0.203 F 
ATOM     42  C   UNL A   1      41.831  33.986  36.109  1.00  0.00     0.198 A 
ATOM     43  C   UNL A   1      40.128  32.590  37.061  1.00  0.00     0.198 A 
ATOM     44  F   UNL A   1      39.672  30.481  36.126  1.00  0.00    -0.203 F 
ATOM     45  F   UNL A   1      42.553  35.115  36.130  1.00  0.00    -0.200 F 
ATOM     46  C   UNL A   1      40.854  33.771  37.069  1.00  0.00     0.200 A 
ATOM     47  F   UNL A   1      39.171  32.387  37.978  1.00  0.00    -0.200 F 
ATOM     48  F   UNL A   1      40.617  34.700  38.005  1.00  0.00    -0.200 F 
ENDBRANCH  24  38
BRANCH  25  49
ATOM     49  C   UNL A   1      42.637  25.278  27.671  1.00  0.00     0.064 A 
ATOM     50  C   UNL A   1      41.983  24.039  27.638  1.00  0.00     0.173 A 
ATOM     51  C   UNL A   1      43.494  25.591  26.605  1.00  0.00     0.173 A 
ATOM     52  F   UNL A   1      41.169  23.684  28.644  1.00  0.00    -0.203 F 
ATOM     53  C   UNL A   1      42.193  23.143  26.593  1.00  0.00     0.198 A 
ATOM     54  C   UNL A   1      43.675  24.710  25.542  1.00  0.00     0.198 A 
ATOM     55  F   UNL A   1      44.140  26.766  26.585  1.00  0.00    -0.203 F 
ATOM     56  F   UNL A   1      41.594  21.944  26.610  1.00  0.00    -0.200 F 
ATOM     57  C   UNL A   1      43.032  23.482  25.541  1.00  0.00     0.200 A 
ATOM     58  F   UNL A   1      44.471  25.051  24.520  1.00  0.00    -0.200 F 
ATOM     59  F   UNL A   1      43.227  22.622  24.532  1.00  0.00    -0.200 F 
ENDBRANCH  25  49
BRANCH  37  60
ATOM     60  C   UNL A   1      46.187  26.701  33.499  1.00  0.00     0.064 A 
ATOM     61  C   UNL A   1      47.453  27.243  33.236  1.00  0.00     0.173 A 
ATOM     62  C   UNL A   1      46.112  25.599  34.365  1.00  0.00     0.173 A 
ATOM     63  F   UNL A   1      47.582  28.288  32.403  1.00  0.00    -0.203 F 
ATOM     64  C   UNL A   1      48.602  26.683  33.791  1.00  0.00     0.198 A 
ATOM     65  C   UNL A   1      47.259  25.064  34.946  1.00  0.00     0.198 A 
ATOM     66  F   UNL A   1      44.926  25.044  34.655  1.00  0.00    -0.203 F 
ATOM     67  F   UNL A   1      49.805  27.183  33.479  1.00  0.00    -0.200 F 
ATOM     68  C   UNL A   1      48.503  25.600  34.651  1.00  0.00     0.200 A 
ATOM     69  F   UNL A   1      47.159  24.027  35.789  1.00  0.00    -0.200 F 
ATOM     70  F   UNL A   1      49.608  25.066  35.189  1.00  0.00    -0.200 F 
ENDBRANCH  37  60
ENDBRANCH  11  12
ENDBRANCH   4   6
ENDBRANCH   1   2
BRANCH   1  71
ATOM     71  C   UNL A   1      32.815  29.044  24.828  1.00  0.00     0.042 C 
BRANCH  71  72
ATOM     72  C   UNL A   1      31.355  29.476  24.977  1.00  0.00     0.118 C 
BRANCH  72  73
ATOM     73  N   UNL A   1      30.691  29.733  23.705  1.00  0.00    -0.352 N 
ATOM     74  C   UNL A   1      30.369  28.938  22.628  1.00  0.00     0.251 C 
ATOM     75  H   UNL A   1      30.413  30.671  23.594  1.00  0.00     0.163 HD
ATOM     76  O   UNL A   1      29.903  29.491  21.632  1.00  0.00    -0.269 OA
BRANCH  74  77
ATOM     77  C   UNL A   1      30.607  27.471  22.588  1.00  0.00     0.039 A 
ATOM     78  C   UNL A   1      31.663  26.998  21.796  1.00  0.00     0.014 A 
ATOM     79  C   UNL A   1      29.825  26.546  23.274  1.00  0.00     0.014 A 
ATOM     80  C   UNL A   1      32.067  25.659  21.867  1.00  0.00     0.006 A 
ATOM     81  C   UNL A   1      30.237  25.209  23.357  1.00  0.00     0.006 A 
ATOM     82  C   UNL A   1      31.452  24.792  22.780  1.00  0.00    -0.025 A 
BRANCH  82  83
ATOM     83  C   UNL A   1      32.201  23.615  23.426  1.00  0.00     0.114 C 
ATOM     84  N   UNL A   1      33.533  23.335  22.831  1.00  0.00    -0.378 N 
ATOM     85  C   UNL A   1      32.414  23.878  24.936  1.00  0.00     0.031 C 
ATOM     86  C   UNL A   1      34.715  23.463  23.579  1.00  0.00     0.038 A 
ATOM     87  H   UNL A   1      33.590  23.054  21.890  1.00  0.00     0.161 HD
ATOM     88  C   UNL A   1      33.467  24.996  25.046  1.00  0.00     0.049 C 
ATOM     89  C   UNL A   1      31.292  24.237  25.908  1.00  0.00     0.034 C 
ATOM     90  C   UNL A   1      35.845  22.700  23.283  1.00  0.00     0.027 A 
ATOM     91  C   UNL A   1      34.752  24.295  24.735  1.00  0.00    -0.016 A 
ATOM     92  C   UNL A   1      33.146  25.642  26.344  1.00  0.00    -0.023 C 
ATOM     93  C   UNL A   1      31.923  25.294  26.766  1.00  0.00    -0.030 C 
ATOM     94  C   UNL A   1      36.982  22.768  24.102  1.00  0.00     0.022 A 
ATOM     95  C   UNL A   1      35.899  24.398  25.523  1.00  0.00     0.027 A 
ATOM     96  C   UNL A   1      37.007  23.621  25.206  1.00  0.00     0.041 A 
ATOM     97  Cl  UNL A   1      38.405  23.690  26.209  1.00  0.00    -0.084 Cl
ENDBRANCH  82  83
ENDBRANCH  74  77
ENDBRANCH  72  73
ENDBRANCH  71  72
ENDBRANCH   1  71
TORSDOF 11
ENDMDL
