MODEL 1
REMARK VINA RESULT:     -11.5      0.000      0.000
REMARK SMILES C[C@H]([NH2+]CC1(O)CCCC1)[C@H](C)C(=O)NCCCNC(=O)c1ccc(-c2c3nc(c(-c4c(F)c(F)c(F)c(F)c4F)c4ccc([nH]4)c(-c4c(F)c(F)c(F)c(F)c4F)c4nc(c(-c5c(F)c(F)c(F)c(F)c5F)c5ccc2[nH]5)C=C4)C=C3)cc1
REMARK SMILES IDX 13 1 14 2 15 3 11 5 12 6 2 7 1 8 3 9 4 12 5 13 7 14 10 15
REMARK SMILES IDX 8 16 9 17 6 18 16 20 17 21 18 22 19 23 20 24 21 26 22 27
REMARK SMILES IDX 23 28 84 29 24 30 83 31 25 32 26 33 27 34 77 35 28 36 82 37
REMARK SMILES IDX 76 38 78 39 29 40 81 41 75 42 74 43 30 45 62 46 42 47 61 48
REMARK SMILES IDX 43 49 46 50 60 51 79 52 44 53 45 54 59 56 80 57 47 58 31 59
REMARK SMILES IDX 32 60 40 61 33 62 34 63 38 64 41 65 35 66 36 67 39 68 37 69
REMARK SMILES IDX 63 70 64 71 72 72 65 73 66 74 70 75 73 76 67 77 68 78 71 79
REMARK SMILES IDX 69 80 48 81 49 82 57 83 50 84 51 85 55 86 58 87 52 88 53 89
REMARK SMILES IDX 56 90 54 91
REMARK H PARENT 15 4 3 10 3 11 6 19 19 25 78 44 46 55
REMARK Flexibility Score: inf
ROOT
ATOM      1  C   UNL A   1      33.290  29.327  25.572  1.00  0.00     0.228 C 
ATOM      2  O   UNL A   1      34.400  28.878  25.872  1.00  0.00    -0.275 OA
ATOM      3  N   UNL A   1      32.670  30.110  26.494  1.00  0.00    -0.356 N 
ATOM      4  H   UNL A   1      33.216  30.308  27.289  1.00  0.00     0.163 HD
ENDROOT
BRANCH   1   5
ATOM      5  C   UNL A   1      32.649  28.962  24.236  1.00  0.00     0.133 C 
ATOM      6  C   UNL A   1      33.752  28.796  23.185  1.00  0.00     0.024 C 
BRANCH   5   7
ATOM      7  C   UNL A   1      31.643  27.779  24.268  1.00  0.00     0.191 C 
ATOM      8  C   UNL A   1      32.017  26.686  23.256  1.00  0.00     0.076 C 
BRANCH   7   9
ATOM      9  N   UNL A   1      30.222  28.144  24.145  1.00  0.00    -0.341 N 
ATOM     10  H   UNL A   1      30.089  29.050  24.593  1.00  0.00     0.346 HD
ATOM     11  H   UNL A   1      29.699  27.387  24.583  1.00  0.00     0.346 HD
BRANCH   9  12
ATOM     12  C   UNL A   1      29.711  28.242  22.768  1.00  0.00     0.296 C 
BRANCH  12  13
ATOM     13  C   UNL A   1      29.547  29.721  22.347  1.00  0.00     0.113 C 
ATOM     14  C   UNL A   1      29.467  30.698  23.523  1.00  0.00     0.041 C 
ATOM     15  C   UNL A   1      28.224  29.961  21.615  1.00  0.00     0.041 C 
ATOM     16  C   UNL A   1      28.779  31.935  22.953  1.00  0.00     0.003 C 
ATOM     17  C   UNL A   1      27.953  31.458  21.760  1.00  0.00     0.003 C 
BRANCH  13  18
ATOM     18  O   UNL A   1      30.653  30.079  21.507  1.00  0.00    -0.384 OA
ATOM     19  H   UNL A   1      31.467  29.682  21.855  1.00  0.00     0.211 HD
ENDBRANCH  13  18
ENDBRANCH  12  13
ENDBRANCH   9  12
ENDBRANCH   7   9
ENDBRANCH   5   7
ENDBRANCH   1   5
BRANCH   3  20
ATOM     20  C   UNL A   1      31.348  30.707  26.519  1.00  0.00     0.117 C 
BRANCH  20  21
ATOM     21  C   UNL A   1      31.404  32.227  26.499  1.00  0.00     0.042 C 
BRANCH  21  22
ATOM     22  C   UNL A   1      32.592  32.807  27.252  1.00  0.00     0.118 C 
BRANCH  22  23
ATOM     23  N   UNL A   1      32.394  34.203  27.626  1.00  0.00    -0.352 N 
ATOM     24  C   UNL A   1      32.995  34.949  28.606  1.00  0.00     0.251 C 
ATOM     25  H   UNL A   1      31.723  34.683  27.091  1.00  0.00     0.163 HD
ATOM     26  O   UNL A   1      32.548  36.064  28.882  1.00  0.00    -0.269 OA
BRANCH  24  27
ATOM     27  C   UNL A   1      34.160  34.425  29.349  1.00  0.00     0.039 A 
ATOM     28  C   UNL A   1      33.950  33.803  30.583  1.00  0.00     0.014 A 
ATOM     29  C   UNL A   1      35.456  34.559  28.847  1.00  0.00     0.014 A 
ATOM     30  C   UNL A   1      35.031  33.254  31.277  1.00  0.00     0.010 A 
ATOM     31  C   UNL A   1      36.518  33.934  29.492  1.00  0.00     0.010 A 
ATOM     32  C   UNL A   1      36.319  33.279  30.717  1.00  0.00    -0.014 A 
BRANCH  32  33
ATOM     33  C   UNL A   1      37.471  32.632  31.397  1.00  0.00     0.031 A 
ATOM     34  C   UNL A   1      38.180  31.476  30.746  1.00  0.00     0.074 A 
ATOM     35  C   UNL A   1      37.826  33.034  32.633  1.00  0.00     0.049 A 
ATOM     36  N   UNL A   1      39.146  30.727  31.214  1.00  0.00    -0.248 NA
ATOM     37  C   UNL A   1      37.722  31.091  29.401  1.00  0.00     0.031 C 
ATOM     38  C   UNL A   1      37.179  34.104  33.393  1.00  0.00     0.029 A 
ATOM     39  N   UNL A   1      38.810  32.578  33.474  1.00  0.00    -0.354 N 
ATOM     40  C   UNL A   1      39.392  29.772  30.236  1.00  0.00     0.074 A 
ATOM     41  C   UNL A   1      38.443  30.005  29.169  1.00  0.00     0.031 C 
ATOM     42  C   UNL A   1      37.793  34.234  34.580  1.00  0.00     0.029 A 
ATOM     43  C   UNL A   1      38.848  33.232  34.683  1.00  0.00     0.049 A 
ATOM     44  H   UNL A   1      39.429  31.850  33.236  1.00  0.00     0.167 HD
ATOM     45  C   UNL A   1      40.338  28.804  30.221  1.00  0.00     0.037 A 
ATOM     46  C   UNL A   1      39.639  33.037  35.755  1.00  0.00     0.037 A 
ATOM     47  C   UNL A   1      41.304  28.601  31.268  1.00  0.00     0.049 A 
ATOM     48  C   UNL A   1      40.692  31.963  35.705  1.00  0.00     0.074 A 
ATOM     49  C   UNL A   1      42.356  27.703  31.309  1.00  0.00     0.029 A 
ATOM     50  N   UNL A   1      41.334  29.307  32.462  1.00  0.00    -0.354 N 
ATOM     51  N   UNL A   1      40.970  31.121  34.739  1.00  0.00    -0.248 NA
ATOM     52  C   UNL A   1      41.548  31.819  36.891  1.00  0.00     0.031 C 
ATOM     53  C   UNL A   1      42.991  27.829  32.548  1.00  0.00     0.029 A 
ATOM     54  C   UNL A   1      42.371  28.845  33.257  1.00  0.00     0.049 A 
ATOM     55  H   UNL A   1      40.712  30.029  32.707  1.00  0.00     0.167 HD
ATOM     56  C   UNL A   1      42.046  30.368  35.187  1.00  0.00     0.074 A 
ATOM     57  C   UNL A   1      42.382  30.864  36.506  1.00  0.00     0.031 C 
ATOM     58  C   UNL A   1      42.697  29.355  34.564  1.00  0.00     0.037 A 
BRANCH  45  59
ATOM     59  C   UNL A   1      40.381  27.887  29.033  1.00  0.00     0.064 A 
ATOM     60  C   UNL A   1      39.636  26.698  28.989  1.00  0.00     0.173 A 
ATOM     61  C   UNL A   1      41.141  28.226  27.902  1.00  0.00     0.173 A 
ATOM     62  F   UNL A   1      38.903  26.322  30.047  1.00  0.00    -0.203 F 
ATOM     63  C   UNL A   1      39.670  25.872  27.869  1.00  0.00     0.198 A 
ATOM     64  C   UNL A   1      41.147  27.414  26.772  1.00  0.00     0.198 A 
ATOM     65  F   UNL A   1      41.867  29.354  27.888  1.00  0.00    -0.203 F 
ATOM     66  F   UNL A   1      38.987  24.719  27.869  1.00  0.00    -0.200 F 
ATOM     67  C   UNL A   1      40.418  26.234  26.759  1.00  0.00     0.200 A 
ATOM     68  F   UNL A   1      41.859  27.771  25.694  1.00  0.00    -0.200 F 
ATOM     69  F   UNL A   1      40.441  25.442  25.677  1.00  0.00    -0.200 F 
ENDBRANCH  45  59
BRANCH  46  70
ATOM     70  C   UNL A   1      39.475  33.887  36.964  1.00  0.00     0.064 A 
ATOM     71  C   UNL A   1      38.713  33.450  38.055  1.00  0.00     0.173 A 
ATOM     72  C   UNL A   1      40.067  35.157  37.048  1.00  0.00     0.173 A 
ATOM     73  F   UNL A   1      38.111  32.252  38.015  1.00  0.00    -0.203 F 
ATOM     74  C   UNL A   1      38.528  34.258  39.175  1.00  0.00     0.198 A 
ATOM     75  C   UNL A   1      39.906  35.952  38.180  1.00  0.00     0.198 A 
ATOM     76  F   UNL A   1      40.811  35.620  36.033  1.00  0.00    -0.203 F 
ATOM     77  F   UNL A   1      37.753  33.836  40.183  1.00  0.00    -0.200 F 
ATOM     78  C   UNL A   1      39.129  35.506  39.239  1.00  0.00     0.200 A 
ATOM     79  F   UNL A   1      40.502  37.151  38.245  1.00  0.00    -0.200 F 
ATOM     80  F   UNL A   1      38.953  36.283  40.317  1.00  0.00    -0.200 F 
ENDBRANCH  46  70
BRANCH  58  81
ATOM     81  C   UNL A   1      43.862  28.739  35.284  1.00  0.00     0.064 A 
ATOM     82  C   UNL A   1      43.702  27.633  36.132  1.00  0.00     0.173 A 
ATOM     83  C   UNL A   1      45.159  29.235  35.087  1.00  0.00     0.173 A 
ATOM     84  F   UNL A   1      42.480  27.131  36.365  1.00  0.00    -0.203 F 
ATOM     85  C   UNL A   1      44.796  27.065  36.778  1.00  0.00     0.198 A 
ATOM     86  C   UNL A   1      46.255  28.644  35.710  1.00  0.00     0.198 A 
ATOM     87  F   UNL A   1      45.367  30.286  34.279  1.00  0.00    -0.203 F 
ATOM     88  F   UNL A   1      44.615  26.039  37.623  1.00  0.00    -0.200 F 
ATOM     89  C   UNL A   1      46.072  27.564  36.560  1.00  0.00     0.200 A 
ATOM     90  F   UNL A   1      47.488  29.118  35.486  1.00  0.00    -0.200 F 
ATOM     91  F   UNL A   1      47.125  27.009  37.176  1.00  0.00    -0.200 F 
ENDBRANCH  58  81
ENDBRANCH  32  33
ENDBRANCH  24  27
ENDBRANCH  22  23
ENDBRANCH  21  22
ENDBRANCH  20  21
ENDBRANCH   3  20
TORSDOF 15
ENDMDL
MODEL 2
REMARK VINA RESULT:     -11.3      6.624     11.956
REMARK SMILES C[C@H]([NH2+]CC1(O)CCCC1)[C@H](C)C(=O)NCCCNC(=O)c1ccc(-c2c3nc(c(-c4c(F)c(F)c(F)c(F)c4F)c4ccc([nH]4)c(-c4c(F)c(F)c(F)c(F)c4F)c4nc(c(-c5c(F)c(F)c(F)c(F)c5F)c5ccc2[nH]5)C=C4)C=C3)cc1
REMARK SMILES IDX 13 1 14 2 15 3 11 5 12 6 2 7 1 8 3 9 4 12 5 13 7 14 10 15
REMARK SMILES IDX 8 16 9 17 6 18 16 20 17 21 18 22 19 23 20 24 21 26 22 27
REMARK SMILES IDX 23 28 84 29 24 30 83 31 25 32 26 33 27 34 77 35 28 36 82 37
REMARK SMILES IDX 76 38 78 39 29 40 81 41 75 42 74 43 30 45 62 46 42 47 61 48
REMARK SMILES IDX 43 49 46 50 60 51 79 52 44 53 45 54 59 56 80 57 47 58 31 59
REMARK SMILES IDX 32 60 40 61 33 62 34 63 38 64 41 65 35 66 36 67 39 68 37 69
REMARK SMILES IDX 63 70 64 71 72 72 65 73 66 74 70 75 73 76 67 77 68 78 71 79
REMARK SMILES IDX 69 80 48 81 49 82 57 83 50 84 51 85 55 86 58 87 52 88 53 89
REMARK SMILES IDX 56 90 54 91
REMARK H PARENT 15 4 3 10 3 11 6 19 19 25 78 44 46 55
REMARK Flexibility Score: inf
ROOT
ATOM      1  C   UNL A   1      36.404  22.869  25.643  1.00  0.00     0.228 C 
ATOM      2  O   UNL A   1      36.960  23.938  25.917  1.00  0.00    -0.275 OA
ATOM      3  N   UNL A   1      37.205  21.792  25.433  1.00  0.00    -0.356 N 
ATOM      4  H   UNL A   1      38.160  21.959  25.604  1.00  0.00     0.163 HD
ENDROOT
BRANCH   1   5
ATOM      5  C   UNL A   1      34.885  22.807  25.507  1.00  0.00     0.133 C 
ATOM      6  C   UNL A   1      34.278  24.071  26.127  1.00  0.00     0.024 C 
BRANCH   5   7
ATOM      7  C   UNL A   1      34.344  22.495  24.085  1.00  0.00     0.191 C 
ATOM      8  C   UNL A   1      33.948  23.775  23.333  1.00  0.00     0.076 C 
BRANCH   7   9
ATOM      9  N   UNL A   1      33.269  21.491  24.015  1.00  0.00    -0.341 N 
ATOM     10  H   UNL A   1      33.413  20.934  23.173  1.00  0.00     0.346 HD
ATOM     11  H   UNL A   1      32.395  22.017  24.017  1.00  0.00     0.346 HD
BRANCH   9  12
ATOM     12  C   UNL A   1      33.188  20.570  25.160  1.00  0.00     0.296 C 
BRANCH  12  13
ATOM     13  C   UNL A   1      32.935  19.121  24.682  1.00  0.00     0.113 C 
ATOM     14  C   UNL A   1      34.213  18.323  24.412  1.00  0.00     0.041 C 
ATOM     15  C   UNL A   1      32.218  19.085  23.330  1.00  0.00     0.041 C 
ATOM     16  C   UNL A   1      33.777  17.201  23.472  1.00  0.00     0.003 C 
ATOM     17  C   UNL A   1      32.529  17.705  22.751  1.00  0.00     0.003 C 
BRANCH  13  18
ATOM     18  O   UNL A   1      32.153  18.446  25.678  1.00  0.00    -0.384 OA
ATOM     19  H   UNL A   1      32.662  17.704  26.041  1.00  0.00     0.211 HD
ENDBRANCH  13  18
ENDBRANCH  12  13
ENDBRANCH   9  12
ENDBRANCH   7   9
ENDBRANCH   5   7
ENDBRANCH   1   5
BRANCH   3  20
ATOM     20  C   UNL A   1      36.906  20.439  25.003  1.00  0.00     0.117 C 
BRANCH  20  21
ATOM     21  C   UNL A   1      38.156  19.576  24.915  1.00  0.00     0.042 C 
BRANCH  21  22
ATOM     22  C   UNL A   1      39.281  20.030  25.831  1.00  0.00     0.118 C 
BRANCH  22  23
ATOM     23  N   UNL A   1      40.341  19.036  25.957  1.00  0.00    -0.352 N 
ATOM     24  C   UNL A   1      41.691  19.199  26.126  1.00  0.00     0.251 C 
ATOM     25  H   UNL A   1      40.038  18.101  25.913  1.00  0.00     0.163 HD
ATOM     26  O   UNL A   1      42.440  18.226  26.021  1.00  0.00    -0.269 OA
BRANCH  24  27
ATOM     27  C   UNL A   1      42.261  20.531  26.414  1.00  0.00     0.039 A 
ATOM     28  C   UNL A   1      42.658  21.342  25.346  1.00  0.00     0.014 A 
ATOM     29  C   UNL A   1      42.426  20.978  27.727  1.00  0.00     0.014 A 
ATOM     30  C   UNL A   1      43.151  22.625  25.594  1.00  0.00     0.010 A 
ATOM     31  C   UNL A   1      42.830  22.288  27.969  1.00  0.00     0.010 A 
ATOM     32  C   UNL A   1      43.202  23.124  26.906  1.00  0.00    -0.014 A 
BRANCH  32  33
ATOM     33  C   UNL A   1      43.646  24.513  27.189  1.00  0.00     0.031 A 
ATOM     34  C   UNL A   1      42.662  25.532  27.695  1.00  0.00     0.074 A 
ATOM     35  C   UNL A   1      44.915  24.875  26.915  1.00  0.00     0.049 A 
ATOM     36  N   UNL A   1      42.835  26.811  27.917  1.00  0.00    -0.248 NA
ATOM     37  C   UNL A   1      41.293  25.059  27.956  1.00  0.00     0.031 C 
ATOM     38  C   UNL A   1      45.947  23.995  26.367  1.00  0.00     0.029 A 
ATOM     39  N   UNL A   1      45.548  26.086  27.046  1.00  0.00    -0.354 N 
ATOM     40  C   UNL A   1      41.596  27.295  28.319  1.00  0.00     0.074 A 
ATOM     41  C   UNL A   1      40.669  26.186  28.263  1.00  0.00     0.031 C 
ATOM     42  C   UNL A   1      47.088  24.688  26.224  1.00  0.00     0.029 A 
ATOM     43  C   UNL A   1      46.858  26.071  26.632  1.00  0.00     0.049 A 
ATOM     44  H   UNL A   1      45.105  26.891  27.402  1.00  0.00     0.167 HD
ATOM     45  C   UNL A   1      41.269  28.546  28.718  1.00  0.00     0.037 A 
ATOM     46  C   UNL A   1      47.768  27.062  26.576  1.00  0.00     0.037 A 
ATOM     47  C   UNL A   1      42.203  29.637  28.808  1.00  0.00     0.049 A 
ATOM     48  C   UNL A   1      47.381  28.440  27.041  1.00  0.00     0.074 A 
ATOM     49  C   UNL A   1      41.989  30.920  29.282  1.00  0.00     0.029 A 
ATOM     50  N   UNL A   1      43.531  29.573  28.414  1.00  0.00    -0.354 N 
ATOM     51  N   UNL A   1      46.228  28.865  27.498  1.00  0.00    -0.248 NA
ATOM     52  C   UNL A   1      48.424  29.473  26.991  1.00  0.00     0.031 C 
ATOM     53  C   UNL A   1      43.172  31.647  29.126  1.00  0.00     0.029 A 
ATOM     54  C   UNL A   1      44.141  30.802  28.608  1.00  0.00     0.049 A 
ATOM     55  H   UNL A   1      43.975  28.773  28.050  1.00  0.00     0.167 HD
ATOM     56  C   UNL A   1      46.413  30.204  27.815  1.00  0.00     0.074 A 
ATOM     57  C   UNL A   1      47.795  30.517  27.513  1.00  0.00     0.031 C 
ATOM     58  C   UNL A   1      45.520  31.095  28.310  1.00  0.00     0.037 A 
BRANCH  45  59
ATOM     59  C   UNL A   1      39.839  28.808  29.094  1.00  0.00     0.064 A 
ATOM     60  C   UNL A   1      39.379  28.652  30.411  1.00  0.00     0.173 A 
ATOM     61  C   UNL A   1      38.925  29.271  28.133  1.00  0.00     0.173 A 
ATOM     62  F   UNL A   1      40.208  28.202  31.365  1.00  0.00    -0.203 F 
ATOM     63  C   UNL A   1      38.055  28.922  30.746  1.00  0.00     0.198 A 
ATOM     64  C   UNL A   1      37.611  29.570  28.478  1.00  0.00     0.198 A 
ATOM     65  F   UNL A   1      39.313  29.444  26.860  1.00  0.00    -0.203 F 
ATOM     66  F   UNL A   1      37.629  28.719  32.000  1.00  0.00    -0.200 F 
ATOM     67  C   UNL A   1      37.175  29.389  29.782  1.00  0.00     0.200 A 
ATOM     68  F   UNL A   1      36.764  30.035  27.549  1.00  0.00    -0.200 F 
ATOM     69  F   UNL A   1      35.903  29.659  30.109  1.00  0.00    -0.200 F 
ENDBRANCH  45  59
BRANCH  46  70
ATOM     70  C   UNL A   1      49.140  26.785  26.075  1.00  0.00     0.064 A 
ATOM     71  C   UNL A   1      49.474  27.000  24.731  1.00  0.00     0.173 A 
ATOM     72  C   UNL A   1      50.141  26.290  26.925  1.00  0.00     0.173 A 
ATOM     73  F   UNL A   1      48.546  27.455  23.875  1.00  0.00    -0.203 F 
ATOM     74  C   UNL A   1      50.748  26.709  24.250  1.00  0.00     0.198 A 
ATOM     75  C   UNL A   1      51.423  26.027  26.449  1.00  0.00     0.198 A 
ATOM     76  F   UNL A   1      49.874  26.071  28.221  1.00  0.00    -0.203 F 
ATOM     77  F   UNL A   1      51.025  26.877  22.950  1.00  0.00    -0.200 F 
ATOM     78  C   UNL A   1      51.723  26.228  25.110  1.00  0.00     0.200 A 
ATOM     79  F   UNL A   1      52.367  25.577  27.286  1.00  0.00    -0.200 F 
ATOM     80  F   UNL A   1      52.951  25.950  24.647  1.00  0.00    -0.200 F 
ENDBRANCH  46  70
BRANCH  58  81
ATOM     81  C   UNL A   1      46.015  32.484  28.591  1.00  0.00     0.064 A 
ATOM     82  C   UNL A   1      45.932  33.504  27.632  1.00  0.00     0.173 A 
ATOM     83  C   UNL A   1      46.541  32.807  29.852  1.00  0.00     0.173 A 
ATOM     84  F   UNL A   1      45.452  33.242  26.408  1.00  0.00    -0.203 F 
ATOM     85  C   UNL A   1      46.382  34.790  27.916  1.00  0.00     0.198 A 
ATOM     86  C   UNL A   1      46.960  34.102  30.142  1.00  0.00     0.198 A 
ATOM     87  F   UNL A   1      46.635  31.869  30.806  1.00  0.00    -0.203 F 
ATOM     88  F   UNL A   1      46.338  35.738  26.969  1.00  0.00    -0.200 F 
ATOM     89  C   UNL A   1      46.887  35.090  29.173  1.00  0.00     0.200 A 
ATOM     90  F   UNL A   1      47.433  34.393  31.361  1.00  0.00    -0.200 F 
ATOM     91  F   UNL A   1      47.311  36.332  29.448  1.00  0.00    -0.200 F 
ENDBRANCH  58  81
ENDBRANCH  32  33
ENDBRANCH  24  27
ENDBRANCH  22  23
ENDBRANCH  21  22
ENDBRANCH  20  21
ENDBRANCH   3  20
TORSDOF 15
ENDMDL
MODEL 3
REMARK VINA RESULT:     -11.2      6.713     11.956
REMARK SMILES C[C@H]([NH2+]CC1(O)CCCC1)[C@H](C)C(=O)NCCCNC(=O)c1ccc(-c2c3nc(c(-c4c(F)c(F)c(F)c(F)c4F)c4ccc([nH]4)c(-c4c(F)c(F)c(F)c(F)c4F)c4nc(c(-c5c(F)c(F)c(F)c(F)c5F)c5ccc2[nH]5)C=C4)C=C3)cc1
REMARK SMILES IDX 13 1 14 2 15 3 11 5 12 6 2 7 1 8 3 9 4 12 5 13 7 14 10 15
REMARK SMILES IDX 8 16 9 17 6 18 16 20 17 21 18 22 19 23 20 24 21 26 22 27
REMARK SMILES IDX 23 28 84 29 24 30 83 31 25 32 26 33 27 34 77 35 28 36 82 37
REMARK SMILES IDX 76 38 78 39 29 40 81 41 75 42 74 43 30 45 62 46 42 47 61 48
REMARK SMILES IDX 43 49 46 50 60 51 79 52 44 53 45 54 59 56 80 57 47 58 31 59
REMARK SMILES IDX 32 60 40 61 33 62 34 63 38 64 41 65 35 66 36 67 39 68 37 69
REMARK SMILES IDX 63 70 64 71 72 72 65 73 66 74 70 75 73 76 67 77 68 78 71 79
REMARK SMILES IDX 69 80 48 81 49 82 57 83 50 84 51 85 55 86 58 87 52 88 53 89
REMARK SMILES IDX 56 90 54 91
REMARK H PARENT 15 4 3 10 3 11 6 19 19 25 78 44 46 55
REMARK Flexibility Score: inf
ROOT
ATOM      1  C   UNL A   1      34.644  21.508  26.029  1.00  0.00     0.228 C 
ATOM      2  O   UNL A   1      34.122  21.494  27.148  1.00  0.00    -0.275 OA
ATOM      3  N   UNL A   1      35.804  20.817  25.879  1.00  0.00    -0.356 N 
ATOM      4  H   UNL A   1      36.072  20.300  26.674  1.00  0.00     0.163 HD
ENDROOT
BRANCH   1   5
ATOM      5  C   UNL A   1      34.013  22.314  24.898  1.00  0.00     0.133 C 
ATOM      6  C   UNL A   1      35.104  23.137  24.203  1.00  0.00     0.024 C 
BRANCH   5   7
ATOM      7  C   UNL A   1      33.121  21.512  23.910  1.00  0.00     0.191 C 
ATOM      8  C   UNL A   1      32.205  22.436  23.092  1.00  0.00     0.076 C 
BRANCH   7   9
ATOM      9  N   UNL A   1      32.355  20.400  24.497  1.00  0.00    -0.341 N 
ATOM     10  H   UNL A   1      31.365  20.644  24.456  1.00  0.00     0.346 HD
ATOM     11  H   UNL A   1      32.711  20.284  25.446  1.00  0.00     0.346 HD
BRANCH   9  12
ATOM     12  C   UNL A   1      32.528  19.096  23.839  1.00  0.00     0.296 C 
BRANCH  12  13
ATOM     13  C   UNL A   1      33.185  18.078  24.801  1.00  0.00     0.113 C 
ATOM     14  C   UNL A   1      34.572  17.609  24.358  1.00  0.00     0.041 C 
ATOM     15  C   UNL A   1      32.390  16.772  24.876  1.00  0.00     0.041 C 
ATOM     16  C   UNL A   1      34.781  16.281  25.081  1.00  0.00     0.003 C 
ATOM     17  C   UNL A   1      33.388  15.727  25.374  1.00  0.00     0.003 C 
BRANCH  13  18
ATOM     18  O   UNL A   1      33.278  18.679  26.101  1.00  0.00    -0.384 OA
ATOM     19  H   UNL A   1      32.620  18.281  26.691  1.00  0.00     0.211 HD
ENDBRANCH  13  18
ENDBRANCH  12  13
ENDBRANCH   9  12
ENDBRANCH   7   9
ENDBRANCH   5   7
ENDBRANCH   1   5
BRANCH   3  20
ATOM     20  C   UNL A   1      36.720  20.703  24.760  1.00  0.00     0.117 C 
BRANCH  20  21
ATOM     21  C   UNL A   1      37.792  19.650  25.000  1.00  0.00     0.042 C 
BRANCH  21  22
ATOM     22  C   UNL A   1      39.010  20.171  25.747  1.00  0.00     0.118 C 
BRANCH  22  23
ATOM     23  N   UNL A   1      40.044  19.158  25.916  1.00  0.00    -0.352 N 
ATOM     24  C   UNL A   1      41.391  19.295  26.126  1.00  0.00     0.251 C 
ATOM     25  H   UNL A   1      39.723  18.228  25.870  1.00  0.00     0.163 HD
ATOM     26  O   UNL A   1      42.123  18.306  26.053  1.00  0.00    -0.269 OA
BRANCH  24  27
ATOM     27  C   UNL A   1      41.979  20.618  26.420  1.00  0.00     0.039 A 
ATOM     28  C   UNL A   1      42.262  21.482  25.358  1.00  0.00     0.014 A 
ATOM     29  C   UNL A   1      42.271  21.005  27.729  1.00  0.00     0.014 A 
ATOM     30  C   UNL A   1      42.770  22.758  25.616  1.00  0.00     0.010 A 
ATOM     31  C   UNL A   1      42.689  22.306  27.993  1.00  0.00     0.010 A 
ATOM     32  C   UNL A   1      42.949  23.195  26.939  1.00  0.00    -0.014 A 
BRANCH  32  33
ATOM     33  C   UNL A   1      43.410  24.574  27.243  1.00  0.00     0.031 A 
ATOM     34  C   UNL A   1      42.445  25.591  27.788  1.00  0.00     0.074 A 
ATOM     35  C   UNL A   1      44.677  24.931  26.954  1.00  0.00     0.049 A 
ATOM     36  N   UNL A   1      42.633  26.863  28.034  1.00  0.00    -0.248 NA
ATOM     37  C   UNL A   1      41.077  25.124  28.064  1.00  0.00     0.031 C 
ATOM     38  C   UNL A   1      45.691  24.053  26.369  1.00  0.00     0.029 A 
ATOM     39  N   UNL A   1      45.323  26.133  27.098  1.00  0.00    -0.354 N 
ATOM     40  C   UNL A   1      41.406  27.349  28.469  1.00  0.00     0.074 A 
ATOM     41  C   UNL A   1      40.469  26.249  28.407  1.00  0.00     0.031 C 
ATOM     42  C   UNL A   1      46.835  24.739  26.220  1.00  0.00     0.029 A 
ATOM     43  C   UNL A   1      46.626  26.115  26.660  1.00  0.00     0.049 A 
ATOM     44  H   UNL A   1      44.895  26.934  27.479  1.00  0.00     0.167 HD
ATOM     45  C   UNL A   1      41.098  28.594  28.901  1.00  0.00     0.037 A 
ATOM     46  C   UNL A   1      47.543  27.099  26.609  1.00  0.00     0.037 A 
ATOM     47  C   UNL A   1      42.044  29.675  28.996  1.00  0.00     0.049 A 
ATOM     48  C   UNL A   1      47.177  28.470  27.110  1.00  0.00     0.074 A 
ATOM     49  C   UNL A   1      41.849  30.949  29.501  1.00  0.00     0.029 A 
ATOM     50  N   UNL A   1      43.364  29.608  28.576  1.00  0.00    -0.354 N 
ATOM     51  N   UNL A   1      46.037  28.895  27.597  1.00  0.00    -0.248 NA
ATOM     52  C   UNL A   1      48.228  29.496  27.062  1.00  0.00     0.031 C 
ATOM     53  C   UNL A   1      43.036  31.669  29.338  1.00  0.00     0.029 A 
ATOM     54  C   UNL A   1      43.988  30.827  28.785  1.00  0.00     0.049 A 
ATOM     55  H   UNL A   1      43.793  28.812  28.188  1.00  0.00     0.167 HD
ATOM     56  C   UNL A   1      46.240  30.226  27.938  1.00  0.00     0.074 A 
ATOM     57  C   UNL A   1      47.619  30.533  27.618  1.00  0.00     0.031 C 
ATOM     58  C   UNL A   1      45.364  31.114  28.468  1.00  0.00     0.037 A 
BRANCH  45  59
ATOM     59  C   UNL A   1      39.677  28.861  29.308  1.00  0.00     0.064 A 
ATOM     60  C   UNL A   1      39.231  28.642  30.620  1.00  0.00     0.173 A 
ATOM     61  C   UNL A   1      38.761  29.389  28.384  1.00  0.00     0.173 A 
ATOM     62  F   UNL A   1      40.063  28.128  31.539  1.00  0.00    -0.203 F 
ATOM     63  C   UNL A   1      37.916  28.917  30.986  1.00  0.00     0.198 A 
ATOM     64  C   UNL A   1      37.456  29.692  28.761  1.00  0.00     0.198 A 
ATOM     65  F   UNL A   1      39.136  29.623  27.117  1.00  0.00    -0.203 F 
ATOM     66  F   UNL A   1      37.501  28.656  32.233  1.00  0.00    -0.200 F 
ATOM     67  C   UNL A   1      37.033  29.450  30.059  1.00  0.00     0.200 A 
ATOM     68  F   UNL A   1      36.607  30.220  27.869  1.00  0.00    -0.200 F 
ATOM     69  F   UNL A   1      35.770  29.724  30.416  1.00  0.00    -0.200 F 
ENDBRANCH  45  59
BRANCH  46  70
ATOM     70  C   UNL A   1      48.903  26.821  26.077  1.00  0.00     0.064 A 
ATOM     71  C   UNL A   1      49.923  26.348  26.914  1.00  0.00     0.173 A 
ATOM     72  C   UNL A   1      49.215  27.031  24.725  1.00  0.00     0.173 A 
ATOM     73  F   UNL A   1      49.679  26.149  28.219  1.00  0.00    -0.203 F 
ATOM     74  C   UNL A   1      51.207  26.119  26.427  1.00  0.00     0.198 A 
ATOM     75  C   UNL A   1      50.492  26.773  24.232  1.00  0.00     0.198 A 
ATOM     76  F   UNL A   1      48.274  27.478  23.880  1.00  0.00    -0.203 F 
ATOM     77  F   UNL A   1      52.175  25.715  27.260  1.00  0.00    -0.200 F 
ATOM     78  C   UNL A   1      51.490  26.327  25.086  1.00  0.00     0.200 A 
ATOM     79  F   UNL A   1      50.757  26.960  22.932  1.00  0.00    -0.200 F 
ATOM     80  F   UNL A   1      52.726  26.104  24.616  1.00  0.00    -0.200 F 
ENDBRANCH  46  70
BRANCH  58  81
ATOM     81  C   UNL A   1      45.877  32.492  28.769  1.00  0.00     0.064 A 
ATOM     82  C   UNL A   1      46.522  32.790  29.979  1.00  0.00     0.173 A 
ATOM     83  C   UNL A   1      45.760  33.516  27.817  1.00  0.00     0.173 A 
ATOM     84  F   UNL A   1      46.646  31.850  30.927  1.00  0.00    -0.203 F 
ATOM     85  C   UNL A   1      47.006  34.069  30.234  1.00  0.00     0.198 A 
ATOM     86  C   UNL A   1      46.274  34.786  28.063  1.00  0.00     0.198 A 
ATOM     87  F   UNL A   1      45.158  33.281  26.641  1.00  0.00    -0.203 F 
ATOM     88  F   UNL A   1      47.576  34.345  31.416  1.00  0.00    -0.200 F 
ATOM     89  C   UNL A   1      46.890  35.063  29.273  1.00  0.00     0.200 A 
ATOM     90  F   UNL A   1      46.174  35.740  27.128  1.00  0.00    -0.200 F 
ATOM     91  F   UNL A   1      47.365  36.293  29.518  1.00  0.00    -0.200 F 
ENDBRANCH  58  81
ENDBRANCH  32  33
ENDBRANCH  24  27
ENDBRANCH  22  23
ENDBRANCH  21  22
ENDBRANCH  20  21
ENDBRANCH   3  20
TORSDOF 15
ENDMDL
