MODEL 1
REMARK VINA RESULT:     -11.0      0.000      0.000
REMARK SMILES C[C@@](NC(=O)c1cc(Br)c[nH]1)(C(=O)NCCCNC(=O)c1ccc(-c2c3nc(c(-c4c(F)c(F)c(F)c(F)c4F)c4ccc([nH]4)c(-c4c(F)c(F)c(F)c(F)c4F)c4nc(c(-c5c(F)c(F)c(F)c(F)c5F)c5ccc2[nH]5)C=C4)C=C3)cc1)C(F)(F)F
REMARK SMILES IDX 16 1 15 2 14 3 12 4 13 5 2 7 1 8 3 9 4 10 5 12 6 13 7 14
REMARK SMILES IDX 11 15 8 16 10 17 9 19 84 20 85 21 86 22 87 23 17 24 18 25
REMARK SMILES IDX 19 26 20 28 21 29 22 30 83 31 23 32 82 33 24 34 25 35 26 36
REMARK SMILES IDX 76 37 27 38 81 39 75 40 77 41 28 42 80 43 74 44 73 45 29 47
REMARK SMILES IDX 61 48 41 49 60 50 42 51 45 52 59 53 78 54 43 55 44 56 58 58
REMARK SMILES IDX 79 59 46 60 30 61 31 62 39 63 32 64 33 65 37 66 40 67 34 68
REMARK SMILES IDX 35 69 38 70 36 71 62 72 63 73 71 74 64 75 65 76 69 77 72 78
REMARK SMILES IDX 66 79 67 80 70 81 68 82 47 83 48 84 56 85 49 86 50 87 54 88
REMARK SMILES IDX 57 89 51 90 52 91 55 92 53 93
REMARK H PARENT 14 6 3 11 11 18 18 27 77 46 45 57
REMARK Flexibility Score: inf
ROOT
ATOM      1  C   UNL A   1      35.104  34.415  28.890  1.00  0.00     0.042 C 
ENDROOT
BRANCH   1   2
ATOM      2  C   UNL A   1      34.145  34.954  29.938  1.00  0.00     0.117 C 
BRANCH   2   3
ATOM      3  N   UNL A   1      33.845  33.960  30.958  1.00  0.00    -0.354 N 
ATOM      4  C   UNL A   1      34.063  33.964  32.305  1.00  0.00     0.254 C 
ATOM      5  O   UNL A   1      33.656  32.974  32.919  1.00  0.00    -0.272 OA
ATOM      6  H   UNL A   1      33.411  33.144  30.618  1.00  0.00     0.163 HD
BRANCH   4   7
ATOM      7  C   UNL A   1      34.890  35.060  32.994  1.00  0.00     0.212 C 
ATOM      8  C   UNL A   1      35.146  34.578  34.439  1.00  0.00     0.056 C 
BRANCH   7   9
ATOM      9  N   UNL A   1      36.215  35.327  32.356  1.00  0.00    -0.329 N 
ATOM     10  C   UNL A   1      37.233  34.489  31.971  1.00  0.00     0.268 C 
ATOM     11  H   UNL A   1      36.392  36.279  32.180  1.00  0.00     0.165 HD
ATOM     12  O   UNL A   1      38.057  34.953  31.186  1.00  0.00    -0.268 OA
BRANCH  10  13
ATOM     13  C   UNL A   1      37.414  33.213  32.620  1.00  0.00     0.105 A 
ATOM     14  C   UNL A   1      38.316  32.939  33.643  1.00  0.00     0.049 A 
ATOM     15  N   UNL A   1      36.784  32.021  32.333  1.00  0.00    -0.356 N 
ATOM     16  C   UNL A   1      38.081  31.624  34.074  1.00  0.00     0.036 A 
ATOM     17  C   UNL A   1      37.130  31.070  33.261  1.00  0.00     0.098 A 
ATOM     18  H   UNL A   1      36.174  31.873  31.574  1.00  0.00     0.166 HD
ATOM     19  Br  UNL A   1      38.929  30.826  35.538  1.00  0.00    -0.049 Br
ENDBRANCH  10  13
ENDBRANCH   7   9
BRANCH   7  20
ATOM     20  C   UNL A   1      34.030  36.339  33.085  1.00  0.00     0.420 C 
ATOM     21  F   UNL A   1      34.403  37.302  32.216  1.00  0.00    -0.168 F 
ATOM     22  F   UNL A   1      32.735  36.041  32.795  1.00  0.00    -0.168 F 
ATOM     23  F   UNL A   1      34.028  36.871  34.331  1.00  0.00    -0.168 F 
ENDBRANCH   7  20
ENDBRANCH   4   7
ENDBRANCH   2   3
ENDBRANCH   1   2
BRANCH   1  24
ATOM     24  C   UNL A   1      35.374  32.921  29.016  1.00  0.00     0.118 C 
BRANCH  24  25
ATOM     25  N   UNL A   1      34.378  32.091  28.353  1.00  0.00    -0.352 N 
ATOM     26  C   UNL A   1      34.518  30.798  27.902  1.00  0.00     0.251 C 
ATOM     27  H   UNL A   1      33.496  32.504  28.212  1.00  0.00     0.163 HD
ATOM     28  O   UNL A   1      33.635  30.249  27.253  1.00  0.00    -0.269 OA
BRANCH  26  29
ATOM     29  C   UNL A   1      35.784  30.093  28.181  1.00  0.00     0.039 A 
ATOM     30  C   UNL A   1      36.824  30.162  27.251  1.00  0.00     0.014 A 
ATOM     31  C   UNL A   1      35.968  29.460  29.414  1.00  0.00     0.014 A 
ATOM     32  C   UNL A   1      38.087  29.678  27.598  1.00  0.00     0.010 A 
ATOM     33  C   UNL A   1      37.242  29.051  29.785  1.00  0.00     0.010 A 
ATOM     34  C   UNL A   1      38.316  29.167  28.887  1.00  0.00    -0.014 A 
BRANCH  34  35
ATOM     35  C   UNL A   1      39.666  28.747  29.339  1.00  0.00     0.031 A 
ATOM     36  C   UNL A   1      40.475  29.671  30.202  1.00  0.00     0.074 A 
ATOM     37  C   UNL A   1      40.206  27.602  28.878  1.00  0.00     0.049 A 
ATOM     38  N   UNL A   1      41.736  29.599  30.540  1.00  0.00    -0.248 NA
ATOM     39  C   UNL A   1      39.778  30.858  30.721  1.00  0.00     0.031 C 
ATOM     40  C   UNL A   1      39.539  26.641  27.999  1.00  0.00     0.029 A 
ATOM     41  N   UNL A   1      41.455  27.065  29.070  1.00  0.00    -0.354 N 
ATOM     42  C   UNL A   1      41.995  30.752  31.268  1.00  0.00     0.074 A 
ATOM     43  C   UNL A   1      40.769  31.520  31.300  1.00  0.00     0.031 C 
ATOM     44  C   UNL A   1      40.381  25.627  27.737  1.00  0.00     0.029 A 
ATOM     45  C   UNL A   1      41.658  25.885  28.394  1.00  0.00     0.049 A 
ATOM     46  H   UNL A   1      42.141  27.484  29.637  1.00  0.00     0.167 HD
ATOM     47  C   UNL A   1      43.149  31.129  31.868  1.00  0.00     0.037 A 
ATOM     48  C   UNL A   1      42.755  25.110  28.306  1.00  0.00     0.037 A 
ATOM     49  C   UNL A   1      44.348  30.336  31.884  1.00  0.00     0.049 A 
ATOM     50  C   UNL A   1      44.009  25.524  29.026  1.00  0.00     0.074 A 
ATOM     51  C   UNL A   1      45.550  30.600  32.515  1.00  0.00     0.029 A 
ATOM     52  N   UNL A   1      44.487  29.111  31.249  1.00  0.00    -0.354 N 
ATOM     53  N   UNL A   1      44.233  26.601  29.739  1.00  0.00    -0.248 NA
ATOM     54  C   UNL A   1      45.162  24.617  28.931  1.00  0.00     0.031 C 
ATOM     55  C   UNL A   1      46.426  29.543  32.247  1.00  0.00     0.029 A 
ATOM     56  C   UNL A   1      45.757  28.606  31.474  1.00  0.00     0.049 A 
ATOM     57  H   UNL A   1      43.789  28.666  30.717  1.00  0.00     0.167 HD
ATOM     58  C   UNL A   1      45.537  26.487  30.202  1.00  0.00     0.074 A 
ATOM     59  C   UNL A   1      46.055  25.236  29.692  1.00  0.00     0.031 C 
ATOM     60  C   UNL A   1      46.241  27.343  30.980  1.00  0.00     0.037 A 
BRANCH  47  61
ATOM     61  C   UNL A   1      43.163  32.457  32.561  1.00  0.00     0.064 A 
ATOM     62  C   UNL A   1      42.782  32.590  33.904  1.00  0.00     0.173 A 
ATOM     63  C   UNL A   1      43.581  33.610  31.878  1.00  0.00     0.173 A 
ATOM     64  F   UNL A   1      42.359  31.520  34.593  1.00  0.00    -0.203 F 
ATOM     65  C   UNL A   1      42.792  33.833  34.531  1.00  0.00     0.198 A 
ATOM     66  C   UNL A   1      43.616  34.846  32.517  1.00  0.00     0.198 A 
ATOM     67  F   UNL A   1      43.958  33.535  30.594  1.00  0.00    -0.203 F 
ATOM     68  F   UNL A   1      42.378  33.943  35.801  1.00  0.00    -0.200 F 
ATOM     69  C   UNL A   1      43.215  34.958  33.840  1.00  0.00     0.200 A 
ATOM     70  F   UNL A   1      44.032  35.932  31.850  1.00  0.00    -0.200 F 
ATOM     71  F   UNL A   1      43.226  36.153  34.446  1.00  0.00    -0.200 F 
ENDBRANCH  47  61
BRANCH  48  72
ATOM     72  C   UNL A   1      42.711  23.848  27.525  1.00  0.00     0.064 A 
ATOM     73  C   UNL A   1      42.267  22.658  28.119  1.00  0.00     0.173 A 
ATOM     74  C   UNL A   1      43.100  23.802  26.180  1.00  0.00     0.173 A 
ATOM     75  F   UNL A   1      41.903  22.649  29.410  1.00  0.00    -0.203 F 
ATOM     76  C   UNL A   1      42.231  21.465  27.399  1.00  0.00     0.198 A 
ATOM     77  C   UNL A   1      43.043  22.614  25.455  1.00  0.00     0.198 A 
ATOM     78  F   UNL A   1      43.527  24.917  25.566  1.00  0.00    -0.203 F 
ATOM     79  F   UNL A   1      41.836  20.335  28.001  1.00  0.00    -0.200 F 
ATOM     80  C   UNL A   1      42.614  21.445  26.066  1.00  0.00     0.200 A 
ATOM     81  F   UNL A   1      43.403  22.600  24.165  1.00  0.00    -0.200 F 
ATOM     82  F   UNL A   1      42.575  20.299  25.374  1.00  0.00    -0.200 F 
ENDBRANCH  48  72
BRANCH  60  83
ATOM     83  C   UNL A   1      47.627  26.936  31.374  1.00  0.00     0.064 A 
ATOM     84  C   UNL A   1      47.859  26.078  32.457  1.00  0.00     0.173 A 
ATOM     85  C   UNL A   1      48.728  27.362  30.617  1.00  0.00     0.173 A 
ATOM     86  F   UNL A   1      46.836  25.659  33.217  1.00  0.00    -0.203 F 
ATOM     87  C   UNL A   1      49.150  25.667  32.776  1.00  0.00     0.198 A 
ATOM     88  C   UNL A   1      50.016  26.933  30.927  1.00  0.00     0.198 A 
ATOM     89  F   UNL A   1      48.552  28.181  29.570  1.00  0.00    -0.203 F 
ATOM     90  F   UNL A   1      49.356  24.867  33.831  1.00  0.00    -0.200 F 
ATOM     91  C   UNL A   1      50.226  26.088  32.006  1.00  0.00     0.200 A 
ATOM     92  F   UNL A   1      51.052  27.333  30.178  1.00  0.00    -0.200 F 
ATOM     93  F   UNL A   1      51.466  25.682  32.308  1.00  0.00    -0.200 F 
ENDBRANCH  60  83
ENDBRANCH  34  35
ENDBRANCH  26  29
ENDBRANCH  24  25
ENDBRANCH   1  24
TORSDOF 13
ENDMDL
MODEL 2
REMARK VINA RESULT:     -10.9      4.655      7.399
REMARK SMILES C[C@@](NC(=O)c1cc(Br)c[nH]1)(C(=O)NCCCNC(=O)c1ccc(-c2c3nc(c(-c4c(F)c(F)c(F)c(F)c4F)c4ccc([nH]4)c(-c4c(F)c(F)c(F)c(F)c4F)c4nc(c(-c5c(F)c(F)c(F)c(F)c5F)c5ccc2[nH]5)C=C4)C=C3)cc1)C(F)(F)F
REMARK SMILES IDX 16 1 15 2 14 3 12 4 13 5 2 7 1 8 3 9 4 10 5 12 6 13 7 14
REMARK SMILES IDX 11 15 8 16 10 17 9 19 84 20 85 21 86 22 87 23 17 24 18 25
REMARK SMILES IDX 19 26 20 28 21 29 22 30 83 31 23 32 82 33 24 34 25 35 26 36
REMARK SMILES IDX 76 37 27 38 81 39 75 40 77 41 28 42 80 43 74 44 73 45 29 47
REMARK SMILES IDX 61 48 41 49 60 50 42 51 45 52 59 53 78 54 43 55 44 56 58 58
REMARK SMILES IDX 79 59 46 60 30 61 31 62 39 63 32 64 33 65 37 66 40 67 34 68
REMARK SMILES IDX 35 69 38 70 36 71 62 72 63 73 71 74 64 75 65 76 69 77 72 78
REMARK SMILES IDX 66 79 67 80 70 81 68 82 47 83 48 84 56 85 49 86 50 87 54 88
REMARK SMILES IDX 57 89 51 90 52 91 55 92 53 93
REMARK H PARENT 14 6 3 11 11 18 18 27 77 46 45 57
REMARK Flexibility Score: inf
ROOT
ATOM      1  C   UNL A   1      31.629  32.098  26.591  1.00  0.00     0.042 C 
ENDROOT
BRANCH   1   2
ATOM      2  C   UNL A   1      31.988  30.675  26.198  1.00  0.00     0.117 C 
BRANCH   2   3
ATOM      3  N   UNL A   1      31.698  29.730  27.265  1.00  0.00    -0.354 N 
ATOM      4  C   UNL A   1      31.717  28.365  27.283  1.00  0.00     0.254 C 
ATOM      5  O   UNL A   1      31.456  27.837  28.368  1.00  0.00    -0.272 OA
ATOM      6  H   UNL A   1      31.444  30.145  28.121  1.00  0.00     0.163 HD
BRANCH   4   7
ATOM      7  C   UNL A   1      31.908  27.535  26.005  1.00  0.00     0.212 C 
ATOM      8  C   UNL A   1      31.439  26.101  26.335  1.00  0.00     0.056 C 
BRANCH   7   9
ATOM      9  N   UNL A   1      31.121  28.019  24.831  1.00  0.00    -0.329 N 
ATOM     10  C   UNL A   1      30.414  27.350  23.862  1.00  0.00     0.268 C 
ATOM     11  H   UNL A   1      31.107  28.999  24.733  1.00  0.00     0.165 HD
ATOM     12  O   UNL A   1      29.606  28.015  23.216  1.00  0.00    -0.268 OA
BRANCH  10  13
ATOM     13  C   UNL A   1      30.760  25.996  23.508  1.00  0.00     0.105 A 
ATOM     14  C   UNL A   1      31.933  25.592  22.877  1.00  0.00     0.049 A 
ATOM     15  N   UNL A   1      30.000  24.857  23.672  1.00  0.00    -0.356 N 
ATOM     16  C   UNL A   1      31.931  24.188  22.836  1.00  0.00     0.036 A 
ATOM     17  C   UNL A   1      30.735  23.747  23.334  1.00  0.00     0.098 A 
ATOM     18  H   UNL A   1      29.067  24.841  23.986  1.00  0.00     0.166 HD
ATOM     19  Br  UNL A   1      33.360  23.148  22.225  1.00  0.00    -0.049 Br
ENDBRANCH  10  13
ENDBRANCH   7   9
BRANCH   7  20
ATOM     20  C   UNL A   1      33.418  27.459  25.691  1.00  0.00     0.420 C 
ATOM     21  F   UNL A   1      33.853  26.206  25.441  1.00  0.00    -0.168 F 
ATOM     22  F   UNL A   1      33.690  28.188  24.575  1.00  0.00    -0.168 F 
ATOM     23  F   UNL A   1      34.179  27.982  26.681  1.00  0.00    -0.168 F 
ENDBRANCH   7  20
ENDBRANCH   4   7
ENDBRANCH   2   3
ENDBRANCH   1   2
BRANCH   1  24
ATOM     24  C   UNL A   1      32.717  32.807  27.386  1.00  0.00     0.118 C 
BRANCH  24  25
ATOM     25  N   UNL A   1      32.429  34.211  27.646  1.00  0.00    -0.352 N 
ATOM     26  C   UNL A   1      33.002  35.033  28.590  1.00  0.00     0.251 C 
ATOM     27  H   UNL A   1      31.740  34.623  27.076  1.00  0.00     0.163 HD
ATOM     28  O   UNL A   1      32.586  36.169  28.786  1.00  0.00    -0.269 OA
BRANCH  26  29
ATOM     29  C   UNL A   1      34.114  34.497  29.400  1.00  0.00     0.039 A 
ATOM     30  C   UNL A   1      33.830  33.845  30.602  1.00  0.00     0.014 A 
ATOM     31  C   UNL A   1      35.420  34.551  28.906  1.00  0.00     0.014 A 
ATOM     32  C   UNL A   1      34.849  33.157  31.265  1.00  0.00     0.010 A 
ATOM     33  C   UNL A   1      36.413  33.804  29.526  1.00  0.00     0.010 A 
ATOM     34  C   UNL A   1      36.135  33.089  30.703  1.00  0.00    -0.014 A 
BRANCH  34  35
ATOM     35  C   UNL A   1      37.218  32.277  31.312  1.00  0.00     0.031 A 
ATOM     36  C   UNL A   1      37.710  32.618  32.688  1.00  0.00     0.074 A 
ATOM     37  C   UNL A   1      37.835  31.323  30.588  1.00  0.00     0.049 A 
ATOM     38  N   UNL A   1      38.766  32.181  33.324  1.00  0.00    -0.248 NA
ATOM     39  C   UNL A   1      36.927  33.616  33.434  1.00  0.00     0.031 C 
ATOM     40  C   UNL A   1      37.480  30.927  29.224  1.00  0.00     0.029 A 
ATOM     41  N   UNL A   1      38.911  30.527  30.894  1.00  0.00    -0.354 N 
ATOM     42  C   UNL A   1      38.801  32.885  34.519  1.00  0.00     0.074 A 
ATOM     43  C   UNL A   1      37.678  33.797  34.510  1.00  0.00     0.031 C 
ATOM     44  C   UNL A   1      38.315  29.957  28.816  1.00  0.00     0.029 A 
ATOM     45  C   UNL A   1      39.287  29.690  29.871  1.00  0.00     0.049 A 
ATOM     46  H   UNL A   1      39.370  30.553  31.764  1.00  0.00     0.167 HD
ATOM     47  C   UNL A   1      39.684  32.771  35.540  1.00  0.00     0.037 A 
ATOM     48  C   UNL A   1      40.310  28.818  29.791  1.00  0.00     0.037 A 
ATOM     49  C   UNL A   1      40.764  31.823  35.571  1.00  0.00     0.049 A 
ATOM     50  C   UNL A   1      41.246  28.671  30.959  1.00  0.00     0.074 A 
ATOM     51  C   UNL A   1      41.676  31.586  36.583  1.00  0.00     0.029 A 
ATOM     52  N   UNL A   1      41.065  30.942  34.543  1.00  0.00    -0.354 N 
ATOM     53  N   UNL A   1      41.251  29.320  32.098  1.00  0.00    -0.248 NA
ATOM     54  C   UNL A   1      42.317  27.673  30.833  1.00  0.00     0.031 C 
ATOM     55  C   UNL A   1      42.543  30.572  36.162  1.00  0.00     0.029 A 
ATOM     56  C   UNL A   1      42.150  30.158  34.899  1.00  0.00     0.049 A 
ATOM     57  H   UNL A   1      40.581  30.882  33.688  1.00  0.00     0.167 HD
ATOM     58  C   UNL A   1      42.300  28.789  32.835  1.00  0.00     0.074 A 
ATOM     59  C   UNL A   1      42.910  27.763  32.016  1.00  0.00     0.031 C 
ATOM     60  C   UNL A   1      42.721  29.122  34.078  1.00  0.00     0.037 A 
BRANCH  47  61
ATOM     61  C   UNL A   1      39.511  33.694  36.707  1.00  0.00     0.064 A 
ATOM     62  C   UNL A   1      38.757  33.325  37.831  1.00  0.00     0.173 A 
ATOM     63  C   UNL A   1      40.123  34.957  36.711  1.00  0.00     0.173 A 
ATOM     64  F   UNL A   1      38.140  32.135  37.866  1.00  0.00    -0.203 F 
ATOM     65  C   UNL A   1      38.598  34.197  38.904  1.00  0.00     0.198 A 
ATOM     66  C   UNL A   1      39.984  35.815  37.798  1.00  0.00     0.198 A 
ATOM     67  F   UNL A   1      40.857  35.356  35.662  1.00  0.00    -0.203 F 
ATOM     68  F   UNL A   1      37.833  33.842  39.945  1.00  0.00    -0.200 F 
ATOM     69  C   UNL A   1      39.217  35.438  38.890  1.00  0.00     0.200 A 
ATOM     70  F   UNL A   1      40.589  37.012  37.787  1.00  0.00    -0.200 F 
ATOM     71  F   UNL A   1      39.064  36.275  39.925  1.00  0.00    -0.200 F 
ENDBRANCH  47  61
BRANCH  48  72
ATOM     72  C   UNL A   1      40.489  27.996  28.568  1.00  0.00     0.064 A 
ATOM     73  C   UNL A   1      39.889  26.732  28.465  1.00  0.00     0.173 A 
ATOM     74  C   UNL A   1      41.250  28.449  27.482  1.00  0.00     0.173 A 
ATOM     75  F   UNL A   1      39.167  26.249  29.487  1.00  0.00    -0.203 F 
ATOM     76  C   UNL A   1      40.058  25.947  27.326  1.00  0.00     0.198 A 
ATOM     77  C   UNL A   1      41.401  27.671  26.336  1.00  0.00     0.198 A 
ATOM     78  F   UNL A   1      41.840  29.653  27.532  1.00  0.00    -0.203 F 
ATOM     79  F   UNL A   1      39.503  24.729  27.268  1.00  0.00    -0.200 F 
ATOM     80  C   UNL A   1      40.810  26.419  26.261  1.00  0.00     0.200 A 
ATOM     81  F   UNL A   1      42.118  28.135  25.304  1.00  0.00    -0.200 F 
ATOM     82  F   UNL A   1      40.969  25.664  25.166  1.00  0.00    -0.200 F 
ENDBRANCH  48  72
BRANCH  60  83
ATOM     83  C   UNL A   1      43.860  28.338  34.654  1.00  0.00     0.064 A 
ATOM     84  C   UNL A   1      45.186  28.770  34.526  1.00  0.00     0.173 A 
ATOM     85  C   UNL A   1      43.610  27.175  35.397  1.00  0.00     0.173 A 
ATOM     86  F   UNL A   1      45.472  29.869  33.810  1.00  0.00    -0.203 F 
ATOM     87  C   UNL A   1      46.227  28.057  35.114  1.00  0.00     0.198 A 
ATOM     88  C   UNL A   1      44.651  26.476  36.000  1.00  0.00     0.198 A 
ATOM     89  F   UNL A   1      42.355  26.727  35.549  1.00  0.00    -0.203 F 
ATOM     90  F   UNL A   1      47.492  28.471  34.957  1.00  0.00    -0.200 F 
ATOM     91  C   UNL A   1      45.958  26.916  35.857  1.00  0.00     0.200 A 
ATOM     92  F   UNL A   1      44.389  25.380  36.725  1.00  0.00    -0.200 F 
ATOM     93  F   UNL A   1      46.961  26.238  36.431  1.00  0.00    -0.200 F 
ENDBRANCH  60  83
ENDBRANCH  34  35
ENDBRANCH  26  29
ENDBRANCH  24  25
ENDBRANCH   1  24
TORSDOF 13
ENDMDL
MODEL 3
REMARK VINA RESULT:     -10.9      0.243      1.986
REMARK SMILES C[C@@](NC(=O)c1cc(Br)c[nH]1)(C(=O)NCCCNC(=O)c1ccc(-c2c3nc(c(-c4c(F)c(F)c(F)c(F)c4F)c4ccc([nH]4)c(-c4c(F)c(F)c(F)c(F)c4F)c4nc(c(-c5c(F)c(F)c(F)c(F)c5F)c5ccc2[nH]5)C=C4)C=C3)cc1)C(F)(F)F
REMARK SMILES IDX 16 1 15 2 14 3 12 4 13 5 2 7 1 8 3 9 4 10 5 12 6 13 7 14
REMARK SMILES IDX 11 15 8 16 10 17 9 19 84 20 85 21 86 22 87 23 17 24 18 25
REMARK SMILES IDX 19 26 20 28 21 29 22 30 83 31 23 32 82 33 24 34 25 35 26 36
REMARK SMILES IDX 76 37 27 38 81 39 75 40 77 41 28 42 80 43 74 44 73 45 29 47
REMARK SMILES IDX 61 48 41 49 60 50 42 51 45 52 59 53 78 54 43 55 44 56 58 58
REMARK SMILES IDX 79 59 46 60 30 61 31 62 39 63 32 64 33 65 37 66 40 67 34 68
REMARK SMILES IDX 35 69 38 70 36 71 62 72 63 73 71 74 64 75 65 76 69 77 72 78
REMARK SMILES IDX 66 79 67 80 70 81 68 82 47 83 48 84 56 85 49 86 50 87 54 88
REMARK SMILES IDX 57 89 51 90 52 91 55 92 53 93
REMARK H PARENT 14 6 3 11 11 18 18 27 77 46 45 57
REMARK Flexibility Score: inf
ROOT
ATOM      1  C   UNL A   1      35.159  34.424  28.916  1.00  0.00     0.042 C 
ENDROOT
BRANCH   1   2
ATOM      2  C   UNL A   1      34.177  34.935  29.956  1.00  0.00     0.117 C 
BRANCH   2   3
ATOM      3  N   UNL A   1      33.880  33.926  30.961  1.00  0.00    -0.354 N 
ATOM      4  C   UNL A   1      34.105  33.908  32.307  1.00  0.00     0.254 C 
ATOM      5  O   UNL A   1      33.699  32.910  32.908  1.00  0.00    -0.272 OA
ATOM      6  H   UNL A   1      33.441  33.118  30.611  1.00  0.00     0.163 HD
BRANCH   4   7
ATOM      7  C   UNL A   1      34.940  34.991  33.008  1.00  0.00     0.212 C 
ATOM      8  C   UNL A   1      35.176  34.499  34.454  1.00  0.00     0.056 C 
BRANCH   7   9
ATOM      9  N   UNL A   1      36.274  35.243  32.384  1.00  0.00    -0.329 N 
ATOM     10  C   UNL A   1      37.286  34.394  32.008  1.00  0.00     0.268 C 
ATOM     11  H   UNL A   1      36.464  36.194  32.212  1.00  0.00     0.165 HD
ATOM     12  O   UNL A   1      38.123  34.850  31.232  1.00  0.00    -0.268 OA
BRANCH  10  13
ATOM     13  C   UNL A   1      37.446  33.115  32.655  1.00  0.00     0.105 A 
ATOM     14  C   UNL A   1      38.314  32.835  33.705  1.00  0.00     0.049 A 
ATOM     15  N   UNL A   1      36.824  31.924  32.343  1.00  0.00    -0.356 N 
ATOM     16  C   UNL A   1      38.064  31.517  34.122  1.00  0.00     0.036 A 
ATOM     17  C   UNL A   1      37.139  30.968  33.276  1.00  0.00     0.098 A 
ATOM     18  H   UNL A   1      36.239  31.780  31.563  1.00  0.00     0.166 HD
ATOM     19  Br  UNL A   1      38.865  30.711  35.608  1.00  0.00    -0.049 Br
ENDBRANCH  10  13
ENDBRANCH   7   9
BRANCH   7  20
ATOM     20  C   UNL A   1      34.096  36.280  33.098  1.00  0.00     0.420 C 
ATOM     21  F   UNL A   1      34.507  37.252  32.257  1.00  0.00    -0.168 F 
ATOM     22  F   UNL A   1      32.806  36.005  32.765  1.00  0.00    -0.168 F 
ATOM     23  F   UNL A   1      34.064  36.790  34.352  1.00  0.00    -0.168 F 
ENDBRANCH   7  20
ENDBRANCH   4   7
ENDBRANCH   2   3
ENDBRANCH   1   2
BRANCH   1  24
ATOM     24  C   UNL A   1      35.469  32.938  29.044  1.00  0.00     0.118 C 
BRANCH  24  25
ATOM     25  N   UNL A   1      34.464  32.079  28.433  1.00  0.00    -0.352 N 
ATOM     26  C   UNL A   1      34.605  30.774  28.015  1.00  0.00     0.251 C 
ATOM     27  H   UNL A   1      33.573  32.479  28.304  1.00  0.00     0.163 HD
ATOM     28  O   UNL A   1      33.711  30.198  27.407  1.00  0.00    -0.269 OA
BRANCH  26  29
ATOM     29  C   UNL A   1      35.886  30.091  28.280  1.00  0.00     0.039 A 
ATOM     30  C   UNL A   1      36.901  30.149  27.323  1.00  0.00     0.014 A 
ATOM     31  C   UNL A   1      36.108  29.490  29.523  1.00  0.00     0.014 A 
ATOM     32  C   UNL A   1      38.179  29.688  27.650  1.00  0.00     0.010 A 
ATOM     33  C   UNL A   1      37.395  29.104  29.871  1.00  0.00     0.010 A 
ATOM     34  C   UNL A   1      38.446  29.211  28.944  1.00  0.00    -0.014 A 
BRANCH  34  35
ATOM     35  C   UNL A   1      39.811  28.817  29.373  1.00  0.00     0.031 A 
ATOM     36  C   UNL A   1      40.617  29.756  30.221  1.00  0.00     0.074 A 
ATOM     37  C   UNL A   1      40.365  27.682  28.903  1.00  0.00     0.049 A 
ATOM     38  N   UNL A   1      41.885  29.709  30.537  1.00  0.00    -0.248 NA
ATOM     39  C   UNL A   1      39.907  30.930  30.753  1.00  0.00     0.031 C 
ATOM     40  C   UNL A   1      39.701  26.707  28.036  1.00  0.00     0.029 A 
ATOM     41  N   UNL A   1      41.627  27.169  29.072  1.00  0.00    -0.354 N 
ATOM     42  C   UNL A   1      42.134  30.867  31.261  1.00  0.00     0.074 A 
ATOM     43  C   UNL A   1      40.895  31.611  31.314  1.00  0.00     0.031 C 
ATOM     44  C   UNL A   1      40.557  25.710  27.759  1.00  0.00     0.029 A 
ATOM     45  C   UNL A   1      41.840  25.993  28.394  1.00  0.00     0.049 A 
ATOM     46  H   UNL A   1      42.314  27.602  29.628  1.00  0.00     0.167 HD
ATOM     47  C   UNL A   1      43.291  31.266  31.840  1.00  0.00     0.037 A 
ATOM     48  C   UNL A   1      42.951  25.239  28.286  1.00  0.00     0.037 A 
ATOM     49  C   UNL A   1      44.505  30.496  31.835  1.00  0.00     0.049 A 
ATOM     50  C   UNL A   1      44.209  25.677  28.985  1.00  0.00     0.074 A 
ATOM     51  C   UNL A   1      45.713  30.784  32.445  1.00  0.00     0.029 A 
ATOM     52  N   UNL A   1      44.657  29.274  31.198  1.00  0.00    -0.354 N 
ATOM     53  N   UNL A   1      44.425  26.758  29.693  1.00  0.00    -0.248 NA
ATOM     54  C   UNL A   1      45.376  24.792  28.869  1.00  0.00     0.031 C 
ATOM     55  C   UNL A   1      46.604  29.743  32.162  1.00  0.00     0.029 A 
ATOM     56  C   UNL A   1      45.940  28.793  31.401  1.00  0.00     0.049 A 
ATOM     57  H   UNL A   1      43.958  28.816  30.678  1.00  0.00     0.167 HD
ATOM     58  C   UNL A   1      45.738  26.670  30.133  1.00  0.00     0.074 A 
ATOM     59  C   UNL A   1      46.272  25.428  29.614  1.00  0.00     0.031 C 
ATOM     60  C   UNL A   1      46.439  27.540  30.899  1.00  0.00     0.037 A 
BRANCH  47  61
ATOM     61  C   UNL A   1      43.292  32.595  32.532  1.00  0.00     0.064 A 
ATOM     62  C   UNL A   1      43.608  33.779  31.849  1.00  0.00     0.173 A 
ATOM     63  C   UNL A   1      42.953  32.689  33.890  1.00  0.00     0.173 A 
ATOM     64  F   UNL A   1      43.955  33.737  30.554  1.00  0.00    -0.203 F 
ATOM     65  C   UNL A   1      43.614  35.005  32.508  1.00  0.00     0.198 A 
ATOM     66  C   UNL A   1      42.932  33.922  34.538  1.00  0.00     0.198 A 
ATOM     67  F   UNL A   1      42.639  31.588  34.587  1.00  0.00    -0.203 F 
ATOM     68  F   UNL A   1      43.967  36.116  31.847  1.00  0.00    -0.200 F 
ATOM     69  C   UNL A   1      43.270  35.076  33.849  1.00  0.00     0.200 A 
ATOM     70  F   UNL A   1      42.592  33.991  35.833  1.00  0.00    -0.200 F 
ATOM     71  F   UNL A   1      43.273  36.259  34.480  1.00  0.00    -0.200 F 
ENDBRANCH  47  61
BRANCH  48  72
ATOM     72  C   UNL A   1      42.916  23.976  27.506  1.00  0.00     0.064 A 
ATOM     73  C   UNL A   1      43.275  23.966  26.151  1.00  0.00     0.173 A 
ATOM     74  C   UNL A   1      42.534  22.762  28.091  1.00  0.00     0.173 A 
ATOM     75  F   UNL A   1      43.628  25.109  25.543  1.00  0.00    -0.203 F 
ATOM     76  C   UNL A   1      43.236  22.789  25.406  1.00  0.00     0.198 A 
ATOM     77  C   UNL A   1      42.517  21.582  27.350  1.00  0.00     0.198 A 
ATOM     78  F   UNL A   1      42.188  22.720  29.387  1.00  0.00    -0.203 F 
ATOM     79  F   UNL A   1      43.550  22.814  24.103  1.00  0.00    -0.200 F 
ATOM     80  C   UNL A   1      42.862  21.597  26.007  1.00  0.00     0.200 A 
ATOM     81  F   UNL A   1      42.166  20.430  27.937  1.00  0.00    -0.200 F 
ATOM     82  F   UNL A   1      42.829  20.466  25.291  1.00  0.00    -0.200 F 
ENDBRANCH  48  72
BRANCH  60  83
ATOM     83  C   UNL A   1      47.840  27.160  31.268  1.00  0.00     0.064 A 
ATOM     84  C   UNL A   1      48.939  27.593  30.517  1.00  0.00     0.173 A 
ATOM     85  C   UNL A   1      48.083  26.406  32.425  1.00  0.00     0.173 A 
ATOM     86  F   UNL A   1      48.752  28.305  29.394  1.00  0.00    -0.203 F 
ATOM     87  C   UNL A   1      50.238  27.276  30.905  1.00  0.00     0.198 A 
ATOM     88  C   UNL A   1      49.383  26.106  32.822  1.00  0.00     0.198 A 
ATOM     89  F   UNL A   1      47.060  25.972  33.177  1.00  0.00    -0.203 F 
ATOM     90  F   UNL A   1      51.276  27.677  30.159  1.00  0.00    -0.200 F 
ATOM     91  C   UNL A   1      50.458  26.540  32.061  1.00  0.00     0.200 A 
ATOM     92  F   UNL A   1      49.595  25.403  33.943  1.00  0.00    -0.200 F 
ATOM     93  F   UNL A   1      51.709  26.244  32.440  1.00  0.00    -0.200 F 
ENDBRANCH  60  83
ENDBRANCH  34  35
ENDBRANCH  26  29
ENDBRANCH  24  25
ENDBRANCH   1  24
TORSDOF 13
ENDMDL
