MODEL 1
REMARK VINA RESULT:     -12.1      0.000      0.000
REMARK SMILES CC[C@@](C)(NC(=O)Nc1cccc(C[NH2+]C)c1)C(=O)NCCCNC(=O)c1ccc(-c2c3nc(c(-c4c(F)c(F)c(F)c(F)c4F)c4ccc([nH]4)c(-c4c(F)c(F)c(F)c(F)c4F)c4nc(c(-c5c(F)c(F)c(F)c(F)c5F)c5ccc2[nH]5)C=C4)C=C3)cc1
REMARK SMILES IDX 21 1 20 2 18 3 19 4 3 6 4 7 2 8 1 9 5 10 6 11 7 13 8 14 9 16
REMARK SMILES IDX 10 17 17 18 11 19 13 20 12 21 14 22 15 23 16 24 22 27 23 28
REMARK SMILES IDX 24 29 25 30 26 32 27 33 28 34 89 35 29 36 88 37 30 38 31 39
REMARK SMILES IDX 32 40 82 41 33 42 87 43 81 44 83 45 34 46 86 47 80 48 79 49
REMARK SMILES IDX 35 51 67 52 47 53 66 54 48 55 51 56 65 57 84 58 49 59 50 60
REMARK SMILES IDX 64 62 85 63 52 64 36 65 37 66 45 67 38 68 39 69 43 70 46 71
REMARK SMILES IDX 40 72 41 73 44 74 42 75 68 76 69 77 77 78 70 79 71 80 75 81
REMARK SMILES IDX 78 82 72 83 73 84 76 85 74 86 53 87 54 88 62 89 55 90 56 91
REMARK SMILES IDX 60 92 63 93 57 94 58 95 61 96 59 97
REMARK H PARENT 20 5 5 12 8 15 15 25 15 26 24 31 83 50 51 61
REMARK Flexibility Score: inf
ROOT
ATOM      1  C   UNL A   1      31.400  31.025  25.739  1.00  0.00     0.117 C 
ENDROOT
BRANCH   1   2
ATOM      2  N   UNL A   1      32.663  30.339  25.726  1.00  0.00    -0.354 N 
ATOM      3  C   UNL A   1      33.123  29.302  24.930  1.00  0.00     0.245 C 
ATOM      4  O   UNL A   1      33.286  29.380  23.723  1.00  0.00    -0.272 OA
ATOM      5  H   UNL A   1      33.309  30.661  26.395  1.00  0.00     0.163 HD
BRANCH   3   6
ATOM      6  C   UNL A   1      33.136  27.988  25.763  1.00  0.00     0.117 C 
ATOM      7  C   UNL A   1      34.254  28.405  26.778  1.00  0.00     0.045 C 
BRANCH   6   8
ATOM      8  C   UNL A   1      31.974  27.431  26.604  1.00  0.00     0.035 C 
ATOM      9  C   UNL A   1      31.624  28.109  27.907  1.00  0.00     0.007 C 
ENDBRANCH   6   8
BRANCH   6  10
ATOM     10  N   UNL A   1      33.613  26.879  24.870  1.00  0.00    -0.324 N 
ATOM     11  C   UNL A   1      33.068  26.017  24.002  1.00  0.00     0.320 C 
ATOM     12  H   UNL A   1      34.586  26.753  24.942  1.00  0.00     0.166 HD
ATOM     13  O   UNL A   1      33.796  25.068  23.686  1.00  0.00    -0.248 OA
ATOM     14  N   UNL A   1      31.851  26.040  23.431  1.00  0.00    -0.308 N 
ATOM     15  H   UNL A   1      31.706  25.161  23.012  1.00  0.00     0.171 HD
BRANCH  14  16
ATOM     16  C   UNL A   1      30.693  26.824  23.189  1.00  0.00     0.043 A 
ATOM     17  C   UNL A   1      29.521  26.374  23.811  1.00  0.00     0.026 A 
ATOM     18  C   UNL A   1      30.534  27.936  22.368  1.00  0.00     0.035 A 
ATOM     19  C   UNL A   1      28.320  27.097  23.735  1.00  0.00     0.003 A 
ATOM     20  C   UNL A   1      29.400  28.774  22.402  1.00  0.00     0.008 A 
ATOM     21  C   UNL A   1      28.272  28.322  23.073  1.00  0.00     0.010 A 
BRANCH  20  22
ATOM     22  C   UNL A   1      29.533  30.204  21.910  1.00  0.00     0.297 C 
BRANCH  22  23
ATOM     23  N   UNL A   1      29.278  31.269  22.879  1.00  0.00    -0.345 N 
ATOM     24  C   UNL A   1      28.675  32.403  22.162  1.00  0.00     0.331 C 
ATOM     25  H   UNL A   1      30.156  31.561  23.311  1.00  0.00     0.346 HD
ATOM     26  H   UNL A   1      28.650  30.939  23.611  1.00  0.00     0.346 HD
ENDBRANCH  22  23
ENDBRANCH  20  22
ENDBRANCH  14  16
ENDBRANCH   6  10
ENDBRANCH   3   6
ENDBRANCH   1   2
BRANCH   1  27
ATOM     27  C   UNL A   1      31.362  31.959  26.964  1.00  0.00     0.042 C 
BRANCH  27  28
ATOM     28  C   UNL A   1      32.629  32.786  27.230  1.00  0.00     0.118 C 
BRANCH  28  29
ATOM     29  N   UNL A   1      32.349  34.160  27.593  1.00  0.00    -0.352 N 
ATOM     30  C   UNL A   1      32.959  34.962  28.531  1.00  0.00     0.251 C 
ATOM     31  H   UNL A   1      31.613  34.583  27.094  1.00  0.00     0.163 HD
ATOM     32  O   UNL A   1      32.497  36.056  28.801  1.00  0.00    -0.269 OA
BRANCH  30  33
ATOM     33  C   UNL A   1      34.163  34.476  29.243  1.00  0.00     0.039 A 
ATOM     34  C   UNL A   1      34.000  33.862  30.487  1.00  0.00     0.014 A 
ATOM     35  C   UNL A   1      35.441  34.634  28.701  1.00  0.00     0.014 A 
ATOM     36  C   UNL A   1      35.112  33.338  31.156  1.00  0.00     0.010 A 
ATOM     37  C   UNL A   1      36.541  34.064  29.343  1.00  0.00     0.010 A 
ATOM     38  C   UNL A   1      36.387  33.398  30.573  1.00  0.00    -0.014 A 
BRANCH  38  39
ATOM     39  C   UNL A   1      37.566  32.756  31.217  1.00  0.00     0.031 A 
ATOM     40  C   UNL A   1      38.268  31.607  30.547  1.00  0.00     0.074 A 
ATOM     41  C   UNL A   1      37.961  33.155  32.443  1.00  0.00     0.049 A 
ATOM     42  N   UNL A   1      39.229  30.841  31.002  1.00  0.00    -0.248 NA
ATOM     43  C   UNL A   1      37.815  31.261  29.192  1.00  0.00     0.031 C 
ATOM     44  C   UNL A   1      37.357  34.241  33.214  1.00  0.00     0.029 A 
ATOM     45  N   UNL A   1      38.954  32.677  33.266  1.00  0.00    -0.354 N 
ATOM     46  C   UNL A   1      39.481  29.914  29.999  1.00  0.00     0.074 A 
ATOM     47  C   UNL A   1      38.543  30.186  28.929  1.00  0.00     0.031 C 
ATOM     48  C   UNL A   1      37.994  34.353  34.391  1.00  0.00     0.029 A 
ATOM     49  C   UNL A   1      39.017  33.316  34.481  1.00  0.00     0.049 A 
ATOM     50  H   UNL A   1      39.562  31.945  33.009  1.00  0.00     0.167 HD
ATOM     51  C   UNL A   1      40.420  28.936  29.965  1.00  0.00     0.037 A 
ATOM     52  C   UNL A   1      39.796  33.080  35.557  1.00  0.00     0.037 A 
ATOM     53  C   UNL A   1      41.362  28.675  31.023  1.00  0.00     0.049 A 
ATOM     54  C   UNL A   1      40.803  31.961  35.509  1.00  0.00     0.074 A 
ATOM     55  C   UNL A   1      42.377  27.735  31.062  1.00  0.00     0.029 A 
ATOM     56  N   UNL A   1      41.401  29.354  32.233  1.00  0.00    -0.354 N 
ATOM     57  N   UNL A   1      41.066  31.123  34.536  1.00  0.00    -0.248 NA
ATOM     58  C   UNL A   1      41.627  31.758  36.710  1.00  0.00     0.031 C 
ATOM     59  C   UNL A   1      42.991  27.803  32.316  1.00  0.00     0.029 A 
ATOM     60  C   UNL A   1      42.407  28.833  33.033  1.00  0.00     0.049 A 
ATOM     61  H   UNL A   1      40.802  30.093  32.487  1.00  0.00     0.167 HD
ATOM     62  C   UNL A   1      42.109  30.324  34.990  1.00  0.00     0.074 A 
ATOM     63  C   UNL A   1      42.434  30.780  36.324  1.00  0.00     0.031 C 
ATOM     64  C   UNL A   1      42.741  29.309  34.352  1.00  0.00     0.037 A 
BRANCH  51  65
ATOM     65  C   UNL A   1      40.469  28.061  28.744  1.00  0.00     0.064 A 
ATOM     66  C   UNL A   1      41.231  28.407  27.617  1.00  0.00     0.173 A 
ATOM     67  C   UNL A   1      39.781  26.837  28.717  1.00  0.00     0.173 A 
ATOM     68  F   UNL A   1      41.904  29.566  27.587  1.00  0.00    -0.203 F 
ATOM     69  C   UNL A   1      41.273  27.578  26.498  1.00  0.00     0.198 A 
ATOM     70  C   UNL A   1      39.853  25.996  27.610  1.00  0.00     0.198 A 
ATOM     71  F   UNL A   1      39.046  26.450  29.771  1.00  0.00    -0.203 F 
ATOM     72  F   UNL A   1      41.964  27.957  25.413  1.00  0.00    -0.200 F 
ATOM     73  C   UNL A   1      40.591  26.372  26.498  1.00  0.00     0.200 A 
ATOM     74  F   UNL A   1      39.208  24.821  27.620  1.00  0.00    -0.200 F 
ATOM     75  F   UNL A   1      40.640  25.572  25.423  1.00  0.00    -0.200 F 
ENDBRANCH  51  65
BRANCH  52  76
ATOM     76  C   UNL A   1      39.660  33.924  36.774  1.00  0.00     0.064 A 
ATOM     77  C   UNL A   1      38.845  33.523  37.842  1.00  0.00     0.173 A 
ATOM     78  C   UNL A   1      40.324  35.155  36.888  1.00  0.00     0.173 A 
ATOM     79  F   UNL A   1      38.172  32.366  37.770  1.00  0.00    -0.203 F 
ATOM     80  C   UNL A   1      38.679  34.330  38.965  1.00  0.00     0.198 A 
ATOM     81  C   UNL A   1      40.183  35.947  38.027  1.00  0.00     0.198 A 
ATOM     82  F   UNL A   1      41.118  35.586  35.898  1.00  0.00    -0.203 F 
ATOM     83  F   UNL A   1      37.851  33.946  39.946  1.00  0.00    -0.200 F 
ATOM     84  C   UNL A   1      39.353  35.538  39.061  1.00  0.00     0.200 A 
ATOM     85  F   UNL A   1      40.848  37.105  38.121  1.00  0.00    -0.200 F 
ATOM     86  F   UNL A   1      39.196  36.313  40.142  1.00  0.00    -0.200 F 
ENDBRANCH  52  76
BRANCH  64  87
ATOM     87  C   UNL A   1      43.899  28.656  35.055  1.00  0.00     0.064 A 
ATOM     88  C   UNL A   1      43.735  27.529  35.872  1.00  0.00     0.173 A 
ATOM     89  C   UNL A   1      45.202  29.139  34.859  1.00  0.00     0.173 A 
ATOM     90  F   UNL A   1      42.510  27.035  36.105  1.00  0.00    -0.203 F 
ATOM     91  C   UNL A   1      44.830  26.922  36.483  1.00  0.00     0.198 A 
ATOM     92  C   UNL A   1      46.298  28.511  35.444  1.00  0.00     0.198 A 
ATOM     93  F   UNL A   1      45.416  30.213  34.083  1.00  0.00    -0.203 F 
ATOM     94  F   UNL A   1      44.645  25.872  37.296  1.00  0.00    -0.200 F 
ATOM     95  C   UNL A   1      46.110  27.406  36.261  1.00  0.00     0.200 A 
ATOM     96  F   UNL A   1      47.535  28.971  35.214  1.00  0.00    -0.200 F 
ATOM     97  F   UNL A   1      47.164  26.812  36.837  1.00  0.00    -0.200 F 
ENDBRANCH  64  87
ENDBRANCH  38  39
ENDBRANCH  30  33
ENDBRANCH  28  29
ENDBRANCH  27  28
ENDBRANCH   1  27
TORSDOF 15
ENDMDL
MODEL 2
REMARK VINA RESULT:     -12.0      2.631      4.467
REMARK SMILES CC[C@@](C)(NC(=O)Nc1cccc(C[NH2+]C)c1)C(=O)NCCCNC(=O)c1ccc(-c2c3nc(c(-c4c(F)c(F)c(F)c(F)c4F)c4ccc([nH]4)c(-c4c(F)c(F)c(F)c(F)c4F)c4nc(c(-c5c(F)c(F)c(F)c(F)c5F)c5ccc2[nH]5)C=C4)C=C3)cc1
REMARK SMILES IDX 21 1 20 2 18 3 19 4 3 6 4 7 2 8 1 9 5 10 6 11 7 13 8 14 9 16
REMARK SMILES IDX 10 17 17 18 11 19 13 20 12 21 14 22 15 23 16 24 22 27 23 28
REMARK SMILES IDX 24 29 25 30 26 32 27 33 28 34 89 35 29 36 88 37 30 38 31 39
REMARK SMILES IDX 32 40 82 41 33 42 87 43 81 44 83 45 34 46 86 47 80 48 79 49
REMARK SMILES IDX 35 51 67 52 47 53 66 54 48 55 51 56 65 57 84 58 49 59 50 60
REMARK SMILES IDX 64 62 85 63 52 64 36 65 37 66 45 67 38 68 39 69 43 70 46 71
REMARK SMILES IDX 40 72 41 73 44 74 42 75 68 76 69 77 77 78 70 79 71 80 75 81
REMARK SMILES IDX 78 82 72 83 73 84 76 85 74 86 53 87 54 88 62 89 55 90 56 91
REMARK SMILES IDX 60 92 63 93 57 94 58 95 61 96 59 97
REMARK H PARENT 20 5 5 12 8 15 15 25 15 26 24 31 83 50 51 61
REMARK Flexibility Score: inf
ROOT
ATOM      1  C   UNL A   1      31.016  28.737  23.965  1.00  0.00     0.117 C 
ENDROOT
BRANCH   1   2
ATOM      2  N   UNL A   1      30.652  27.492  23.345  1.00  0.00    -0.354 N 
ATOM      3  C   UNL A   1      30.016  26.374  23.861  1.00  0.00     0.245 C 
ATOM      4  O   UNL A   1      28.868  26.366  24.278  1.00  0.00    -0.272 OA
ATOM      5  H   UNL A   1      30.897  27.423  22.394  1.00  0.00     0.163 HD
BRANCH   3   6
ATOM      6  C   UNL A   1      31.061  25.240  24.062  1.00  0.00     0.117 C 
ATOM      7  C   UNL A   1      31.564  25.681  25.478  1.00  0.00     0.045 C 
BRANCH   6   8
ATOM      8  C   UNL A   1      30.764  23.734  24.158  1.00  0.00     0.035 C 
ATOM      9  C   UNL A   1      30.653  23.096  25.522  1.00  0.00     0.007 C 
ENDBRANCH   6   8
BRANCH   6  10
ATOM     10  N   UNL A   1      32.141  25.418  23.034  1.00  0.00    -0.324 N 
ATOM     11  C   UNL A   1      33.443  25.124  22.920  1.00  0.00     0.320 C 
ATOM     12  H   UNL A   1      31.801  25.870  22.229  1.00  0.00     0.166 HD
ATOM     13  O   UNL A   1      34.028  25.708  22.000  1.00  0.00    -0.248 OA
ATOM     14  N   UNL A   1      34.194  24.289  23.659  1.00  0.00    -0.308 N 
ATOM     15  H   UNL A   1      35.137  24.465  23.434  1.00  0.00     0.171 HD
BRANCH  14  16
ATOM     16  C   UNL A   1      34.174  23.256  24.631  1.00  0.00     0.043 A 
ATOM     17  C   UNL A   1      34.498  23.651  25.936  1.00  0.00     0.026 A 
ATOM     18  C   UNL A   1      33.945  21.893  24.469  1.00  0.00     0.035 A 
ATOM     19  C   UNL A   1      34.432  22.757  27.017  1.00  0.00     0.003 A 
ATOM     20  C   UNL A   1      33.707  21.010  25.541  1.00  0.00     0.008 A 
ATOM     21  C   UNL A   1      33.988  21.450  26.827  1.00  0.00     0.010 A 
BRANCH  20  22
ATOM     22  C   UNL A   1      32.952  19.720  25.272  1.00  0.00     0.297 C 
BRANCH  22  23
ATOM     23  N   UNL A   1      32.903  18.738  26.353  1.00  0.00    -0.345 N 
ATOM     24  C   UNL A   1      32.776  17.402  25.751  1.00  0.00     0.331 C 
ATOM     25  H   UNL A   1      32.099  18.923  26.954  1.00  0.00     0.346 HD
ATOM     26  H   UNL A   1      33.749  18.791  26.919  1.00  0.00     0.346 HD
ENDBRANCH  22  23
ENDBRANCH  20  22
ENDBRANCH  14  16
ENDBRANCH   6  10
ENDBRANCH   3   6
ENDBRANCH   1   2
BRANCH   1  27
ATOM     27  C   UNL A   1      32.545  28.904  23.868  1.00  0.00     0.042 C 
BRANCH  27  28
ATOM     28  C   UNL A   1      33.268  29.323  25.157  1.00  0.00     0.118 C 
BRANCH  28  29
ATOM     29  N   UNL A   1      32.692  30.498  25.778  1.00  0.00    -0.352 N 
ATOM     30  C   UNL A   1      33.122  31.212  26.874  1.00  0.00     0.251 C 
ATOM     31  H   UNL A   1      31.872  30.838  25.351  1.00  0.00     0.163 HD
ATOM     32  O   UNL A   1      32.431  32.098  27.343  1.00  0.00    -0.269 OA
BRANCH  30  33
ATOM     33  C   UNL A   1      34.415  30.873  27.512  1.00  0.00     0.039 A 
ATOM     34  C   UNL A   1      35.378  31.877  27.642  1.00  0.00     0.014 A 
ATOM     35  C   UNL A   1      34.685  29.579  27.964  1.00  0.00     0.014 A 
ATOM     36  C   UNL A   1      36.585  31.603  28.294  1.00  0.00     0.010 A 
ATOM     37  C   UNL A   1      35.866  29.322  28.662  1.00  0.00     0.010 A 
ATOM     38  C   UNL A   1      36.825  30.334  28.846  1.00  0.00    -0.014 A 
BRANCH  38  39
ATOM     39  C   UNL A   1      38.056  30.051  29.634  1.00  0.00     0.031 A 
ATOM     40  C   UNL A   1      39.095  29.100  29.107  1.00  0.00     0.074 A 
ATOM     41  C   UNL A   1      38.206  30.588  30.862  1.00  0.00     0.049 A 
ATOM     42  N   UNL A   1      40.168  28.632  29.695  1.00  0.00    -0.248 NA
ATOM     43  C   UNL A   1      38.889  28.593  27.743  1.00  0.00     0.031 C 
ATOM     44  C   UNL A   1      37.266  31.508  31.502  1.00  0.00     0.029 A 
ATOM     45  N   UNL A   1      39.197  30.421  31.800  1.00  0.00    -0.354 N 
ATOM     46  C   UNL A   1      40.753  27.764  28.783  1.00  0.00     0.074 A 
ATOM     47  C   UNL A   1      39.893  27.737  27.618  1.00  0.00     0.031 C 
ATOM     48  C   UNL A   1      37.727  31.830  32.722  1.00  0.00     0.029 A 
ATOM     49  C   UNL A   1      38.968  31.103  32.972  1.00  0.00     0.049 A 
ATOM     50  H   UNL A   1      39.996  29.865  31.647  1.00  0.00     0.167 HD
ATOM     51  C   UNL A   1      41.910  27.066  28.897  1.00  0.00     0.037 A 
ATOM     52  C   UNL A   1      39.665  31.123  34.126  1.00  0.00     0.037 A 
ATOM     53  C   UNL A   1      42.773  27.105  30.051  1.00  0.00     0.049 A 
ATOM     54  C   UNL A   1      40.925  30.306  34.242  1.00  0.00     0.074 A 
ATOM     55  C   UNL A   1      43.986  26.466  30.243  1.00  0.00     0.029 A 
ATOM     56  N   UNL A   1      42.510  27.818  31.212  1.00  0.00    -0.354 N 
ATOM     57  N   UNL A   1      41.494  29.528  33.354  1.00  0.00    -0.248 NA
ATOM     58  C   UNL A   1      41.644  30.375  35.523  1.00  0.00     0.031 C 
ATOM     59  C   UNL A   1      44.428  26.743  31.540  1.00  0.00     0.029 A 
ATOM     60  C   UNL A   1      43.527  27.613  32.132  1.00  0.00     0.049 A 
ATOM     61  H   UNL A   1      41.718  28.384  31.362  1.00  0.00     0.167 HD
ATOM     62  C   UNL A   1      42.655  29.051  33.952  1.00  0.00     0.074 A 
ATOM     63  C   UNL A   1      42.711  29.629  35.276  1.00  0.00     0.031 C 
ATOM     64  C   UNL A   1      43.589  28.212  33.441  1.00  0.00     0.037 A 
BRANCH  51  65
ATOM     65  C   UNL A   1      42.310  26.187  27.747  1.00  0.00     0.064 A 
ATOM     66  C   UNL A   1      43.278  26.586  26.812  1.00  0.00     0.173 A 
ATOM     67  C   UNL A   1      41.748  24.908  27.600  1.00  0.00     0.173 A 
ATOM     68  F   UNL A   1      43.843  27.799  26.902  1.00  0.00    -0.203 F 
ATOM     69  C   UNL A   1      43.644  25.753  25.757  1.00  0.00     0.198 A 
ATOM     70  C   UNL A   1      42.141  24.065  26.564  1.00  0.00     0.198 A 
ATOM     71  F   UNL A   1      40.825  24.469  28.470  1.00  0.00    -0.203 F 
ATOM     72  F   UNL A   1      44.531  26.178  24.847  1.00  0.00    -0.200 F 
ATOM     73  C   UNL A   1      43.080  24.492  25.638  1.00  0.00     0.200 A 
ATOM     74  F   UNL A   1      41.609  22.839  26.461  1.00  0.00    -0.200 F 
ATOM     75  F   UNL A   1      43.439  23.688  24.626  1.00  0.00    -0.200 F 
ENDBRANCH  51  65
BRANCH  52  76
ATOM     76  C   UNL A   1      39.191  31.951  35.268  1.00  0.00     0.064 A 
ATOM     77  C   UNL A   1      38.436  31.383  36.303  1.00  0.00     0.173 A 
ATOM     78  C   UNL A   1      39.464  33.325  35.338  1.00  0.00     0.173 A 
ATOM     79  F   UNL A   1      38.128  30.078  36.270  1.00  0.00    -0.203 F 
ATOM     80  C   UNL A   1      37.952  32.161  37.353  1.00  0.00     0.198 A 
ATOM     81  C   UNL A   1      39.007  34.097  36.405  1.00  0.00     0.198 A 
ATOM     82  F   UNL A   1      40.184  33.918  34.375  1.00  0.00    -0.203 F 
ATOM     83  F   UNL A   1      37.186  31.603  38.301  1.00  0.00    -0.200 F 
ATOM     84  C   UNL A   1      38.243  33.516  37.407  1.00  0.00     0.200 A 
ATOM     85  F   UNL A   1      39.304  35.401  36.461  1.00  0.00    -0.200 F 
ATOM     86  F   UNL A   1      37.779  34.264  38.417  1.00  0.00    -0.200 F 
ENDBRANCH  52  76
BRANCH  64  87
ATOM     87  C   UNL A   1      44.796  27.915  34.286  1.00  0.00     0.064 A 
ATOM     88  C   UNL A   1      45.939  28.727  34.265  1.00  0.00     0.173 A 
ATOM     89  C   UNL A   1      44.782  26.827  35.173  1.00  0.00     0.173 A 
ATOM     90  F   UNL A   1      46.011  29.771  33.426  1.00  0.00    -0.203 F 
ATOM     91  C   UNL A   1      47.030  28.449  35.085  1.00  0.00     0.198 A 
ATOM     92  C   UNL A   1      45.861  26.571  36.016  1.00  0.00     0.198 A 
ATOM     93  F   UNL A   1      43.712  26.020  35.237  1.00  0.00    -0.203 F 
ATOM     94  F   UNL A   1      48.130  29.213  35.016  1.00  0.00    -0.200 F 
ATOM     95  C   UNL A   1      46.987  27.379  35.967  1.00  0.00     0.200 A 
ATOM     96  F   UNL A   1      45.808  25.546  36.878  1.00  0.00    -0.200 F 
ATOM     97  F   UNL A   1      48.031  27.122  36.766  1.00  0.00    -0.200 F 
ENDBRANCH  64  87
ENDBRANCH  38  39
ENDBRANCH  30  33
ENDBRANCH  28  29
ENDBRANCH  27  28
ENDBRANCH   1  27
TORSDOF 15
ENDMDL
MODEL 3
REMARK VINA RESULT:     -11.9      1.834      2.907
REMARK SMILES CC[C@@](C)(NC(=O)Nc1cccc(C[NH2+]C)c1)C(=O)NCCCNC(=O)c1ccc(-c2c3nc(c(-c4c(F)c(F)c(F)c(F)c4F)c4ccc([nH]4)c(-c4c(F)c(F)c(F)c(F)c4F)c4nc(c(-c5c(F)c(F)c(F)c(F)c5F)c5ccc2[nH]5)C=C4)C=C3)cc1
REMARK SMILES IDX 21 1 20 2 18 3 19 4 3 6 4 7 2 8 1 9 5 10 6 11 7 13 8 14 9 16
REMARK SMILES IDX 10 17 17 18 11 19 13 20 12 21 14 22 15 23 16 24 22 27 23 28
REMARK SMILES IDX 24 29 25 30 26 32 27 33 28 34 89 35 29 36 88 37 30 38 31 39
REMARK SMILES IDX 32 40 82 41 33 42 87 43 81 44 83 45 34 46 86 47 80 48 79 49
REMARK SMILES IDX 35 51 67 52 47 53 66 54 48 55 51 56 65 57 84 58 49 59 50 60
REMARK SMILES IDX 64 62 85 63 52 64 36 65 37 66 45 67 38 68 39 69 43 70 46 71
REMARK SMILES IDX 40 72 41 73 44 74 42 75 68 76 69 77 77 78 70 79 71 80 75 81
REMARK SMILES IDX 78 82 72 83 73 84 76 85 74 86 53 87 54 88 62 89 55 90 56 91
REMARK SMILES IDX 60 92 63 93 57 94 58 95 61 96 59 97
REMARK H PARENT 20 5 5 12 8 15 15 25 15 26 24 31 83 50 51 61
REMARK Flexibility Score: inf
ROOT
ATOM      1  C   UNL A   1      31.766  26.900  26.349  1.00  0.00     0.117 C 
ENDROOT
BRANCH   1   2
ATOM      2  N   UNL A   1      33.093  26.382  26.155  1.00  0.00    -0.354 N 
ATOM      3  C   UNL A   1      33.751  25.981  25.003  1.00  0.00     0.245 C 
ATOM      4  O   UNL A   1      34.033  26.725  24.076  1.00  0.00    -0.272 OA
ATOM      5  H   UNL A   1      33.623  26.299  26.980  1.00  0.00     0.163 HD
BRANCH   3   6
ATOM      6  C   UNL A   1      33.823  24.428  24.972  1.00  0.00     0.117 C 
ATOM      7  C   UNL A   1      35.146  24.273  25.797  1.00  0.00     0.045 C 
BRANCH   6   8
ATOM      8  C   UNL A   1      32.807  23.456  25.596  1.00  0.00     0.035 C 
ATOM      9  C   UNL A   1      33.055  22.938  26.993  1.00  0.00     0.007 C 
ENDBRANCH   6   8
BRANCH   6  10
ATOM     10  N   UNL A   1      34.031  24.003  23.548  1.00  0.00    -0.324 N 
ATOM     11  C   UNL A   1      33.309  23.969  22.419  1.00  0.00     0.320 C 
ATOM     12  H   UNL A   1      34.941  23.658  23.404  1.00  0.00     0.166 HD
ATOM     13  O   UNL A   1      33.787  23.269  21.518  1.00  0.00    -0.248 OA
ATOM     14  N   UNL A   1      32.148  24.584  22.134  1.00  0.00    -0.308 N 
ATOM     15  H   UNL A   1      31.800  24.184  21.305  1.00  0.00     0.171 HD
BRANCH  14  16
ATOM     16  C   UNL A   1      31.225  25.579  22.548  1.00  0.00     0.043 A 
ATOM     17  C   UNL A   1      30.195  25.131  23.386  1.00  0.00     0.026 A 
ATOM     18  C   UNL A   1      31.151  26.921  22.190  1.00  0.00     0.035 A 
ATOM     19  C   UNL A   1      29.261  26.018  23.947  1.00  0.00     0.003 A 
ATOM     20  C   UNL A   1      30.341  27.862  22.857  1.00  0.00     0.008 A 
ATOM     21  C   UNL A   1      29.364  27.389  23.723  1.00  0.00     0.010 A 
BRANCH  20  22
ATOM     22  C   UNL A   1      30.713  29.332  22.780  1.00  0.00     0.297 C 
BRANCH  22  23
ATOM     23  N   UNL A   1      30.366  30.044  21.552  1.00  0.00    -0.345 N 
ATOM     24  C   UNL A   1      29.190  30.883  21.828  1.00  0.00     0.331 C 
ATOM     25  H   UNL A   1      30.146  29.375  20.813  1.00  0.00     0.346 HD
ATOM     26  H   UNL A   1      31.147  30.622  21.245  1.00  0.00     0.346 HD
ENDBRANCH  22  23
ENDBRANCH  20  22
ENDBRANCH  14  16
ENDBRANCH   6  10
ENDBRANCH   3   6
ENDBRANCH   1   2
BRANCH   1  27
ATOM     27  C   UNL A   1      31.876  28.342  26.883  1.00  0.00     0.042 C 
BRANCH  27  28
ATOM     28  C   UNL A   1      32.780  29.296  26.088  1.00  0.00     0.118 C 
BRANCH  28  29
ATOM     29  N   UNL A   1      32.488  30.694  26.330  1.00  0.00    -0.352 N 
ATOM     30  C   UNL A   1      33.163  31.611  27.103  1.00  0.00     0.251 C 
ATOM     31  H   UNL A   1      31.687  31.039  25.873  1.00  0.00     0.163 HD
ATOM     32  O   UNL A   1      32.692  32.716  27.303  1.00  0.00    -0.269 OA
BRANCH  30  33
ATOM     33  C   UNL A   1      34.454  31.239  27.726  1.00  0.00     0.039 A 
ATOM     34  C   UNL A   1      35.416  32.234  27.914  1.00  0.00     0.014 A 
ATOM     35  C   UNL A   1      34.722  29.923  28.111  1.00  0.00     0.014 A 
ATOM     36  C   UNL A   1      36.620  31.926  28.555  1.00  0.00     0.010 A 
ATOM     37  C   UNL A   1      35.901  29.629  28.799  1.00  0.00     0.010 A 
ATOM     38  C   UNL A   1      36.858  30.630  29.040  1.00  0.00    -0.014 A 
BRANCH  38  39
ATOM     39  C   UNL A   1      38.086  30.305  29.817  1.00  0.00     0.031 A 
ATOM     40  C   UNL A   1      39.105  29.347  29.265  1.00  0.00     0.074 A 
ATOM     41  C   UNL A   1      38.250  30.811  31.056  1.00  0.00     0.049 A 
ATOM     42  N   UNL A   1      40.171  28.845  29.839  1.00  0.00    -0.248 NA
ATOM     43  C   UNL A   1      38.885  28.875  27.890  1.00  0.00     0.031 C 
ATOM     44  C   UNL A   1      37.330  31.734  31.721  1.00  0.00     0.029 A 
ATOM     45  N   UNL A   1      39.241  30.604  31.987  1.00  0.00    -0.354 N 
ATOM     46  C   UNL A   1      40.736  27.987  28.905  1.00  0.00     0.074 A 
ATOM     47  C   UNL A   1      39.871  28.002  27.743  1.00  0.00     0.031 C 
ATOM     48  C   UNL A   1      37.801  32.020  32.946  1.00  0.00     0.029 A 
ATOM     49  C   UNL A   1      39.028  31.263  33.174  1.00  0.00     0.049 A 
ATOM     50  H   UNL A   1      40.028  30.036  31.819  1.00  0.00     0.167 HD
ATOM     51  C   UNL A   1      41.879  27.264  29.000  1.00  0.00     0.037 A 
ATOM     52  C   UNL A   1      39.729  31.243  34.326  1.00  0.00     0.037 A 
ATOM     53  C   UNL A   1      42.746  27.260  30.151  1.00  0.00     0.049 A 
ATOM     54  C   UNL A   1      40.974  30.400  34.420  1.00  0.00     0.074 A 
ATOM     55  C   UNL A   1      43.947  26.594  30.323  1.00  0.00     0.029 A 
ATOM     56  N   UNL A   1      42.500  27.951  31.328  1.00  0.00    -0.354 N 
ATOM     57  N   UNL A   1      41.524  29.631  33.513  1.00  0.00    -0.248 NA
ATOM     58  C   UNL A   1      41.698  30.426  35.699  1.00  0.00     0.031 C 
ATOM     59  C   UNL A   1      44.399  26.832  31.625  1.00  0.00     0.029 A 
ATOM     60  C   UNL A   1      43.517  27.705  32.240  1.00  0.00     0.049 A 
ATOM     61  H   UNL A   1      41.721  28.529  31.494  1.00  0.00     0.167 HD
ATOM     62  C   UNL A   1      42.678  29.118  34.095  1.00  0.00     0.074 A 
ATOM     63  C   UNL A   1      42.750  29.665  35.432  1.00  0.00     0.031 C 
ATOM     64  C   UNL A   1      43.594  28.273  33.562  1.00  0.00     0.037 A 
BRANCH  51  65
ATOM     65  C   UNL A   1      42.258  26.403  27.828  1.00  0.00     0.064 A 
ATOM     66  C   UNL A   1      43.172  26.838  26.856  1.00  0.00     0.173 A 
ATOM     67  C   UNL A   1      41.732  25.107  27.697  1.00  0.00     0.173 A 
ATOM     68  F   UNL A   1      43.700  28.068  26.928  1.00  0.00    -0.203 F 
ATOM     69  C   UNL A   1      43.519  26.022  25.781  1.00  0.00     0.198 A 
ATOM     70  C   UNL A   1      42.108  24.282  26.640  1.00  0.00     0.198 A 
ATOM     71  F   UNL A   1      40.862  24.635  28.603  1.00  0.00    -0.203 F 
ATOM     72  F   UNL A   1      44.353  26.481  24.837  1.00  0.00    -0.200 F 
ATOM     73  C   UNL A   1      42.993  24.744  25.678  1.00  0.00     0.200 A 
ATOM     74  F   UNL A   1      41.613  23.040  26.553  1.00  0.00    -0.200 F 
ATOM     75  F   UNL A   1      43.335  23.957  24.648  1.00  0.00    -0.200 F 
ENDBRANCH  51  65
BRANCH  52  76
ATOM     76  C   UNL A   1      39.275  32.054  35.488  1.00  0.00     0.064 A 
ATOM     77  C   UNL A   1      39.673  33.390  35.634  1.00  0.00     0.173 A 
ATOM     78  C   UNL A   1      38.453  31.507  36.485  1.00  0.00     0.173 A 
ATOM     79  F   UNL A   1      40.479  33.951  34.720  1.00  0.00    -0.203 F 
ATOM     80  C   UNL A   1      39.287  34.141  36.742  1.00  0.00     0.198 A 
ATOM     81  C   UNL A   1      38.040  32.269  37.577  1.00  0.00     0.198 A 
ATOM     82  F   UNL A   1      38.040  30.234  36.393  1.00  0.00    -0.203 F 
ATOM     83  F   UNL A   1      39.727  35.399  36.883  1.00  0.00    -0.200 F 
ATOM     84  C   UNL A   1      38.465  33.582  37.710  1.00  0.00     0.200 A 
ATOM     85  F   UNL A   1      37.233  31.730  38.500  1.00  0.00    -0.200 F 
ATOM     86  F   UNL A   1      38.092  34.305  38.774  1.00  0.00    -0.200 F 
ENDBRANCH  52  76
BRANCH  64  87
ATOM     87  C   UNL A   1      44.798  27.934  34.396  1.00  0.00     0.064 A 
ATOM     88  C   UNL A   1      44.832  26.810  35.233  1.00  0.00     0.173 A 
ATOM     89  C   UNL A   1      45.957  28.721  34.310  1.00  0.00     0.173 A 
ATOM     90  F   UNL A   1      43.747  26.031  35.364  1.00  0.00    -0.203 F 
ATOM     91  C   UNL A   1      45.973  26.498  35.968  1.00  0.00     0.198 A 
ATOM     92  C   UNL A   1      47.108  28.388  35.020  1.00  0.00     0.198 A 
ATOM     93  F   UNL A   1      45.981  29.806  33.520  1.00  0.00    -0.203 F 
ATOM     94  F   UNL A   1      45.968  25.444  36.796  1.00  0.00    -0.200 F 
ATOM     95  C   UNL A   1      47.113  27.281  35.853  1.00  0.00     0.200 A 
ATOM     96  F   UNL A   1      48.212  29.137  34.893  1.00  0.00    -0.200 F 
ATOM     97  F   UNL A   1      48.215  26.970  36.549  1.00  0.00    -0.200 F 
ENDBRANCH  64  87
ENDBRANCH  38  39
ENDBRANCH  30  33
ENDBRANCH  28  29
ENDBRANCH  27  28
ENDBRANCH   1  27
TORSDOF 15
ENDMDL
