MODEL 1
REMARK VINA RESULT:     -12.0      0.000      0.000
REMARK SMILES CNC(=O)NC1=[NH+]N=CN[C@@H]1C(=O)NCCCNC(=O)c1ccc(-c2c3nc(c(-c4c(F)c(F)c(F)c(F)c4F)c4ccc([nH]4)c(-c4c(F)c(F)c(F)c(F)c4F)c4nc(c(-c5c(F)c(F)c(F)c(F)c5F)c5ccc2[nH]5)C=C4)C=C3)cc1
REMARK SMILES IDX 17 1 16 2 15 3 14 4 12 5 13 6 11 8 1 9 2 10 3 11 4 13 5 14
REMARK SMILES IDX 6 15 7 17 8 18 10 20 9 21 18 23 19 24 20 26 21 27 22 28
REMARK SMILES IDX 83 29 23 30 82 31 24 32 25 33 26 34 76 35 27 36 81 37 75 38
REMARK SMILES IDX 77 39 28 40 80 41 74 42 73 43 29 45 61 46 41 47 60 48 42 49
REMARK SMILES IDX 45 50 59 51 78 52 43 53 44 54 58 56 79 57 46 58 30 59 31 60
REMARK SMILES IDX 39 61 32 62 33 63 37 64 40 65 34 66 35 67 38 68 36 69 62 70
REMARK SMILES IDX 63 71 71 72 64 73 65 74 69 75 72 76 66 77 67 78 70 79 68 80
REMARK SMILES IDX 47 81 48 82 56 83 49 84 50 85 54 86 57 87 51 88 52 89 55 90
REMARK SMILES IDX 53 91
REMARK H PARENT 14 7 2 12 5 16 7 19 10 22 18 25 77 44 45 55
REMARK Flexibility Score: inf
ROOT
ATOM      1  C   UNL A   1      34.642  32.591  28.723  1.00  0.00     0.118 C 
ENDROOT
BRANCH   1   2
ATOM      2  C   UNL A   1      34.159  33.794  27.924  1.00  0.00     0.042 C 
BRANCH   2   3
ATOM      3  C   UNL A   1      34.305  35.111  28.673  1.00  0.00     0.117 C 
BRANCH   3   4
ATOM      4  N   UNL A   1      33.079  35.493  29.345  1.00  0.00    -0.354 N 
ATOM      5  C   UNL A   1      32.875  35.990  30.598  1.00  0.00     0.255 C 
ATOM      6  O   UNL A   1      31.698  36.104  30.960  1.00  0.00    -0.272 OA
ATOM      7  H   UNL A   1      32.261  35.374  28.810  1.00  0.00     0.163 HD
BRANCH   5   8
ATOM      8  C   UNL A   1      34.019  36.328  31.567  1.00  0.00     0.287 C 
ATOM      9  C   UNL A   1      36.811  34.696  32.387  1.00  0.00     0.147 C 
ATOM     10  N   UNL A   1      35.874  33.699  31.902  1.00  0.00    -0.321 N 
ATOM     11  C   UNL A   1      34.613  33.430  32.332  1.00  0.00     0.406 C 
ATOM     12  H   UNL A   1      36.198  33.139  31.159  1.00  0.00     0.167 HD
ATOM     13  O   UNL A   1      34.074  32.367  32.047  1.00  0.00    -0.221 OA
ATOM     14  N   UNL A   1      33.997  34.354  33.124  1.00  0.00    -0.191 N 
ATOM     15  C   UNL A   1      33.874  35.709  32.954  1.00  0.00     0.309 C 
ATOM     16  H   UNL A   1      33.581  33.994  33.940  1.00  0.00     0.317 HD
ATOM     17  N   UNL A   1      33.666  36.382  34.045  1.00  0.00    -0.148 N 
ATOM     18  N   UNL A   1      33.710  37.790  34.001  1.00  0.00    -0.077 NA
ATOM     19  H   UNL A   1      33.479  35.915  34.892  1.00  0.00     0.342 HD
ATOM     20  N   UNL A   1      34.191  37.767  31.678  1.00  0.00    -0.352 N 
ATOM     21  C   UNL A   1      34.000  38.364  32.880  1.00  0.00     0.241 C 
ATOM     22  H   UNL A   1      34.443  38.302  30.890  1.00  0.00     0.163 HD
ENDBRANCH   5   8
ENDBRANCH   3   4
ENDBRANCH   2   3
ENDBRANCH   1   2
BRANCH   1  23
ATOM     23  N   UNL A   1      34.000  31.352  28.305  1.00  0.00    -0.352 N 
ATOM     24  C   UNL A   1      34.547  30.136  27.989  1.00  0.00     0.251 C 
ATOM     25  H   UNL A   1      33.018  31.395  28.239  1.00  0.00     0.163 HD
ATOM     26  O   UNL A   1      33.863  29.281  27.439  1.00  0.00    -0.269 OA
BRANCH  24  27
ATOM     27  C   UNL A   1      35.961  29.855  28.309  1.00  0.00     0.039 A 
ATOM     28  C   UNL A   1      36.283  29.369  29.577  1.00  0.00     0.014 A 
ATOM     29  C   UNL A   1      36.967  30.103  27.372  1.00  0.00     0.014 A 
ATOM     30  C   UNL A   1      37.613  29.085  29.888  1.00  0.00     0.010 A 
ATOM     31  C   UNL A   1      38.277  29.731  27.650  1.00  0.00     0.010 A 
ATOM     32  C   UNL A   1      38.615  29.236  28.917  1.00  0.00    -0.014 A 
BRANCH  32  33
ATOM     33  C   UNL A   1      40.029  28.905  29.216  1.00  0.00     0.031 A 
ATOM     34  C   UNL A   1      40.879  29.872  29.994  1.00  0.00     0.074 A 
ATOM     35  C   UNL A   1      40.559  27.762  28.740  1.00  0.00     0.049 A 
ATOM     36  N   UNL A   1      42.146  29.790  30.314  1.00  0.00    -0.248 NA
ATOM     37  C   UNL A   1      40.227  31.111  30.447  1.00  0.00     0.031 C 
ATOM     38  C   UNL A   1      39.846  26.775  27.928  1.00  0.00     0.029 A 
ATOM     39  N   UNL A   1      41.821  27.241  28.865  1.00  0.00    -0.354 N 
ATOM     40  C   UNL A   1      42.440  30.967  30.989  1.00  0.00     0.074 A 
ATOM     41  C   UNL A   1      41.242  31.776  30.976  1.00  0.00     0.031 C 
ATOM     42  C   UNL A   1      40.672  25.753  27.654  1.00  0.00     0.029 A 
ATOM     43  C   UNL A   1      41.981  26.031  28.236  1.00  0.00     0.049 A 
ATOM     44  H   UNL A   1      42.544  27.691  29.359  1.00  0.00     0.167 HD
ATOM     45  C   UNL A   1      43.598  31.327  31.592  1.00  0.00     0.037 A 
ATOM     46  C   UNL A   1      43.065  25.238  28.138  1.00  0.00     0.037 A 
ATOM     47  C   UNL A   1      44.778  30.503  31.623  1.00  0.00     0.049 A 
ATOM     48  C   UNL A   1      44.341  25.664  28.813  1.00  0.00     0.074 A 
ATOM     49  C   UNL A   1      45.984  30.745  32.256  1.00  0.00     0.029 A 
ATOM     50  N   UNL A   1      44.897  29.275  30.987  1.00  0.00    -0.354 N 
ATOM     51  N   UNL A   1      44.587  26.745  29.514  1.00  0.00    -0.248 NA
ATOM     52  C   UNL A   1      45.488  24.754  28.691  1.00  0.00     0.031 C 
ATOM     53  C   UNL A   1      46.852  29.689  31.959  1.00  0.00     0.029 A 
ATOM     54  C   UNL A   1      46.168  28.760  31.192  1.00  0.00     0.049 A 
ATOM     55  H   UNL A   1      44.186  28.836  30.467  1.00  0.00     0.167 HD
ATOM     56  C   UNL A   1      45.904  26.632  29.941  1.00  0.00     0.074 A 
ATOM     57  C   UNL A   1      46.398  25.367  29.434  1.00  0.00     0.031 C 
ATOM     58  C   UNL A   1      46.638  27.495  30.684  1.00  0.00     0.037 A 
BRANCH  45  59
ATOM     59  C   UNL A   1      43.643  32.668  32.269  1.00  0.00     0.064 A 
ATOM     60  C   UNL A   1      44.035  33.828  31.583  1.00  0.00     0.173 A 
ATOM     61  C   UNL A   1      43.260  32.801  33.612  1.00  0.00     0.173 A 
ATOM     62  F   UNL A   1      44.423  33.756  30.300  1.00  0.00    -0.203 F 
ATOM     63  C   UNL A   1      44.074  35.063  32.226  1.00  0.00     0.198 A 
ATOM     64  C   UNL A   1      43.268  34.043  34.242  1.00  0.00     0.198 A 
ATOM     65  F   UNL A   1      42.873  31.725  34.316  1.00  0.00    -0.203 F 
ATOM     66  F   UNL A   1      44.507  36.146  31.564  1.00  0.00    -0.200 F 
ATOM     67  C   UNL A   1      43.684  35.171  33.551  1.00  0.00     0.200 A 
ATOM     68  F   UNL A   1      42.876  34.147  35.520  1.00  0.00    -0.200 F 
ATOM     69  F   UNL A   1      43.715  36.361  34.166  1.00  0.00    -0.200 F 
ENDBRANCH  45  59
BRANCH  46  70
ATOM     70  C   UNL A   1      42.982  23.952  27.397  1.00  0.00     0.064 A 
ATOM     71  C   UNL A   1      43.336  23.878  26.042  1.00  0.00     0.173 A 
ATOM     72  C   UNL A   1      42.546  22.775  28.021  1.00  0.00     0.173 A 
ATOM     73  F   UNL A   1      43.741  24.980  25.394  1.00  0.00    -0.203 F 
ATOM     74  C   UNL A   1      43.232  22.682  25.335  1.00  0.00     0.198 A 
ATOM     75  C   UNL A   1      42.472  21.572  27.321  1.00  0.00     0.198 A 
ATOM     76  F   UNL A   1      42.203  22.789  29.318  1.00  0.00    -0.203 F 
ATOM     77  F   UNL A   1      43.528  22.651  24.028  1.00  0.00    -0.200 F 
ATOM     78  C   UNL A   1      42.806  21.529  25.976  1.00  0.00     0.200 A 
ATOM     79  F   UNL A   1      42.077  20.457  27.949  1.00  0.00    -0.200 F 
ATOM     80  F   UNL A   1      42.709  20.378  25.296  1.00  0.00    -0.200 F 
ENDBRANCH  46  70
BRANCH  58  81
ATOM     81  C   UNL A   1      48.041  27.086  31.028  1.00  0.00     0.064 A 
ATOM     82  C   UNL A   1      48.323  26.283  32.141  1.00  0.00     0.173 A 
ATOM     83  C   UNL A   1      49.112  27.471  30.207  1.00  0.00     0.173 A 
ATOM     84  F   UNL A   1      47.337  25.901  32.967  1.00  0.00    -0.203 F 
ATOM     85  C   UNL A   1      49.630  25.903  32.438  1.00  0.00     0.198 A 
ATOM     86  C   UNL A   1      50.412  27.062  30.485  1.00  0.00     0.198 A 
ATOM     87  F   UNL A   1      48.895  28.234  29.124  1.00  0.00    -0.203 F 
ATOM     88  F   UNL A   1      49.883  25.179  33.536  1.00  0.00    -0.200 F 
ATOM     89  C   UNL A   1      50.671  26.285  31.605  1.00  0.00     0.200 A 
ATOM     90  F   UNL A   1      51.415  27.418  29.670  1.00  0.00    -0.200 F 
ATOM     91  F   UNL A   1      51.927  25.911  31.886  1.00  0.00    -0.200 F 
ENDBRANCH  58  81
ENDBRANCH  32  33
ENDBRANCH  24  27
ENDBRANCH   1  23
TORSDOF 10
ENDMDL
MODEL 2
REMARK VINA RESULT:     -12.0      1.887      2.417
REMARK SMILES CNC(=O)NC1=[NH+]N=CN[C@@H]1C(=O)NCCCNC(=O)c1ccc(-c2c3nc(c(-c4c(F)c(F)c(F)c(F)c4F)c4ccc([nH]4)c(-c4c(F)c(F)c(F)c(F)c4F)c4nc(c(-c5c(F)c(F)c(F)c(F)c5F)c5ccc2[nH]5)C=C4)C=C3)cc1
REMARK SMILES IDX 17 1 16 2 15 3 14 4 12 5 13 6 11 8 1 9 2 10 3 11 4 13 5 14
REMARK SMILES IDX 6 15 7 17 8 18 10 20 9 21 18 23 19 24 20 26 21 27 22 28
REMARK SMILES IDX 83 29 23 30 82 31 24 32 25 33 26 34 76 35 27 36 81 37 75 38
REMARK SMILES IDX 77 39 28 40 80 41 74 42 73 43 29 45 61 46 41 47 60 48 42 49
REMARK SMILES IDX 45 50 59 51 78 52 43 53 44 54 58 56 79 57 46 58 30 59 31 60
REMARK SMILES IDX 39 61 32 62 33 63 37 64 40 65 34 66 35 67 38 68 36 69 62 70
REMARK SMILES IDX 63 71 71 72 64 73 65 74 69 75 72 76 66 77 67 78 70 79 68 80
REMARK SMILES IDX 47 81 48 82 56 83 49 84 50 85 54 86 57 87 51 88 52 89 55 90
REMARK SMILES IDX 53 91
REMARK H PARENT 14 7 2 12 5 16 7 19 10 22 18 25 77 44 45 55
REMARK Flexibility Score: inf
ROOT
ATOM      1  C   UNL A   1      34.199  32.993  28.691  1.00  0.00     0.118 C 
ENDROOT
BRANCH   1   2
ATOM      2  C   UNL A   1      34.759  34.160  27.889  1.00  0.00     0.042 C 
BRANCH   2   3
ATOM      3  C   UNL A   1      34.312  35.518  28.412  1.00  0.00     0.117 C 
BRANCH   3   4
ATOM      4  N   UNL A   1      33.125  35.418  29.238  1.00  0.00    -0.354 N 
ATOM      5  C   UNL A   1      32.963  35.599  30.579  1.00  0.00     0.255 C 
ATOM      6  O   UNL A   1      31.852  35.318  31.043  1.00  0.00    -0.272 OA
ATOM      7  H   UNL A   1      32.302  35.183  28.751  1.00  0.00     0.163 HD
BRANCH   5   8
ATOM      8  C   UNL A   1      34.099  36.050  31.511  1.00  0.00     0.287 C 
ATOM      9  C   UNL A   1      37.022  34.658  32.313  1.00  0.00     0.147 C 
ATOM     10  N   UNL A   1      36.154  33.580  31.878  1.00  0.00    -0.321 N 
ATOM     11  C   UNL A   1      34.925  33.230  32.344  1.00  0.00     0.406 C 
ATOM     12  H   UNL A   1      36.503  33.023  31.144  1.00  0.00     0.167 HD
ATOM     13  O   UNL A   1      34.462  32.121  32.102  1.00  0.00    -0.221 OA
ATOM     14  N   UNL A   1      34.258  34.128  33.124  1.00  0.00    -0.191 N 
ATOM     15  C   UNL A   1      34.029  35.464  32.918  1.00  0.00     0.309 C 
ATOM     16  H   UNL A   1      33.888  33.763  33.959  1.00  0.00     0.317 HD
ATOM     17  N   UNL A   1      33.794  36.152  33.995  1.00  0.00    -0.148 N 
ATOM     18  N   UNL A   1      33.730  37.558  33.910  1.00  0.00    -0.077 NA
ATOM     19  H   UNL A   1      33.661  35.698  34.859  1.00  0.00     0.342 HD
ATOM     20  N   UNL A   1      34.163  37.502  31.578  1.00  0.00    -0.352 N 
ATOM     21  C   UNL A   1      33.952  38.117  32.767  1.00  0.00     0.241 C 
ATOM     22  H   UNL A   1      34.358  38.030  30.770  1.00  0.00     0.163 HD
ENDBRANCH   5   8
ENDBRANCH   3   4
ENDBRANCH   2   3
ENDBRANCH   1   2
BRANCH   1  23
ATOM     23  N   UNL A   1      33.672  31.935  27.839  1.00  0.00    -0.352 N 
ATOM     24  C   UNL A   1      34.259  30.773  27.408  1.00  0.00     0.251 C 
ATOM     25  H   UNL A   1      32.751  32.077  27.522  1.00  0.00     0.163 HD
ATOM     26  O   UNL A   1      33.739  30.120  26.511  1.00  0.00    -0.269 OA
BRANCH  24  27
ATOM     27  C   UNL A   1      35.517  30.307  28.025  1.00  0.00     0.039 A 
ATOM     28  C   UNL A   1      36.712  30.461  27.320  1.00  0.00     0.014 A 
ATOM     29  C   UNL A   1      35.512  29.692  29.279  1.00  0.00     0.014 A 
ATOM     30  C   UNL A   1      37.911  30.040  27.897  1.00  0.00     0.010 A 
ATOM     31  C   UNL A   1      36.714  29.360  29.890  1.00  0.00     0.010 A 
ATOM     32  C   UNL A   1      37.923  29.513  29.198  1.00  0.00    -0.014 A 
BRANCH  32  33
ATOM     33  C   UNL A   1      39.191  29.093  29.842  1.00  0.00     0.031 A 
ATOM     34  C   UNL A   1      39.684  29.808  31.070  1.00  0.00     0.074 A 
ATOM     35  C   UNL A   1      39.922  28.107  29.289  1.00  0.00     0.049 A 
ATOM     36  N   UNL A   1      40.788  29.625  31.748  1.00  0.00    -0.248 NA
ATOM     37  C   UNL A   1      38.838  30.896  31.587  1.00  0.00     0.031 C 
ATOM     38  C   UNL A   1      39.571  27.378  28.068  1.00  0.00     0.029 A 
ATOM     39  N   UNL A   1      41.114  27.551  29.676  1.00  0.00    -0.354 N 
ATOM     40  C   UNL A   1      40.773  30.579  32.757  1.00  0.00     0.074 A 
ATOM     41  C   UNL A   1      39.587  31.382  32.565  1.00  0.00     0.031 C 
ATOM     42  C   UNL A   1      40.510  26.451  27.825  1.00  0.00     0.029 A 
ATOM     43  C   UNL A   1      41.547  26.545  28.847  1.00  0.00     0.049 A 
ATOM     44  H   UNL A   1      41.612  27.844  30.474  1.00  0.00     0.167 HD
ATOM     45  C   UNL A   1      41.655  30.750  33.770  1.00  0.00     0.037 A 
ATOM     46  C   UNL A   1      42.659  25.789  28.905  1.00  0.00     0.037 A 
ATOM     47  C   UNL A   1      42.820  29.929  33.968  1.00  0.00     0.049 A 
ATOM     48  C   UNL A   1      43.626  26.002  30.039  1.00  0.00     0.074 A 
ATOM     49  C   UNL A   1      43.746  29.977  34.995  1.00  0.00     0.029 A 
ATOM     50  N   UNL A   1      43.218  28.908  33.116  1.00  0.00    -0.354 N 
ATOM     51  N   UNL A   1      43.564  26.858  31.031  1.00  0.00    -0.248 NA
ATOM     52  C   UNL A   1      44.814  25.138  30.066  1.00  0.00     0.031 C 
ATOM     53  C   UNL A   1      44.734  29.022  34.736  1.00  0.00     0.029 A 
ATOM     54  C   UNL A   1      44.392  28.337  33.581  1.00  0.00     0.049 A 
ATOM     55  H   UNL A   1      42.739  28.632  32.302  1.00  0.00     0.167 HD
ATOM     56  C   UNL A   1      44.684  26.616  31.815  1.00  0.00     0.074 A 
ATOM     57  C   UNL A   1      45.399  25.521  31.191  1.00  0.00     0.031 C 
ATOM     58  C   UNL A   1      45.085  27.242  32.948  1.00  0.00     0.037 A 
BRANCH  45  59
ATOM     59  C   UNL A   1      41.392  31.866  34.742  1.00  0.00     0.064 A 
ATOM     60  C   UNL A   1      42.000  33.123  34.604  1.00  0.00     0.173 A 
ATOM     61  C   UNL A   1      40.496  31.686  35.807  1.00  0.00     0.173 A 
ATOM     62  F   UNL A   1      42.874  33.346  33.610  1.00  0.00    -0.203 F 
ATOM     63  C   UNL A   1      41.748  34.146  35.515  1.00  0.00     0.198 A 
ATOM     64  C   UNL A   1      40.220  32.722  36.695  1.00  0.00     0.198 A 
ATOM     65  F   UNL A   1      39.882  30.506  35.984  1.00  0.00    -0.203 F 
ATOM     66  F   UNL A   1      42.385  35.320  35.395  1.00  0.00    -0.200 F 
ATOM     67  C   UNL A   1      40.853  33.948  36.555  1.00  0.00     0.200 A 
ATOM     68  F   UNL A   1      39.343  32.532  37.691  1.00  0.00    -0.200 F 
ATOM     69  F   UNL A   1      40.605  34.935  37.426  1.00  0.00    -0.200 F 
ENDBRANCH  45  59
BRANCH  46  70
ATOM     70  C   UNL A   1      42.903  24.744  27.877  1.00  0.00     0.064 A 
ATOM     71  C   UNL A   1      43.507  25.065  26.653  1.00  0.00     0.173 A 
ATOM     72  C   UNL A   1      42.537  23.407  28.091  1.00  0.00     0.173 A 
ATOM     73  F   UNL A   1      43.859  26.332  26.392  1.00  0.00    -0.203 F 
ATOM     74  C   UNL A   1      43.712  24.095  25.673  1.00  0.00     0.198 A 
ATOM     75  C   UNL A   1      42.770  22.432  27.124  1.00  0.00     0.198 A 
ATOM     76  F   UNL A   1      41.964  23.044  29.248  1.00  0.00    -0.203 F 
ATOM     77  F   UNL A   1      44.243  24.440  24.493  1.00  0.00    -0.200 F 
ATOM     78  C   UNL A   1      43.348  22.779  25.912  1.00  0.00     0.200 A 
ATOM     79  F   UNL A   1      42.434  21.158  27.364  1.00  0.00    -0.200 F 
ATOM     80  F   UNL A   1      43.548  21.845  24.971  1.00  0.00    -0.200 F 
ENDBRANCH  46  70
BRANCH  58  81
ATOM     81  C   UNL A   1      46.334  26.735  33.609  1.00  0.00     0.064 A 
ATOM     82  C   UNL A   1      46.301  25.697  34.551  1.00  0.00     0.173 A 
ATOM     83  C   UNL A   1      47.585  27.269  33.264  1.00  0.00     0.173 A 
ATOM     84  F   UNL A   1      45.129  25.163  34.927  1.00  0.00    -0.203 F 
ATOM     85  C   UNL A   1      47.471  25.232  35.145  1.00  0.00     0.198 A 
ATOM     86  C   UNL A   1      48.756  26.778  33.833  1.00  0.00     0.198 A 
ATOM     87  F   UNL A   1      47.673  28.259  32.362  1.00  0.00    -0.203 F 
ATOM     88  F   UNL A   1      47.411  24.275  36.081  1.00  0.00    -0.200 F 
ATOM     89  C   UNL A   1      48.697  25.766  34.779  1.00  0.00     0.200 A 
ATOM     90  F   UNL A   1      49.942  27.284  33.465  1.00  0.00    -0.200 F 
ATOM     91  F   UNL A   1      49.824  25.310  35.344  1.00  0.00    -0.200 F 
ENDBRANCH  58  81
ENDBRANCH  32  33
ENDBRANCH  24  27
ENDBRANCH   1  23
TORSDOF 10
ENDMDL
MODEL 3
REMARK VINA RESULT:     -11.9      0.215      1.663
REMARK SMILES CNC(=O)NC1=[NH+]N=CN[C@@H]1C(=O)NCCCNC(=O)c1ccc(-c2c3nc(c(-c4c(F)c(F)c(F)c(F)c4F)c4ccc([nH]4)c(-c4c(F)c(F)c(F)c(F)c4F)c4nc(c(-c5c(F)c(F)c(F)c(F)c5F)c5ccc2[nH]5)C=C4)C=C3)cc1
REMARK SMILES IDX 17 1 16 2 15 3 14 4 12 5 13 6 11 8 1 9 2 10 3 11 4 13 5 14
REMARK SMILES IDX 6 15 7 17 8 18 10 20 9 21 18 23 19 24 20 26 21 27 22 28
REMARK SMILES IDX 83 29 23 30 82 31 24 32 25 33 26 34 76 35 27 36 81 37 75 38
REMARK SMILES IDX 77 39 28 40 80 41 74 42 73 43 29 45 61 46 41 47 60 48 42 49
REMARK SMILES IDX 45 50 59 51 78 52 43 53 44 54 58 56 79 57 46 58 30 59 31 60
REMARK SMILES IDX 39 61 32 62 33 63 37 64 40 65 34 66 35 67 38 68 36 69 62 70
REMARK SMILES IDX 63 71 71 72 64 73 65 74 69 75 72 76 66 77 67 78 70 79 68 80
REMARK SMILES IDX 47 81 48 82 56 83 49 84 50 85 54 86 57 87 51 88 52 89 55 90
REMARK SMILES IDX 53 91
REMARK H PARENT 14 7 2 12 5 16 7 19 10 22 18 25 77 44 45 55
REMARK Flexibility Score: inf
ROOT
ATOM      1  C   UNL A   1      34.796  32.505  28.270  1.00  0.00     0.118 C 
ENDROOT
BRANCH   1   2
ATOM      2  C   UNL A   1      33.930  33.688  27.855  1.00  0.00     0.042 C 
BRANCH   2   3
ATOM      3  C   UNL A   1      34.209  34.948  28.663  1.00  0.00     0.117 C 
BRANCH   3   4
ATOM      4  N   UNL A   1      33.019  35.442  29.327  1.00  0.00    -0.354 N 
ATOM      5  C   UNL A   1      32.861  36.001  30.560  1.00  0.00     0.255 C 
ATOM      6  O   UNL A   1      31.699  36.213  30.925  1.00  0.00    -0.272 OA
ATOM      7  H   UNL A   1      32.189  35.361  28.802  1.00  0.00     0.163 HD
BRANCH   5   8
ATOM      8  C   UNL A   1      34.036  36.295  31.507  1.00  0.00     0.287 C 
ATOM      9  C   UNL A   1      36.889  34.673  32.104  1.00  0.00     0.147 C 
ATOM     10  N   UNL A   1      35.954  33.692  31.583  1.00  0.00    -0.321 N 
ATOM     11  C   UNL A   1      34.716  33.364  32.039  1.00  0.00     0.406 C 
ATOM     12  H   UNL A   1      36.260  33.194  30.791  1.00  0.00     0.167 HD
ATOM     13  O   UNL A   1      34.187  32.312  31.699  1.00  0.00    -0.221 OA
ATOM     14  N   UNL A   1      34.113  34.215  32.918  1.00  0.00    -0.191 N 
ATOM     15  C   UNL A   1      33.956  35.576  32.850  1.00  0.00     0.309 C 
ATOM     16  H   UNL A   1      33.736  33.789  33.721  1.00  0.00     0.317 HD
ATOM     17  N   UNL A   1      33.777  36.165  33.995  1.00  0.00    -0.148 N 
ATOM     18  N   UNL A   1      33.791  37.573  34.050  1.00  0.00    -0.077 NA
ATOM     19  H   UNL A   1      33.633  35.635  34.812  1.00  0.00     0.342 HD
ATOM     20  N   UNL A   1      34.183  37.727  31.716  1.00  0.00    -0.352 N 
ATOM     21  C   UNL A   1      34.026  38.231  32.964  1.00  0.00     0.241 C 
ATOM     22  H   UNL A   1      34.394  38.322  30.959  1.00  0.00     0.163 HD
ENDBRANCH   5   8
ENDBRANCH   3   4
ENDBRANCH   2   3
ENDBRANCH   1   2
BRANCH   1  23
ATOM     23  N   UNL A   1      34.115  31.229  28.089  1.00  0.00    -0.352 N 
ATOM     24  C   UNL A   1      34.629  29.965  27.958  1.00  0.00     0.251 C 
ATOM     25  H   UNL A   1      33.133  31.284  28.056  1.00  0.00     0.163 HD
ATOM     26  O   UNL A   1      33.908  29.047  27.586  1.00  0.00    -0.269 OA
BRANCH  24  27
ATOM     27  C   UNL A   1      36.050  29.708  28.265  1.00  0.00     0.039 A 
ATOM     28  C   UNL A   1      36.399  29.285  29.549  1.00  0.00     0.014 A 
ATOM     29  C   UNL A   1      37.037  29.916  27.299  1.00  0.00     0.014 A 
ATOM     30  C   UNL A   1      37.736  29.024  29.848  1.00  0.00     0.010 A 
ATOM     31  C   UNL A   1      38.354  29.566  27.570  1.00  0.00     0.010 A 
ATOM     32  C   UNL A   1      38.719  29.134  28.853  1.00  0.00    -0.014 A 
BRANCH  32  33
ATOM     33  C   UNL A   1      40.141  28.827  29.141  1.00  0.00     0.031 A 
ATOM     34  C   UNL A   1      40.985  29.814  29.899  1.00  0.00     0.074 A 
ATOM     35  C   UNL A   1      40.681  27.685  28.674  1.00  0.00     0.049 A 
ATOM     36  N   UNL A   1      42.256  29.753  30.206  1.00  0.00    -0.248 NA
ATOM     37  C   UNL A   1      40.321  31.050  30.343  1.00  0.00     0.031 C 
ATOM     38  C   UNL A   1      39.973  26.678  27.881  1.00  0.00     0.029 A 
ATOM     39  N   UNL A   1      41.951  27.182  28.792  1.00  0.00    -0.354 N 
ATOM     40  C   UNL A   1      42.541  30.943  30.863  1.00  0.00     0.074 A 
ATOM     41  C   UNL A   1      41.332  31.735  30.853  1.00  0.00     0.031 C 
ATOM     42  C   UNL A   1      40.810  25.664  27.611  1.00  0.00     0.029 A 
ATOM     43  C   UNL A   1      42.121  25.967  28.176  1.00  0.00     0.049 A 
ATOM     44  H   UNL A   1      42.673  27.649  29.273  1.00  0.00     0.167 HD
ATOM     45  C   UNL A   1      43.701  31.326  31.449  1.00  0.00     0.037 A 
ATOM     46  C   UNL A   1      43.214  25.188  28.076  1.00  0.00     0.037 A 
ATOM     47  C   UNL A   1      44.892  30.519  31.478  1.00  0.00     0.049 A 
ATOM     48  C   UNL A   1      44.491  25.639  28.732  1.00  0.00     0.074 A 
ATOM     49  C   UNL A   1      46.100  30.785  32.095  1.00  0.00     0.029 A 
ATOM     50  N   UNL A   1      45.021  29.284  30.856  1.00  0.00    -0.354 N 
ATOM     51  N   UNL A   1      44.730  26.732  29.417  1.00  0.00    -0.248 NA
ATOM     52  C   UNL A   1      45.650  24.743  28.609  1.00  0.00     0.031 C 
ATOM     53  C   UNL A   1      46.980  29.737  31.803  1.00  0.00     0.029 A 
ATOM     54  C   UNL A   1      46.300  28.789  31.054  1.00  0.00     0.049 A 
ATOM     55  H   UNL A   1      44.311  28.829  30.349  1.00  0.00     0.167 HD
ATOM     56  C   UNL A   1      46.053  26.642  29.832  1.00  0.00     0.074 A 
ATOM     57  C   UNL A   1      46.559  25.378  29.335  1.00  0.00     0.031 C 
ATOM     58  C   UNL A   1      46.782  27.525  30.557  1.00  0.00     0.037 A 
BRANCH  45  59
ATOM     59  C   UNL A   1      43.734  32.676  32.110  1.00  0.00     0.064 A 
ATOM     60  C   UNL A   1      43.406  32.842  33.465  1.00  0.00     0.173 A 
ATOM     61  C   UNL A   1      44.127  33.812  31.388  1.00  0.00     0.173 A 
ATOM     62  F   UNL A   1      43.012  31.790  34.199  1.00  0.00    -0.203 F 
ATOM     63  C   UNL A   1      43.439  34.099  34.061  1.00  0.00     0.198 A 
ATOM     64  C   UNL A   1      44.192  35.063  31.997  1.00  0.00     0.198 A 
ATOM     65  F   UNL A   1      44.455  33.711  30.091  1.00  0.00    -0.203 F 
ATOM     66  F   UNL A   1      43.067  34.241  35.342  1.00  0.00    -0.200 F 
ATOM     67  C   UNL A   1      43.839  35.207  33.330  1.00  0.00     0.200 A 
ATOM     68  F   UNL A   1      44.592  36.130  31.292  1.00  0.00    -0.200 F 
ATOM     69  F   UNL A   1      43.877  36.415  33.908  1.00  0.00    -0.200 F 
ENDBRANCH  45  59
BRANCH  46  70
ATOM     70  C   UNL A   1      43.142  23.892  27.352  1.00  0.00     0.064 A 
ATOM     71  C   UNL A   1      43.554  23.790  26.016  1.00  0.00     0.173 A 
ATOM     72  C   UNL A   1      42.657  22.732  27.974  1.00  0.00     0.173 A 
ATOM     73  F   UNL A   1      44.008  24.874  25.370  1.00  0.00    -0.203 F 
ATOM     74  C   UNL A   1      43.461  22.585  25.323  1.00  0.00     0.198 A 
ATOM     75  C   UNL A   1      42.593  21.520  27.290  1.00  0.00     0.198 A 
ATOM     76  F   UNL A   1      42.257  22.773  29.254  1.00  0.00    -0.203 F 
ATOM     77  F   UNL A   1      43.814  22.528  24.032  1.00  0.00    -0.200 F 
ATOM     78  C   UNL A   1      42.985  21.450  25.962  1.00  0.00     0.200 A 
ATOM     79  F   UNL A   1      42.149  20.422  27.916  1.00  0.00    -0.200 F 
ATOM     80  F   UNL A   1      42.899  20.290  25.296  1.00  0.00    -0.200 F 
ENDBRANCH  46  70
BRANCH  58  81
ATOM     81  C   UNL A   1      48.195  27.139  30.891  1.00  0.00     0.064 A 
ATOM     82  C   UNL A   1      49.278  27.554  30.104  1.00  0.00     0.173 A 
ATOM     83  C   UNL A   1      48.469  26.379  32.038  1.00  0.00     0.173 A 
ATOM     84  F   UNL A   1      49.068  28.270  28.988  1.00  0.00    -0.203 F 
ATOM     85  C   UNL A   1      50.583  27.197  30.436  1.00  0.00     0.198 A 
ATOM     86  C   UNL A   1      49.776  26.053  32.387  1.00  0.00     0.198 A 
ATOM     87  F   UNL A   1      47.468  25.963  32.829  1.00  0.00    -0.203 F 
ATOM     88  F   UNL A   1      51.598  27.560  29.641  1.00  0.00    -0.200 F 
ATOM     89  C   UNL A   1      50.831  26.455  31.581  1.00  0.00     0.200 A 
ATOM     90  F   UNL A   1      50.015  25.350  33.503  1.00  0.00    -0.200 F 
ATOM     91  F   UNL A   1      52.087  26.121  31.905  1.00  0.00    -0.200 F 
ENDBRANCH  58  81
ENDBRANCH  32  33
ENDBRANCH  24  27
ENDBRANCH   1  23
TORSDOF 10
ENDMDL
