MODEL 1
REMARK VINA RESULT:     -11.3      0.000      0.000
REMARK SMILES CCc1ccsc1Cn1cccc1C(=O)NCCCNC(=O)c1ccc(-c2c3nc(c(-c4c(F)c(F)c(F)c(F)c4F)c4ccc([nH]4)c(-c4c(F)c(F)c(F)c(F)c4F)c4nc(c(-c5c(F)c(F)c(F)c(F)c5F)c5ccc2[nH]5)C=C4)C=C3)cc1
REMARK SMILES IDX 17 1 16 2 14 3 15 4 13 6 9 7 10 8 11 9 12 10 8 11 7 12 3 13
REMARK SMILES IDX 4 14 5 15 6 16 2 17 1 18 18 19 19 20 20 21 21 22 22 24 23 25
REMARK SMILES IDX 24 26 85 27 25 28 84 29 26 30 27 31 28 32 78 33 29 34 83 35
REMARK SMILES IDX 77 36 79 37 30 38 82 39 76 40 75 41 31 43 63 44 43 45 62 46
REMARK SMILES IDX 44 47 47 48 61 49 80 50 45 51 46 52 60 54 81 55 48 56 32 57
REMARK SMILES IDX 33 58 41 59 34 60 35 61 39 62 42 63 36 64 37 65 40 66 38 67
REMARK SMILES IDX 64 68 65 69 73 70 66 71 67 72 71 73 74 74 68 75 69 76 72 77
REMARK SMILES IDX 70 78 49 79 50 80 58 81 51 82 52 83 56 84 59 85 53 86 54 87
REMARK SMILES IDX 57 88 55 89
REMARK H PARENT 16 5 20 23 79 42 47 53
REMARK Flexibility Score: inf
ROOT
ATOM      1  C   UNL A   1      31.789  28.535  27.082  1.00  0.00     0.118 C 
ENDROOT
BRANCH   1   2
ATOM      2  N   UNL A   1      31.135  27.254  27.138  1.00  0.00    -0.351 N 
ATOM      3  C   UNL A   1      30.832  26.341  26.163  1.00  0.00     0.267 C 
ATOM      4  O   UNL A   1      29.984  25.513  26.513  1.00  0.00    -0.268 OA
ATOM      5  H   UNL A   1      30.853  26.986  28.042  1.00  0.00     0.163 HD
BRANCH   3   6
ATOM      6  C   UNL A   1      31.555  26.187  24.902  1.00  0.00     0.107 A 
ATOM      7  N   UNL A   1      32.859  25.871  24.498  1.00  0.00    -0.338 N 
ATOM      8  C   UNL A   1      32.880  25.798  23.110  1.00  0.00     0.087 A 
ATOM      9  C   UNL A   1      31.696  26.258  22.609  1.00  0.00     0.020 A 
ATOM     10  C   UNL A   1      30.880  26.511  23.717  1.00  0.00     0.033 A 
BRANCH   7  11
ATOM     11  C   UNL A   1      34.056  25.466  25.251  1.00  0.00     0.169 C 
BRANCH  11  12
ATOM     12  C   UNL A   1      34.249  23.993  25.580  1.00  0.00     0.027 A 
ATOM     13  C   UNL A   1      35.378  23.273  25.996  1.00  0.00    -0.033 A 
ATOM     14  C   UNL A   1      35.036  21.918  26.344  1.00  0.00     0.016 A 
ATOM     15  C   UNL A   1      33.699  21.649  26.218  1.00  0.00     0.065 A 
ATOM     16  S   UNL A   1      32.834  23.003  25.685  1.00  0.00    -0.147 S 
BRANCH  13  17
ATOM     17  C   UNL A   1      36.814  23.715  26.131  1.00  0.00     0.033 C 
ATOM     18  C   UNL A   1      37.813  22.750  25.506  1.00  0.00     0.009 C 
ENDBRANCH  13  17
ENDBRANCH  11  12
ENDBRANCH   7  11
ENDBRANCH   3   6
ENDBRANCH   1   2
BRANCH   1  19
ATOM     19  C   UNL A   1      33.223  28.332  27.535  1.00  0.00     0.042 C 
BRANCH  19  20
ATOM     20  C   UNL A   1      34.301  28.749  26.574  1.00  0.00     0.118 C 
BRANCH  20  21
ATOM     21  N   UNL A   1      34.587  30.152  26.747  1.00  0.00    -0.352 N 
ATOM     22  C   UNL A   1      35.464  30.779  27.589  1.00  0.00     0.251 C 
ATOM     23  H   UNL A   1      34.069  30.753  26.166  1.00  0.00     0.163 HD
ATOM     24  O   UNL A   1      35.263  31.959  27.831  1.00  0.00    -0.269 OA
BRANCH  22  25
ATOM     25  C   UNL A   1      36.651  30.090  28.163  1.00  0.00     0.039 A 
ATOM     26  C   UNL A   1      37.808  30.092  27.366  1.00  0.00     0.014 A 
ATOM     27  C   UNL A   1      36.656  29.388  29.373  1.00  0.00     0.014 A 
ATOM     28  C   UNL A   1      38.943  29.399  27.767  1.00  0.00     0.010 A 
ATOM     29  C   UNL A   1      37.783  28.706  29.788  1.00  0.00     0.010 A 
ATOM     30  C   UNL A   1      38.921  28.720  28.984  1.00  0.00    -0.014 A 
BRANCH  30  31
ATOM     31  C   UNL A   1      40.123  28.077  29.525  1.00  0.00     0.031 A 
ATOM     32  C   UNL A   1      40.429  26.743  28.839  1.00  0.00     0.074 A 
ATOM     33  C   UNL A   1      40.812  28.833  30.426  1.00  0.00     0.049 A 
ATOM     34  N   UNL A   1      41.409  25.916  29.031  1.00  0.00    -0.248 NA
ATOM     35  C   UNL A   1      39.534  26.267  27.743  1.00  0.00     0.031 C 
ATOM     36  C   UNL A   1      40.360  30.151  30.920  1.00  0.00     0.029 A 
ATOM     37  N   UNL A   1      42.010  28.681  31.089  1.00  0.00    -0.354 N 
ATOM     38  C   UNL A   1      41.378  24.975  27.982  1.00  0.00     0.074 A 
ATOM     39  C   UNL A   1      40.169  25.202  27.253  1.00  0.00     0.031 C 
ATOM     40  C   UNL A   1      41.211  30.630  31.849  1.00  0.00     0.029 A 
ATOM     41  C   UNL A   1      42.308  29.701  32.026  1.00  0.00     0.049 A 
ATOM     42  H   UNL A   1      42.614  27.921  30.924  1.00  0.00     0.167 HD
ATOM     43  C   UNL A   1      42.408  24.124  27.719  1.00  0.00     0.037 A 
ATOM     44  C   UNL A   1      43.355  29.782  32.901  1.00  0.00     0.037 A 
ATOM     45  C   UNL A   1      43.405  24.222  28.728  1.00  0.00     0.049 A 
ATOM     46  C   UNL A   1      44.305  28.749  32.459  1.00  0.00     0.074 A 
ATOM     47  C   UNL A   1      43.439  23.751  30.012  1.00  0.00     0.029 A 
ATOM     48  N   UNL A   1      44.397  25.157  28.566  1.00  0.00    -0.354 N 
ATOM     49  N   UNL A   1      45.014  28.829  31.371  1.00  0.00    -0.248 NA
ATOM     50  C   UNL A   1      44.410  27.496  33.213  1.00  0.00     0.031 C 
ATOM     51  C   UNL A   1      44.197  24.709  30.713  1.00  0.00     0.029 A 
ATOM     52  C   UNL A   1      44.708  25.649  29.814  1.00  0.00     0.049 A 
ATOM     53  H   UNL A   1      44.810  25.426  27.715  1.00  0.00     0.167 HD
ATOM     54  C   UNL A   1      45.372  27.520  31.150  1.00  0.00     0.074 A 
ATOM     55  C   UNL A   1      45.252  26.841  32.419  1.00  0.00     0.031 C 
ATOM     56  C   UNL A   1      45.239  26.990  29.906  1.00  0.00     0.037 A 
BRANCH  43  57
ATOM     57  C   UNL A   1      42.703  23.259  26.534  1.00  0.00     0.064 A 
ATOM     58  C   UNL A   1      42.547  21.859  26.668  1.00  0.00     0.173 A 
ATOM     59  C   UNL A   1      43.445  23.702  25.432  1.00  0.00     0.173 A 
ATOM     60  F   UNL A   1      41.810  21.344  27.666  1.00  0.00    -0.203 F 
ATOM     61  C   UNL A   1      43.202  20.959  25.832  1.00  0.00     0.198 A 
ATOM     62  C   UNL A   1      44.067  22.795  24.567  1.00  0.00     0.198 A 
ATOM     63  F   UNL A   1      43.659  25.009  25.228  1.00  0.00    -0.203 F 
ATOM     64  F   UNL A   1      43.130  19.644  26.078  1.00  0.00    -0.200 F 
ATOM     65  C   UNL A   1      43.980  21.429  24.792  1.00  0.00     0.200 A 
ATOM     66  F   UNL A   1      44.815  23.251  23.553  1.00  0.00    -0.200 F 
ATOM     67  F   UNL A   1      44.669  20.571  24.027  1.00  0.00    -0.200 F 
ENDBRANCH  43  57
BRANCH  44  68
ATOM     68  C   UNL A   1      43.710  30.579  34.136  1.00  0.00     0.064 A 
ATOM     69  C   UNL A   1      44.721  31.546  34.234  1.00  0.00     0.173 A 
ATOM     70  C   UNL A   1      42.889  30.485  35.294  1.00  0.00     0.173 A 
ATOM     71  F   UNL A   1      45.648  31.691  33.284  1.00  0.00    -0.203 F 
ATOM     72  C   UNL A   1      44.820  32.419  35.330  1.00  0.00     0.198 A 
ATOM     73  C   UNL A   1      42.955  31.382  36.361  1.00  0.00     0.198 A 
ATOM     74  F   UNL A   1      41.963  29.523  35.423  1.00  0.00    -0.203 F 
ATOM     75  F   UNL A   1      45.794  33.341  35.357  1.00  0.00    -0.200 F 
ATOM     76  C   UNL A   1      43.911  32.367  36.370  1.00  0.00     0.200 A 
ATOM     77  F   UNL A   1      42.060  31.297  37.356  1.00  0.00    -0.200 F 
ATOM     78  F   UNL A   1      43.960  33.254  37.372  1.00  0.00    -0.200 F 
ENDBRANCH  44  68
BRANCH  56  79
ATOM     79  C   UNL A   1      45.271  28.025  28.801  1.00  0.00     0.064 A 
ATOM     80  C   UNL A   1      46.479  28.669  28.488  1.00  0.00     0.173 A 
ATOM     81  C   UNL A   1      44.129  28.491  28.128  1.00  0.00     0.173 A 
ATOM     82  F   UNL A   1      47.620  28.274  29.074  1.00  0.00    -0.203 F 
ATOM     83  C   UNL A   1      46.533  29.728  27.577  1.00  0.00     0.198 A 
ATOM     84  C   UNL A   1      44.181  29.541  27.209  1.00  0.00     0.198 A 
ATOM     85  F   UNL A   1      42.938  27.934  28.339  1.00  0.00    -0.203 F 
ATOM     86  F   UNL A   1      47.703  30.323  27.314  1.00  0.00    -0.200 F 
ATOM     87  C   UNL A   1      45.383  30.165  26.940  1.00  0.00     0.200 A 
ATOM     88  F   UNL A   1      43.061  29.941  26.586  1.00  0.00    -0.200 F 
ATOM     89  F   UNL A   1      45.436  31.174  26.060  1.00  0.00    -0.200 F 
ENDBRANCH  56  79
ENDBRANCH  30  31
ENDBRANCH  22  25
ENDBRANCH  20  21
ENDBRANCH  19  20
ENDBRANCH   1  19
TORSDOF 13
ENDMDL
MODEL 2
REMARK VINA RESULT:     -11.3      3.926      8.731
REMARK SMILES CCc1ccsc1Cn1cccc1C(=O)NCCCNC(=O)c1ccc(-c2c3nc(c(-c4c(F)c(F)c(F)c(F)c4F)c4ccc([nH]4)c(-c4c(F)c(F)c(F)c(F)c4F)c4nc(c(-c5c(F)c(F)c(F)c(F)c5F)c5ccc2[nH]5)C=C4)C=C3)cc1
REMARK SMILES IDX 17 1 16 2 14 3 15 4 13 6 9 7 10 8 11 9 12 10 8 11 7 12 3 13
REMARK SMILES IDX 4 14 5 15 6 16 2 17 1 18 18 19 19 20 20 21 21 22 22 24 23 25
REMARK SMILES IDX 24 26 85 27 25 28 84 29 26 30 27 31 28 32 78 33 29 34 83 35
REMARK SMILES IDX 77 36 79 37 30 38 82 39 76 40 75 41 31 43 63 44 43 45 62 46
REMARK SMILES IDX 44 47 47 48 61 49 80 50 45 51 46 52 60 54 81 55 48 56 32 57
REMARK SMILES IDX 33 58 41 59 34 60 35 61 39 62 42 63 36 64 37 65 40 66 38 67
REMARK SMILES IDX 64 68 65 69 73 70 66 71 67 72 71 73 74 74 68 75 69 76 72 77
REMARK SMILES IDX 70 78 49 79 50 80 58 81 51 82 52 83 56 84 59 85 53 86 54 87
REMARK SMILES IDX 57 88 55 89
REMARK H PARENT 16 5 20 23 79 42 47 53
REMARK Flexibility Score: inf
ROOT
ATOM      1  C   UNL A   1      35.620  23.703  23.855  1.00  0.00     0.118 C 
ENDROOT
BRANCH   1   2
ATOM      2  N   UNL A   1      34.687  22.654  23.539  1.00  0.00    -0.351 N 
ATOM      3  C   UNL A   1      33.790  21.967  24.314  1.00  0.00     0.267 C 
ATOM      4  O   UNL A   1      33.393  20.920  23.792  1.00  0.00    -0.268 OA
ATOM      5  H   UNL A   1      34.696  22.379  22.594  1.00  0.00     0.163 HD
BRANCH   3   6
ATOM      6  C   UNL A   1      33.175  22.476  25.539  1.00  0.00     0.107 A 
ATOM      7  N   UNL A   1      32.256  23.475  25.887  1.00  0.00    -0.338 N 
ATOM      8  C   UNL A   1      32.015  23.388  27.253  1.00  0.00     0.087 A 
ATOM      9  C   UNL A   1      32.898  22.513  27.820  1.00  0.00     0.020 A 
ATOM     10  C   UNL A   1      33.624  21.958  26.761  1.00  0.00     0.033 A 
BRANCH   7  11
ATOM     11  C   UNL A   1      31.447  24.400  25.078  1.00  0.00     0.169 C 
BRANCH  11  12
ATOM     12  C   UNL A   1      32.159  25.382  24.160  1.00  0.00     0.027 A 
ATOM     13  C   UNL A   1      33.166  26.327  24.410  1.00  0.00    -0.033 A 
ATOM     14  C   UNL A   1      33.643  26.918  23.187  1.00  0.00     0.016 A 
ATOM     15  C   UNL A   1      33.035  26.414  22.069  1.00  0.00     0.065 A 
ATOM     16  S   UNL A   1      31.889  25.229  22.458  1.00  0.00    -0.147 S 
BRANCH  13  17
ATOM     17  C   UNL A   1      33.783  26.763  25.715  1.00  0.00     0.033 C 
ATOM     18  C   UNL A   1      32.889  27.680  26.539  1.00  0.00     0.009 C 
ENDBRANCH  13  17
ENDBRANCH  11  12
ENDBRANCH   7  11
ENDBRANCH   3   6
ENDBRANCH   1   2
BRANCH   1  19
ATOM     19  C   UNL A   1      36.658  23.120  24.795  1.00  0.00     0.042 C 
BRANCH  19  20
ATOM     20  C   UNL A   1      37.217  24.043  25.841  1.00  0.00     0.118 C 
BRANCH  20  21
ATOM     21  N   UNL A   1      38.155  23.326  26.669  1.00  0.00    -0.352 N 
ATOM     22  C   UNL A   1      39.322  23.741  27.248  1.00  0.00     0.251 C 
ATOM     23  H   UNL A   1      37.917  22.387  26.844  1.00  0.00     0.163 HD
ATOM     24  O   UNL A   1      40.125  22.880  27.573  1.00  0.00    -0.269 OA
BRANCH  22  25
ATOM     25  C   UNL A   1      39.609  25.174  27.528  1.00  0.00     0.039 A 
ATOM     26  C   UNL A   1      39.260  25.632  28.810  1.00  0.00     0.014 A 
ATOM     27  C   UNL A   1      40.108  26.084  26.591  1.00  0.00     0.014 A 
ATOM     28  C   UNL A   1      39.400  26.972  29.144  1.00  0.00     0.010 A 
ATOM     29  C   UNL A   1      40.265  27.417  26.916  1.00  0.00     0.010 A 
ATOM     30  C   UNL A   1      39.913  27.852  28.193  1.00  0.00    -0.014 A 
BRANCH  30  31
ATOM     31  C   UNL A   1      40.206  29.251  28.521  1.00  0.00     0.031 A 
ATOM     32  C   UNL A   1      38.934  30.078  28.732  1.00  0.00     0.074 A 
ATOM     33  C   UNL A   1      41.528  29.523  28.710  1.00  0.00     0.049 A 
ATOM     34  N   UNL A   1      38.800  31.326  29.053  1.00  0.00    -0.248 NA
ATOM     35  C   UNL A   1      37.604  29.412  28.604  1.00  0.00     0.031 C 
ATOM     36  C   UNL A   1      42.614  28.542  28.506  1.00  0.00     0.029 A 
ATOM     37  N   UNL A   1      42.229  30.636  29.118  1.00  0.00    -0.354 N 
ATOM     38  C   UNL A   1      37.442  31.536  29.370  1.00  0.00     0.074 A 
ATOM     39  C   UNL A   1      36.742  30.340  29.018  1.00  0.00     0.031 C 
ATOM     40  C   UNL A   1      43.817  29.113  28.705  1.00  0.00     0.029 A 
ATOM     41  C   UNL A   1      43.639  30.498  29.088  1.00  0.00     0.049 A 
ATOM     42  H   UNL A   1      41.785  31.465  29.409  1.00  0.00     0.167 HD
ATOM     43  C   UNL A   1      36.993  32.656  30.000  1.00  0.00     0.037 A 
ATOM     44  C   UNL A   1      44.598  31.441  29.334  1.00  0.00     0.037 A 
ATOM     45  C   UNL A   1      38.041  33.608  30.133  1.00  0.00     0.049 A 
ATOM     46  C   UNL A   1      43.880  32.565  29.956  1.00  0.00     0.074 A 
ATOM     47  C   UNL A   1      38.622  34.443  29.218  1.00  0.00     0.029 A 
ATOM     48  N   UNL A   1      38.836  33.540  31.249  1.00  0.00    -0.354 N 
ATOM     49  N   UNL A   1      43.388  32.537  31.161  1.00  0.00    -0.248 NA
ATOM     50  C   UNL A   1      43.598  33.767  29.166  1.00  0.00     0.031 C 
ATOM     51  C   UNL A   1      39.961  34.545  29.644  1.00  0.00     0.029 A 
ATOM     52  C   UNL A   1      40.114  33.886  30.867  1.00  0.00     0.049 A 
ATOM     53  H   UNL A   1      38.547  33.289  32.155  1.00  0.00     0.167 HD
ATOM     54  C   UNL A   1      42.469  33.559  31.132  1.00  0.00     0.074 A 
ATOM     55  C   UNL A   1      42.858  34.432  30.048  1.00  0.00     0.031 C 
ATOM     56  C   UNL A   1      41.221  33.352  31.627  1.00  0.00     0.037 A 
BRANCH  43  57
ATOM     57  C   UNL A   1      35.685  32.967  30.660  1.00  0.00     0.064 A 
ATOM     58  C   UNL A   1      34.820  33.895  30.033  1.00  0.00     0.173 A 
ATOM     59  C   UNL A   1      35.421  32.676  32.004  1.00  0.00     0.173 A 
ATOM     60  F   UNL A   1      34.966  34.197  28.733  1.00  0.00    -0.203 F 
ATOM     61  C   UNL A   1      33.840  34.585  30.741  1.00  0.00     0.198 A 
ATOM     62  C   UNL A   1      34.406  33.340  32.702  1.00  0.00     0.198 A 
ATOM     63  F   UNL A   1      36.195  31.821  32.687  1.00  0.00    -0.203 F 
ATOM     64  F   UNL A   1      33.132  35.548  30.135  1.00  0.00    -0.200 F 
ATOM     65  C   UNL A   1      33.646  34.321  32.082  1.00  0.00     0.200 A 
ATOM     66  F   UNL A   1      34.214  33.078  34.002  1.00  0.00    -0.200 F 
ATOM     67  F   UNL A   1      32.752  35.031  32.785  1.00  0.00    -0.200 F 
ENDBRANCH  43  57
BRANCH  44  68
ATOM     68  C   UNL A   1      46.081  31.605  29.090  1.00  0.00     0.064 A 
ATOM     69  C   UNL A   1      46.693  31.864  27.856  1.00  0.00     0.173 A 
ATOM     70  C   UNL A   1      46.974  31.649  30.197  1.00  0.00     0.173 A 
ATOM     71  F   UNL A   1      46.025  31.755  26.705  1.00  0.00    -0.203 F 
ATOM     72  C   UNL A   1      48.039  32.256  27.753  1.00  0.00     0.198 A 
ATOM     73  C   UNL A   1      48.297  32.084  30.103  1.00  0.00     0.198 A 
ATOM     74  F   UNL A   1      46.585  31.293  31.429  1.00  0.00    -0.203 F 
ATOM     75  F   UNL A   1      48.562  32.514  26.546  1.00  0.00    -0.200 F 
ATOM     76  C   UNL A   1      48.827  32.409  28.878  1.00  0.00     0.200 A 
ATOM     77  F   UNL A   1      49.033  32.214  31.215  1.00  0.00    -0.200 F 
ATOM     78  F   UNL A   1      50.083  32.860  28.782  1.00  0.00    -0.200 F 
ENDBRANCH  44  68
BRANCH  56  79
ATOM     79  C   UNL A   1      41.156  32.248  32.661  1.00  0.00     0.064 A 
ATOM     80  C   UNL A   1      41.724  32.451  33.929  1.00  0.00     0.173 A 
ATOM     81  C   UNL A   1      40.665  30.957  32.402  1.00  0.00     0.173 A 
ATOM     82  F   UNL A   1      42.202  33.659  34.263  1.00  0.00    -0.203 F 
ATOM     83  C   UNL A   1      41.815  31.419  34.867  1.00  0.00     0.198 A 
ATOM     84  C   UNL A   1      40.744  29.926  33.341  1.00  0.00     0.198 A 
ATOM     85  F   UNL A   1      40.089  30.667  31.237  1.00  0.00    -0.203 F 
ATOM     86  F   UNL A   1      42.374  31.649  36.062  1.00  0.00    -0.200 F 
ATOM     87  C   UNL A   1      41.327  30.155  34.572  1.00  0.00     0.200 A 
ATOM     88  F   UNL A   1      40.251  28.713  33.046  1.00  0.00    -0.200 F 
ATOM     89  F   UNL A   1      41.406  29.168  35.474  1.00  0.00    -0.200 F 
ENDBRANCH  56  79
ENDBRANCH  30  31
ENDBRANCH  22  25
ENDBRANCH  20  21
ENDBRANCH  19  20
ENDBRANCH   1  19
TORSDOF 13
ENDMDL
MODEL 3
REMARK VINA RESULT:     -11.3      4.025      8.867
REMARK SMILES CCc1ccsc1Cn1cccc1C(=O)NCCCNC(=O)c1ccc(-c2c3nc(c(-c4c(F)c(F)c(F)c(F)c4F)c4ccc([nH]4)c(-c4c(F)c(F)c(F)c(F)c4F)c4nc(c(-c5c(F)c(F)c(F)c(F)c5F)c5ccc2[nH]5)C=C4)C=C3)cc1
REMARK SMILES IDX 17 1 16 2 14 3 15 4 13 6 9 7 10 8 11 9 12 10 8 11 7 12 3 13
REMARK SMILES IDX 4 14 5 15 6 16 2 17 1 18 18 19 19 20 20 21 21 22 22 24 23 25
REMARK SMILES IDX 24 26 85 27 25 28 84 29 26 30 27 31 28 32 78 33 29 34 83 35
REMARK SMILES IDX 77 36 79 37 30 38 82 39 76 40 75 41 31 43 63 44 43 45 62 46
REMARK SMILES IDX 44 47 47 48 61 49 80 50 45 51 46 52 60 54 81 55 48 56 32 57
REMARK SMILES IDX 33 58 41 59 34 60 35 61 39 62 42 63 36 64 37 65 40 66 38 67
REMARK SMILES IDX 64 68 65 69 73 70 66 71 67 72 71 73 74 74 68 75 69 76 72 77
REMARK SMILES IDX 70 78 49 79 50 80 58 81 51 82 52 83 56 84 59 85 53 86 54 87
REMARK SMILES IDX 57 88 55 89
REMARK H PARENT 16 5 20 23 79 42 47 53
REMARK Flexibility Score: inf
ROOT
ATOM      1  C   UNL A   1      36.717  21.645  25.424  1.00  0.00     0.118 C 
ENDROOT
BRANCH   1   2
ATOM      2  N   UNL A   1      35.677  21.428  26.395  1.00  0.00    -0.351 N 
ATOM      3  C   UNL A   1      34.314  21.558  26.316  1.00  0.00     0.267 C 
ATOM      4  O   UNL A   1      33.763  21.609  27.420  1.00  0.00    -0.268 OA
ATOM      5  H   UNL A   1      36.003  21.135  27.276  1.00  0.00     0.163 HD
BRANCH   3   6
ATOM      6  C   UNL A   1      33.529  21.439  25.089  1.00  0.00     0.107 A 
ATOM      7  N   UNL A   1      32.986  22.305  24.130  1.00  0.00    -0.338 N 
ATOM      8  C   UNL A   1      32.407  21.536  23.127  1.00  0.00     0.087 A 
ATOM      9  C   UNL A   1      32.377  20.226  23.514  1.00  0.00     0.020 A 
ATOM     10  C   UNL A   1      33.061  20.167  24.733  1.00  0.00     0.033 A 
BRANCH   7  11
ATOM     11  C   UNL A   1      33.080  23.761  23.947  1.00  0.00     0.169 C 
BRANCH  11  12
ATOM     12  C   UNL A   1      31.846  24.611  24.207  1.00  0.00     0.027 A 
ATOM     13  C   UNL A   1      31.012  24.722  25.329  1.00  0.00    -0.033 A 
ATOM     14  C   UNL A   1      30.055  25.786  25.167  1.00  0.00     0.016 A 
ATOM     15  C   UNL A   1      30.190  26.459  23.982  1.00  0.00     0.065 A 
ATOM     16  S   UNL A   1      31.456  25.835  23.047  1.00  0.00    -0.147 S 
BRANCH  13  17
ATOM     17  C   UNL A   1      31.001  23.926  26.610  1.00  0.00     0.033 C 
ATOM     18  C   UNL A   1      30.278  22.591  26.495  1.00  0.00     0.009 C 
ENDBRANCH  13  17
ENDBRANCH  11  12
ENDBRANCH   7  11
ENDBRANCH   3   6
ENDBRANCH   1   2
BRANCH   1  19
ATOM     19  C   UNL A   1      36.714  23.122  25.078  1.00  0.00     0.042 C 
BRANCH  19  20
ATOM     20  C   UNL A   1      37.324  24.054  26.086  1.00  0.00     0.118 C 
BRANCH  20  21
ATOM     21  N   UNL A   1      38.357  23.366  26.819  1.00  0.00    -0.352 N 
ATOM     22  C   UNL A   1      39.555  23.821  27.299  1.00  0.00     0.251 C 
ATOM     23  H   UNL A   1      38.172  22.417  27.003  1.00  0.00     0.163 HD
ATOM     24  O   UNL A   1      40.415  22.989  27.541  1.00  0.00    -0.269 OA
BRANCH  22  25
ATOM     25  C   UNL A   1      39.811  25.261  27.572  1.00  0.00     0.039 A 
ATOM     26  C   UNL A   1      39.481  25.710  28.862  1.00  0.00     0.014 A 
ATOM     27  C   UNL A   1      40.263  26.183  26.622  1.00  0.00     0.014 A 
ATOM     28  C   UNL A   1      39.595  27.054  29.192  1.00  0.00     0.010 A 
ATOM     29  C   UNL A   1      40.392  27.520  26.943  1.00  0.00     0.010 A 
ATOM     30  C   UNL A   1      40.060  27.946  28.228  1.00  0.00    -0.014 A 
BRANCH  30  31
ATOM     31  C   UNL A   1      40.324  29.353  28.549  1.00  0.00     0.031 A 
ATOM     32  C   UNL A   1      39.036  30.156  28.751  1.00  0.00     0.074 A 
ATOM     33  C   UNL A   1      41.640  29.653  28.739  1.00  0.00     0.049 A 
ATOM     34  N   UNL A   1      38.876  31.403  29.065  1.00  0.00    -0.248 NA
ATOM     35  C   UNL A   1      37.720  29.462  28.624  1.00  0.00     0.031 C 
ATOM     36  C   UNL A   1      42.746  28.693  28.544  1.00  0.00     0.029 A 
ATOM     37  N   UNL A   1      42.318  30.782  29.142  1.00  0.00    -0.354 N 
ATOM     38  C   UNL A   1      37.513  31.587  29.377  1.00  0.00     0.074 A 
ATOM     39  C   UNL A   1      36.838  30.375  29.031  1.00  0.00     0.031 C 
ATOM     40  C   UNL A   1      43.937  29.289  28.743  1.00  0.00     0.029 A 
ATOM     41  C   UNL A   1      43.730  30.672  29.117  1.00  0.00     0.049 A 
ATOM     42  H   UNL A   1      41.856  31.603  29.428  1.00  0.00     0.167 HD
ATOM     43  C   UNL A   1      37.039  32.702  30.000  1.00  0.00     0.037 A 
ATOM     44  C   UNL A   1      44.669  31.636  29.359  1.00  0.00     0.037 A 
ATOM     45  C   UNL A   1      38.068  33.675  30.129  1.00  0.00     0.049 A 
ATOM     46  C   UNL A   1      43.927  32.748  29.973  1.00  0.00     0.074 A 
ATOM     47  C   UNL A   1      38.635  34.517  29.210  1.00  0.00     0.029 A 
ATOM     48  N   UNL A   1      38.862  33.630  31.248  1.00  0.00    -0.354 N 
ATOM     49  N   UNL A   1      43.433  32.718  31.177  1.00  0.00    -0.248 NA
ATOM     50  C   UNL A   1      43.624  33.940  29.175  1.00  0.00     0.031 C 
ATOM     51  C   UNL A   1      39.970  34.648  29.640  1.00  0.00     0.029 A 
ATOM     52  C   UNL A   1      40.133  33.999  30.867  1.00  0.00     0.049 A 
ATOM     53  H   UNL A   1      38.576  33.379  32.155  1.00  0.00     0.167 HD
ATOM     54  C   UNL A   1      42.494  33.721  31.139  1.00  0.00     0.074 A 
ATOM     55  C   UNL A   1      42.868  34.595  30.052  1.00  0.00     0.031 C 
ATOM     56  C   UNL A   1      41.249  33.492  31.633  1.00  0.00     0.037 A 
BRANCH  43  57
ATOM     57  C   UNL A   1      35.725  32.990  30.654  1.00  0.00     0.064 A 
ATOM     58  C   UNL A   1      34.845  33.903  30.023  1.00  0.00     0.173 A 
ATOM     59  C   UNL A   1      35.461  32.695  31.998  1.00  0.00     0.173 A 
ATOM     60  F   UNL A   1      34.991  34.207  28.723  1.00  0.00    -0.203 F 
ATOM     61  C   UNL A   1      33.851  34.576  30.727  1.00  0.00     0.198 A 
ATOM     62  C   UNL A   1      34.432  33.343  32.691  1.00  0.00     0.198 A 
ATOM     63  F   UNL A   1      36.246  31.854  32.684  1.00  0.00    -0.203 F 
ATOM     64  F   UNL A   1      33.128  35.526  30.118  1.00  0.00    -0.200 F 
ATOM     65  C   UNL A   1      33.657  34.309  32.068  1.00  0.00     0.200 A 
ATOM     66  F   UNL A   1      34.239  33.078  33.990  1.00  0.00    -0.200 F 
ATOM     67  F   UNL A   1      32.748  35.004  32.767  1.00  0.00    -0.200 F 
ENDBRANCH  43  57
BRANCH  44  68
ATOM     68  C   UNL A   1      46.149  31.828  29.119  1.00  0.00     0.064 A 
ATOM     69  C   UNL A   1      46.780  31.915  27.869  1.00  0.00     0.173 A 
ATOM     70  C   UNL A   1      47.012  32.089  30.219  1.00  0.00     0.173 A 
ATOM     71  F   UNL A   1      46.146  31.593  26.739  1.00  0.00    -0.203 F 
ATOM     72  C   UNL A   1      48.110  32.347  27.728  1.00  0.00     0.198 A 
ATOM     73  C   UNL A   1      48.317  32.565  30.079  1.00  0.00     0.198 A 
ATOM     74  F   UNL A   1      46.609  31.917  31.486  1.00  0.00    -0.203 F 
ATOM     75  F   UNL A   1      48.651  32.435  26.504  1.00  0.00    -0.200 F 
ATOM     76  C   UNL A   1      48.862  32.715  28.828  1.00  0.00     0.200 A 
ATOM     77  F   UNL A   1      49.020  32.905  31.169  1.00  0.00    -0.200 F 
ATOM     78  F   UNL A   1      50.100  33.203  28.682  1.00  0.00    -0.200 F 
ENDBRANCH  44  68
BRANCH  56  79
ATOM     79  C   UNL A   1      41.203  32.393  32.673  1.00  0.00     0.064 A 
ATOM     80  C   UNL A   1      40.618  31.157  32.352  1.00  0.00     0.173 A 
ATOM     81  C   UNL A   1      41.600  32.561  34.011  1.00  0.00     0.173 A 
ATOM     82  F   UNL A   1      40.227  30.910  31.093  1.00  0.00    -0.203 F 
ATOM     83  C   UNL A   1      40.424  30.164  33.315  1.00  0.00     0.198 A 
ATOM     84  C   UNL A   1      41.417  31.566  34.974  1.00  0.00     0.198 A 
ATOM     85  F   UNL A   1      42.181  33.689  34.414  1.00  0.00    -0.203 F 
ATOM     86  F   UNL A   1      39.854  29.002  32.971  1.00  0.00    -0.200 F 
ATOM     87  C   UNL A   1      40.821  30.369  34.627  1.00  0.00     0.200 A 
ATOM     88  F   UNL A   1      41.823  31.774  36.236  1.00  0.00    -0.200 F 
ATOM     89  F   UNL A   1      40.643  29.413  35.549  1.00  0.00    -0.200 F 
ENDBRANCH  56  79
ENDBRANCH  30  31
ENDBRANCH  22  25
ENDBRANCH  20  21
ENDBRANCH  19  20
ENDBRANCH   1  19
TORSDOF 13
ENDMDL
