MODEL 1
REMARK VINA RESULT:     -13.0      0.000      0.000
REMARK SMILES Nc1nc(Nc2ccc(C(=O)NCCCNC(=O)c3ccc(-c4c5nc(c(-c6c(F)c(F)c(F)c(F)c6F)c6ccc([nH]6)c(-c6c(F)c(F)c(F)c(F)c6F)c6nc(c(-c7c(F)c(F)c(F)c(F)c7F)c7ccc4[nH]7)C=C6)C=C5)cc3)cc2)ccc1[N+](=O)[O-]
REMARK SMILES IDX 13 1 12 2 10 3 11 4 9 6 6 7 7 8 83 9 8 10 82 11 5 12 4 14
REMARK SMILES IDX 2 15 3 16 86 17 85 18 84 19 1 20 87 23 88 24 89 25 14 26
REMARK SMILES IDX 15 27 16 28 17 29 18 31 19 32 20 33 81 34 21 35 80 36 22 37
REMARK SMILES IDX 23 38 24 39 74 40 25 41 79 42 73 43 75 44 26 45 78 46 72 47
REMARK SMILES IDX 71 48 27 50 59 51 39 52 58 53 40 54 43 55 57 56 76 57 41 58
REMARK SMILES IDX 42 59 56 61 77 62 44 63 28 64 29 65 37 66 30 67 31 68 35 69
REMARK SMILES IDX 38 70 32 71 33 72 36 73 34 74 60 75 61 76 69 77 62 78 63 79
REMARK SMILES IDX 67 80 70 81 64 82 65 83 68 84 66 85 45 86 46 87 54 88 47 89
REMARK SMILES IDX 48 90 52 91 55 92 49 93 50 94 53 95 51 96
REMARK H PARENT 12 5 5 13 1 21 1 22 16 30 75 49 43 60
REMARK Flexibility Score: inf
ROOT
ATOM      1  C   UNL A   1      36.944  20.889  24.720  1.00  0.00     0.118 C 
ENDROOT
BRANCH   1   2
ATOM      2  N   UNL A   1      35.608  20.518  25.153  1.00  0.00    -0.352 N 
ATOM      3  C   UNL A   1      34.422  21.206  25.193  1.00  0.00     0.251 C 
ATOM      4  O   UNL A   1      33.428  20.600  25.594  1.00  0.00    -0.269 OA
ATOM      5  H   UNL A   1      35.541  19.593  25.482  1.00  0.00     0.163 HD
BRANCH   3   6
ATOM      6  C   UNL A   1      34.274  22.613  24.726  1.00  0.00     0.039 A 
ATOM      7  C   UNL A   1      33.919  25.330  24.033  1.00  0.00     0.040 A 
ATOM      8  C   UNL A   1      34.229  24.969  25.348  1.00  0.00     0.027 A 
ATOM      9  C   UNL A   1      33.813  24.324  23.071  1.00  0.00     0.027 A 
ATOM     10  C   UNL A   1      34.397  23.622  25.693  1.00  0.00     0.016 A 
ATOM     11  C   UNL A   1      34.039  22.984  23.403  1.00  0.00     0.016 A 
BRANCH   7  12
ATOM     12  N   UNL A   1      33.638  26.667  23.709  1.00  0.00    -0.340 N 
ATOM     13  H   UNL A   1      34.403  27.285  23.663  1.00  0.00     0.168 HD
BRANCH  12  14
ATOM     14  C   UNL A   1      32.365  27.206  23.445  1.00  0.00     0.133 A 
ATOM     15  C   UNL A   1      31.013  28.860  22.471  1.00  0.00     0.204 A 
ATOM     16  N   UNL A   1      32.240  28.360  22.746  1.00  0.00    -0.207 NA
ATOM     17  C   UNL A   1      29.862  28.226  22.923  1.00  0.00     0.311 A 
ATOM     18  C   UNL A   1      29.978  27.051  23.674  1.00  0.00     0.093 A 
ATOM     19  C   UNL A   1      31.247  26.543  23.940  1.00  0.00     0.054 A 
BRANCH  15  20
ATOM     20  N   UNL A   1      31.040  30.069  21.808  1.00  0.00    -0.378 N 
ATOM     21  H   UNL A   1      30.697  30.881  22.248  1.00  0.00     0.158 HD
ATOM     22  H   UNL A   1      31.401  30.121  20.893  1.00  0.00     0.158 HD
ENDBRANCH  15  20
BRANCH  17  23
ATOM     23  N   UNL A   1      28.533  28.738  22.612  1.00  0.00     0.066 N 
ATOM     24  O   UNL A   1      27.591  28.344  23.317  1.00  0.00    -0.258 OA
ATOM     25  O   UNL A   1      28.403  29.500  21.642  1.00  0.00    -0.258 OA
ENDBRANCH  17  23
ENDBRANCH  12  14
ENDBRANCH   7  12
ENDBRANCH   3   6
ENDBRANCH   1   2
BRANCH   1  26
ATOM     26  C   UNL A   1      37.936  19.757  24.989  1.00  0.00     0.042 C 
BRANCH  26  27
ATOM     27  C   UNL A   1      39.123  20.194  25.845  1.00  0.00     0.118 C 
BRANCH  27  28
ATOM     28  N   UNL A   1      40.145  19.159  25.930  1.00  0.00    -0.352 N 
ATOM     29  C   UNL A   1      41.508  19.272  26.053  1.00  0.00     0.251 C 
ATOM     30  H   UNL A   1      39.806  18.235  25.892  1.00  0.00     0.163 HD
ATOM     31  O   UNL A   1      42.220  18.289  25.877  1.00  0.00    -0.269 OA
BRANCH  29  32
ATOM     32  C   UNL A   1      42.123  20.574  26.384  1.00  0.00     0.039 A 
ATOM     33  C   UNL A   1      42.606  21.375  25.345  1.00  0.00     0.014 A 
ATOM     34  C   UNL A   1      42.249  20.994  27.710  1.00  0.00     0.014 A 
ATOM     35  C   UNL A   1      43.143  22.632  25.631  1.00  0.00     0.010 A 
ATOM     36  C   UNL A   1      42.726  22.272  27.989  1.00  0.00     0.010 A 
ATOM     37  C   UNL A   1      43.165  23.109  26.952  1.00  0.00    -0.014 A 
BRANCH  37  38
ATOM     38  C   UNL A   1      43.600  24.492  27.266  1.00  0.00     0.031 A 
ATOM     39  C   UNL A   1      42.616  25.500  27.786  1.00  0.00     0.074 A 
ATOM     40  C   UNL A   1      44.867  24.862  26.995  1.00  0.00     0.049 A 
ATOM     41  N   UNL A   1      42.781  26.779  28.010  1.00  0.00    -0.248 NA
ATOM     42  C   UNL A   1      41.259  25.011  28.073  1.00  0.00     0.031 C 
ATOM     43  C   UNL A   1      45.903  23.981  26.453  1.00  0.00     0.029 A 
ATOM     44  N   UNL A   1      45.494  26.076  27.116  1.00  0.00    -0.354 N 
ATOM     45  C   UNL A   1      41.551  27.249  28.450  1.00  0.00     0.074 A 
ATOM     46  C   UNL A   1      40.636  26.127  28.420  1.00  0.00     0.031 C 
ATOM     47  C   UNL A   1      47.038  24.681  26.299  1.00  0.00     0.029 A 
ATOM     48  C   UNL A   1      46.798  26.068  26.685  1.00  0.00     0.049 A 
ATOM     49  H   UNL A   1      45.051  26.877  27.478  1.00  0.00     0.167 HD
ATOM     50  C   UNL A   1      41.223  28.499  28.857  1.00  0.00     0.037 A 
ATOM     51  C   UNL A   1      47.693  27.069  26.590  1.00  0.00     0.037 A 
ATOM     52  C   UNL A   1      42.142  29.606  28.897  1.00  0.00     0.049 A 
ATOM     53  C   UNL A   1      47.291  28.455  27.013  1.00  0.00     0.074 A 
ATOM     54  C   UNL A   1      41.923  30.893  29.355  1.00  0.00     0.029 A 
ATOM     55  N   UNL A   1      43.456  29.558  28.453  1.00  0.00    -0.354 N 
ATOM     56  N   UNL A   1      46.145  28.872  27.494  1.00  0.00    -0.248 NA
ATOM     57  C   UNL A   1      48.304  29.510  26.880  1.00  0.00     0.031 C 
ATOM     58  C   UNL A   1      43.087  31.639  29.138  1.00  0.00     0.029 A 
ATOM     59  C   UNL A   1      44.048  30.803  28.595  1.00  0.00     0.049 A 
ATOM     60  H   UNL A   1      43.901  28.758  28.092  1.00  0.00     0.167 HD
ATOM     61  C   UNL A   1      46.305  30.228  27.740  1.00  0.00     0.074 A 
ATOM     62  C   UNL A   1      47.665  30.562  27.372  1.00  0.00     0.031 C 
ATOM     63  C   UNL A   1      45.405  31.119  28.225  1.00  0.00     0.037 A 
BRANCH  50  64
ATOM     64  C   UNL A   1      39.805  28.740  29.292  1.00  0.00     0.064 A 
ATOM     65  C   UNL A   1      39.399  28.544  30.621  1.00  0.00     0.173 A 
ATOM     66  C   UNL A   1      38.852  29.218  28.379  1.00  0.00     0.173 A 
ATOM     67  F   UNL A   1      40.269  28.081  31.531  1.00  0.00    -0.203 F 
ATOM     68  C   UNL A   1      38.086  28.792  31.013  1.00  0.00     0.198 A 
ATOM     69  C   UNL A   1      37.548  29.492  28.782  1.00  0.00     0.198 A 
ATOM     70  F   UNL A   1      39.188  29.430  27.098  1.00  0.00    -0.203 F 
ATOM     71  F   UNL A   1      37.711  28.554  32.278  1.00  0.00    -0.200 F 
ATOM     72  C   UNL A   1      37.164  29.272  30.096  1.00  0.00     0.200 A 
ATOM     73  F   UNL A   1      36.661  29.972  27.899  1.00  0.00    -0.200 F 
ATOM     74  F   UNL A   1      35.904  29.519  30.478  1.00  0.00    -0.200 F 
ENDBRANCH  50  64
BRANCH  51  75
ATOM     75  C   UNL A   1      49.060  26.796  26.074  1.00  0.00     0.064 A 
ATOM     76  C   UNL A   1      50.074  26.345  26.930  1.00  0.00     0.173 A 
ATOM     77  C   UNL A   1      49.381  26.978  24.720  1.00  0.00     0.173 A 
ATOM     78  F   UNL A   1      49.821  26.176  28.236  1.00  0.00    -0.203 F 
ATOM     79  C   UNL A   1      51.362  26.104  26.455  1.00  0.00     0.198 A 
ATOM     80  C   UNL A   1      50.661  26.708  24.241  1.00  0.00     0.198 A 
ATOM     81  F   UNL A   1      48.445  27.403  23.858  1.00  0.00    -0.203 F 
ATOM     82  F   UNL A   1      52.324  25.717  27.303  1.00  0.00    -0.200 F 
ATOM     83  C   UNL A   1      51.653  26.279  25.111  1.00  0.00     0.200 A 
ATOM     84  F   UNL A   1      50.933  26.863  22.939  1.00  0.00    -0.200 F 
ATOM     85  F   UNL A   1      52.890  26.043  24.654  1.00  0.00    -0.200 F 
ENDBRANCH  51  75
BRANCH  63  86
ATOM     86  C   UNL A   1      45.866  32.535  28.406  1.00  0.00     0.064 A 
ATOM     87  C   UNL A   1      46.565  32.938  29.554  1.00  0.00     0.173 A 
ATOM     88  C   UNL A   1      45.654  33.487  27.398  1.00  0.00     0.173 A 
ATOM     89  F   UNL A   1      46.778  32.070  30.554  1.00  0.00    -0.203 F 
ATOM     90  C   UNL A   1      47.017  34.247  29.693  1.00  0.00     0.198 A 
ATOM     91  C   UNL A   1      46.133  34.788  27.527  1.00  0.00     0.198 A 
ATOM     92  F   UNL A   1      44.995  33.152  26.278  1.00  0.00    -0.203 F 
ATOM     93  F   UNL A   1      47.645  34.622  30.817  1.00  0.00    -0.200 F 
ATOM     94  C   UNL A   1      46.809  35.168  28.677  1.00  0.00     0.200 A 
ATOM     95  F   UNL A   1      45.943  35.672  26.538  1.00  0.00    -0.200 F 
ATOM     96  F   UNL A   1      47.256  36.424  28.807  1.00  0.00    -0.200 F 
ENDBRANCH  63  86
ENDBRANCH  37  38
ENDBRANCH  29  32
ENDBRANCH  27  28
ENDBRANCH  26  27
ENDBRANCH   1  26
TORSDOF 14
ENDMDL
MODEL 2
REMARK VINA RESULT:     -13.0      5.587     11.435
REMARK SMILES Nc1nc(Nc2ccc(C(=O)NCCCNC(=O)c3ccc(-c4c5nc(c(-c6c(F)c(F)c(F)c(F)c6F)c6ccc([nH]6)c(-c6c(F)c(F)c(F)c(F)c6F)c6nc(c(-c7c(F)c(F)c(F)c(F)c7F)c7ccc4[nH]7)C=C6)C=C5)cc3)cc2)ccc1[N+](=O)[O-]
REMARK SMILES IDX 13 1 12 2 10 3 11 4 9 6 6 7 7 8 83 9 8 10 82 11 5 12 4 14
REMARK SMILES IDX 2 15 3 16 86 17 85 18 84 19 1 20 87 23 88 24 89 25 14 26
REMARK SMILES IDX 15 27 16 28 17 29 18 31 19 32 20 33 81 34 21 35 80 36 22 37
REMARK SMILES IDX 23 38 24 39 74 40 25 41 79 42 73 43 75 44 26 45 78 46 72 47
REMARK SMILES IDX 71 48 27 50 59 51 39 52 58 53 40 54 43 55 57 56 76 57 41 58
REMARK SMILES IDX 42 59 56 61 77 62 44 63 28 64 29 65 37 66 30 67 31 68 35 69
REMARK SMILES IDX 38 70 32 71 33 72 36 73 34 74 60 75 61 76 69 77 62 78 63 79
REMARK SMILES IDX 67 80 70 81 64 82 65 83 68 84 66 85 45 86 46 87 54 88 47 89
REMARK SMILES IDX 48 90 52 91 55 92 49 93 50 94 53 95 51 96
REMARK H PARENT 12 5 5 13 1 21 1 22 16 30 75 49 43 60
REMARK Flexibility Score: inf
ROOT
ATOM      1  C   UNL A   1      31.702  30.659  26.197  1.00  0.00     0.118 C 
ENDROOT
BRANCH   1   2
ATOM      2  N   UNL A   1      31.054  30.308  24.946  1.00  0.00    -0.352 N 
ATOM      3  C   UNL A   1      31.024  29.151  24.210  1.00  0.00     0.251 C 
ATOM      4  O   UNL A   1      30.347  29.150  23.181  1.00  0.00    -0.269 OA
ATOM      5  H   UNL A   1      30.535  31.044  24.548  1.00  0.00     0.163 HD
BRANCH   3   6
ATOM      6  C   UNL A   1      31.717  27.898  24.624  1.00  0.00     0.039 A 
ATOM      7  C   UNL A   1      32.993  25.577  25.611  1.00  0.00     0.040 A 
ATOM      8  C   UNL A   1      31.928  26.153  26.311  1.00  0.00     0.027 A 
ATOM      9  C   UNL A   1      33.393  26.159  24.407  1.00  0.00     0.027 A 
ATOM     10  C   UNL A   1      31.301  27.307  25.827  1.00  0.00     0.016 A 
ATOM     11  C   UNL A   1      32.729  27.278  23.892  1.00  0.00     0.016 A 
BRANCH   7  12
ATOM     12  N   UNL A   1      33.696  24.489  26.151  1.00  0.00    -0.340 N 
ATOM     13  H   UNL A   1      34.368  24.690  26.842  1.00  0.00     0.168 HD
BRANCH  12  14
ATOM     14  C   UNL A   1      33.530  23.137  25.796  1.00  0.00     0.133 A 
ATOM     15  C   UNL A   1      34.425  20.993  25.458  1.00  0.00     0.204 A 
ATOM     16  N   UNL A   1      34.594  22.298  25.774  1.00  0.00    -0.207 NA
ATOM     17  C   UNL A   1      33.172  20.492  25.121  1.00  0.00     0.311 A 
ATOM     18  C   UNL A   1      32.071  21.355  25.109  1.00  0.00     0.093 A 
ATOM     19  C   UNL A   1      32.259  22.693  25.446  1.00  0.00     0.054 A 
BRANCH  15  20
ATOM     20  N   UNL A   1      35.600  20.274  25.414  1.00  0.00    -0.378 N 
ATOM     21  H   UNL A   1      35.879  19.737  26.192  1.00  0.00     0.158 HD
ATOM     22  H   UNL A   1      36.163  20.297  24.607  1.00  0.00     0.158 HD
ENDBRANCH  15  20
BRANCH  17  23
ATOM     23  N   UNL A   1      32.971  19.083  24.805  1.00  0.00     0.066 N 
ATOM     24  O   UNL A   1      32.108  18.473  25.455  1.00  0.00    -0.258 OA
ATOM     25  O   UNL A   1      33.692  18.559  23.943  1.00  0.00    -0.258 OA
ENDBRANCH  17  23
ENDBRANCH  12  14
ENDBRANCH   7  12
ENDBRANCH   3   6
ENDBRANCH   1   2
BRANCH   1  26
ATOM     26  C   UNL A   1      31.507  32.143  26.512  1.00  0.00     0.042 C 
BRANCH  26  27
ATOM     27  C   UNL A   1      32.671  32.745  27.296  1.00  0.00     0.118 C 
BRANCH  27  28
ATOM     28  N   UNL A   1      32.441  34.146  27.625  1.00  0.00    -0.352 N 
ATOM     29  C   UNL A   1      33.008  34.929  28.600  1.00  0.00     0.251 C 
ATOM     30  H   UNL A   1      31.776  34.602  27.060  1.00  0.00     0.163 HD
ATOM     31  O   UNL A   1      32.518  36.021  28.868  1.00  0.00    -0.269 OA
BRANCH  29  32
ATOM     32  C   UNL A   1      34.198  34.458  29.338  1.00  0.00     0.039 A 
ATOM     33  C   UNL A   1      34.025  33.886  30.602  1.00  0.00     0.014 A 
ATOM     34  C   UNL A   1      35.480  34.602  28.803  1.00  0.00     0.014 A 
ATOM     35  C   UNL A   1      35.130  33.386  31.294  1.00  0.00     0.010 A 
ATOM     36  C   UNL A   1      36.573  34.047  29.465  1.00  0.00     0.010 A 
ATOM     37  C   UNL A   1      36.407  33.423  30.711  1.00  0.00    -0.014 A 
BRANCH  37  38
ATOM     38  C   UNL A   1      37.573  32.774  31.361  1.00  0.00     0.031 A 
ATOM     39  C   UNL A   1      38.254  31.605  30.713  1.00  0.00     0.074 A 
ATOM     40  C   UNL A   1      37.957  33.188  32.584  1.00  0.00     0.049 A 
ATOM     41  N   UNL A   1      39.210  30.841  31.179  1.00  0.00    -0.248 NA
ATOM     42  C   UNL A   1      37.785  31.228  29.371  1.00  0.00     0.031 C 
ATOM     43  C   UNL A   1      37.348  34.290  33.331  1.00  0.00     0.029 A 
ATOM     44  N   UNL A   1      38.936  32.720  33.424  1.00  0.00    -0.354 N 
ATOM     45  C   UNL A   1      39.448  29.890  30.196  1.00  0.00     0.074 A 
ATOM     46  C   UNL A   1      38.506  30.144  29.126  1.00  0.00     0.031 C 
ATOM     47  C   UNL A   1      37.972  34.420  34.512  1.00  0.00     0.029 A 
ATOM     48  C   UNL A   1      38.992  33.383  34.627  1.00  0.00     0.049 A 
ATOM     49  H   UNL A   1      39.540  31.980  33.188  1.00  0.00     0.167 HD
ATOM     50  C   UNL A   1      40.379  28.905  30.183  1.00  0.00     0.037 A 
ATOM     51  C   UNL A   1      39.764  33.164  35.708  1.00  0.00     0.037 A 
ATOM     52  C   UNL A   1      41.321  28.668  31.245  1.00  0.00     0.049 A 
ATOM     53  C   UNL A   1      40.764  32.041  35.682  1.00  0.00     0.074 A 
ATOM     54  C   UNL A   1      42.345  27.738  31.297  1.00  0.00     0.029 A 
ATOM     55  N   UNL A   1      41.348  29.360  32.447  1.00  0.00    -0.354 N 
ATOM     56  N   UNL A   1      41.027  31.192  34.719  1.00  0.00    -0.248 NA
ATOM     57  C   UNL A   1      41.572  31.844  36.893  1.00  0.00     0.031 C 
ATOM     58  C   UNL A   1      42.957  27.832  32.552  1.00  0.00     0.029 A 
ATOM     59  C   UNL A   1      42.349  28.855  33.261  1.00  0.00     0.049 A 
ATOM     60  H   UNL A   1      40.746  30.101  32.685  1.00  0.00     0.167 HD
ATOM     61  C   UNL A   1      42.042  30.376  35.197  1.00  0.00     0.074 A 
ATOM     62  C   UNL A   1      42.361  30.843  36.530  1.00  0.00     0.031 C 
ATOM     63  C   UNL A   1      42.655  29.331  34.586  1.00  0.00     0.037 A 
BRANCH  50  64
ATOM     64  C   UNL A   1      40.424  28.005  28.981  1.00  0.00     0.064 A 
ATOM     65  C   UNL A   1      39.692  26.810  28.929  1.00  0.00     0.173 A 
ATOM     66  C   UNL A   1      41.171  28.366  27.849  1.00  0.00     0.173 A 
ATOM     67  F   UNL A   1      38.968  26.415  29.986  1.00  0.00    -0.203 F 
ATOM     68  C   UNL A   1      39.728  25.996  27.799  1.00  0.00     0.198 A 
ATOM     69  C   UNL A   1      41.181  27.565  26.711  1.00  0.00     0.198 A 
ATOM     70  F   UNL A   1      41.884  29.503  27.842  1.00  0.00    -0.203 F 
ATOM     71  F   UNL A   1      39.056  24.836  27.790  1.00  0.00    -0.200 F 
ATOM     72  C   UNL A   1      40.466  26.377  26.689  1.00  0.00     0.200 A 
ATOM     73  F   UNL A   1      41.883  27.942  25.633  1.00  0.00    -0.200 F 
ATOM     74  F   UNL A   1      40.491  25.597  25.600  1.00  0.00    -0.200 F 
ENDBRANCH  50  64
BRANCH  51  75
ATOM     75  C   UNL A   1      39.622  34.031  36.907  1.00  0.00     0.064 A 
ATOM     76  C   UNL A   1      38.831  33.632  37.994  1.00  0.00     0.173 A 
ATOM     77  C   UNL A   1      40.271  35.272  36.994  1.00  0.00     0.173 A 
ATOM     78  F   UNL A   1      38.174  32.463  37.949  1.00  0.00    -0.203 F 
ATOM     79  C   UNL A   1      38.680  34.448  39.113  1.00  0.00     0.198 A 
ATOM     80  C   UNL A   1      40.143  36.074  38.126  1.00  0.00     0.198 A 
ATOM     81  F   UNL A   1      41.044  35.699  35.985  1.00  0.00    -0.203 F 
ATOM     82  F   UNL A   1      37.882  34.062  40.117  1.00  0.00    -0.200 F 
ATOM     83  C   UNL A   1      39.341  35.665  39.181  1.00  0.00     0.200 A 
ATOM     84  F   UNL A   1      40.796  37.242  38.195  1.00  0.00    -0.200 F 
ATOM     85  F   UNL A   1      39.200  36.447  40.260  1.00  0.00    -0.200 F 
ENDBRANCH  51  75
BRANCH  63  86
ATOM     86  C   UNL A   1      43.746  28.635  35.345  1.00  0.00     0.064 A 
ATOM     87  C   UNL A   1      43.471  27.567  36.211  1.00  0.00     0.173 A 
ATOM     88  C   UNL A   1      45.087  29.005  35.163  1.00  0.00     0.173 A 
ATOM     89  F   UNL A   1      42.204  27.186  36.432  1.00  0.00    -0.203 F 
ATOM     90  C   UNL A   1      44.497  26.907  36.882  1.00  0.00     0.198 A 
ATOM     91  C   UNL A   1      46.114  28.325  35.812  1.00  0.00     0.198 A 
ATOM     92  F   UNL A   1      45.404  30.017  34.342  1.00  0.00    -0.203 F 
ATOM     93  F   UNL A   1      44.208  25.917  37.738  1.00  0.00    -0.200 F 
ATOM     94  C   UNL A   1      45.818  27.280  36.676  1.00  0.00     0.200 A 
ATOM     95  F   UNL A   1      47.389  28.678  35.601  1.00  0.00    -0.200 F 
ATOM     96  F   UNL A   1      46.804  26.637  37.313  1.00  0.00    -0.200 F 
ENDBRANCH  63  86
ENDBRANCH  37  38
ENDBRANCH  29  32
ENDBRANCH  27  28
ENDBRANCH  26  27
ENDBRANCH   1  26
TORSDOF 14
ENDMDL
MODEL 3
REMARK VINA RESULT:     -13.0      0.290      1.617
REMARK SMILES Nc1nc(Nc2ccc(C(=O)NCCCNC(=O)c3ccc(-c4c5nc(c(-c6c(F)c(F)c(F)c(F)c6F)c6ccc([nH]6)c(-c6c(F)c(F)c(F)c(F)c6F)c6nc(c(-c7c(F)c(F)c(F)c(F)c7F)c7ccc4[nH]7)C=C6)C=C5)cc3)cc2)ccc1[N+](=O)[O-]
REMARK SMILES IDX 13 1 12 2 10 3 11 4 9 6 6 7 7 8 83 9 8 10 82 11 5 12 4 14
REMARK SMILES IDX 2 15 3 16 86 17 85 18 84 19 1 20 87 23 88 24 89 25 14 26
REMARK SMILES IDX 15 27 16 28 17 29 18 31 19 32 20 33 81 34 21 35 80 36 22 37
REMARK SMILES IDX 23 38 24 39 74 40 25 41 79 42 73 43 75 44 26 45 78 46 72 47
REMARK SMILES IDX 71 48 27 50 59 51 39 52 58 53 40 54 43 55 57 56 76 57 41 58
REMARK SMILES IDX 42 59 56 61 77 62 44 63 28 64 29 65 37 66 30 67 31 68 35 69
REMARK SMILES IDX 38 70 32 71 33 72 36 73 34 74 60 75 61 76 69 77 62 78 63 79
REMARK SMILES IDX 67 80 70 81 64 82 65 83 68 84 66 85 45 86 46 87 54 88 47 89
REMARK SMILES IDX 48 90 52 91 55 92 49 93 50 94 53 95 51 96
REMARK H PARENT 12 5 5 13 1 21 1 22 16 30 75 49 43 60
REMARK Flexibility Score: inf
ROOT
ATOM      1  C   UNL A   1      36.972  20.856  24.674  1.00  0.00     0.118 C 
ENDROOT
BRANCH   1   2
ATOM      2  N   UNL A   1      35.631  20.497  25.100  1.00  0.00    -0.352 N 
ATOM      3  C   UNL A   1      34.456  21.203  25.160  1.00  0.00     0.251 C 
ATOM      4  O   UNL A   1      33.453  20.604  25.547  1.00  0.00    -0.269 OA
ATOM      5  H   UNL A   1      35.548  19.565  25.407  1.00  0.00     0.163 HD
BRANCH   3   6
ATOM      6  C   UNL A   1      34.331  22.623  24.727  1.00  0.00     0.039 A 
ATOM      7  C   UNL A   1      34.026  25.363  24.102  1.00  0.00     0.040 A 
ATOM      8  C   UNL A   1      34.359  24.965  25.401  1.00  0.00     0.027 A 
ATOM      9  C   UNL A   1      33.872  24.382  23.121  1.00  0.00     0.027 A 
ATOM     10  C   UNL A   1      34.502  23.608  25.712  1.00  0.00     0.016 A 
ATOM     11  C   UNL A   1      34.074  23.030  23.418  1.00  0.00     0.016 A 
BRANCH   7  12
ATOM     12  N   UNL A   1      33.770  26.713  23.814  1.00  0.00    -0.340 N 
ATOM     13  H   UNL A   1      34.551  27.303  23.712  1.00  0.00     0.168 HD
BRANCH  12  14
ATOM     14  C   UNL A   1      32.500  27.302  23.660  1.00  0.00     0.133 A 
ATOM     15  C   UNL A   1      31.071  28.808  22.566  1.00  0.00     0.204 A 
ATOM     16  N   UNL A   1      32.300  28.264  22.728  1.00  0.00    -0.207 NA
ATOM     17  C   UNL A   1      30.002  28.419  23.365  1.00  0.00     0.311 A 
ATOM     18  C   UNL A   1      30.204  27.449  24.352  1.00  0.00     0.093 A 
ATOM     19  C   UNL A   1      31.471  26.891  24.501  1.00  0.00     0.054 A 
BRANCH  15  20
ATOM     20  N   UNL A   1      31.029  29.817  21.626  1.00  0.00    -0.378 N 
ATOM     21  H   UNL A   1      30.495  29.704  20.806  1.00  0.00     0.158 HD
ATOM     22  H   UNL A   1      31.532  30.650  21.774  1.00  0.00     0.158 HD
ENDBRANCH  15  20
BRANCH  17  23
ATOM     23  N   UNL A   1      28.668  28.976  23.182  1.00  0.00     0.066 N 
ATOM     24  O   UNL A   1      27.720  28.177  23.124  1.00  0.00    -0.258 OA
ATOM     25  O   UNL A   1      28.550  30.204  23.052  1.00  0.00    -0.258 OA
ENDBRANCH  17  23
ENDBRANCH  12  14
ENDBRANCH   7  12
ENDBRANCH   3   6
ENDBRANCH   1   2
BRANCH   1  26
ATOM     26  C   UNL A   1      37.963  19.738  25.001  1.00  0.00     0.042 C 
BRANCH  26  27
ATOM     27  C   UNL A   1      39.192  20.233  25.761  1.00  0.00     0.118 C 
BRANCH  27  28
ATOM     28  N   UNL A   1      40.192  19.185  25.923  1.00  0.00    -0.352 N 
ATOM     29  C   UNL A   1      41.549  19.281  26.104  1.00  0.00     0.251 C 
ATOM     30  H   UNL A   1      39.839  18.266  25.897  1.00  0.00     0.163 HD
ATOM     31  O   UNL A   1      42.253  18.282  25.989  1.00  0.00    -0.269 OA
BRANCH  29  32
ATOM     32  C   UNL A   1      42.171  20.583  26.423  1.00  0.00     0.039 A 
ATOM     33  C   UNL A   1      42.674  21.364  25.379  1.00  0.00     0.014 A 
ATOM     34  C   UNL A   1      42.283  21.022  27.744  1.00  0.00     0.014 A 
ATOM     35  C   UNL A   1      43.217  22.621  25.652  1.00  0.00     0.010 A 
ATOM     36  C   UNL A   1      42.767  22.300  28.010  1.00  0.00     0.010 A 
ATOM     37  C   UNL A   1      43.226  23.117  26.966  1.00  0.00    -0.014 A 
BRANCH  37  38
ATOM     38  C   UNL A   1      43.668  24.502  27.266  1.00  0.00     0.031 A 
ATOM     39  C   UNL A   1      42.681  25.533  27.732  1.00  0.00     0.074 A 
ATOM     40  C   UNL A   1      44.947  24.850  27.028  1.00  0.00     0.049 A 
ATOM     41  N   UNL A   1      42.855  26.814  27.934  1.00  0.00    -0.248 NA
ATOM     42  C   UNL A   1      41.309  25.066  27.984  1.00  0.00     0.031 C 
ATOM     43  C   UNL A   1      45.990  23.946  26.539  1.00  0.00     0.029 A 
ATOM     44  N   UNL A   1      45.586  26.060  27.145  1.00  0.00    -0.354 N 
ATOM     45  C   UNL A   1      41.617  27.308  28.323  1.00  0.00     0.074 A 
ATOM     46  C   UNL A   1      40.689  26.197  28.287  1.00  0.00     0.031 C 
ATOM     47  C   UNL A   1      47.138  24.628  26.408  1.00  0.00     0.029 A 
ATOM     48  C   UNL A   1      46.903  26.026  26.757  1.00  0.00     0.049 A 
ATOM     49  H   UNL A   1      45.142  26.874  27.475  1.00  0.00     0.167 HD
ATOM     50  C   UNL A   1      41.291  28.570  28.694  1.00  0.00     0.037 A 
ATOM     51  C   UNL A   1      47.813  27.014  26.670  1.00  0.00     0.037 A 
ATOM     52  C   UNL A   1      42.224  29.666  28.740  1.00  0.00     0.049 A 
ATOM     53  C   UNL A   1      47.415  28.414  27.051  1.00  0.00     0.074 A 
ATOM     54  C   UNL A   1      42.006  30.966  29.164  1.00  0.00     0.029 A 
ATOM     55  N   UNL A   1      43.550  29.593  28.341  1.00  0.00    -0.354 N 
ATOM     56  N   UNL A   1      46.260  28.855  27.485  1.00  0.00    -0.248 NA
ATOM     57  C   UNL A   1      48.446  29.453  26.928  1.00  0.00     0.031 C 
ATOM     58  C   UNL A   1      43.185  31.693  28.969  1.00  0.00     0.029 A 
ATOM     59  C   UNL A   1      44.153  30.834  28.476  1.00  0.00     0.049 A 
ATOM     60  H   UNL A   1      43.996  28.781  28.011  1.00  0.00     0.167 HD
ATOM     61  C   UNL A   1      46.429  30.214  27.707  1.00  0.00     0.074 A 
ATOM     62  C   UNL A   1      47.805  30.523  27.378  1.00  0.00     0.031 C 
ATOM     63  C   UNL A   1      45.525  31.126  28.144  1.00  0.00     0.037 A 
BRANCH  50  64
ATOM     64  C   UNL A   1      39.864  28.837  29.076  1.00  0.00     0.064 A 
ATOM     65  C   UNL A   1      38.912  29.245  28.129  1.00  0.00     0.173 A 
ATOM     66  C   UNL A   1      39.431  28.637  30.396  1.00  0.00     0.173 A 
ATOM     67  F   UNL A   1      39.276  29.459  26.856  1.00  0.00    -0.203 F 
ATOM     68  C   UNL A   1      37.587  29.469  28.494  1.00  0.00     0.198 A 
ATOM     69  C   UNL A   1      38.099  28.834  30.751  1.00  0.00     0.198 A 
ATOM     70  F   UNL A   1      40.297  28.239  31.340  1.00  0.00    -0.203 F 
ATOM     71  F   UNL A   1      36.706  29.902  27.582  1.00  0.00    -0.200 F 
ATOM     72  C   UNL A   1      37.180  29.257  29.803  1.00  0.00     0.200 A 
ATOM     73  F   UNL A   1      37.703  28.612  32.012  1.00  0.00    -0.200 F 
ATOM     74  F   UNL A   1      35.903  29.463  30.150  1.00  0.00    -0.200 F 
ENDBRANCH  50  64
BRANCH  51  75
ATOM     75  C   UNL A   1      49.193  26.714  26.205  1.00  0.00     0.064 A 
ATOM     76  C   UNL A   1      50.167  26.246  27.098  1.00  0.00     0.173 A 
ATOM     77  C   UNL A   1      49.566  26.886  24.864  1.00  0.00     0.173 A 
ATOM     78  F   UNL A   1      49.863  26.085  28.395  1.00  0.00    -0.203 F 
ATOM     79  C   UNL A   1      51.466  25.979  26.672  1.00  0.00     0.198 A 
ATOM     80  C   UNL A   1      50.858  26.591  24.432  1.00  0.00     0.198 A 
ATOM     81  F   UNL A   1      48.671  27.326  23.967  1.00  0.00    -0.203 F 
ATOM     82  F   UNL A   1      52.389  25.576  27.555  1.00  0.00    -0.200 F 
ATOM     83  C   UNL A   1      51.809  26.145  25.339  1.00  0.00     0.200 A 
ATOM     84  F   UNL A   1      51.180  26.737  23.140  1.00  0.00    -0.200 F 
ATOM     85  F   UNL A   1      53.057  25.884  24.928  1.00  0.00    -0.200 F 
ENDBRANCH  51  75
BRANCH  63  86
ATOM     86  C   UNL A   1      45.999  32.539  28.310  1.00  0.00     0.064 A 
ATOM     87  C   UNL A   1      45.874  33.481  27.279  1.00  0.00     0.173 A 
ATOM     88  C   UNL A   1      46.535  32.971  29.533  1.00  0.00     0.173 A 
ATOM     89  F   UNL A   1      45.383  33.115  26.086  1.00  0.00    -0.203 F 
ATOM     90  C   UNL A   1      46.287  34.799  27.460  1.00  0.00     0.198 A 
ATOM     91  C   UNL A   1      46.920  34.295  29.721  1.00  0.00     0.198 A 
ATOM     92  F   UNL A   1      46.672  32.109  30.553  1.00  0.00    -0.203 F 
ATOM     93  F   UNL A   1      46.198  35.672  26.447  1.00  0.00    -0.200 F 
ATOM     94  C   UNL A   1      46.800  35.207  28.682  1.00  0.00     0.200 A 
ATOM     95  F   UNL A   1      47.403  34.690  30.906  1.00  0.00    -0.200 F 
ATOM     96  F   UNL A   1      47.186  36.478  28.858  1.00  0.00    -0.200 F 
ENDBRANCH  63  86
ENDBRANCH  37  38
ENDBRANCH  29  32
ENDBRANCH  27  28
ENDBRANCH  26  27
ENDBRANCH   1  26
TORSDOF 14
ENDMDL
