MODEL 1
REMARK VINA RESULT:     -12.7      0.000      0.000
REMARK SMILES CCn1cccc1C(=O)N1CC[C@H](C(=O)NCCCNC(=O)c2ccc(-c3c4nc(c(-c5c(F)c(F)c(F)c(F)c5F)c5ccc([nH]5)c(-c5c(F)c(F)c(F)c(F)c5F)c5nc(c(-c6c(F)c(F)c(F)c(F)c6F)c6ccc3[nH]6)C=C5)C=C4)cc2)[C@H]1C
REMARK SMILES IDX 17 1 16 2 14 3 15 4 13 6 10 7 11 8 86 9 12 10 87 11 8 12
REMARK SMILES IDX 9 13 7 14 3 15 4 16 5 17 6 18 2 19 1 20 18 21 19 22 20 23
REMARK SMILES IDX 21 24 22 26 23 27 24 28 85 29 25 30 84 31 26 32 27 33 28 34
REMARK SMILES IDX 78 35 29 36 83 37 77 38 79 39 30 40 82 41 76 42 75 43 31 45
REMARK SMILES IDX 63 46 43 47 62 48 44 49 47 50 61 51 80 52 45 53 46 54 60 56
REMARK SMILES IDX 81 57 48 58 32 59 33 60 41 61 34 62 35 63 39 64 42 65 36 66
REMARK SMILES IDX 37 67 40 68 38 69 64 70 65 71 73 72 66 73 67 74 71 75 74 76
REMARK SMILES IDX 68 77 69 78 72 79 70 80 49 81 50 82 58 83 51 84 52 85 56 86
REMARK SMILES IDX 59 87 53 88 54 89 57 90 55 91
REMARK H PARENT 16 5 20 25 79 44 47 55
REMARK Flexibility Score: inf
ROOT
ATOM      1  C   UNL A   1      32.881  29.650  25.659  1.00  0.00     0.117 C 
ENDROOT
BRANCH   1   2
ATOM      2  N   UNL A   1      33.415  29.227  24.380  1.00  0.00    -0.356 N 
ATOM      3  C   UNL A   1      33.223  28.118  23.630  1.00  0.00     0.225 C 
ATOM      4  O   UNL A   1      33.769  28.119  22.519  1.00  0.00    -0.275 OA
ATOM      5  H   UNL A   1      34.040  29.874  23.979  1.00  0.00     0.163 HD
BRANCH   3   6
ATOM      6  C   UNL A   1      32.477  26.865  24.079  1.00  0.00     0.102 C 
ATOM      7  N   UNL A   1      32.777  24.588  23.356  1.00  0.00    -0.334 N 
ATOM      8  C   UNL A   1      31.812  25.214  22.464  1.00  0.00     0.121 C 
ATOM      9  C   UNL A   1      33.274  25.574  24.336  1.00  0.00     0.094 C 
ATOM     10  C   UNL A   1      31.340  26.477  23.144  1.00  0.00     0.037 C 
ATOM     11  C   UNL A   1      33.072  25.102  25.775  1.00  0.00     0.032 C 
BRANCH   7  12
ATOM     12  C   UNL A   1      33.662  23.705  22.741  1.00  0.00     0.270 C 
ATOM     13  O   UNL A   1      33.651  23.598  21.511  1.00  0.00    -0.267 OA
BRANCH  12  14
ATOM     14  C   UNL A   1      34.555  22.878  23.532  1.00  0.00     0.107 A 
ATOM     15  N   UNL A   1      34.371  21.713  24.255  1.00  0.00    -0.344 N 
ATOM     16  C   UNL A   1      35.594  21.301  24.764  1.00  0.00     0.086 A 
ATOM     17  C   UNL A   1      36.574  22.157  24.337  1.00  0.00     0.020 A 
ATOM     18  C   UNL A   1      35.928  23.139  23.573  1.00  0.00     0.033 A 
BRANCH  15  19
ATOM     19  C   UNL A   1      33.178  20.930  24.533  1.00  0.00     0.119 C 
ATOM     20  C   UNL A   1      32.080  21.559  25.369  1.00  0.00     0.027 C 
ENDBRANCH  15  19
ENDBRANCH  12  14
ENDBRANCH   7  12
ENDBRANCH   3   6
ENDBRANCH   1   2
BRANCH   1  21
ATOM     21  C   UNL A   1      33.455  28.864  26.836  1.00  0.00     0.042 C 
BRANCH  21  22
ATOM     22  C   UNL A   1      34.965  28.977  26.915  1.00  0.00     0.118 C 
BRANCH  22  23
ATOM     23  N   UNL A   1      35.360  30.299  27.389  1.00  0.00    -0.352 N 
ATOM     24  C   UNL A   1      36.488  30.681  28.075  1.00  0.00     0.251 C 
ATOM     25  H   UNL A   1      34.726  31.025  27.187  1.00  0.00     0.163 HD
ATOM     26  O   UNL A   1      36.546  31.765  28.628  1.00  0.00    -0.269 OA
BRANCH  24  27
ATOM     27  C   UNL A   1      37.616  29.741  28.177  1.00  0.00     0.039 A 
ATOM     28  C   UNL A   1      38.542  29.710  27.130  1.00  0.00     0.014 A 
ATOM     29  C   UNL A   1      37.760  28.915  29.296  1.00  0.00     0.014 A 
ATOM     30  C   UNL A   1      39.671  28.916  27.253  1.00  0.00     0.010 A 
ATOM     31  C   UNL A   1      38.918  28.175  29.455  1.00  0.00     0.010 A 
ATOM     32  C   UNL A   1      39.875  28.190  28.435  1.00  0.00    -0.014 A 
BRANCH  32  33
ATOM     33  C   UNL A   1      41.189  27.555  28.651  1.00  0.00     0.031 A 
ATOM     34  C   UNL A   1      41.195  26.099  28.133  1.00  0.00     0.074 A 
ATOM     35  C   UNL A   1      42.127  28.333  29.270  1.00  0.00     0.049 A 
ATOM     36  N   UNL A   1      41.853  25.063  28.553  1.00  0.00    -0.248 NA
ATOM     37  C   UNL A   1      40.272  25.721  27.024  1.00  0.00     0.031 C 
ATOM     38  C   UNL A   1      41.931  29.756  29.633  1.00  0.00     0.029 A 
ATOM     39  N   UNL A   1      43.412  28.118  29.725  1.00  0.00    -0.354 N 
ATOM     40  C   UNL A   1      41.581  23.985  27.674  1.00  0.00     0.074 A 
ATOM     41  C   UNL A   1      40.510  24.420  26.831  1.00  0.00     0.031 C 
ATOM     42  C   UNL A   1      42.995  30.240  30.305  1.00  0.00     0.029 A 
ATOM     43  C   UNL A   1      43.986  29.195  30.457  1.00  0.00     0.049 A 
ATOM     44  H   UNL A   1      43.898  27.279  29.554  1.00  0.00     0.167 HD
ATOM     45  C   UNL A   1      42.364  22.863  27.613  1.00  0.00     0.037 A 
ATOM     46  C   UNL A   1      45.143  29.220  31.190  1.00  0.00     0.037 A 
ATOM     47  C   UNL A   1      43.407  22.969  28.577  1.00  0.00     0.049 A 
ATOM     48  C   UNL A   1      45.766  27.913  30.948  1.00  0.00     0.074 A 
ATOM     49  C   UNL A   1      43.411  22.885  29.942  1.00  0.00     0.029 A 
ATOM     50  N   UNL A   1      44.568  23.567  28.154  1.00  0.00    -0.354 N 
ATOM     51  N   UNL A   1      46.351  27.565  29.841  1.00  0.00    -0.248 NA
ATOM     52  C   UNL A   1      45.613  26.868  31.968  1.00  0.00     0.031 C 
ATOM     53  C   UNL A   1      44.331  23.886  30.317  1.00  0.00     0.029 A 
ATOM     54  C   UNL A   1      45.020  24.345  29.187  1.00  0.00     0.049 A 
ATOM     55  H   UNL A   1      44.996  23.457  27.275  1.00  0.00     0.167 HD
ATOM     56  C   UNL A   1      46.325  26.195  29.923  1.00  0.00     0.074 A 
ATOM     57  C   UNL A   1      46.187  25.859  31.323  1.00  0.00     0.031 C 
ATOM     58  C   UNL A   1      45.864  25.471  28.872  1.00  0.00     0.037 A 
BRANCH  45  59
ATOM     59  C   UNL A   1      42.507  21.745  26.610  1.00  0.00     0.064 A 
ATOM     60  C   UNL A   1      42.066  20.449  26.994  1.00  0.00     0.173 A 
ATOM     61  C   UNL A   1      43.371  21.795  25.511  1.00  0.00     0.173 A 
ATOM     62  F   UNL A   1      41.182  20.290  27.993  1.00  0.00    -0.203 F 
ATOM     63  C   UNL A   1      42.596  19.287  26.437  1.00  0.00     0.198 A 
ATOM     64  C   UNL A   1      43.857  20.626  24.916  1.00  0.00     0.198 A 
ATOM     65  F   UNL A   1      43.842  22.961  25.053  1.00  0.00    -0.203 F 
ATOM     66  F   UNL A   1      42.275  18.090  26.950  1.00  0.00    -0.200 F 
ATOM     67  C   UNL A   1      43.512  19.377  25.410  1.00  0.00     0.200 A 
ATOM     68  F   UNL A   1      44.734  20.713  23.906  1.00  0.00    -0.200 F 
ATOM     69  F   UNL A   1      44.088  18.271  24.922  1.00  0.00    -0.200 F 
ENDBRANCH  45  59
BRANCH  46  70
ATOM     70  C   UNL A   1      45.815  30.119  32.208  1.00  0.00     0.064 A 
ATOM     71  C   UNL A   1      47.046  30.768  32.058  1.00  0.00     0.173 A 
ATOM     72  C   UNL A   1      45.148  30.427  33.431  1.00  0.00     0.173 A 
ATOM     73  F   UNL A   1      47.866  30.470  31.046  1.00  0.00    -0.203 F 
ATOM     74  C   UNL A   1      47.496  31.740  32.976  1.00  0.00     0.198 A 
ATOM     75  C   UNL A   1      45.565  31.423  34.314  1.00  0.00     0.198 A 
ATOM     76  F   UNL A   1      44.052  29.766  33.825  1.00  0.00    -0.203 F 
ATOM     77  F   UNL A   1      48.677  32.343  32.781  1.00  0.00    -0.200 F 
ATOM     78  C   UNL A   1      46.734  32.099  34.074  1.00  0.00     0.200 A 
ATOM     79  F   UNL A   1      44.808  31.723  35.378  1.00  0.00    -0.200 F 
ATOM     80  F   UNL A   1      47.131  33.071  34.906  1.00  0.00    -0.200 F 
ENDBRANCH  46  70
BRANCH  58  81
ATOM     81  C   UNL A   1      45.975  26.175  27.532  1.00  0.00     0.064 A 
ATOM     82  C   UNL A   1      47.242  26.489  27.017  1.00  0.00     0.173 A 
ATOM     83  C   UNL A   1      44.878  26.650  26.793  1.00  0.00     0.173 A 
ATOM     84  F   UNL A   1      48.344  26.056  27.647  1.00  0.00    -0.203 F 
ATOM     85  C   UNL A   1      47.398  27.245  25.852  1.00  0.00     0.198 A 
ATOM     86  C   UNL A   1      45.028  27.402  25.625  1.00  0.00     0.198 A 
ATOM     87  F   UNL A   1      43.634  26.393  27.185  1.00  0.00    -0.203 F 
ATOM     88  F   UNL A   1      48.627  27.522  25.397  1.00  0.00    -0.200 F 
ATOM     89  C   UNL A   1      46.291  27.705  25.157  1.00  0.00     0.200 A 
ATOM     90  F   UNL A   1      43.944  27.824  24.954  1.00  0.00    -0.200 F 
ATOM     91  F   UNL A   1      46.440  28.419  24.033  1.00  0.00    -0.200 F 
ENDBRANCH  58  81
ENDBRANCH  32  33
ENDBRANCH  24  27
ENDBRANCH  22  23
ENDBRANCH  21  22
ENDBRANCH   1  21
TORSDOF 13
ENDMDL
MODEL 2
REMARK VINA RESULT:     -12.6      4.750      9.712
REMARK SMILES CCn1cccc1C(=O)N1CC[C@H](C(=O)NCCCNC(=O)c2ccc(-c3c4nc(c(-c5c(F)c(F)c(F)c(F)c5F)c5ccc([nH]5)c(-c5c(F)c(F)c(F)c(F)c5F)c5nc(c(-c6c(F)c(F)c(F)c(F)c6F)c6ccc3[nH]6)C=C5)C=C4)cc2)[C@H]1C
REMARK SMILES IDX 17 1 16 2 14 3 15 4 13 6 10 7 11 8 86 9 12 10 87 11 8 12
REMARK SMILES IDX 9 13 7 14 3 15 4 16 5 17 6 18 2 19 1 20 18 21 19 22 20 23
REMARK SMILES IDX 21 24 22 26 23 27 24 28 85 29 25 30 84 31 26 32 27 33 28 34
REMARK SMILES IDX 78 35 29 36 83 37 77 38 79 39 30 40 82 41 76 42 75 43 31 45
REMARK SMILES IDX 63 46 43 47 62 48 44 49 47 50 61 51 80 52 45 53 46 54 60 56
REMARK SMILES IDX 81 57 48 58 32 59 33 60 41 61 34 62 35 63 39 64 42 65 36 66
REMARK SMILES IDX 37 67 40 68 38 69 64 70 65 71 73 72 66 73 67 74 71 75 74 76
REMARK SMILES IDX 68 77 69 78 72 79 70 80 49 81 50 82 58 83 51 84 52 85 56 86
REMARK SMILES IDX 59 87 53 88 54 89 57 90 55 91
REMARK H PARENT 16 5 20 25 79 44 47 55
REMARK Flexibility Score: inf
ROOT
ATOM      1  C   UNL A   1      36.618  22.098  25.201  1.00  0.00     0.117 C 
ENDROOT
BRANCH   1   2
ATOM      2  N   UNL A   1      35.715  21.870  26.311  1.00  0.00    -0.356 N 
ATOM      3  C   UNL A   1      34.367  21.785  26.391  1.00  0.00     0.225 C 
ATOM      4  O   UNL A   1      33.913  21.478  27.501  1.00  0.00    -0.275 OA
ATOM      5  H   UNL A   1      36.172  21.755  27.176  1.00  0.00     0.163 HD
BRANCH   3   6
ATOM      6  C   UNL A   1      33.392  22.119  25.267  1.00  0.00     0.102 C 
ATOM      7  N   UNL A   1      31.652  23.784  25.221  1.00  0.00    -0.334 N 
ATOM      8  C   UNL A   1      31.082  22.560  25.766  1.00  0.00     0.121 C 
ATOM      9  C   UNL A   1      33.092  23.595  24.953  1.00  0.00     0.094 C 
ATOM     10  C   UNL A   1      32.037  21.441  25.427  1.00  0.00     0.037 C 
ATOM     11  C   UNL A   1      33.449  23.914  23.503  1.00  0.00     0.032 C 
BRANCH   7  12
ATOM     12  C   UNL A   1      31.198  24.960  25.814  1.00  0.00     0.270 C 
ATOM     13  O   UNL A   1      31.102  25.018  27.043  1.00  0.00    -0.267 OA
BRANCH  12  14
ATOM     14  C   UNL A   1      30.790  26.091  25.001  1.00  0.00     0.107 A 
ATOM     15  N   UNL A   1      31.429  27.256  24.615  1.00  0.00    -0.344 N 
ATOM     16  C   UNL A   1      30.595  27.966  23.762  1.00  0.00     0.086 A 
ATOM     17  C   UNL A   1      29.448  27.249  23.552  1.00  0.00     0.020 A 
ATOM     18  C   UNL A   1      29.567  26.085  24.323  1.00  0.00     0.033 A 
BRANCH  15  19
ATOM     19  C   UNL A   1      32.737  27.796  24.953  1.00  0.00     0.119 C 
ATOM     20  C   UNL A   1      33.865  27.630  23.955  1.00  0.00     0.027 C 
ENDBRANCH  15  19
ENDBRANCH  12  14
ENDBRANCH   7  12
ENDBRANCH   3   6
ENDBRANCH   1   2
BRANCH   1  21
ATOM     21  C   UNL A   1      37.069  23.554  25.086  1.00  0.00     0.042 C 
BRANCH  21  22
ATOM     22  C   UNL A   1      37.517  24.118  26.420  1.00  0.00     0.118 C 
BRANCH  22  23
ATOM     23  N   UNL A   1      38.829  23.596  26.787  1.00  0.00    -0.352 N 
ATOM     24  C   UNL A   1      39.916  24.254  27.311  1.00  0.00     0.251 C 
ATOM     25  H   UNL A   1      38.954  22.631  26.638  1.00  0.00     0.163 HD
ATOM     26  O   UNL A   1      41.019  23.736  27.314  1.00  0.00    -0.269 OA
BRANCH  24  27
ATOM     27  C   UNL A   1      39.744  25.621  27.829  1.00  0.00     0.039 A 
ATOM     28  C   UNL A   1      39.224  25.775  29.117  1.00  0.00     0.014 A 
ATOM     29  C   UNL A   1      40.104  26.729  27.056  1.00  0.00     0.014 A 
ATOM     30  C   UNL A   1      39.157  27.044  29.669  1.00  0.00     0.010 A 
ATOM     31  C   UNL A   1      40.105  27.989  27.627  1.00  0.00     0.010 A 
ATOM     32  C   UNL A   1      39.642  28.138  28.938  1.00  0.00    -0.014 A 
BRANCH  32  33
ATOM     33  C   UNL A   1      39.795  29.432  29.629  1.00  0.00     0.031 A 
ATOM     34  C   UNL A   1      38.553  30.326  29.416  1.00  0.00     0.074 A 
ATOM     35  C   UNL A   1      40.976  29.612  30.293  1.00  0.00     0.049 A 
ATOM     36  N   UNL A   1      38.451  31.618  29.353  1.00  0.00    -0.248 NA
ATOM     37  C   UNL A   1      37.232  29.682  29.160  1.00  0.00     0.031 C 
ATOM     38  C   UNL A   1      42.029  28.579  30.430  1.00  0.00     0.029 A 
ATOM     39  N   UNL A   1      41.548  30.666  30.976  1.00  0.00    -0.354 N 
ATOM     40  C   UNL A   1      37.076  31.945  29.244  1.00  0.00     0.074 A 
ATOM     41  C   UNL A   1      36.392  30.710  29.006  1.00  0.00     0.031 C 
ATOM     42  C   UNL A   1      43.114  29.068  31.063  1.00  0.00     0.029 A 
ATOM     43  C   UNL A   1      42.891  30.459  31.398  1.00  0.00     0.049 A 
ATOM     44  H   UNL A   1      41.061  31.501  31.160  1.00  0.00     0.167 HD
ATOM     45  C   UNL A   1      36.589  33.198  29.504  1.00  0.00     0.037 A 
ATOM     46  C   UNL A   1      43.782  31.362  31.917  1.00  0.00     0.037 A 
ATOM     47  C   UNL A   1      37.672  34.059  29.838  1.00  0.00     0.049 A 
ATOM     48  C   UNL A   1      43.005  32.596  32.087  1.00  0.00     0.074 A 
ATOM     49  C   UNL A   1      38.673  34.615  29.089  1.00  0.00     0.029 A 
ATOM     50  N   UNL A   1      38.010  34.125  31.167  1.00  0.00    -0.354 N 
ATOM     51  N   UNL A   1      42.112  32.788  33.011  1.00  0.00    -0.248 NA
ATOM     52  C   UNL A   1      43.138  33.649  31.072  1.00  0.00     0.031 C 
ATOM     53  C   UNL A   1      39.790  34.532  29.943  1.00  0.00     0.029 A 
ATOM     54  C   UNL A   1      39.377  34.178  31.234  1.00  0.00     0.049 A 
ATOM     55  H   UNL A   1      37.387  34.133  31.930  1.00  0.00     0.167 HD
ATOM     56  C   UNL A   1      41.371  33.816  32.483  1.00  0.00     0.074 A 
ATOM     57  C   UNL A   1      42.213  34.490  31.519  1.00  0.00     0.031 C 
ATOM     58  C   UNL A   1      40.020  33.711  32.437  1.00  0.00     0.037 A 
BRANCH  45  59
ATOM     59  C   UNL A   1      35.208  33.745  29.769  1.00  0.00     0.064 A 
ATOM     60  C   UNL A   1      34.635  34.603  28.790  1.00  0.00     0.173 A 
ATOM     61  C   UNL A   1      34.623  33.792  31.039  1.00  0.00     0.173 A 
ATOM     62  F   UNL A   1      35.075  34.590  27.521  1.00  0.00    -0.203 F 
ATOM     63  C   UNL A   1      33.676  35.562  29.110  1.00  0.00     0.198 A 
ATOM     64  C   UNL A   1      33.619  34.718  31.342  1.00  0.00     0.198 A 
ATOM     65  F   UNL A   1      35.071  33.021  32.037  1.00  0.00    -0.203 F 
ATOM     66  F   UNL A   1      33.293  36.460  28.191  1.00  0.00    -0.200 F 
ATOM     67  C   UNL A   1      33.184  35.634  30.396  1.00  0.00     0.200 A 
ATOM     68  F   UNL A   1      33.127  34.776  32.588  1.00  0.00    -0.200 F 
ATOM     69  F   UNL A   1      32.323  36.603  30.734  1.00  0.00    -0.200 F 
ENDBRANCH  45  59
BRANCH  46  70
ATOM     70  C   UNL A   1      45.267  31.445  32.203  1.00  0.00     0.064 A 
ATOM     71  C   UNL A   1      45.884  31.284  33.449  1.00  0.00     0.173 A 
ATOM     72  C   UNL A   1      46.187  31.638  31.128  1.00  0.00     0.173 A 
ATOM     73  F   UNL A   1      45.166  31.249  34.575  1.00  0.00    -0.203 F 
ATOM     74  C   UNL A   1      47.284  31.182  33.584  1.00  0.00     0.198 A 
ATOM     75  C   UNL A   1      47.567  31.487  31.250  1.00  0.00     0.198 A 
ATOM     76  F   UNL A   1      45.777  31.986  29.902  1.00  0.00    -0.203 F 
ATOM     77  F   UNL A   1      47.825  31.015  34.799  1.00  0.00    -0.200 F 
ATOM     78  C   UNL A   1      48.118  31.236  32.481  1.00  0.00     0.200 A 
ATOM     79  F   UNL A   1      48.342  31.570  30.159  1.00  0.00    -0.200 F 
ATOM     80  F   UNL A   1      49.442  31.069  32.604  1.00  0.00    -0.200 F 
ENDBRANCH  46  70
BRANCH  58  81
ATOM     81  C   UNL A   1      39.431  32.772  33.474  1.00  0.00     0.064 A 
ATOM     82  C   UNL A   1      39.558  33.076  34.838  1.00  0.00     0.173 A 
ATOM     83  C   UNL A   1      38.846  31.529  33.175  1.00  0.00     0.173 A 
ATOM     84  F   UNL A   1      40.084  34.251  35.212  1.00  0.00    -0.203 F 
ATOM     85  C   UNL A   1      39.146  32.186  35.834  1.00  0.00     0.198 A 
ATOM     86  C   UNL A   1      38.428  30.637  34.166  1.00  0.00     0.198 A 
ATOM     87  F   UNL A   1      38.664  31.150  31.914  1.00  0.00    -0.203 F 
ATOM     88  F   UNL A   1      39.287  32.518  37.124  1.00  0.00    -0.200 F 
ATOM     89  C   UNL A   1      38.583  30.965  35.498  1.00  0.00     0.200 A 
ATOM     90  F   UNL A   1      37.868  29.466  33.824  1.00  0.00    -0.200 F 
ATOM     91  F   UNL A   1      38.176  30.117  36.454  1.00  0.00    -0.200 F 
ENDBRANCH  58  81
ENDBRANCH  32  33
ENDBRANCH  24  27
ENDBRANCH  22  23
ENDBRANCH  21  22
ENDBRANCH   1  21
TORSDOF 13
ENDMDL
MODEL 3
REMARK VINA RESULT:     -12.4      3.010      8.018
REMARK SMILES CCn1cccc1C(=O)N1CC[C@H](C(=O)NCCCNC(=O)c2ccc(-c3c4nc(c(-c5c(F)c(F)c(F)c(F)c5F)c5ccc([nH]5)c(-c5c(F)c(F)c(F)c(F)c5F)c5nc(c(-c6c(F)c(F)c(F)c(F)c6F)c6ccc3[nH]6)C=C5)C=C4)cc2)[C@H]1C
REMARK SMILES IDX 17 1 16 2 14 3 15 4 13 6 10 7 11 8 86 9 12 10 87 11 8 12
REMARK SMILES IDX 9 13 7 14 3 15 4 16 5 17 6 18 2 19 1 20 18 21 19 22 20 23
REMARK SMILES IDX 21 24 22 26 23 27 24 28 85 29 25 30 84 31 26 32 27 33 28 34
REMARK SMILES IDX 78 35 29 36 83 37 77 38 79 39 30 40 82 41 76 42 75 43 31 45
REMARK SMILES IDX 63 46 43 47 62 48 44 49 47 50 61 51 80 52 45 53 46 54 60 56
REMARK SMILES IDX 81 57 48 58 32 59 33 60 41 61 34 62 35 63 39 64 42 65 36 66
REMARK SMILES IDX 37 67 40 68 38 69 64 70 65 71 73 72 66 73 67 74 71 75 74 76
REMARK SMILES IDX 68 77 69 78 72 79 70 80 49 81 50 82 58 83 51 84 52 85 56 86
REMARK SMILES IDX 59 87 53 88 54 89 57 90 55 91
REMARK H PARENT 16 5 20 25 79 44 47 55
REMARK Flexibility Score: inf
ROOT
ATOM      1  C   UNL A   1      36.919  20.668  25.035  1.00  0.00     0.117 C 
ENDROOT
BRANCH   1   2
ATOM      2  N   UNL A   1      37.076  21.687  24.017  1.00  0.00    -0.356 N 
ATOM      3  C   UNL A   1      36.267  22.682  23.586  1.00  0.00     0.225 C 
ATOM      4  O   UNL A   1      36.759  23.451  22.751  1.00  0.00    -0.275 OA
ATOM      5  H   UNL A   1      37.940  21.647  23.548  1.00  0.00     0.163 HD
BRANCH   3   6
ATOM      6  C   UNL A   1      34.804  22.865  23.979  1.00  0.00     0.102 C 
ATOM      7  N   UNL A   1      33.333  24.711  23.505  1.00  0.00    -0.334 N 
ATOM      8  C   UNL A   1      34.022  25.002  24.754  1.00  0.00     0.121 C 
ATOM      9  C   UNL A   1      33.820  23.435  22.943  1.00  0.00     0.094 C 
ATOM     10  C   UNL A   1      34.622  23.703  25.237  1.00  0.00     0.037 C 
ATOM     11  C   UNL A   1      32.680  22.449  22.693  1.00  0.00     0.032 C 
BRANCH   7  12
ATOM     12  C   UNL A   1      33.132  25.811  22.674  1.00  0.00     0.270 C 
ATOM     13  O   UNL A   1      33.789  25.910  21.634  1.00  0.00    -0.267 OA
BRANCH  12  14
ATOM     14  C   UNL A   1      32.200  26.861  23.044  1.00  0.00     0.107 A 
ATOM     15  N   UNL A   1      32.361  28.104  23.628  1.00  0.00    -0.344 N 
ATOM     16  C   UNL A   1      31.127  28.737  23.688  1.00  0.00     0.086 A 
ATOM     17  C   UNL A   1      30.180  27.939  23.104  1.00  0.00     0.020 A 
ATOM     18  C   UNL A   1      30.846  26.771  22.706  1.00  0.00     0.033 A 
BRANCH  15  19
ATOM     19  C   UNL A   1      33.540  28.780  24.145  1.00  0.00     0.119 C 
ATOM     20  C   UNL A   1      33.903  28.584  25.604  1.00  0.00     0.027 C 
ENDBRANCH  15  19
ENDBRANCH  12  14
ENDBRANCH   7  12
ENDBRANCH   3   6
ENDBRANCH   1   2
BRANCH   1  21
ATOM     21  C   UNL A   1      38.049  19.640  25.031  1.00  0.00     0.042 C 
BRANCH  21  22
ATOM     22  C   UNL A   1      39.262  20.123  25.802  1.00  0.00     0.118 C 
BRANCH  22  23
ATOM     23  N   UNL A   1      40.261  19.067  25.910  1.00  0.00    -0.352 N 
ATOM     24  C   UNL A   1      41.619  19.163  26.096  1.00  0.00     0.251 C 
ATOM     25  H   UNL A   1      39.912  18.149  25.840  1.00  0.00     0.163 HD
ATOM     26  O   UNL A   1      42.347  18.206  25.899  1.00  0.00    -0.269 OA
BRANCH  24  27
ATOM     27  C   UNL A   1      42.197  20.458  26.491  1.00  0.00     0.039 A 
ATOM     28  C   UNL A   1      42.685  21.294  25.482  1.00  0.00     0.014 A 
ATOM     29  C   UNL A   1      42.242  20.842  27.834  1.00  0.00     0.014 A 
ATOM     30  C   UNL A   1      43.130  22.563  25.816  1.00  0.00     0.010 A 
ATOM     31  C   UNL A   1      42.619  22.131  28.165  1.00  0.00     0.010 A 
ATOM     32  C   UNL A   1      43.050  22.990  27.149  1.00  0.00    -0.014 A 
BRANCH  32  33
ATOM     33  C   UNL A   1      43.291  24.415  27.445  1.00  0.00     0.031 A 
ATOM     34  C   UNL A   1      41.959  25.182  27.611  1.00  0.00     0.074 A 
ATOM     35  C   UNL A   1      44.603  24.796  27.496  1.00  0.00     0.049 A 
ATOM     36  N   UNL A   1      41.664  26.418  27.349  1.00  0.00    -0.248 NA
ATOM     37  C   UNL A   1      40.749  24.440  28.071  1.00  0.00     0.031 C 
ATOM     38  C   UNL A   1      45.751  23.869  27.371  1.00  0.00     0.029 A 
ATOM     39  N   UNL A   1      45.252  26.003  27.654  1.00  0.00    -0.354 N 
ATOM     40  C   UNL A   1      40.332  26.650  27.773  1.00  0.00     0.074 A 
ATOM     41  C   UNL A   1      39.787  25.366  28.092  1.00  0.00     0.031 C 
ATOM     42  C   UNL A   1      46.922  24.538  27.375  1.00  0.00     0.029 A 
ATOM     43  C   UNL A   1      46.666  25.958  27.497  1.00  0.00     0.049 A 
ATOM     44  H   UNL A   1      44.772  26.837  27.862  1.00  0.00     0.167 HD
ATOM     45  C   UNL A   1      39.826  27.907  27.967  1.00  0.00     0.037 A 
ATOM     46  C   UNL A   1      47.557  26.994  27.403  1.00  0.00     0.037 A 
ATOM     47  C   UNL A   1      40.822  28.869  27.636  1.00  0.00     0.049 A 
ATOM     48  C   UNL A   1      46.755  28.199  27.644  1.00  0.00     0.074 A 
ATOM     49  C   UNL A   1      41.349  29.277  26.441  1.00  0.00     0.029 A 
ATOM     50  N   UNL A   1      41.656  29.257  28.656  1.00  0.00    -0.354 N 
ATOM     51  N   UNL A   1      46.295  28.563  28.804  1.00  0.00    -0.248 NA
ATOM     52  C   UNL A   1      46.321  28.991  26.486  1.00  0.00     0.031 C 
ATOM     53  C   UNL A   1      42.716  29.443  26.738  1.00  0.00     0.029 A 
ATOM     54  C   UNL A   1      42.913  29.382  28.124  1.00  0.00     0.049 A 
ATOM     55  H   UNL A   1      41.401  29.416  29.593  1.00  0.00     0.167 HD
ATOM     56  C   UNL A   1      45.271  29.407  28.452  1.00  0.00     0.074 A 
ATOM     57  C   UNL A   1      45.550  29.873  27.112  1.00  0.00     0.031 C 
ATOM     58  C   UNL A   1      44.044  29.236  29.006  1.00  0.00     0.037 A 
BRANCH  45  59
ATOM     59  C   UNL A   1      38.609  28.442  28.681  1.00  0.00     0.064 A 
ATOM     60  C   UNL A   1      37.909  29.524  28.081  1.00  0.00     0.173 A 
ATOM     61  C   UNL A   1      38.350  28.226  30.040  1.00  0.00     0.173 A 
ATOM     62  F   UNL A   1      38.030  29.779  26.768  1.00  0.00    -0.203 F 
ATOM     63  C   UNL A   1      37.153  30.427  28.826  1.00  0.00     0.198 A 
ATOM     64  C   UNL A   1      37.544  29.104  30.774  1.00  0.00     0.198 A 
ATOM     65  F   UNL A   1      38.944  27.231  30.709  1.00  0.00    -0.203 F 
ATOM     66  F   UNL A   1      36.654  31.526  28.241  1.00  0.00    -0.200 F 
ATOM     67  C   UNL A   1      36.991  30.228  30.181  1.00  0.00     0.200 A 
ATOM     68  F   UNL A   1      37.371  28.901  32.087  1.00  0.00    -0.200 F 
ATOM     69  F   UNL A   1      36.335  31.133  30.920  1.00  0.00    -0.200 F 
ENDBRANCH  45  59
BRANCH  46  70
ATOM     70  C   UNL A   1      49.005  27.205  27.009  1.00  0.00     0.064 A 
ATOM     71  C   UNL A   1      50.033  27.667  27.839  1.00  0.00     0.173 A 
ATOM     72  C   UNL A   1      49.441  26.853  25.697  1.00  0.00     0.173 A 
ATOM     73  F   UNL A   1      49.769  28.183  29.043  1.00  0.00    -0.203 F 
ATOM     74  C   UNL A   1      51.386  27.643  27.440  1.00  0.00     0.198 A 
ATOM     75  C   UNL A   1      50.781  26.779  25.317  1.00  0.00     0.198 A 
ATOM     76  F   UNL A   1      48.575  26.563  24.718  1.00  0.00    -0.203 F 
ATOM     77  F   UNL A   1      52.334  28.086  28.277  1.00  0.00    -0.200 F 
ATOM     78  C   UNL A   1      51.760  27.156  26.200  1.00  0.00     0.200 A 
ATOM     79  F   UNL A   1      51.100  26.323  24.098  1.00  0.00    -0.200 F 
ATOM     80  F   UNL A   1      53.051  27.069  25.851  1.00  0.00    -0.200 F 
ENDBRANCH  46  70
BRANCH  58  81
ATOM     81  C   UNL A   1      44.059  28.541  30.355  1.00  0.00     0.064 A 
ATOM     82  C   UNL A   1      44.456  29.251  31.498  1.00  0.00     0.173 A 
ATOM     83  C   UNL A   1      43.805  27.171  30.542  1.00  0.00     0.173 A 
ATOM     84  F   UNL A   1      44.696  30.568  31.414  1.00  0.00    -0.203 F 
ATOM     85  C   UNL A   1      44.607  28.626  32.739  1.00  0.00     0.198 A 
ATOM     86  C   UNL A   1      43.950  26.542  31.781  1.00  0.00     0.198 A 
ATOM     87  F   UNL A   1      43.407  26.409  29.527  1.00  0.00    -0.203 F 
ATOM     88  F   UNL A   1      44.989  29.343  33.804  1.00  0.00    -0.200 F 
ATOM     89  C   UNL A   1      44.357  27.271  32.880  1.00  0.00     0.200 A 
ATOM     90  F   UNL A   1      43.686  25.231  31.905  1.00  0.00    -0.200 F 
ATOM     91  F   UNL A   1      44.490  26.675  34.074  1.00  0.00    -0.200 F 
ENDBRANCH  58  81
ENDBRANCH  32  33
ENDBRANCH  24  27
ENDBRANCH  22  23
ENDBRANCH  21  22
ENDBRANCH   1  21
TORSDOF 13
ENDMDL
