MODEL 1
REMARK VINA RESULT:     -14.4      0.000      0.000
REMARK SMILES CCCOC(=O)c1c(NC(=O)[C@@H]2CC=CC[C@H]2C(=O)NCCCNC(=O)c2ccc(-c3c4nc(c(-c5c(F)c(F)c(F)c(F)c5F)c5ccc([nH]5)c(-c5c(F)c(F)c(F)c(F)c5F)c5nc(c(-c6c(F)c(F)c(F)c(F)c6F)c6ccc3[nH]6)C=C5)C=C4)cc2)sc2c1CCCC2
REMARK SMILES IDX 18 1 19 2 20 3 17 5 12 6 13 7 14 8 16 9 15 10 10 11 9 12
REMARK SMILES IDX 11 14 8 15 7 16 92 17 90 18 91 19 93 20 96 21 94 22 95 23
REMARK SMILES IDX 5 24 6 25 4 26 3 27 2 28 1 29 21 30 22 31 23 32 24 33 25 34
REMARK SMILES IDX 26 36 27 37 28 38 89 39 29 40 88 41 30 42 31 43 32 44 82 45
REMARK SMILES IDX 33 46 87 47 81 48 83 49 34 50 86 51 80 52 79 53 35 55 67 56
REMARK SMILES IDX 47 57 66 58 48 59 51 60 65 61 84 62 49 63 50 64 64 66 85 67
REMARK SMILES IDX 52 68 36 69 37 70 45 71 38 72 39 73 43 74 46 75 40 76 41 77
REMARK SMILES IDX 44 78 42 79 68 80 69 81 77 82 70 83 71 84 75 85 78 86 72 87
REMARK SMILES IDX 73 88 76 89 74 90 53 91 54 92 62 93 55 94 56 95 60 96 63 97
REMARK SMILES IDX 57 98 58 99 61 100 59 101
REMARK H PARENT 20 4 9 13 24 35 83 54 51 65
REMARK Flexibility Score: inf
ROOT
ATOM      1  C   UNL A   1      33.888  24.668  26.289  1.00  0.00     0.224 C 
ATOM      2  O   UNL A   1      33.148  24.208  27.185  1.00  0.00    -0.275 OA
ATOM      3  N   UNL A   1      33.516  26.073  25.975  1.00  0.00    -0.356 N 
ATOM      4  H   UNL A   1      32.798  26.290  26.613  1.00  0.00     0.163 HD
ENDROOT
BRANCH   1   5
ATOM      5  C   UNL A   1      35.139  23.469  25.669  1.00  0.00     0.095 C 
ATOM      6  C   UNL A   1      34.742  21.990  25.425  1.00  0.00     0.095 C 
ATOM      7  C   UNL A   1      35.929  20.974  25.404  1.00  0.00     0.041 C 
ATOM      8  C   UNL A   1      37.115  21.381  24.603  1.00  0.00    -0.030 C 
ATOM      9  C   UNL A   1      36.279  23.703  24.543  1.00  0.00     0.041 C 
ATOM     10  C   UNL A   1      37.287  22.646  24.237  1.00  0.00    -0.030 C 
BRANCH   6  11
ATOM     11  C   UNL A   1      33.774  21.449  26.414  1.00  0.00     0.229 C 
ATOM     12  N   UNL A   1      32.533  21.180  25.968  1.00  0.00    -0.317 N 
ATOM     13  H   UNL A   1      32.121  20.375  26.356  1.00  0.00     0.170 HD
ATOM     14  O   UNL A   1      34.099  21.086  27.544  1.00  0.00    -0.274 OA
BRANCH  12  15
ATOM     15  C   UNL A   1      31.752  21.844  25.063  1.00  0.00     0.110 A 
ATOM     16  C   UNL A   1      31.678  22.093  23.684  1.00  0.00     0.098 A 
ATOM     17  C   UNL A   1      31.325  23.633  23.686  1.00  0.00    -0.017 A 
ATOM     18  S   UNL A   1      30.654  22.748  25.995  1.00  0.00    -0.122 S 
ATOM     19  C   UNL A   1      30.633  23.967  24.851  1.00  0.00     0.011 A 
ATOM     20  C   UNL A   1      31.542  24.815  22.720  1.00  0.00     0.038 C 
ATOM     21  C   UNL A   1      29.965  25.269  25.195  1.00  0.00     0.047 C 
ATOM     22  C   UNL A   1      31.077  26.203  23.186  1.00  0.00     0.005 C 
ATOM     23  C   UNL A   1      29.775  26.097  23.942  1.00  0.00     0.006 C 
BRANCH  16  24
ATOM     24  C   UNL A   1      31.928  20.890  22.575  1.00  0.00     0.341 C 
ATOM     25  O   UNL A   1      32.127  21.300  21.426  1.00  0.00    -0.246 OA
BRANCH  24  26
ATOM     26  O   UNL A   1      31.988  19.365  22.670  1.00  0.00    -0.462 OA
BRANCH  26  27
ATOM     27  C   UNL A   1      32.667  17.759  22.611  1.00  0.00     0.233 C 
BRANCH  27  28
ATOM     28  C   UNL A   1      34.098  17.154  23.099  1.00  0.00     0.038 C 
ATOM     29  C   UNL A   1      34.715  17.138  24.516  1.00  0.00     0.007 C 
ENDBRANCH  27  28
ENDBRANCH  26  27
ENDBRANCH  24  26
ENDBRANCH  16  24
ENDBRANCH  12  15
ENDBRANCH   6  11
ENDBRANCH   1   5
BRANCH   3  30
ATOM     30  C   UNL A   1      33.728  27.553  25.018  1.00  0.00     0.117 C 
BRANCH  30  31
ATOM     31  C   UNL A   1      33.262  29.134  25.301  1.00  0.00     0.042 C 
BRANCH  31  32
ATOM     32  C   UNL A   1      32.587  29.786  26.558  1.00  0.00     0.118 C 
BRANCH  32  33
ATOM     33  N   UNL A   1      32.458  31.238  26.533  1.00  0.00    -0.352 N 
ATOM     34  C   UNL A   1      33.216  32.164  27.228  1.00  0.00     0.251 C 
ATOM     35  H   UNL A   1      31.748  31.602  25.956  1.00  0.00     0.163 HD
ATOM     36  O   UNL A   1      32.869  33.349  27.267  1.00  0.00    -0.269 OA
BRANCH  34  37
ATOM     37  C   UNL A   1      34.470  31.767  27.907  1.00  0.00     0.039 A 
ATOM     38  C   UNL A   1      35.557  32.630  28.031  1.00  0.00     0.014 A 
ATOM     39  C   UNL A   1      34.604  30.456  28.344  1.00  0.00     0.014 A 
ATOM     40  C   UNL A   1      36.739  32.183  28.655  1.00  0.00     0.010 A 
ATOM     41  C   UNL A   1      35.723  30.058  29.090  1.00  0.00     0.010 A 
ATOM     42  C   UNL A   1      36.832  30.901  29.238  1.00  0.00    -0.014 A 
BRANCH  42  43
ATOM     43  C   UNL A   1      38.081  30.441  29.949  1.00  0.00     0.031 A 
ATOM     44  C   UNL A   1      38.374  30.847  31.385  1.00  0.00     0.074 A 
ATOM     45  C   UNL A   1      38.988  29.671  29.305  1.00  0.00     0.049 A 
ATOM     46  N   UNL A   1      39.399  30.537  32.149  1.00  0.00    -0.248 NA
ATOM     47  C   UNL A   1      37.420  31.756  32.037  1.00  0.00     0.031 C 
ATOM     48  C   UNL A   1      38.916  29.281  27.896  1.00  0.00     0.029 A 
ATOM     49  N   UNL A   1      40.143  29.065  29.748  1.00  0.00    -0.354 N 
ATOM     50  C   UNL A   1      39.218  31.233  33.342  1.00  0.00     0.074 A 
ATOM     51  C   UNL A   1      38.039  32.051  33.170  1.00  0.00     0.031 C 
ATOM     52  C   UNL A   1      39.927  28.444  27.611  1.00  0.00     0.029 A 
ATOM     53  C   UNL A   1      40.751  28.268  28.803  1.00  0.00     0.049 A 
ATOM     54  H   UNL A   1      40.502  29.189  30.656  1.00  0.00     0.167 HD
ATOM     55  C   UNL A   1      39.927  31.166  34.498  1.00  0.00     0.037 A 
ATOM     56  C   UNL A   1      41.837  27.470  28.884  1.00  0.00     0.037 A 
ATOM     57  C   UNL A   1      41.061  30.304  34.702  1.00  0.00     0.049 A 
ATOM     58  C   UNL A   1      42.579  27.368  30.192  1.00  0.00     0.074 A 
ATOM     59  C   UNL A   1      41.801  30.105  35.855  1.00  0.00     0.029 A 
ATOM     60  N   UNL A   1      41.612  29.485  33.728  1.00  0.00    -0.354 N 
ATOM     61  N   UNL A   1      42.333  27.965  31.332  1.00  0.00    -0.248 NA
ATOM     62  C   UNL A   1      43.745  26.471  30.227  1.00  0.00     0.031 C 
ATOM     63  C   UNL A   1      42.823  29.192  35.570  1.00  0.00     0.029 A 
ATOM     64  C   UNL A   1      42.688  28.786  34.252  1.00  0.00     0.049 A 
ATOM     65  H   UNL A   1      41.287  29.412  32.802  1.00  0.00     0.167 HD
ATOM     66  C   UNL A   1      43.290  27.497  32.223  1.00  0.00     0.074 A 
ATOM     67  C   UNL A   1      44.107  26.548  31.499  1.00  0.00     0.031 C 
ATOM     68  C   UNL A   1      43.479  27.830  33.523  1.00  0.00     0.037 A 
BRANCH  55  69
ATOM     69  C   UNL A   1      39.469  32.019  35.655  1.00  0.00     0.064 A 
ATOM     70  C   UNL A   1      38.525  31.551  36.585  1.00  0.00     0.173 A 
ATOM     71  C   UNL A   1      40.006  33.299  35.867  1.00  0.00     0.173 A 
ATOM     72  F   UNL A   1      37.975  30.336  36.436  1.00  0.00    -0.203 F 
ATOM     73  C   UNL A   1      38.101  32.347  37.647  1.00  0.00     0.198 A 
ATOM     74  C   UNL A   1      39.608  34.078  36.952  1.00  0.00     0.198 A 
ATOM     75  F   UNL A   1      40.926  33.795  35.025  1.00  0.00    -0.203 F 
ATOM     76  F   UNL A   1      37.149  31.900  38.478  1.00  0.00    -0.200 F 
ATOM     77  C   UNL A   1      38.648  33.607  37.834  1.00  0.00     0.200 A 
ATOM     78  F   UNL A   1      40.153  35.287  37.144  1.00  0.00    -0.200 F 
ATOM     79  F   UNL A   1      38.243  34.369  38.859  1.00  0.00    -0.200 F 
ENDBRANCH  55  69
BRANCH  56  80
ATOM     80  C   UNL A   1      42.262  26.655  27.709  1.00  0.00     0.064 A 
ATOM     81  C   UNL A   1      41.688  25.398  27.459  1.00  0.00     0.173 A 
ATOM     82  C   UNL A   1      43.254  27.100  26.823  1.00  0.00     0.173 A 
ATOM     83  F   UNL A   1      40.751  24.913  28.288  1.00  0.00    -0.203 F 
ATOM     84  C   UNL A   1      42.107  24.611  26.387  1.00  0.00     0.198 A 
ATOM     85  C   UNL A   1      43.647  26.326  25.731  1.00  0.00     0.198 A 
ATOM     86  F   UNL A   1      43.835  28.293  27.010  1.00  0.00    -0.203 F 
ATOM     87  F   UNL A   1      41.578  23.392  26.208  1.00  0.00    -0.200 F 
ATOM     88  C   UNL A   1      43.081  25.078  25.520  1.00  0.00     0.200 A 
ATOM     89  F   UNL A   1      44.578  26.789  24.885  1.00  0.00    -0.200 F 
ATOM     90  F   UNL A   1      43.480  24.323  24.487  1.00  0.00    -0.200 F 
ENDBRANCH  56  80
BRANCH  68  91
ATOM     91  C   UNL A   1      44.587  27.134  34.262  1.00  0.00     0.064 A 
ATOM     92  C   UNL A   1      45.858  27.712  34.397  1.00  0.00     0.173 A 
ATOM     93  C   UNL A   1      44.357  25.896  34.882  1.00  0.00     0.173 A 
ATOM     94  F   UNL A   1      46.131  28.887  33.812  1.00  0.00    -0.203 F 
ATOM     95  C   UNL A   1      46.866  27.062  35.103  1.00  0.00     0.198 A 
ATOM     96  C   UNL A   1      45.358  25.265  35.614  1.00  0.00     0.198 A 
ATOM     97  F   UNL A   1      43.156  25.306  34.790  1.00  0.00    -0.203 F 
ATOM     98  F   UNL A   1      48.087  27.609  35.179  1.00  0.00    -0.200 F 
ATOM     99  C   UNL A   1      46.614  25.844  35.717  1.00  0.00     0.200 A 
ATOM    100  F   UNL A   1      45.108  24.096  36.220  1.00  0.00    -0.200 F 
ATOM    101  F   UNL A   1      47.583  25.226  36.406  1.00  0.00    -0.200 F 
ENDBRANCH  68  91
ENDBRANCH  42  43
ENDBRANCH  34  37
ENDBRANCH  32  33
ENDBRANCH  31  32
ENDBRANCH  30  31
ENDBRANCH   3  30
TORSDOF 16
ENDMDL
MODEL 2
REMARK VINA RESULT:     -14.2      4.083      9.587
REMARK SMILES CCCOC(=O)c1c(NC(=O)[C@@H]2CC=CC[C@H]2C(=O)NCCCNC(=O)c2ccc(-c3c4nc(c(-c5c(F)c(F)c(F)c(F)c5F)c5ccc([nH]5)c(-c5c(F)c(F)c(F)c(F)c5F)c5nc(c(-c6c(F)c(F)c(F)c(F)c6F)c6ccc3[nH]6)C=C5)C=C4)cc2)sc2c1CCCC2
REMARK SMILES IDX 18 1 19 2 20 3 17 5 12 6 13 7 14 8 16 9 15 10 10 11 9 12
REMARK SMILES IDX 11 14 8 15 7 16 92 17 90 18 91 19 93 20 96 21 94 22 95 23
REMARK SMILES IDX 5 24 6 25 4 26 3 27 2 28 1 29 21 30 22 31 23 32 24 33 25 34
REMARK SMILES IDX 26 36 27 37 28 38 89 39 29 40 88 41 30 42 31 43 32 44 82 45
REMARK SMILES IDX 33 46 87 47 81 48 83 49 34 50 86 51 80 52 79 53 35 55 67 56
REMARK SMILES IDX 47 57 66 58 48 59 51 60 65 61 84 62 49 63 50 64 64 66 85 67
REMARK SMILES IDX 52 68 36 69 37 70 45 71 38 72 39 73 43 74 46 75 40 76 41 77
REMARK SMILES IDX 44 78 42 79 68 80 69 81 77 82 70 83 71 84 75 85 78 86 72 87
REMARK SMILES IDX 73 88 76 89 74 90 53 91 54 92 62 93 55 94 56 95 60 96 63 97
REMARK SMILES IDX 57 98 58 99 61 100 59 101
REMARK H PARENT 20 4 9 13 24 35 83 54 51 65
REMARK Flexibility Score: inf
ROOT
ATOM      1  C   UNL A   1      32.319  23.050  22.971  1.00  0.00     0.224 C 
ATOM      2  O   UNL A   1      31.590  22.060  22.745  1.00  0.00    -0.275 OA
ATOM      3  N   UNL A   1      33.753  22.660  22.938  1.00  0.00    -0.356 N 
ATOM      4  H   UNL A   1      33.748  21.708  22.687  1.00  0.00     0.163 HD
ENDROOT
BRANCH   1   5
ATOM      5  C   UNL A   1      31.386  24.606  23.279  1.00  0.00     0.095 C 
ATOM      6  C   UNL A   1      31.566  25.819  22.330  1.00  0.00     0.095 C 
ATOM      7  C   UNL A   1      31.164  27.204  22.930  1.00  0.00     0.041 C 
ATOM      8  C   UNL A   1      29.866  27.242  23.656  1.00  0.00    -0.030 C 
ATOM      9  C   UNL A   1      29.847  24.775  23.755  1.00  0.00     0.041 C 
ATOM     10  C   UNL A   1      29.280  26.121  24.063  1.00  0.00    -0.030 C 
BRANCH   6  11
ATOM     11  C   UNL A   1      32.952  25.994  21.822  1.00  0.00     0.229 C 
ATOM     12  N   UNL A   1      33.942  25.975  22.732  1.00  0.00    -0.317 N 
ATOM     13  H   UNL A   1      34.768  25.530  22.434  1.00  0.00     0.170 HD
ATOM     14  O   UNL A   1      33.235  25.981  20.623  1.00  0.00    -0.274 OA
BRANCH  12  15
ATOM     15  C   UNL A   1      33.987  26.474  24.004  1.00  0.00     0.110 A 
ATOM     16  C   UNL A   1      33.779  26.061  25.329  1.00  0.00     0.098 A 
ATOM     17  C   UNL A   1      32.970  27.295  25.894  1.00  0.00    -0.017 A 
ATOM     18  S   UNL A   1      34.215  28.148  23.823  1.00  0.00    -0.122 S 
ATOM     19  C   UNL A   1      33.314  28.455  25.198  1.00  0.00     0.011 A 
ATOM     20  C   UNL A   1      31.934  27.515  27.014  1.00  0.00     0.038 C 
ATOM     21  C   UNL A   1      32.919  29.873  25.501  1.00  0.00     0.047 C 
ATOM     22  C   UNL A   1      31.341  28.925  27.162  1.00  0.00     0.005 C 
ATOM     23  C   UNL A   1      32.402  29.971  26.921  1.00  0.00     0.006 C 
BRANCH  16  24
ATOM     24  C   UNL A   1      34.356  24.612  25.883  1.00  0.00     0.341 C 
ATOM     25  O   UNL A   1      35.564  24.620  26.148  1.00  0.00    -0.246 OA
BRANCH  24  26
ATOM     26  O   UNL A   1      33.708  23.256  26.161  1.00  0.00    -0.462 OA
BRANCH  26  27
ATOM     27  C   UNL A   1      33.582  21.580  26.630  1.00  0.00     0.233 C 
BRANCH  27  28
ATOM     28  C   UNL A   1      33.326  20.217  25.776  1.00  0.00     0.038 C 
ATOM     29  C   UNL A   1      34.180  19.605  24.641  1.00  0.00     0.007 C 
ENDBRANCH  27  28
ENDBRANCH  26  27
ENDBRANCH  24  26
ENDBRANCH  16  24
ENDBRANCH  12  15
ENDBRANCH   6  11
ENDBRANCH   1   5
BRANCH   3  30
ATOM     30  C   UNL A   1      35.471  23.065  23.126  1.00  0.00     0.117 C 
BRANCH  30  31
ATOM     31  C   UNL A   1      36.734  22.237  23.845  1.00  0.00     0.042 C 
BRANCH  31  32
ATOM     32  C   UNL A   1      37.085  22.033  25.361  1.00  0.00     0.118 C 
BRANCH  32  33
ATOM     33  N   UNL A   1      37.942  20.895  25.671  1.00  0.00    -0.352 N 
ATOM     34  C   UNL A   1      39.264  20.922  26.080  1.00  0.00     0.251 C 
ATOM     35  H   UNL A   1      37.533  20.005  25.578  1.00  0.00     0.163 HD
ATOM     36  O   UNL A   1      39.926  19.880  26.114  1.00  0.00    -0.269 OA
BRANCH  34  37
ATOM     37  C   UNL A   1      39.902  22.186  26.514  1.00  0.00     0.039 A 
ATOM     38  C   UNL A   1      40.945  22.216  27.437  1.00  0.00     0.014 A 
ATOM     39  C   UNL A   1      39.374  23.387  26.062  1.00  0.00     0.014 A 
ATOM     40  C   UNL A   1      41.488  23.453  27.842  1.00  0.00     0.010 A 
ATOM     41  C   UNL A   1      40.006  24.605  26.353  1.00  0.00     0.010 A 
ATOM     42  C   UNL A   1      41.060  24.672  27.274  1.00  0.00    -0.014 A 
BRANCH  42  43
ATOM     43  C   UNL A   1      41.675  25.991  27.671  1.00  0.00     0.031 A 
ATOM     44  C   UNL A   1      43.080  26.378  27.234  1.00  0.00     0.074 A 
ATOM     45  C   UNL A   1      40.990  26.855  28.456  1.00  0.00     0.049 A 
ATOM     46  N   UNL A   1      43.761  27.475  27.483  1.00  0.00    -0.248 NA
ATOM     47  C   UNL A   1      43.840  25.388  26.456  1.00  0.00     0.031 C 
ATOM     48  C   UNL A   1      39.679  26.596  29.052  1.00  0.00     0.029 A 
ATOM     49  N   UNL A   1      41.291  28.130  28.882  1.00  0.00    -0.354 N 
ATOM     50  C   UNL A   1      45.020  27.285  26.919  1.00  0.00     0.074 A 
ATOM     51  C   UNL A   1      45.043  25.938  26.398  1.00  0.00     0.031 C 
ATOM     52  C   UNL A   1      39.254  27.696  29.693  1.00  0.00     0.029 A 
ATOM     53  C   UNL A   1      40.278  28.731  29.597  1.00  0.00     0.049 A 
ATOM     54  H   UNL A   1      42.150  28.572  28.692  1.00  0.00     0.167 HD
ATOM     55  C   UNL A   1      46.051  28.160  26.792  1.00  0.00     0.037 A 
ATOM     56  C   UNL A   1      40.174  29.977  30.106  1.00  0.00     0.037 A 
ATOM     57  C   UNL A   1      46.014  29.525  27.248  1.00  0.00     0.049 A 
ATOM     58  C   UNL A   1      41.307  30.950  29.909  1.00  0.00     0.074 A 
ATOM     59  C   UNL A   1      46.973  30.513  27.102  1.00  0.00     0.029 A 
ATOM     60  N   UNL A   1      44.951  30.098  27.929  1.00  0.00    -0.354 N 
ATOM     61  N   UNL A   1      42.449  30.777  29.291  1.00  0.00    -0.248 NA
ATOM     62  C   UNL A   1      41.131  32.299  30.470  1.00  0.00     0.031 C 
ATOM     63  C   UNL A   1      46.505  31.675  27.726  1.00  0.00     0.029 A 
ATOM     64  C   UNL A   1      45.235  31.424  28.218  1.00  0.00     0.049 A 
ATOM     65  H   UNL A   1      44.119  29.633  28.172  1.00  0.00     0.167 HD
ATOM     66  C   UNL A   1      43.114  31.995  29.364  1.00  0.00     0.074 A 
ATOM     67  C   UNL A   1      42.236  32.908  30.065  1.00  0.00     0.031 C 
ATOM     68  C   UNL A   1      44.342  32.325  28.899  1.00  0.00     0.037 A 
BRANCH  55  69
ATOM     69  C   UNL A   1      47.299  27.682  26.092  1.00  0.00     0.064 A 
ATOM     70  C   UNL A   1      47.431  27.755  24.695  1.00  0.00     0.173 A 
ATOM     71  C   UNL A   1      48.392  27.185  26.820  1.00  0.00     0.173 A 
ATOM     72  F   UNL A   1      46.421  28.220  23.944  1.00  0.00    -0.203 F 
ATOM     73  C   UNL A   1      48.583  27.304  24.054  1.00  0.00     0.198 A 
ATOM     74  C   UNL A   1      49.558  26.771  26.179  1.00  0.00     0.198 A 
ATOM     75  F   UNL A   1      48.335  27.109  28.159  1.00  0.00    -0.203 F 
ATOM     76  F   UNL A   1      48.653  27.323  22.716  1.00  0.00    -0.200 F 
ATOM     77  C   UNL A   1      49.648  26.819  24.796  1.00  0.00     0.200 A 
ATOM     78  F   UNL A   1      50.595  26.322  26.899  1.00  0.00    -0.200 F 
ATOM     79  F   UNL A   1      50.758  26.391  24.179  1.00  0.00    -0.200 F 
ENDBRANCH  55  69
BRANCH  56  80
ATOM     80  C   UNL A   1      38.926  30.402  30.805  1.00  0.00     0.064 A 
ATOM     81  C   UNL A   1      37.827  30.893  30.081  1.00  0.00     0.173 A 
ATOM     82  C   UNL A   1      38.806  30.345  32.201  1.00  0.00     0.173 A 
ATOM     83  F   UNL A   1      37.896  30.991  28.745  1.00  0.00    -0.203 F 
ATOM     84  C   UNL A   1      36.671  31.331  30.727  1.00  0.00     0.198 A 
ATOM     85  C   UNL A   1      37.637  30.751  32.843  1.00  0.00     0.198 A 
ATOM     86  F   UNL A   1      39.822  29.883  32.944  1.00  0.00    -0.203 F 
ATOM     87  F   UNL A   1      35.661  31.844  30.012  1.00  0.00    -0.200 F 
ATOM     88  C   UNL A   1      36.574  31.253  32.107  1.00  0.00     0.200 A 
ATOM     89  F   UNL A   1      37.540  30.659  34.177  1.00  0.00    -0.200 F 
ATOM     90  F   UNL A   1      35.461  31.669  32.727  1.00  0.00    -0.200 F 
ENDBRANCH  56  80
BRANCH  68  91
ATOM     91  C   UNL A   1      44.798  33.743  29.094  1.00  0.00     0.064 A 
ATOM     92  C   UNL A   1      45.543  34.129  30.217  1.00  0.00     0.173 A 
ATOM     93  C   UNL A   1      44.526  34.715  28.118  1.00  0.00     0.173 A 
ATOM     94  F   UNL A   1      45.819  33.240  31.182  1.00  0.00    -0.203 F 
ATOM     95  C   UNL A   1      45.976  35.443  30.370  1.00  0.00     0.198 A 
ATOM     96  C   UNL A   1      44.987  36.021  28.260  1.00  0.00     0.198 A 
ATOM     97  F   UNL A   1      43.824  34.395  27.021  1.00  0.00    -0.203 F 
ATOM     98  F   UNL A   1      46.645  35.801  31.475  1.00  0.00    -0.200 F 
ATOM     99  C   UNL A   1      45.705  36.385  29.389  1.00  0.00     0.200 A 
ATOM    100  F   UNL A   1      44.738  36.925  27.303  1.00  0.00    -0.200 F 
ATOM    101  F   UNL A   1      46.132  37.647  29.534  1.00  0.00    -0.200 F 
ENDBRANCH  68  91
ENDBRANCH  42  43
ENDBRANCH  34  37
ENDBRANCH  32  33
ENDBRANCH  31  32
ENDBRANCH  30  31
ENDBRANCH   3  30
TORSDOF 16
ENDMDL
MODEL 3
REMARK VINA RESULT:     -13.7      1.615      2.357
REMARK SMILES CCCOC(=O)c1c(NC(=O)[C@@H]2CC=CC[C@H]2C(=O)NCCCNC(=O)c2ccc(-c3c4nc(c(-c5c(F)c(F)c(F)c(F)c5F)c5ccc([nH]5)c(-c5c(F)c(F)c(F)c(F)c5F)c5nc(c(-c6c(F)c(F)c(F)c(F)c6F)c6ccc3[nH]6)C=C5)C=C4)cc2)sc2c1CCCC2
REMARK SMILES IDX 18 1 19 2 20 3 17 5 12 6 13 7 14 8 16 9 15 10 10 11 9 12
REMARK SMILES IDX 11 14 8 15 7 16 92 17 90 18 91 19 93 20 96 21 94 22 95 23
REMARK SMILES IDX 5 24 6 25 4 26 3 27 2 28 1 29 21 30 22 31 23 32 24 33 25 34
REMARK SMILES IDX 26 36 27 37 28 38 89 39 29 40 88 41 30 42 31 43 32 44 82 45
REMARK SMILES IDX 33 46 87 47 81 48 83 49 34 50 86 51 80 52 79 53 35 55 67 56
REMARK SMILES IDX 47 57 66 58 48 59 51 60 65 61 84 62 49 63 50 64 64 66 85 67
REMARK SMILES IDX 52 68 36 69 37 70 45 71 38 72 39 73 43 74 46 75 40 76 41 77
REMARK SMILES IDX 44 78 42 79 68 80 69 81 77 82 70 83 71 84 75 85 78 86 72 87
REMARK SMILES IDX 73 88 76 89 74 90 53 91 54 92 62 93 55 94 56 95 60 96 63 97
REMARK SMILES IDX 57 98 58 99 61 100 59 101
REMARK H PARENT 20 4 9 13 24 35 83 54 51 65
REMARK Flexibility Score: inf
ROOT
ATOM      1  C   UNL A   1      31.390  25.539  26.712  1.00  0.00     0.224 C 
ATOM      2  O   UNL A   1      30.203  25.241  26.461  1.00  0.00    -0.275 OA
ATOM      3  N   UNL A   1      31.519  26.999  26.967  1.00  0.00    -0.356 N 
ATOM      4  H   UNL A   1      30.598  27.343  26.920  1.00  0.00     0.163 HD
ENDROOT
BRANCH   1   5
ATOM      5  C   UNL A   1      32.545  24.106  26.661  1.00  0.00     0.095 C 
ATOM      6  C   UNL A   1      32.424  23.054  25.529  1.00  0.00     0.095 C 
ATOM      7  C   UNL A   1      33.064  21.663  25.839  1.00  0.00     0.041 C 
ATOM      8  C   UNL A   1      34.425  21.696  26.438  1.00  0.00    -0.030 C 
ATOM      9  C   UNL A   1      34.134  24.089  26.972  1.00  0.00     0.041 C 
ATOM     10  C   UNL A   1      34.899  22.808  26.988  1.00  0.00    -0.030 C 
BRANCH   6  11
ATOM     11  C   UNL A   1      31.027  22.765  25.113  1.00  0.00     0.229 C 
ATOM     12  N   UNL A   1      30.655  23.185  23.890  1.00  0.00    -0.317 N 
ATOM     13  H   UNL A   1      30.054  22.573  23.409  1.00  0.00     0.170 HD
ATOM     14  O   UNL A   1      30.275  22.028  25.751  1.00  0.00    -0.274 OA
BRANCH  12  15
ATOM     15  C   UNL A   1      30.978  24.326  23.208  1.00  0.00     0.110 A 
ATOM     16  C   UNL A   1      32.107  25.021  22.749  1.00  0.00     0.098 A 
ATOM     17  C   UNL A   1      31.713  26.501  23.136  1.00  0.00    -0.017 A 
ATOM     18  S   UNL A   1      29.518  25.183  23.049  1.00  0.00    -0.122 S 
ATOM     19  C   UNL A   1      30.325  26.644  23.145  1.00  0.00     0.011 A 
ATOM     20  C   UNL A   1      32.483  27.793  23.477  1.00  0.00     0.038 C 
ATOM     21  C   UNL A   1      29.521  27.904  23.296  1.00  0.00     0.047 C 
ATOM     22  C   UNL A   1      31.656  29.025  23.877  1.00  0.00     0.005 C 
ATOM     23  C   UNL A   1      30.401  29.110  23.042  1.00  0.00     0.006 C 
BRANCH  16  24
ATOM     24  C   UNL A   1      33.367  24.234  22.017  1.00  0.00     0.341 C 
ATOM     25  O   UNL A   1      33.277  24.179  20.785  1.00  0.00    -0.246 OA
BRANCH  24  26
ATOM     26  O   UNL A   1      34.642  23.573  22.540  1.00  0.00    -0.462 OA
BRANCH  26  27
ATOM     27  C   UNL A   1      36.055  23.327  23.532  1.00  0.00     0.233 C 
BRANCH  27  28
ATOM     28  C   UNL A   1      36.998  22.025  23.796  1.00  0.00     0.038 C 
ATOM     29  C   UNL A   1      37.795  21.642  25.064  1.00  0.00     0.007 C 
ENDBRANCH  27  28
ENDBRANCH  26  27
ENDBRANCH  24  26
ENDBRANCH  16  24
ENDBRANCH  12  15
ENDBRANCH   6  11
ENDBRANCH   1   5
BRANCH   3  30
ATOM     30  C   UNL A   1      32.514  28.427  27.315  1.00  0.00     0.117 C 
BRANCH  30  31
ATOM     31  C   UNL A   1      32.174  30.062  27.237  1.00  0.00     0.042 C 
BRANCH  31  32
ATOM     32  C   UNL A   1      32.875  31.210  26.428  1.00  0.00     0.118 C 
BRANCH  32  33
ATOM     33  N   UNL A   1      32.606  32.569  26.882  1.00  0.00    -0.352 N 
ATOM     34  C   UNL A   1      33.224  33.250  27.916  1.00  0.00     0.251 C 
ATOM     35  H   UNL A   1      31.901  33.058  26.398  1.00  0.00     0.163 HD
ATOM     36  O   UNL A   1      32.760  34.321  28.320  1.00  0.00    -0.269 OA
BRANCH  34  37
ATOM     37  C   UNL A   1      34.465  32.733  28.534  1.00  0.00     0.039 A 
ATOM     38  C   UNL A   1      35.708  33.324  28.318  1.00  0.00     0.014 A 
ATOM     39  C   UNL A   1      34.403  31.558  29.271  1.00  0.00     0.014 A 
ATOM     40  C   UNL A   1      36.863  32.764  28.904  1.00  0.00     0.010 A 
ATOM     41  C   UNL A   1      35.525  31.086  29.968  1.00  0.00     0.010 A 
ATOM     42  C   UNL A   1      36.790  31.659  29.778  1.00  0.00    -0.014 A 
BRANCH  42  43
ATOM     43  C   UNL A   1      38.018  31.090  30.443  1.00  0.00     0.031 A 
ATOM     44  C   UNL A   1      38.366  31.419  31.887  1.00  0.00     0.074 A 
ATOM     45  C   UNL A   1      38.860  30.289  29.751  1.00  0.00     0.049 A 
ATOM     46  N   UNL A   1      39.382  31.013  32.616  1.00  0.00    -0.248 NA
ATOM     47  C   UNL A   1      37.486  32.362  32.595  1.00  0.00     0.031 C 
ATOM     48  C   UNL A   1      38.736  29.961  28.330  1.00  0.00     0.029 A 
ATOM     49  N   UNL A   1      39.982  29.592  30.144  1.00  0.00    -0.354 N 
ATOM     50  C   UNL A   1      39.270  31.671  33.838  1.00  0.00     0.074 A 
ATOM     51  C   UNL A   1      38.145  32.571  33.724  1.00  0.00     0.031 C 
ATOM     52  C   UNL A   1      39.683  29.072  27.991  1.00  0.00     0.029 A 
ATOM     53  C   UNL A   1      40.516  28.795  29.157  1.00  0.00     0.049 A 
ATOM     54  H   UNL A   1      40.365  29.656  31.049  1.00  0.00     0.167 HD
ATOM     55  C   UNL A   1      39.995  31.512  34.975  1.00  0.00     0.037 A 
ATOM     56  C   UNL A   1      41.549  27.926  29.184  1.00  0.00     0.037 A 
ATOM     57  C   UNL A   1      41.075  30.571  35.122  1.00  0.00     0.049 A 
ATOM     58  C   UNL A   1      42.308  27.724  30.470  1.00  0.00     0.074 A 
ATOM     59  C   UNL A   1      41.822  30.279  36.250  1.00  0.00     0.029 A 
ATOM     60  N   UNL A   1      41.551  29.757  34.105  1.00  0.00    -0.354 N 
ATOM     61  N   UNL A   1      42.124  28.290  31.637  1.00  0.00    -0.248 NA
ATOM     62  C   UNL A   1      43.412  26.752  30.445  1.00  0.00     0.031 C 
ATOM     63  C   UNL A   1      42.775  29.314  35.907  1.00  0.00     0.029 A 
ATOM     64  C   UNL A   1      42.589  28.970  34.578  1.00  0.00     0.049 A 
ATOM     65  H   UNL A   1      41.204  29.742  33.185  1.00  0.00     0.167 HD
ATOM     66  C   UNL A   1      43.065  27.726  32.489  1.00  0.00     0.074 A 
ATOM     67  C   UNL A   1      43.804  26.754  31.711  1.00  0.00     0.031 C 
ATOM     68  C   UNL A   1      43.301  27.993  33.796  1.00  0.00     0.037 A 
BRANCH  55  69
ATOM     69  C   UNL A   1      39.617  32.347  36.174  1.00  0.00     0.064 A 
ATOM     70  C   UNL A   1      40.285  33.546  36.475  1.00  0.00     0.173 A 
ATOM     71  C   UNL A   1      38.552  31.972  37.009  1.00  0.00     0.173 A 
ATOM     72  F   UNL A   1      41.311  33.956  35.714  1.00  0.00    -0.203 F 
ATOM     73  C   UNL A   1      39.936  34.308  37.588  1.00  0.00     0.198 A 
ATOM     74  C   UNL A   1      38.180  32.757  38.100  1.00  0.00     0.198 A 
ATOM     75  F   UNL A   1      37.862  30.848  36.764  1.00  0.00    -0.203 F 
ATOM     76  F   UNL A   1      40.635  35.411  37.888  1.00  0.00    -0.200 F 
ATOM     77  C   UNL A   1      38.879  33.916  38.396  1.00  0.00     0.200 A 
ATOM     78  F   UNL A   1      37.146  32.388  38.868  1.00  0.00    -0.200 F 
ATOM     79  F   UNL A   1      38.541  34.653  39.463  1.00  0.00    -0.200 F 
ENDBRANCH  55  69
BRANCH  56  80
ATOM     80  C   UNL A   1      41.897  27.132  27.970  1.00  0.00     0.064 A 
ATOM     81  C   UNL A   1      41.308  25.879  27.735  1.00  0.00     0.173 A 
ATOM     82  C   UNL A   1      42.829  27.593  27.028  1.00  0.00     0.173 A 
ATOM     83  F   UNL A   1      40.426  25.379  28.614  1.00  0.00    -0.203 F 
ATOM     84  C   UNL A   1      41.655  25.111  26.624  1.00  0.00     0.198 A 
ATOM     85  C   UNL A   1      43.151  26.839  25.900  1.00  0.00     0.198 A 
ATOM     86  F   UNL A   1      43.422  28.783  27.198  1.00  0.00    -0.203 F 
ATOM     87  F   UNL A   1      41.116  23.895  26.458  1.00  0.00    -0.200 F 
ATOM     88  C   UNL A   1      42.571  25.595  25.704  1.00  0.00     0.200 A 
ATOM     89  F   UNL A   1      44.025  27.317  25.004  1.00  0.00    -0.200 F 
ATOM     90  F   UNL A   1      42.902  24.858  24.634  1.00  0.00    -0.200 F 
ENDBRANCH  56  80
BRANCH  68  91
ATOM     91  C   UNL A   1      44.375  27.198  34.483  1.00  0.00     0.064 A 
ATOM     92  C   UNL A   1      45.695  27.663  34.567  1.00  0.00     0.173 A 
ATOM     93  C   UNL A   1      44.065  25.979  35.105  1.00  0.00     0.173 A 
ATOM     94  F   UNL A   1      46.044  28.816  33.978  1.00  0.00    -0.203 F 
ATOM     95  C   UNL A   1      46.672  26.922  35.226  1.00  0.00     0.198 A 
ATOM     96  C   UNL A   1      45.037  25.257  35.791  1.00  0.00     0.198 A 
ATOM     97  F   UNL A   1      42.814  25.495  35.061  1.00  0.00    -0.203 F 
ATOM     98  F   UNL A   1      47.937  27.362  35.253  1.00  0.00    -0.200 F 
ATOM     99  C   UNL A   1      46.341  25.726  35.844  1.00  0.00     0.200 A 
ATOM    100  F   UNL A   1      44.712  24.109  36.401  1.00  0.00    -0.200 F 
ATOM    101  F   UNL A   1      47.282  25.020  36.488  1.00  0.00    -0.200 F 
ENDBRANCH  68  91
ENDBRANCH  42  43
ENDBRANCH  34  37
ENDBRANCH  32  33
ENDBRANCH  31  32
ENDBRANCH  30  31
ENDBRANCH   3  30
TORSDOF 16
ENDMDL
