MODEL 1
REMARK VINA RESULT:     -13.6      0.000      0.000
REMARK SMILES CC1(C)CCCC[C@H]1NC(=O)Nc1ccccc1C(=O)NCCCNC(=O)c1ccc(-c2c3nc(c(-c4c(F)c(F)c(F)c(F)c4F)c4ccc([nH]4)c(-c4c(F)c(F)c(F)c(F)c4F)c4nc(c(-c5c(F)c(F)c(F)c(F)c5F)c5ccc2[nH]5)C=C4)C=C3)cc1
REMARK SMILES IDX 23 1 22 2 21 3 19 4 20 5 18 7 13 8 14 9 15 10 17 11 16 12
REMARK SMILES IDX 12 13 9 14 10 15 11 17 8 19 1 20 2 21 3 22 4 23 5 24 7 25
REMARK SMILES IDX 6 26 24 27 25 28 26 29 27 31 28 32 29 33 90 34 30 35 89 36
REMARK SMILES IDX 31 37 32 38 33 39 83 40 34 41 88 42 82 43 84 44 35 45 87 46
REMARK SMILES IDX 81 47 80 48 36 50 68 51 48 52 67 53 49 54 52 55 66 56 85 57
REMARK SMILES IDX 50 58 51 59 65 61 86 62 53 63 37 64 38 65 46 66 39 67 40 68
REMARK SMILES IDX 44 69 47 70 41 71 42 72 45 73 43 74 69 75 70 76 78 77 71 78
REMARK SMILES IDX 72 79 76 80 79 81 73 82 74 83 77 84 75 85 54 86 55 87 63 88
REMARK SMILES IDX 56 89 57 90 61 91 64 92 58 93 59 94 62 95 60 96
REMARK H PARENT 21 6 9 16 12 18 25 30 84 49 52 60
REMARK Flexibility Score: inf
ROOT
ATOM      1  C   UNL A   1      31.536  29.489  27.144  1.00  0.00     0.042 C 
ENDROOT
BRANCH   1   2
ATOM      2  C   UNL A   1      32.145  28.192  27.641  1.00  0.00     0.118 C 
BRANCH   2   3
ATOM      3  N   UNL A   1      32.893  27.476  26.633  1.00  0.00    -0.352 N 
ATOM      4  C   UNL A   1      32.508  26.950  25.430  1.00  0.00     0.253 C 
ATOM      5  O   UNL A   1      33.390  26.394  24.769  1.00  0.00    -0.269 OA
ATOM      6  H   UNL A   1      33.845  27.345  26.848  1.00  0.00     0.163 HD
BRANCH   4   7
ATOM      7  C   UNL A   1      31.102  26.904  24.929  1.00  0.00     0.063 A 
ATOM      8  C   UNL A   1      30.047  26.041  25.285  1.00  0.00     0.055 A 
ATOM      9  C   UNL A   1      28.858  26.081  24.522  1.00  0.00     0.027 A 
ATOM     10  C   UNL A   1      28.644  27.046  23.538  1.00  0.00     0.002 A 
ATOM     11  C   UNL A   1      30.850  27.889  23.940  1.00  0.00     0.016 A 
ATOM     12  C   UNL A   1      29.632  27.976  23.269  1.00  0.00     0.001 A 
BRANCH   8  13
ATOM     13  N   UNL A   1      29.964  25.137  26.366  1.00  0.00    -0.307 N 
ATOM     14  N   UNL A   1      30.627  22.995  25.593  1.00  0.00    -0.335 N 
ATOM     15  C   UNL A   1      30.040  23.798  26.498  1.00  0.00     0.319 C 
ATOM     16  H   UNL A   1      30.299  22.067  25.569  1.00  0.00     0.165 HD
ATOM     17  O   UNL A   1      29.590  23.286  27.526  1.00  0.00    -0.248 OA
ATOM     18  H   UNL A   1      29.818  25.592  27.226  1.00  0.00     0.171 HD
BRANCH  14  19
ATOM     19  C   UNL A   1      31.680  23.316  24.649  1.00  0.00     0.089 C 
ATOM     20  C   UNL A   1      32.424  20.904  24.107  1.00  0.00     0.013 C 
ATOM     21  C   UNL A   1      32.849  22.287  24.640  1.00  0.00    -0.015 C 
ATOM     22  C   UNL A   1      33.418  22.078  26.060  1.00  0.00     0.013 C 
ATOM     23  C   UNL A   1      33.959  22.897  23.745  1.00  0.00     0.008 C 
ATOM     24  C   UNL A   1      33.474  23.308  22.348  1.00  0.00     0.001 C 
ATOM     25  C   UNL A   1      31.116  23.532  23.243  1.00  0.00     0.025 C 
ATOM     26  C   UNL A   1      32.196  24.147  22.361  1.00  0.00     0.002 C 
ENDBRANCH  14  19
ENDBRANCH   8  13
ENDBRANCH   4   7
ENDBRANCH   2   3
ENDBRANCH   1   2
BRANCH   1  27
ATOM     27  C   UNL A   1      32.547  30.380  26.427  1.00  0.00     0.118 C 
BRANCH  27  28
ATOM     28  N   UNL A   1      32.580  31.768  26.903  1.00  0.00    -0.352 N 
ATOM     29  C   UNL A   1      33.545  32.488  27.567  1.00  0.00     0.251 C 
ATOM     30  H   UNL A   1      31.760  32.277  26.712  1.00  0.00     0.163 HD
ATOM     31  O   UNL A   1      33.337  33.637  27.917  1.00  0.00    -0.269 OA
BRANCH  29  32
ATOM     32  C   UNL A   1      34.830  31.844  27.922  1.00  0.00     0.039 A 
ATOM     33  C   UNL A   1      35.957  32.646  28.124  1.00  0.00     0.014 A 
ATOM     34  C   UNL A   1      34.908  30.469  28.124  1.00  0.00     0.014 A 
ATOM     35  C   UNL A   1      37.113  32.085  28.671  1.00  0.00     0.010 A 
ATOM     36  C   UNL A   1      36.004  29.941  28.791  1.00  0.00     0.010 A 
ATOM     37  C   UNL A   1      37.114  30.746  29.090  1.00  0.00    -0.014 A 
BRANCH  37  38
ATOM     38  C   UNL A   1      38.238  30.164  29.869  1.00  0.00     0.031 A 
ATOM     39  C   UNL A   1      38.454  30.574  31.300  1.00  0.00     0.074 A 
ATOM     40  C   UNL A   1      39.136  29.367  29.252  1.00  0.00     0.049 A 
ATOM     41  N   UNL A   1      39.465  30.320  32.092  1.00  0.00    -0.248 NA
ATOM     42  C   UNL A   1      37.421  31.432  31.904  1.00  0.00     0.031 C 
ATOM     43  C   UNL A   1      39.089  28.959  27.847  1.00  0.00     0.029 A 
ATOM     44  N   UNL A   1      40.277  28.769  29.729  1.00  0.00    -0.354 N 
ATOM     45  C   UNL A   1      39.210  31.022  33.263  1.00  0.00     0.074 A 
ATOM     46  C   UNL A   1      37.980  31.755  33.061  1.00  0.00     0.031 C 
ATOM     47  C   UNL A   1      40.131  28.154  27.583  1.00  0.00     0.029 A 
ATOM     48  C   UNL A   1      40.945  28.024  28.787  1.00  0.00     0.049 A 
ATOM     49  H   UNL A   1      40.588  28.865  30.658  1.00  0.00     0.167 HD
ATOM     50  C   UNL A   1      39.922  31.031  34.415  1.00  0.00     0.037 A 
ATOM     51  C   UNL A   1      42.088  27.319  28.881  1.00  0.00     0.037 A 
ATOM     52  C   UNL A   1      41.102  30.242  34.638  1.00  0.00     0.049 A 
ATOM     53  C   UNL A   1      42.822  27.291  30.194  1.00  0.00     0.074 A 
ATOM     54  C   UNL A   1      41.839  30.103  35.800  1.00  0.00     0.029 A 
ATOM     55  N   UNL A   1      41.708  29.445  33.679  1.00  0.00    -0.354 N 
ATOM     56  N   UNL A   1      42.533  27.904  31.315  1.00  0.00    -0.248 NA
ATOM     57  C   UNL A   1      44.041  26.472  30.254  1.00  0.00     0.031 C 
ATOM     58  C   UNL A   1      42.908  29.239  35.538  1.00  0.00     0.029 A 
ATOM     59  C   UNL A   1      42.816  28.815  34.222  1.00  0.00     0.049 A 
ATOM     60  H   UNL A   1      41.396  29.340  32.751  1.00  0.00     0.167 HD
ATOM     61  C   UNL A   1      43.516  27.528  32.219  1.00  0.00     0.074 A 
ATOM     62  C   UNL A   1      44.401  26.619  31.521  1.00  0.00     0.031 C 
ATOM     63  C   UNL A   1      43.676  27.905  33.511  1.00  0.00     0.037 A 
BRANCH  50  64
ATOM     64  C   UNL A   1      39.427  31.904  35.530  1.00  0.00     0.064 A 
ATOM     65  C   UNL A   1      38.517  31.428  36.487  1.00  0.00     0.173 A 
ATOM     66  C   UNL A   1      39.889  33.221  35.662  1.00  0.00     0.173 A 
ATOM     67  F   UNL A   1      38.035  30.179  36.396  1.00  0.00    -0.203 F 
ATOM     68  C   UNL A   1      38.066  32.248  37.518  1.00  0.00     0.198 A 
ATOM     69  C   UNL A   1      39.459  34.029  36.712  1.00  0.00     0.198 A 
ATOM     70  F   UNL A   1      40.762  33.724  34.778  1.00  0.00    -0.203 F 
ATOM     71  F   UNL A   1      37.160  31.786  38.389  1.00  0.00    -0.200 F 
ATOM     72  C   UNL A   1      38.543  33.544  37.634  1.00  0.00     0.200 A 
ATOM     73  F   UNL A   1      39.928  35.279  36.830  1.00  0.00    -0.200 F 
ATOM     74  F   UNL A   1      38.113  34.330  38.631  1.00  0.00    -0.200 F 
ENDBRANCH  50  64
BRANCH  51  75
ATOM     75  C   UNL A   1      42.594  26.555  27.712  1.00  0.00     0.064 A 
ATOM     76  C   UNL A   1      42.158  25.245  27.471  1.00  0.00     0.173 A 
ATOM     77  C   UNL A   1      43.527  27.106  26.821  1.00  0.00     0.173 A 
ATOM     78  F   UNL A   1      41.282  24.667  28.307  1.00  0.00    -0.203 F 
ATOM     79  C   UNL A   1      42.651  24.506  26.398  1.00  0.00     0.198 A 
ATOM     80  C   UNL A   1      44.001  26.375  25.733  1.00  0.00     0.198 A 
ATOM     81  F   UNL A   1      43.972  28.358  27.004  1.00  0.00    -0.203 F 
ATOM     82  F   UNL A   1      42.253  23.240  26.219  1.00  0.00    -0.200 F 
ATOM     83  C   UNL A   1      43.571  25.073  25.528  1.00  0.00     0.200 A 
ATOM     84  F   UNL A   1      44.880  26.930  24.887  1.00  0.00    -0.200 F 
ATOM     85  F   UNL A   1      44.046  24.362  24.496  1.00  0.00    -0.200 F 
ENDBRANCH  51  75
BRANCH  63  86
ATOM     86  C   UNL A   1      44.832  27.315  34.259  1.00  0.00     0.064 A 
ATOM     87  C   UNL A   1      46.071  27.968  34.322  1.00  0.00     0.173 A 
ATOM     88  C   UNL A   1      44.685  26.106  34.955  1.00  0.00     0.173 A 
ATOM     89  F   UNL A   1      46.263  29.118  33.660  1.00  0.00    -0.203 F 
ATOM     90  C   UNL A   1      47.128  27.421  35.043  1.00  0.00     0.198 A 
ATOM     91  C   UNL A   1      45.736  25.576  35.694  1.00  0.00     0.198 A 
ATOM     92  F   UNL A   1      43.516  25.448  34.927  1.00  0.00    -0.203 F 
ATOM     93  F   UNL A   1      48.316  28.041  35.059  1.00  0.00    -0.200 F 
ATOM     94  C   UNL A   1      46.959  26.230  35.734  1.00  0.00     0.200 A 
ATOM     95  F   UNL A   1      45.568  24.430  36.371  1.00  0.00    -0.200 F 
ATOM     96  F   UNL A   1      47.976  25.709  36.433  1.00  0.00    -0.200 F 
ENDBRANCH  63  86
ENDBRANCH  37  38
ENDBRANCH  29  32
ENDBRANCH  27  28
ENDBRANCH   1  27
TORSDOF 12
ENDMDL
MODEL 2
REMARK VINA RESULT:     -13.6      0.451      7.364
REMARK SMILES CC1(C)CCCC[C@H]1NC(=O)Nc1ccccc1C(=O)NCCCNC(=O)c1ccc(-c2c3nc(c(-c4c(F)c(F)c(F)c(F)c4F)c4ccc([nH]4)c(-c4c(F)c(F)c(F)c(F)c4F)c4nc(c(-c5c(F)c(F)c(F)c(F)c5F)c5ccc2[nH]5)C=C4)C=C3)cc1
REMARK SMILES IDX 23 1 22 2 21 3 19 4 20 5 18 7 13 8 14 9 15 10 17 11 16 12
REMARK SMILES IDX 12 13 9 14 10 15 11 17 8 19 1 20 2 21 3 22 4 23 5 24 7 25
REMARK SMILES IDX 6 26 24 27 25 28 26 29 27 31 28 32 29 33 90 34 30 35 89 36
REMARK SMILES IDX 31 37 32 38 33 39 83 40 34 41 88 42 82 43 84 44 35 45 87 46
REMARK SMILES IDX 81 47 80 48 36 50 68 51 48 52 67 53 49 54 52 55 66 56 85 57
REMARK SMILES IDX 50 58 51 59 65 61 86 62 53 63 37 64 38 65 46 66 39 67 40 68
REMARK SMILES IDX 44 69 47 70 41 71 42 72 45 73 43 74 69 75 70 76 78 77 71 78
REMARK SMILES IDX 72 79 76 80 79 81 73 82 74 83 77 84 75 85 54 86 55 87 63 88
REMARK SMILES IDX 56 89 57 90 61 91 64 92 58 93 59 94 62 95 60 96
REMARK H PARENT 21 6 9 16 12 18 25 30 84 49 52 60
REMARK Flexibility Score: inf
ROOT
ATOM      1  C   UNL A   1      31.642  29.452  27.142  1.00  0.00     0.042 C 
ENDROOT
BRANCH   1   2
ATOM      2  C   UNL A   1      32.275  28.163  27.628  1.00  0.00     0.118 C 
BRANCH   2   3
ATOM      3  N   UNL A   1      33.008  27.452  26.606  1.00  0.00    -0.352 N 
ATOM      4  C   UNL A   1      32.605  26.933  25.406  1.00  0.00     0.253 C 
ATOM      5  O   UNL A   1      33.478  26.380  24.730  1.00  0.00    -0.269 OA
ATOM      6  H   UNL A   1      33.963  27.319  26.807  1.00  0.00     0.163 HD
BRANCH   4   7
ATOM      7  C   UNL A   1      31.192  26.890  24.925  1.00  0.00     0.063 A 
ATOM      8  C   UNL A   1      30.138  26.034  25.302  1.00  0.00     0.055 A 
ATOM      9  C   UNL A   1      28.938  26.075  24.555  1.00  0.00     0.027 A 
ATOM     10  C   UNL A   1      28.716  27.035  23.568  1.00  0.00     0.002 A 
ATOM     11  C   UNL A   1      30.931  27.870  23.933  1.00  0.00     0.016 A 
ATOM     12  C   UNL A   1      29.704  27.959  23.279  1.00  0.00     0.001 A 
BRANCH   8  13
ATOM     13  N   UNL A   1      30.067  25.138  26.389  1.00  0.00    -0.307 N 
ATOM     14  N   UNL A   1      30.699  22.985  25.618  1.00  0.00    -0.335 N 
ATOM     15  C   UNL A   1      30.134  23.798  26.528  1.00  0.00     0.319 C 
ATOM     16  H   UNL A   1      30.363  22.061  25.605  1.00  0.00     0.165 HD
ATOM     17  O   UNL A   1      29.697  23.296  27.566  1.00  0.00    -0.248 OA
ATOM     18  H   UNL A   1      29.938  25.599  27.249  1.00  0.00     0.171 HD
BRANCH  14  19
ATOM     19  C   UNL A   1      31.738  23.292  24.654  1.00  0.00     0.089 C 
ATOM     20  C   UNL A   1      32.467  20.872  24.131  1.00  0.00     0.013 C 
ATOM     21  C   UNL A   1      32.904  22.260  24.640  1.00  0.00    -0.015 C 
ATOM     22  C   UNL A   1      33.494  22.067  26.054  1.00  0.00     0.013 C 
ATOM     23  C   UNL A   1      34.002  22.857  23.721  1.00  0.00     0.008 C 
ATOM     24  C   UNL A   1      33.497  23.252  22.327  1.00  0.00     0.001 C 
ATOM     25  C   UNL A   1      31.153  23.493  23.255  1.00  0.00     0.025 C 
ATOM     26  C   UNL A   1      32.221  24.094  22.349  1.00  0.00     0.002 C 
ENDBRANCH  14  19
ENDBRANCH   8  13
ENDBRANCH   4   7
ENDBRANCH   2   3
ENDBRANCH   1   2
BRANCH   1  27
ATOM     27  C   UNL A   1      32.641  30.381  26.458  1.00  0.00     0.118 C 
BRANCH  27  28
ATOM     28  N   UNL A   1      32.573  31.779  26.900  1.00  0.00    -0.352 N 
ATOM     29  C   UNL A   1      33.478  32.578  27.560  1.00  0.00     0.251 C 
ATOM     30  H   UNL A   1      31.724  32.227  26.686  1.00  0.00     0.163 HD
ATOM     31  O   UNL A   1      33.187  33.718  27.879  1.00  0.00    -0.269 OA
BRANCH  29  32
ATOM     32  C   UNL A   1      34.798  32.032  27.948  1.00  0.00     0.039 A 
ATOM     33  C   UNL A   1      35.891  32.898  28.036  1.00  0.00     0.014 A 
ATOM     34  C   UNL A   1      34.943  30.690  28.290  1.00  0.00     0.014 A 
ATOM     35  C   UNL A   1      37.082  32.448  28.609  1.00  0.00     0.010 A 
ATOM     36  C   UNL A   1      36.075  30.283  28.981  1.00  0.00     0.010 A 
ATOM     37  C   UNL A   1      37.153  31.162  29.167  1.00  0.00    -0.014 A 
BRANCH  37  38
ATOM     38  C   UNL A   1      38.318  30.715  29.973  1.00  0.00     0.031 A 
ATOM     39  C   UNL A   1      39.293  29.722  29.400  1.00  0.00     0.074 A 
ATOM     40  C   UNL A   1      38.428  31.102  31.260  1.00  0.00     0.049 A 
ATOM     41  N   UNL A   1      40.267  29.079  29.992  1.00  0.00    -0.248 NA
ATOM     42  C   UNL A   1      39.114  29.363  27.983  1.00  0.00     0.031 C 
ATOM     43  C   UNL A   1      37.505  31.995  31.963  1.00  0.00     0.029 A 
ATOM     44  N   UNL A   1      39.361  30.779  32.215  1.00  0.00    -0.354 N 
ATOM     45  C   UNL A   1      40.781  28.212  29.037  1.00  0.00     0.074 A 
ATOM     46  C   UNL A   1      39.979  28.370  27.844  1.00  0.00     0.031 C 
ATOM     47  C   UNL A   1      37.933  32.174  33.224  1.00  0.00     0.029 A 
ATOM     48  C   UNL A   1      39.136  31.375  33.433  1.00  0.00     0.049 A 
ATOM     49  H   UNL A   1      40.120  30.175  32.045  1.00  0.00     0.167 HD
ATOM     50  C   UNL A   1      41.844  27.380  29.136  1.00  0.00     0.037 A 
ATOM     51  C   UNL A   1      39.818  31.283  34.590  1.00  0.00     0.037 A 
ATOM     52  C   UNL A   1      42.684  27.282  30.297  1.00  0.00     0.049 A 
ATOM     53  C   UNL A   1      41.036  30.404  34.651  1.00  0.00     0.074 A 
ATOM     54  C   UNL A   1      43.843  26.545  30.464  1.00  0.00     0.029 A 
ATOM     55  N   UNL A   1      42.462  27.956  31.488  1.00  0.00    -0.354 N 
ATOM     56  N   UNL A   1      41.553  29.642  33.718  1.00  0.00    -0.248 NA
ATOM     57  C   UNL A   1      41.769  30.374  35.925  1.00  0.00     0.031 C 
ATOM     58  C   UNL A   1      44.310  26.754  31.766  1.00  0.00     0.029 A 
ATOM     59  C   UNL A   1      43.460  27.647  32.398  1.00  0.00     0.049 A 
ATOM     60  H   UNL A   1      41.708  28.566  31.661  1.00  0.00     0.167 HD
ATOM     61  C   UNL A   1      42.679  29.060  34.283  1.00  0.00     0.074 A 
ATOM     62  C   UNL A   1      42.783  29.572  35.633  1.00  0.00     0.031 C 
ATOM     63  C   UNL A   1      43.549  28.178  33.733  1.00  0.00     0.037 A 
BRANCH  50  64
ATOM     64  C   UNL A   1      42.173  26.529  27.945  1.00  0.00     0.064 A 
ATOM     65  C   UNL A   1      43.113  26.937  26.987  1.00  0.00     0.173 A 
ATOM     66  C   UNL A   1      41.563  25.277  27.774  1.00  0.00     0.173 A 
ATOM     67  F   UNL A   1      43.713  28.131  27.098  1.00  0.00    -0.203 F 
ATOM     68  C   UNL A   1      43.410  26.137  25.887  1.00  0.00     0.198 A 
ATOM     69  C   UNL A   1      41.884  24.466  26.688  1.00  0.00     0.198 A 
ATOM     70  F   UNL A   1      40.660  24.837  28.663  1.00  0.00    -0.203 F 
ATOM     71  F   UNL A   1      44.274  26.571  24.960  1.00  0.00    -0.200 F 
ATOM     72  C   UNL A   1      42.801  24.900  25.742  1.00  0.00     0.200 A 
ATOM     73  F   UNL A   1      41.303  23.266  26.555  1.00  0.00    -0.200 F 
ATOM     74  F   UNL A   1      43.093  24.129  24.686  1.00  0.00    -0.200 F 
ENDBRANCH  50  64
BRANCH  51  75
ATOM     75  C   UNL A   1      39.387  32.068  35.776  1.00  0.00     0.064 A 
ATOM     76  C   UNL A   1      39.939  33.330  36.037  1.00  0.00     0.173 A 
ATOM     77  C   UNL A   1      38.431  31.575  36.676  1.00  0.00     0.173 A 
ATOM     78  F   UNL A   1      40.873  33.834  35.216  1.00  0.00    -0.203 F 
ATOM     79  C   UNL A   1      39.570  34.060  37.165  1.00  0.00     0.198 A 
ATOM     80  C   UNL A   1      38.043  32.317  37.790  1.00  0.00     0.198 A 
ATOM     81  F   UNL A   1      37.868  30.376  36.468  1.00  0.00    -0.203 F 
ATOM     82  F   UNL A   1      40.148  35.241  37.415  1.00  0.00    -0.200 F 
ATOM     83  C   UNL A   1      38.619  33.554  38.039  1.00  0.00     0.200 A 
ATOM     84  F   UNL A   1      37.115  31.832  38.626  1.00  0.00    -0.200 F 
ATOM     85  F   UNL A   1      38.264  34.255  39.124  1.00  0.00    -0.200 F 
ENDBRANCH  51  75
BRANCH  63  86
ATOM     86  C   UNL A   1      44.700  27.732  34.582  1.00  0.00     0.064 A 
ATOM     87  C   UNL A   1      45.901  28.455  34.620  1.00  0.00     0.173 A 
ATOM     88  C   UNL A   1      44.584  26.597  35.397  1.00  0.00     0.173 A 
ATOM     89  F   UNL A   1      46.064  29.538  33.846  1.00  0.00    -0.203 F 
ATOM     90  C   UNL A   1      46.954  28.044  35.433  1.00  0.00     0.198 A 
ATOM     91  C   UNL A   1      45.629  26.204  36.227  1.00  0.00     0.198 A 
ATOM     92  F   UNL A   1      43.452  25.877  35.397  1.00  0.00    -0.203 F 
ATOM     93  F   UNL A   1      48.108  28.725  35.427  1.00  0.00    -0.200 F 
ATOM     94  C   UNL A   1      46.815  26.925  36.241  1.00  0.00     0.200 A 
ATOM     95  F   UNL A   1      45.489  25.129  37.015  1.00  0.00    -0.200 F 
ATOM     96  F   UNL A   1      47.826  26.535  37.028  1.00  0.00    -0.200 F 
ENDBRANCH  63  86
ENDBRANCH  37  38
ENDBRANCH  29  32
ENDBRANCH  27  28
ENDBRANCH   1  27
TORSDOF 12
ENDMDL
MODEL 3
REMARK VINA RESULT:     -13.2      0.299      1.612
REMARK SMILES CC1(C)CCCC[C@H]1NC(=O)Nc1ccccc1C(=O)NCCCNC(=O)c1ccc(-c2c3nc(c(-c4c(F)c(F)c(F)c(F)c4F)c4ccc([nH]4)c(-c4c(F)c(F)c(F)c(F)c4F)c4nc(c(-c5c(F)c(F)c(F)c(F)c5F)c5ccc2[nH]5)C=C4)C=C3)cc1
REMARK SMILES IDX 23 1 22 2 21 3 19 4 20 5 18 7 13 8 14 9 15 10 17 11 16 12
REMARK SMILES IDX 12 13 9 14 10 15 11 17 8 19 1 20 2 21 3 22 4 23 5 24 7 25
REMARK SMILES IDX 6 26 24 27 25 28 26 29 27 31 28 32 29 33 90 34 30 35 89 36
REMARK SMILES IDX 31 37 32 38 33 39 83 40 34 41 88 42 82 43 84 44 35 45 87 46
REMARK SMILES IDX 81 47 80 48 36 50 68 51 48 52 67 53 49 54 52 55 66 56 85 57
REMARK SMILES IDX 50 58 51 59 65 61 86 62 53 63 37 64 38 65 46 66 39 67 40 68
REMARK SMILES IDX 44 69 47 70 41 71 42 72 45 73 43 74 69 75 70 76 78 77 71 78
REMARK SMILES IDX 72 79 76 80 79 81 73 82 74 83 77 84 75 85 54 86 55 87 63 88
REMARK SMILES IDX 56 89 57 90 61 91 64 92 58 93 59 94 62 95 60 96
REMARK H PARENT 21 6 9 16 12 18 25 30 84 49 52 60
REMARK Flexibility Score: inf
ROOT
ATOM      1  C   UNL A   1      31.775  29.334  27.502  1.00  0.00     0.042 C 
ENDROOT
BRANCH   1   2
ATOM      2  C   UNL A   1      32.241  27.897  27.633  1.00  0.00     0.118 C 
BRANCH   2   3
ATOM      3  N   UNL A   1      32.989  27.420  26.492  1.00  0.00    -0.352 N 
ATOM      4  C   UNL A   1      32.582  27.058  25.237  1.00  0.00     0.253 C 
ATOM      5  O   UNL A   1      33.469  26.696  24.458  1.00  0.00    -0.269 OA
ATOM      6  H   UNL A   1      33.959  27.344  26.643  1.00  0.00     0.163 HD
BRANCH   4   7
ATOM      7  C   UNL A   1      31.159  26.964  24.794  1.00  0.00     0.063 A 
ATOM      8  C   UNL A   1      30.142  26.084  25.212  1.00  0.00     0.055 A 
ATOM      9  C   UNL A   1      28.923  26.075  24.497  1.00  0.00     0.027 A 
ATOM     10  C   UNL A   1      28.645  27.010  23.501  1.00  0.00     0.002 A 
ATOM     11  C   UNL A   1      30.842  27.919  23.793  1.00  0.00     0.016 A 
ATOM     12  C   UNL A   1      29.596  27.959  23.170  1.00  0.00     0.001 A 
BRANCH   8  13
ATOM     13  N   UNL A   1      30.126  25.204  26.316  1.00  0.00    -0.307 N 
ATOM     14  N   UNL A   1      30.920  23.090  25.591  1.00  0.00    -0.335 N 
ATOM     15  C   UNL A   1      30.289  23.876  26.480  1.00  0.00     0.319 C 
ATOM     16  H   UNL A   1      30.652  22.143  25.593  1.00  0.00     0.165 HD
ATOM     17  O   UNL A   1      29.881  23.363  27.525  1.00  0.00    -0.248 OA
ATOM     18  H   UNL A   1      29.957  25.670  27.166  1.00  0.00     0.171 HD
BRANCH  14  19
ATOM     19  C   UNL A   1      31.943  23.453  24.629  1.00  0.00     0.089 C 
ATOM     20  C   UNL A   1      32.932  21.100  24.251  1.00  0.00     0.013 C 
ATOM     21  C   UNL A   1      33.210  22.552  24.690  1.00  0.00    -0.015 C 
ATOM     22  C   UNL A   1      33.785  22.496  26.122  1.00  0.00     0.013 C 
ATOM     23  C   UNL A   1      34.260  23.211  23.758  1.00  0.00     0.008 C 
ATOM     24  C   UNL A   1      33.747  23.477  22.336  1.00  0.00     0.001 C 
ATOM     25  C   UNL A   1      31.371  23.517  23.211  1.00  0.00     0.025 C 
ATOM     26  C   UNL A   1      32.390  24.180  22.292  1.00  0.00     0.002 C 
ENDBRANCH  14  19
ENDBRANCH   8  13
ENDBRANCH   4   7
ENDBRANCH   2   3
ENDBRANCH   1   2
BRANCH   1  27
ATOM     27  C   UNL A   1      32.700  30.179  26.630  1.00  0.00     0.118 C 
BRANCH  27  28
ATOM     28  N   UNL A   1      32.772  31.594  27.014  1.00  0.00    -0.352 N 
ATOM     29  C   UNL A   1      33.763  32.333  27.616  1.00  0.00     0.251 C 
ATOM     30  H   UNL A   1      31.960  32.109  26.801  1.00  0.00     0.163 HD
ATOM     31  O   UNL A   1      33.586  33.507  27.893  1.00  0.00    -0.269 OA
BRANCH  29  32
ATOM     32  C   UNL A   1      35.039  31.684  27.995  1.00  0.00     0.039 A 
ATOM     33  C   UNL A   1      36.164  32.482  28.217  1.00  0.00     0.014 A 
ATOM     34  C   UNL A   1      35.107  30.309  28.198  1.00  0.00     0.014 A 
ATOM     35  C   UNL A   1      37.308  31.916  28.786  1.00  0.00     0.010 A 
ATOM     36  C   UNL A   1      36.189  29.776  28.885  1.00  0.00     0.010 A 
ATOM     37  C   UNL A   1      37.296  30.577  29.205  1.00  0.00    -0.014 A 
BRANCH  37  38
ATOM     38  C   UNL A   1      38.403  29.990  30.004  1.00  0.00     0.031 A 
ATOM     39  C   UNL A   1      38.598  30.404  31.437  1.00  0.00     0.074 A 
ATOM     40  C   UNL A   1      39.306  29.186  29.405  1.00  0.00     0.049 A 
ATOM     41  N   UNL A   1      39.593  30.146  32.247  1.00  0.00    -0.248 NA
ATOM     42  C   UNL A   1      37.560  31.270  32.022  1.00  0.00     0.031 C 
ATOM     43  C   UNL A   1      39.281  28.774  28.000  1.00  0.00     0.029 A 
ATOM     44  N   UNL A   1      40.435  28.582  29.903  1.00  0.00    -0.354 N 
ATOM     45  C   UNL A   1      39.323  30.853  33.412  1.00  0.00     0.074 A 
ATOM     46  C   UNL A   1      38.101  31.593  33.187  1.00  0.00     0.031 C 
ATOM     47  C   UNL A   1      40.322  27.961  27.757  1.00  0.00     0.029 A 
ATOM     48  C   UNL A   1      41.114  27.829  28.975  1.00  0.00     0.049 A 
ATOM     49  H   UNL A   1      40.731  28.680  30.837  1.00  0.00     0.167 HD
ATOM     50  C   UNL A   1      40.015  30.862  34.575  1.00  0.00     0.037 A 
ATOM     51  C   UNL A   1      42.251  27.118  29.091  1.00  0.00     0.037 A 
ATOM     52  C   UNL A   1      41.187  30.066  34.821  1.00  0.00     0.049 A 
ATOM     53  C   UNL A   1      42.963  27.090  30.415  1.00  0.00     0.074 A 
ATOM     54  C   UNL A   1      41.903  29.926  35.996  1.00  0.00     0.029 A 
ATOM     55  N   UNL A   1      41.804  29.262  33.875  1.00  0.00    -0.354 N 
ATOM     56  N   UNL A   1      42.658  27.708  31.530  1.00  0.00    -0.248 NA
ATOM     57  C   UNL A   1      44.175  26.263  30.499  1.00  0.00     0.031 C 
ATOM     58  C   UNL A   1      42.971  29.055  35.754  1.00  0.00     0.029 A 
ATOM     59  C   UNL A   1      42.899  28.627  34.438  1.00  0.00     0.049 A 
ATOM     60  H   UNL A   1      41.507  29.156  32.941  1.00  0.00     0.167 HD
ATOM     61  C   UNL A   1      43.624  27.329  32.452  1.00  0.00     0.074 A 
ATOM     62  C   UNL A   1      44.515  26.413  31.771  1.00  0.00     0.031 C 
ATOM     63  C   UNL A   1      43.764  27.709  33.744  1.00  0.00     0.037 A 
BRANCH  50  64
ATOM     64  C   UNL A   1      39.507  31.741  35.679  1.00  0.00     0.064 A 
ATOM     65  C   UNL A   1      38.529  31.297  36.581  1.00  0.00     0.173 A 
ATOM     66  C   UNL A   1      40.025  33.032  35.857  1.00  0.00     0.173 A 
ATOM     67  F   UNL A   1      37.992  30.075  36.445  1.00  0.00    -0.203 F 
ATOM     68  C   UNL A   1      38.066  32.122  37.602  1.00  0.00     0.198 A 
ATOM     69  C   UNL A   1      39.582  33.845  36.898  1.00  0.00     0.198 A 
ATOM     70  F   UNL A   1      40.966  33.505  35.026  1.00  0.00    -0.203 F 
ATOM     71  F   UNL A   1      37.095  31.693  38.419  1.00  0.00    -0.200 F 
ATOM     72  C   UNL A   1      38.599  33.392  37.764  1.00  0.00     0.200 A 
ATOM     73  F   UNL A   1      40.105  35.068  37.060  1.00  0.00    -0.200 F 
ATOM     74  F   UNL A   1      38.157  34.183  38.752  1.00  0.00    -0.200 F 
ENDBRANCH  50  64
BRANCH  51  75
ATOM     75  C   UNL A   1      42.772  26.347  27.932  1.00  0.00     0.064 A 
ATOM     76  C   UNL A   1      43.690  26.925  27.044  1.00  0.00     0.173 A 
ATOM     77  C   UNL A   1      42.360  25.031  27.679  1.00  0.00     0.173 A 
ATOM     78  F   UNL A   1      44.099  28.189  27.233  1.00  0.00    -0.203 F 
ATOM     79  C   UNL A   1      44.160  26.225  25.934  1.00  0.00     0.198 A 
ATOM     80  C   UNL A   1      42.849  24.322  26.583  1.00  0.00     0.198 A 
ATOM     81  F   UNL A   1      41.487  24.431  28.502  1.00  0.00    -0.203 F 
ATOM     82  F   UNL A   1      45.000  26.818  25.077  1.00  0.00    -0.200 F 
ATOM     83  C   UNL A   1      43.740  24.922  25.707  1.00  0.00     0.200 A 
ATOM     84  F   UNL A   1      42.452  23.060  26.373  1.00  0.00    -0.200 F 
ATOM     85  F   UNL A   1      44.191  24.249  24.639  1.00  0.00    -0.200 F 
ENDBRANCH  51  75
BRANCH  63  86
ATOM     86  C   UNL A   1      44.904  27.114  34.514  1.00  0.00     0.064 A 
ATOM     87  C   UNL A   1      44.768  25.897  35.196  1.00  0.00     0.173 A 
ATOM     88  C   UNL A   1      46.156  27.747  34.531  1.00  0.00     0.173 A 
ATOM     89  F   UNL A   1      43.586  25.264  35.220  1.00  0.00    -0.203 F 
ATOM     90  C   UNL A   1      45.843  25.343  35.885  1.00  0.00     0.198 A 
ATOM     91  C   UNL A   1      47.234  27.177  35.200  1.00  0.00     0.198 A 
ATOM     92  F   UNL A   1      46.334  28.911  33.888  1.00  0.00    -0.203 F 
ATOM     93  F   UNL A   1      45.682  24.198  36.563  1.00  0.00    -0.200 F 
ATOM     94  C   UNL A   1      47.076  25.978  35.880  1.00  0.00     0.200 A 
ATOM     95  F   UNL A   1      48.428  27.787  35.186  1.00  0.00    -0.200 F 
ATOM     96  F   UNL A   1      48.111  25.440  36.538  1.00  0.00    -0.200 F 
ENDBRANCH  63  86
ENDBRANCH  37  38
ENDBRANCH  29  32
ENDBRANCH  27  28
ENDBRANCH   1  27
TORSDOF 12
ENDMDL
