MODEL 1
REMARK VINA RESULT:     -11.1      0.000      0.000
REMARK SMILES C[C@H]1C[C@@H]1C(=O)NC[C@@H]1CC[C@H](C(=O)NCCCNC(=O)c2ccc(-c3c4nc(c(-c5c(F)c(F)c(F)c(F)c5F)c5ccc([nH]5)c(-c5c(F)c(F)c(F)c(F)c5F)c5nc(c(-c6c(F)c(F)c(F)c(F)c6F)c6ccc3[nH]6)C=C5)C=C4)cc2)O1
REMARK SMILES IDX 16 1 15 2 13 3 14 4 12 6 9 7 10 8 85 9 11 10 8 11 7 12 5 13
REMARK SMILES IDX 6 14 4 16 1 17 2 18 3 19 17 20 18 21 19 22 20 23 21 25 22 26
REMARK SMILES IDX 23 27 84 28 24 29 83 30 25 31 26 32 27 33 77 34 28 35 82 36
REMARK SMILES IDX 76 37 78 38 29 39 81 40 75 41 74 42 30 44 62 45 42 46 61 47
REMARK SMILES IDX 43 48 46 49 60 50 79 51 44 52 45 53 59 55 80 56 47 57 31 58
REMARK SMILES IDX 32 59 40 60 33 61 34 62 38 63 41 64 35 65 36 66 39 67 37 68
REMARK SMILES IDX 63 69 64 70 72 71 65 72 66 73 70 74 73 75 67 76 68 77 71 78
REMARK SMILES IDX 69 79 48 80 49 81 57 82 50 83 51 84 55 85 58 86 52 87 53 88
REMARK SMILES IDX 56 89 54 90
REMARK H PARENT 15 5 7 15 19 24 78 43 46 54
REMARK Flexibility Score: inf
ROOT
ATOM      1  C   UNL A   1      33.659  35.965  29.995  1.00  0.00     0.117 C 
ENDROOT
BRANCH   1   2
ATOM      2  N   UNL A   1      32.685  36.475  30.937  1.00  0.00    -0.354 N 
ATOM      3  C   UNL A   1      32.716  36.498  32.297  1.00  0.00     0.249 C 
ATOM      4  O   UNL A   1      31.807  37.103  32.876  1.00  0.00    -0.272 OA
ATOM      5  H   UNL A   1      31.877  36.865  30.532  1.00  0.00     0.163 HD
BRANCH   3   6
ATOM      6  C   UNL A   1      33.770  35.715  33.106  1.00  0.00     0.207 C 
ATOM      7  C   UNL A   1      35.898  34.840  33.172  1.00  0.00     0.138 C 
ATOM      8  C   UNL A   1      35.045  33.755  32.540  1.00  0.00     0.037 C 
ATOM      9  O   UNL A   1      35.153  36.049  32.951  1.00  0.00    -0.363 OA
ATOM     10  C   UNL A   1      33.640  34.209  32.869  1.00  0.00     0.045 C 
BRANCH   7  11
ATOM     11  C   UNL A   1      37.341  34.939  32.657  1.00  0.00     0.147 C 
BRANCH  11  12
ATOM     12  N   UNL A   1      37.462  34.786  31.216  1.00  0.00    -0.353 N 
ATOM     13  C   UNL A   1      38.513  34.367  30.454  1.00  0.00     0.223 C 
ATOM     14  O   UNL A   1      38.434  34.492  29.234  1.00  0.00    -0.275 OA
ATOM     15  H   UNL A   1      36.654  35.025  30.707  1.00  0.00     0.163 HD
BRANCH  13  16
ATOM     16  C   UNL A   1      39.744  33.818  31.081  1.00  0.00     0.081 C 
ATOM     17  C   UNL A   1      42.155  34.578  31.696  1.00  0.00     0.008 C 
ATOM     18  C   UNL A   1      41.102  34.358  30.666  1.00  0.00    -0.001 C 
ATOM     19  C   UNL A   1      40.692  32.974  30.251  1.00  0.00     0.018 C 
ENDBRANCH  13  16
ENDBRANCH  11  12
ENDBRANCH   7  11
ENDBRANCH   3   6
ENDBRANCH   1   2
BRANCH   1  20
ATOM     20  C   UNL A   1      33.026  35.152  28.866  1.00  0.00     0.042 C 
BRANCH  20  21
ATOM     21  C   UNL A   1      33.700  33.796  28.679  1.00  0.00     0.118 C 
BRANCH  21  22
ATOM     22  N   UNL A   1      33.072  32.958  27.670  1.00  0.00    -0.352 N 
ATOM     23  C   UNL A   1      33.407  31.692  27.260  1.00  0.00     0.251 C 
ATOM     24  H   UNL A   1      32.293  33.355  27.217  1.00  0.00     0.163 HD
ATOM     25  O   UNL A   1      32.737  31.090  26.425  1.00  0.00    -0.269 OA
BRANCH  23  26
ATOM     26  C   UNL A   1      34.680  31.106  27.722  1.00  0.00     0.039 A 
ATOM     27  C   UNL A   1      35.755  31.983  27.904  1.00  0.00     0.014 A 
ATOM     28  C   UNL A   1      34.793  29.760  28.072  1.00  0.00     0.014 A 
ATOM     29  C   UNL A   1      36.915  31.533  28.527  1.00  0.00     0.010 A 
ATOM     30  C   UNL A   1      35.925  29.328  28.753  1.00  0.00     0.010 A 
ATOM     31  C   UNL A   1      36.983  30.217  29.004  1.00  0.00    -0.014 A 
BRANCH  31  32
ATOM     32  C   UNL A   1      38.149  29.749  29.784  1.00  0.00     0.031 A 
ATOM     33  C   UNL A   1      38.356  30.250  31.178  1.00  0.00     0.074 A 
ATOM     34  C   UNL A   1      39.049  28.933  29.202  1.00  0.00     0.049 A 
ATOM     35  N   UNL A   1      39.382  30.086  31.973  1.00  0.00    -0.248 NA
ATOM     36  C   UNL A   1      37.277  31.075  31.745  1.00  0.00     0.031 C 
ATOM     37  C   UNL A   1      38.962  28.408  27.838  1.00  0.00     0.029 A 
ATOM     38  N   UNL A   1      40.221  28.410  29.685  1.00  0.00    -0.354 N 
ATOM     39  C   UNL A   1      39.086  30.811  33.118  1.00  0.00     0.074 A 
ATOM     40  C   UNL A   1      37.797  31.436  32.909  1.00  0.00     0.031 C 
ATOM     41  C   UNL A   1      40.025  27.621  27.601  1.00  0.00     0.029 A 
ATOM     42  C   UNL A   1      40.881  27.615  28.781  1.00  0.00     0.049 A 
ATOM     43  H   UNL A   1      40.557  28.588  30.592  1.00  0.00     0.167 HD
ATOM     44  C   UNL A   1      39.824  30.936  34.245  1.00  0.00     0.037 A 
ATOM     45  C   UNL A   1      42.052  26.961  28.896  1.00  0.00     0.037 A 
ATOM     46  C   UNL A   1      41.089  30.286  34.457  1.00  0.00     0.049 A 
ATOM     47  C   UNL A   1      42.820  27.067  30.184  1.00  0.00     0.074 A 
ATOM     48  C   UNL A   1      41.926  30.354  35.555  1.00  0.00     0.029 A 
ATOM     49  N   UNL A   1      41.687  29.426  33.547  1.00  0.00    -0.354 N 
ATOM     50  N   UNL A   1      42.538  27.765  31.257  1.00  0.00    -0.248 NA
ATOM     51  C   UNL A   1      44.064  26.292  30.280  1.00  0.00     0.031 C 
ATOM     52  C   UNL A   1      43.033  29.532  35.310  1.00  0.00     0.029 A 
ATOM     53  C   UNL A   1      42.873  28.941  34.067  1.00  0.00     0.049 A 
ATOM     54  H   UNL A   1      41.322  29.196  32.663  1.00  0.00     0.167 HD
ATOM     55  C   UNL A   1      43.557  27.503  32.160  1.00  0.00     0.074 A 
ATOM     56  C   UNL A   1      44.459  26.571  31.515  1.00  0.00     0.031 C 
ATOM     57  C   UNL A   1      43.735  27.995  33.409  1.00  0.00     0.037 A 
BRANCH  44  58
ATOM     58  C   UNL A   1      39.271  31.810  35.327  1.00  0.00     0.064 A 
ATOM     59  C   UNL A   1      39.550  33.184  35.367  1.00  0.00     0.173 A 
ATOM     60  C   UNL A   1      38.458  31.271  36.334  1.00  0.00     0.173 A 
ATOM     61  F   UNL A   1      40.342  33.738  34.437  1.00  0.00    -0.203 F 
ATOM     62  C   UNL A   1      39.053  33.984  36.392  1.00  0.00     0.198 A 
ATOM     63  C   UNL A   1      37.944  32.079  37.345  1.00  0.00     0.198 A 
ATOM     64  F   UNL A   1      38.165  29.962  36.340  1.00  0.00    -0.203 F 
ATOM     65  F   UNL A   1      39.369  35.285  36.437  1.00  0.00    -0.200 F 
ATOM     66  C   UNL A   1      38.248  33.432  37.378  1.00  0.00     0.200 A 
ATOM     67  F   UNL A   1      37.164  31.546  38.295  1.00  0.00    -0.200 F 
ATOM     68  F   UNL A   1      37.773  34.203  38.366  1.00  0.00    -0.200 F 
ENDBRANCH  44  58
BRANCH  45  69
ATOM     69  C   UNL A   1      42.551  26.126  27.777  1.00  0.00     0.064 A 
ATOM     70  C   UNL A   1      43.499  26.631  26.877  1.00  0.00     0.173 A 
ATOM     71  C   UNL A   1      42.096  24.815  27.583  1.00  0.00     0.173 A 
ATOM     72  F   UNL A   1      43.947  27.888  27.014  1.00  0.00    -0.203 F 
ATOM     73  C   UNL A   1      43.962  25.861  25.812  1.00  0.00     0.198 A 
ATOM     74  C   UNL A   1      42.574  24.038  26.529  1.00  0.00     0.198 A 
ATOM     75  F   UNL A   1      41.194  24.285  28.421  1.00  0.00    -0.203 F 
ATOM     76  F   UNL A   1      44.841  26.381  24.945  1.00  0.00    -0.200 F 
ATOM     77  C   UNL A   1      43.502  24.564  25.641  1.00  0.00     0.200 A 
ATOM     78  F   UNL A   1      42.136  22.783  26.371  1.00  0.00    -0.200 F 
ATOM     79  F   UNL A   1      43.947  23.823  24.617  1.00  0.00    -0.200 F 
ENDBRANCH  45  69
BRANCH  57  80
ATOM     80  C   UNL A   1      44.928  27.504  34.167  1.00  0.00     0.064 A 
ATOM     81  C   UNL A   1      46.154  28.179  34.111  1.00  0.00     0.173 A 
ATOM     82  C   UNL A   1      44.828  26.370  34.984  1.00  0.00     0.173 A 
ATOM     83  F   UNL A   1      46.296  29.258  33.326  1.00  0.00    -0.203 F 
ATOM     84  C   UNL A   1      47.248  27.726  34.841  1.00  0.00     0.198 A 
ATOM     85  C   UNL A   1      45.920  25.930  35.726  1.00  0.00     0.198 A 
ATOM     86  F   UNL A   1      43.672  25.695  35.066  1.00  0.00    -0.203 F 
ATOM     87  F   UNL A   1      48.421  28.367  34.754  1.00  0.00    -0.200 F 
ATOM     88  C   UNL A   1      47.129  26.606  35.652  1.00  0.00     0.200 A 
ATOM     89  F   UNL A   1      45.804  24.849  36.509  1.00  0.00    -0.200 F 
ATOM     90  F   UNL A   1      48.183  26.173  36.356  1.00  0.00    -0.200 F 
ENDBRANCH  57  80
ENDBRANCH  31  32
ENDBRANCH  23  26
ENDBRANCH  21  22
ENDBRANCH  20  21
ENDBRANCH   1  20
TORSDOF 13
ENDMDL
MODEL 2
REMARK VINA RESULT:     -10.9      2.861      6.110
REMARK SMILES C[C@H]1C[C@@H]1C(=O)NC[C@@H]1CC[C@H](C(=O)NCCCNC(=O)c2ccc(-c3c4nc(c(-c5c(F)c(F)c(F)c(F)c5F)c5ccc([nH]5)c(-c5c(F)c(F)c(F)c(F)c5F)c5nc(c(-c6c(F)c(F)c(F)c(F)c6F)c6ccc3[nH]6)C=C5)C=C4)cc2)O1
REMARK SMILES IDX 16 1 15 2 13 3 14 4 12 6 9 7 10 8 85 9 11 10 8 11 7 12 5 13
REMARK SMILES IDX 6 14 4 16 1 17 2 18 3 19 17 20 18 21 19 22 20 23 21 25 22 26
REMARK SMILES IDX 23 27 84 28 24 29 83 30 25 31 26 32 27 33 77 34 28 35 82 36
REMARK SMILES IDX 76 37 78 38 29 39 81 40 75 41 74 42 30 44 62 45 42 46 61 47
REMARK SMILES IDX 43 48 46 49 60 50 79 51 44 52 45 53 59 55 80 56 47 57 31 58
REMARK SMILES IDX 32 59 40 60 33 61 34 62 38 63 41 64 35 65 36 66 39 67 37 68
REMARK SMILES IDX 63 69 64 70 72 71 65 72 66 73 70 74 73 75 67 76 68 77 71 78
REMARK SMILES IDX 69 79 48 80 49 81 57 82 50 83 51 84 55 85 58 86 52 87 53 88
REMARK SMILES IDX 56 89 54 90
REMARK H PARENT 15 5 7 15 19 24 78 43 46 54
REMARK Flexibility Score: inf
ROOT
ATOM      1  C   UNL A   1      31.901  30.533  26.616  1.00  0.00     0.117 C 
ENDROOT
BRANCH   1   2
ATOM      2  N   UNL A   1      33.057  30.153  27.401  1.00  0.00    -0.354 N 
ATOM      3  C   UNL A   1      34.071  29.296  27.102  1.00  0.00     0.249 C 
ATOM      4  O   UNL A   1      35.013  29.230  27.898  1.00  0.00    -0.272 OA
ATOM      5  H   UNL A   1      33.119  30.580  28.286  1.00  0.00     0.163 HD
BRANCH   3   6
ATOM      6  C   UNL A   1      34.013  28.352  25.883  1.00  0.00     0.207 C 
ATOM      7  C   UNL A   1      32.859  27.687  24.006  1.00  0.00     0.138 C 
ATOM      8  C   UNL A   1      32.286  26.854  25.138  1.00  0.00     0.037 C 
ATOM      9  O   UNL A   1      33.434  28.828  24.664  1.00  0.00    -0.363 OA
ATOM     10  C   UNL A   1      33.312  27.039  26.234  1.00  0.00     0.045 C 
BRANCH   7  11
ATOM     11  C   UNL A   1      31.867  28.084  22.903  1.00  0.00     0.147 C 
BRANCH  11  12
ATOM     12  N   UNL A   1      30.554  27.476  23.046  1.00  0.00    -0.353 N 
ATOM     13  C   UNL A   1      29.318  28.046  23.135  1.00  0.00     0.223 C 
ATOM     14  O   UNL A   1      28.366  27.330  23.433  1.00  0.00    -0.275 OA
ATOM     15  H   UNL A   1      30.558  26.493  23.087  1.00  0.00     0.163 HD
BRANCH  13  16
ATOM     16  C   UNL A   1      29.131  29.507  22.926  1.00  0.00     0.081 C 
ATOM     17  C   UNL A   1      27.520  31.415  23.652  1.00  0.00     0.008 C 
ATOM     18  C   UNL A   1      27.734  30.100  22.987  1.00  0.00    -0.001 C 
ATOM     19  C   UNL A   1      28.444  29.998  21.667  1.00  0.00     0.018 C 
ENDBRANCH  13  16
ENDBRANCH  11  12
ENDBRANCH   7  11
ENDBRANCH   3   6
ENDBRANCH   1   2
BRANCH   1  20
ATOM     20  C   UNL A   1      31.609  32.031  26.676  1.00  0.00     0.042 C 
BRANCH  20  21
ATOM     21  C   UNL A   1      32.724  32.814  27.363  1.00  0.00     0.118 C 
BRANCH  21  22
ATOM     22  N   UNL A   1      32.337  34.151  27.782  1.00  0.00    -0.352 N 
ATOM     23  C   UNL A   1      33.002  35.034  28.596  1.00  0.00     0.251 C 
ATOM     24  H   UNL A   1      31.474  34.470  27.431  1.00  0.00     0.163 HD
ATOM     25  O   UNL A   1      32.563  36.160  28.814  1.00  0.00    -0.269 OA
BRANCH  23  26
ATOM     26  C   UNL A   1      34.187  34.566  29.339  1.00  0.00     0.039 A 
ATOM     27  C   UNL A   1      33.961  33.959  30.579  1.00  0.00     0.014 A 
ATOM     28  C   UNL A   1      35.471  34.618  28.796  1.00  0.00     0.014 A 
ATOM     29  C   UNL A   1      35.008  33.316  31.234  1.00  0.00     0.010 A 
ATOM     30  C   UNL A   1      36.501  33.921  29.418  1.00  0.00     0.010 A 
ATOM     31  C   UNL A   1      36.270  33.248  30.629  1.00  0.00    -0.014 A 
BRANCH  31  32
ATOM     32  C   UNL A   1      37.365  32.463  31.238  1.00  0.00     0.031 A 
ATOM     33  C   UNL A   1      37.832  32.794  32.621  1.00  0.00     0.074 A 
ATOM     34  C   UNL A   1      37.977  31.508  30.512  1.00  0.00     0.049 A 
ATOM     35  N   UNL A   1      38.866  32.335  33.277  1.00  0.00    -0.248 NA
ATOM     36  C   UNL A   1      37.046  33.800  33.354  1.00  0.00     0.031 C 
ATOM     37  C   UNL A   1      37.624  31.124  29.143  1.00  0.00     0.029 A 
ATOM     38  N   UNL A   1      39.034  30.692  30.823  1.00  0.00    -0.354 N 
ATOM     39  C   UNL A   1      38.874  33.019  34.484  1.00  0.00     0.074 A 
ATOM     40  C   UNL A   1      37.757  33.939  34.463  1.00  0.00     0.031 C 
ATOM     41  C   UNL A   1      38.437  30.133  28.741  1.00  0.00     0.029 A 
ATOM     42  C   UNL A   1      39.387  29.838  29.807  1.00  0.00     0.049 A 
ATOM     43  H   UNL A   1      39.497  30.716  31.691  1.00  0.00     0.167 HD
ATOM     44  C   UNL A   1      39.735  32.881  35.519  1.00  0.00     0.037 A 
ATOM     45  C   UNL A   1      40.373  28.923  29.749  1.00  0.00     0.037 A 
ATOM     46  C   UNL A   1      40.822  31.942  35.544  1.00  0.00     0.049 A 
ATOM     47  C   UNL A   1      41.274  28.748  30.938  1.00  0.00     0.074 A 
ATOM     48  C   UNL A   1      41.762  31.728  36.536  1.00  0.00     0.029 A 
ATOM     49  N   UNL A   1      41.099  31.039  34.527  1.00  0.00    -0.354 N 
ATOM     50  N   UNL A   1      41.282  29.408  32.071  1.00  0.00    -0.248 NA
ATOM     51  C   UNL A   1      42.300  27.702  30.844  1.00  0.00     0.031 C 
ATOM     52  C   UNL A   1      42.609  30.694  36.119  1.00  0.00     0.029 A 
ATOM     53  C   UNL A   1      42.182  30.253  34.876  1.00  0.00     0.049 A 
ATOM     54  H   UNL A   1      40.598  30.969  33.683  1.00  0.00     0.167 HD
ATOM     55  C   UNL A   1      42.298  28.848  32.830  1.00  0.00     0.074 A 
ATOM     56  C   UNL A   1      42.877  27.785  32.035  1.00  0.00     0.031 C 
ATOM     57  C   UNL A   1      42.719  29.187  34.072  1.00  0.00     0.037 A 
BRANCH  44  58
ATOM     58  C   UNL A   1      39.524  33.774  36.702  1.00  0.00     0.064 A 
ATOM     59  C   UNL A   1      40.078  35.061  36.751  1.00  0.00     0.173 A 
ATOM     60  C   UNL A   1      38.763  33.339  37.797  1.00  0.00     0.173 A 
ATOM     61  F   UNL A   1      40.831  35.510  35.736  1.00  0.00    -0.203 F 
ATOM     62  C   UNL A   1      39.899  35.874  37.867  1.00  0.00     0.198 A 
ATOM     63  C   UNL A   1      38.567  34.163  38.902  1.00  0.00     0.198 A 
ATOM     64  F   UNL A   1      38.215  32.115  37.798  1.00  0.00    -0.203 F 
ATOM     65  F   UNL A   1      40.475  37.082  37.913  1.00  0.00    -0.200 F 
ATOM     66  C   UNL A   1      39.141  35.426  38.939  1.00  0.00     0.200 A 
ATOM     67  F   UNL A   1      37.833  33.732  39.936  1.00  0.00    -0.200 F 
ATOM     68  F   UNL A   1      38.972  36.208  40.014  1.00  0.00    -0.200 F 
ENDBRANCH  44  58
BRANCH  45  69
ATOM     69  C   UNL A   1      40.536  28.084  28.537  1.00  0.00     0.064 A 
ATOM     70  C   UNL A   1      39.921  26.827  28.451  1.00  0.00     0.173 A 
ATOM     71  C   UNL A   1      41.302  28.514  27.446  1.00  0.00     0.173 A 
ATOM     72  F   UNL A   1      39.195  26.367  29.481  1.00  0.00    -0.203 F 
ATOM     73  C   UNL A   1      40.082  26.023  27.325  1.00  0.00     0.198 A 
ATOM     74  C   UNL A   1      41.447  27.718  26.311  1.00  0.00     0.198 A 
ATOM     75  F   UNL A   1      41.905  29.712  27.478  1.00  0.00    -0.203 F 
ATOM     76  F   UNL A   1      39.513  24.810  27.283  1.00  0.00    -0.200 F 
ATOM     77  C   UNL A   1      40.841  26.471  26.254  1.00  0.00     0.200 A 
ATOM     78  F   UNL A   1      42.172  28.157  25.274  1.00  0.00    -0.200 F 
ATOM     79  F   UNL A   1      40.995  25.698  25.171  1.00  0.00    -0.200 F 
ENDBRANCH  45  69
BRANCH  57  80
ATOM     80  C   UNL A   1      43.832  28.376  34.655  1.00  0.00     0.064 A 
ATOM     81  C   UNL A   1      45.171  28.758  34.498  1.00  0.00     0.173 A 
ATOM     82  C   UNL A   1      43.551  27.229  35.409  1.00  0.00     0.173 A 
ATOM     83  F   UNL A   1      45.483  29.841  33.769  1.00  0.00    -0.203 F 
ATOM     84  C   UNL A   1      46.195  28.009  35.068  1.00  0.00     0.198 A 
ATOM     85  C   UNL A   1      44.577  26.491  35.991  1.00  0.00     0.198 A 
ATOM     86  F   UNL A   1      42.283  26.828  35.583  1.00  0.00    -0.203 F 
ATOM     87  F   UNL A   1      47.471  28.374  34.884  1.00  0.00    -0.200 F 
ATOM     88  C   UNL A   1      45.897  26.880  35.818  1.00  0.00     0.200 A 
ATOM     89  F   UNL A   1      44.289  25.402  36.716  1.00  0.00    -0.200 F 
ATOM     90  F   UNL A   1      46.885  26.161  36.367  1.00  0.00    -0.200 F 
ENDBRANCH  57  80
ENDBRANCH  31  32
ENDBRANCH  23  26
ENDBRANCH  21  22
ENDBRANCH  20  21
ENDBRANCH   1  20
TORSDOF 13
ENDMDL
MODEL 3
REMARK VINA RESULT:     -10.7      3.238      6.444
REMARK SMILES C[C@H]1C[C@@H]1C(=O)NC[C@@H]1CC[C@H](C(=O)NCCCNC(=O)c2ccc(-c3c4nc(c(-c5c(F)c(F)c(F)c(F)c5F)c5ccc([nH]5)c(-c5c(F)c(F)c(F)c(F)c5F)c5nc(c(-c6c(F)c(F)c(F)c(F)c6F)c6ccc3[nH]6)C=C5)C=C4)cc2)O1
REMARK SMILES IDX 16 1 15 2 13 3 14 4 12 6 9 7 10 8 85 9 11 10 8 11 7 12 5 13
REMARK SMILES IDX 6 14 4 16 1 17 2 18 3 19 17 20 18 21 19 22 20 23 21 25 22 26
REMARK SMILES IDX 23 27 84 28 24 29 83 30 25 31 26 32 27 33 77 34 28 35 82 36
REMARK SMILES IDX 76 37 78 38 29 39 81 40 75 41 74 42 30 44 62 45 42 46 61 47
REMARK SMILES IDX 43 48 46 49 60 50 79 51 44 52 45 53 59 55 80 56 47 57 31 58
REMARK SMILES IDX 32 59 40 60 33 61 34 62 38 63 41 64 35 65 36 66 39 67 37 68
REMARK SMILES IDX 63 69 64 70 72 71 65 72 66 73 70 74 73 75 67 76 68 77 71 78
REMARK SMILES IDX 69 79 48 80 49 81 57 82 50 83 51 84 55 85 58 86 52 87 53 88
REMARK SMILES IDX 56 89 54 90
REMARK H PARENT 15 5 7 15 19 24 78 43 46 54
REMARK Flexibility Score: inf
ROOT
ATOM      1  C   UNL A   1      32.275  30.387  26.851  1.00  0.00     0.117 C 
ENDROOT
BRANCH   1   2
ATOM      2  N   UNL A   1      33.013  30.050  25.652  1.00  0.00    -0.354 N 
ATOM      3  C   UNL A   1      32.640  29.302  24.579  1.00  0.00     0.249 C 
ATOM      4  O   UNL A   1      33.414  29.261  23.617  1.00  0.00    -0.272 OA
ATOM      5  H   UNL A   1      33.924  30.420  25.605  1.00  0.00     0.163 HD
BRANCH   3   6
ATOM      6  C   UNL A   1      31.360  28.441  24.586  1.00  0.00     0.207 C 
ATOM      7  C   UNL A   1      30.338  26.489  23.919  1.00  0.00     0.138 C 
ATOM      8  C   UNL A   1      30.116  27.461  22.775  1.00  0.00     0.037 C 
ATOM      9  O   UNL A   1      31.482  27.015  24.613  1.00  0.00    -0.363 OA
ATOM     10  C   UNL A   1      30.450  28.794  23.408  1.00  0.00     0.045 C 
BRANCH   7  11
ATOM     11  C   UNL A   1      30.523  25.018  23.518  1.00  0.00     0.147 C 
BRANCH  11  12
ATOM     12  N   UNL A   1      31.396  24.827  22.372  1.00  0.00    -0.353 N 
ATOM     13  C   UNL A   1      32.690  24.402  22.304  1.00  0.00     0.223 C 
ATOM     14  O   UNL A   1      33.278  24.492  21.229  1.00  0.00    -0.275 OA
ATOM     15  H   UNL A   1      30.987  25.040  21.502  1.00  0.00     0.163 HD
BRANCH  13  16
ATOM     16  C   UNL A   1      33.392  23.888  23.510  1.00  0.00     0.081 C 
ATOM     17  C   UNL A   1      34.224  24.737  25.824  1.00  0.00     0.008 C 
ATOM     18  C   UNL A   1      34.249  24.830  24.338  1.00  0.00    -0.001 C 
ATOM     19  C   UNL A   1      34.904  23.769  23.500  1.00  0.00     0.018 C 
ENDBRANCH  13  16
ENDBRANCH  11  12
ENDBRANCH   7  11
ENDBRANCH   3   6
ENDBRANCH   1   2
BRANCH   1  20
ATOM     20  C   UNL A   1      31.800  31.838  26.871  1.00  0.00     0.042 C 
BRANCH  20  21
ATOM     21  C   UNL A   1      32.933  32.816  27.171  1.00  0.00     0.118 C 
BRANCH  21  22
ATOM     22  N   UNL A   1      32.484  34.107  27.667  1.00  0.00    -0.352 N 
ATOM     23  C   UNL A   1      33.081  34.944  28.577  1.00  0.00     0.251 C 
ATOM     24  H   UNL A   1      31.630  34.427  27.297  1.00  0.00     0.163 HD
ATOM     25  O   UNL A   1      32.596  36.038  28.854  1.00  0.00    -0.269 OA
BRANCH  23  26
ATOM     26  C   UNL A   1      34.242  34.454  29.342  1.00  0.00     0.039 A 
ATOM     27  C   UNL A   1      33.975  33.739  30.515  1.00  0.00     0.014 A 
ATOM     28  C   UNL A   1      35.550  34.592  28.877  1.00  0.00     0.014 A 
ATOM     29  C   UNL A   1      35.009  33.078  31.172  1.00  0.00     0.010 A 
ATOM     30  C   UNL A   1      36.571  33.879  29.495  1.00  0.00     0.010 A 
ATOM     31  C   UNL A   1      36.302  33.101  30.632  1.00  0.00    -0.014 A 
BRANCH  31  32
ATOM     32  C   UNL A   1      37.393  32.304  31.235  1.00  0.00     0.031 A 
ATOM     33  C   UNL A   1      37.859  32.618  32.621  1.00  0.00     0.074 A 
ATOM     34  C   UNL A   1      38.000  31.352  30.500  1.00  0.00     0.049 A 
ATOM     35  N   UNL A   1      38.890  32.146  33.274  1.00  0.00    -0.248 NA
ATOM     36  C   UNL A   1      37.079  33.621  33.364  1.00  0.00     0.031 C 
ATOM     37  C   UNL A   1      37.646  30.984  29.127  1.00  0.00     0.029 A 
ATOM     38  N   UNL A   1      39.052  30.527  30.804  1.00  0.00    -0.354 N 
ATOM     39  C   UNL A   1      38.901  32.818  34.487  1.00  0.00     0.074 A 
ATOM     40  C   UNL A   1      37.789  33.745  34.475  1.00  0.00     0.031 C 
ATOM     41  C   UNL A   1      38.454  29.993  28.715  1.00  0.00     0.029 A 
ATOM     42  C   UNL A   1      39.400  29.681  29.780  1.00  0.00     0.049 A 
ATOM     43  H   UNL A   1      39.514  30.540  31.672  1.00  0.00     0.167 HD
ATOM     44  C   UNL A   1      39.760  32.665  35.522  1.00  0.00     0.037 A 
ATOM     45  C   UNL A   1      40.382  28.762  29.713  1.00  0.00     0.037 A 
ATOM     46  C   UNL A   1      40.842  31.720  35.538  1.00  0.00     0.049 A 
ATOM     47  C   UNL A   1      41.281  28.570  30.901  1.00  0.00     0.074 A 
ATOM     48  C   UNL A   1      41.780  31.491  36.529  1.00  0.00     0.029 A 
ATOM     49  N   UNL A   1      41.115  30.826  34.512  1.00  0.00    -0.354 N 
ATOM     50  N   UNL A   1      41.291  29.219  32.041  1.00  0.00    -0.248 NA
ATOM     51  C   UNL A   1      42.301  27.519  30.797  1.00  0.00     0.031 C 
ATOM     52  C   UNL A   1      42.622  30.456  36.102  1.00  0.00     0.029 A 
ATOM     53  C   UNL A   1      42.194  30.030  34.854  1.00  0.00     0.049 A 
ATOM     54  H   UNL A   1      40.615  30.767  33.667  1.00  0.00     0.167 HD
ATOM     55  C   UNL A   1      42.303  28.645  32.795  1.00  0.00     0.074 A 
ATOM     56  C   UNL A   1      42.877  27.586  31.990  1.00  0.00     0.031 C 
ATOM     57  C   UNL A   1      42.725  28.969  34.040  1.00  0.00     0.037 A 
BRANCH  44  58
ATOM     58  C   UNL A   1      39.553  33.547  36.714  1.00  0.00     0.064 A 
ATOM     59  C   UNL A   1      38.742  33.145  37.785  1.00  0.00     0.173 A 
ATOM     60  C   UNL A   1      40.167  34.805  36.785  1.00  0.00     0.173 A 
ATOM     61  F   UNL A   1      38.117  31.959  37.749  1.00  0.00    -0.203 F 
ATOM     62  C   UNL A   1      38.534  33.983  38.877  1.00  0.00     0.198 A 
ATOM     63  C   UNL A   1      39.975  35.632  37.889  1.00  0.00     0.198 A 
ATOM     64  F   UNL A   1      40.950  35.235  35.784  1.00  0.00    -0.203 F 
ATOM     65  F   UNL A   1      37.719  33.599  39.868  1.00  0.00    -0.200 F 
ATOM     66  C   UNL A   1      39.153  35.224  38.930  1.00  0.00     0.200 A 
ATOM     67  F   UNL A   1      40.575  36.829  37.941  1.00  0.00    -0.200 F 
ATOM     68  F   UNL A   1      38.949  36.031  39.980  1.00  0.00    -0.200 F 
ENDBRANCH  44  58
BRANCH  45  69
ATOM     69  C   UNL A   1      40.541  27.934  28.492  1.00  0.00     0.064 A 
ATOM     70  C   UNL A   1      39.917  26.683  28.393  1.00  0.00     0.173 A 
ATOM     71  C   UNL A   1      41.313  28.370  27.407  1.00  0.00     0.173 A 
ATOM     72  F   UNL A   1      39.185  26.217  29.416  1.00  0.00    -0.203 F 
ATOM     73  C   UNL A   1      40.074  25.890  27.259  1.00  0.00     0.198 A 
ATOM     74  C   UNL A   1      41.453  27.584  26.265  1.00  0.00     0.198 A 
ATOM     75  F   UNL A   1      41.924  29.563  27.453  1.00  0.00    -0.203 F 
ATOM     76  F   UNL A   1      39.497  24.681  27.203  1.00  0.00    -0.200 F 
ATOM     77  C   UNL A   1      40.839  26.343  26.194  1.00  0.00     0.200 A 
ATOM     78  F   UNL A   1      42.184  28.028  25.234  1.00  0.00    -0.200 F 
ATOM     79  F   UNL A   1      40.990  25.579  25.103  1.00  0.00    -0.200 F 
ENDBRANCH  45  69
BRANCH  57  80
ATOM     80  C   UNL A   1      43.833  28.146  34.616  1.00  0.00     0.064 A 
ATOM     81  C   UNL A   1      43.569  26.986  35.355  1.00  0.00     0.173 A 
ATOM     82  C   UNL A   1      45.169  28.504  34.392  1.00  0.00     0.173 A 
ATOM     83  F   UNL A   1      42.303  26.618  35.607  1.00  0.00    -0.203 F 
ATOM     84  C   UNL A   1      44.610  26.215  35.863  1.00  0.00     0.198 A 
ATOM     85  C   UNL A   1      46.208  27.721  34.887  1.00  0.00     0.198 A 
ATOM     86  F   UNL A   1      45.465  29.607  33.689  1.00  0.00    -0.203 F 
ATOM     87  F   UNL A   1      44.339  25.124  36.591  1.00  0.00    -0.200 F 
ATOM     88  C   UNL A   1      45.927  26.580  35.624  1.00  0.00     0.200 A 
ATOM     89  F   UNL A   1      47.479  28.073  34.656  1.00  0.00    -0.200 F 
ATOM     90  F   UNL A   1      46.928  25.835  36.112  1.00  0.00    -0.200 F 
ENDBRANCH  57  80
ENDBRANCH  31  32
ENDBRANCH  23  26
ENDBRANCH  21  22
ENDBRANCH  20  21
ENDBRANCH   1  20
TORSDOF 13
ENDMDL
