MODEL 1
REMARK VINA RESULT:     -12.4      0.000      0.000
REMARK SMILES Cc1nc([C@]2(C)CCCO2)nc(C)c1C(=O)NCCCNC(=O)c1ccc(-c2c3nc(c(-c4c(F)c(F)c(F)c(F)c4F)c4ccc([nH]4)c(-c4c(F)c(F)c(F)c(F)c4F)c4nc(c(-c5c(F)c(F)c(F)c(F)c5F)c5ccc2[nH]5)C=C4)C=C3)cc1
REMARK SMILES IDX 19 1 18 2 17 3 15 4 16 5 14 7 1 8 2 9 3 10 4 11 12 12 11 13
REMARK SMILES IDX 13 14 5 15 7 16 10 17 6 18 8 19 9 20 20 21 21 22 22 23 23 25
REMARK SMILES IDX 24 26 25 27 86 28 26 29 85 30 27 31 28 32 29 33 79 34 30 35
REMARK SMILES IDX 84 36 78 37 80 38 31 39 83 40 77 41 76 42 32 44 64 45 44 46
REMARK SMILES IDX 63 47 45 48 48 49 62 50 81 51 46 52 47 53 61 55 82 56 49 57
REMARK SMILES IDX 33 58 34 59 42 60 35 61 36 62 40 63 43 64 37 65 38 66 41 67
REMARK SMILES IDX 39 68 65 69 66 70 74 71 67 72 68 73 72 74 75 75 69 76 70 77
REMARK SMILES IDX 73 78 71 79 50 80 51 81 59 82 52 83 53 84 57 85 60 86 54 87
REMARK SMILES IDX 55 88 58 89 56 90
REMARK H PARENT 17 6 21 24 80 43 48 54
REMARK Flexibility Score: inf
ROOT
ATOM      1  C   UNL A   1      37.651  19.633  24.983  1.00  0.00     0.042 C 
ENDROOT
BRANCH   1   2
ATOM      2  C   UNL A   1      36.436  20.564  24.984  1.00  0.00     0.118 C 
BRANCH   2   3
ATOM      3  N   UNL A   1      35.224  19.780  24.978  1.00  0.00    -0.352 N 
ATOM      4  C   UNL A   1      33.890  20.024  25.145  1.00  0.00     0.254 C 
ATOM      5  O   UNL A   1      33.231  18.985  25.253  1.00  0.00    -0.269 OA
ATOM      6  H   UNL A   1      35.405  18.827  24.813  1.00  0.00     0.163 HD
BRANCH   4   7
ATOM      7  C   UNL A   1      33.177  21.343  25.164  1.00  0.00     0.082 A 
ATOM      8  C   UNL A   1      32.300  21.551  22.727  1.00  0.00     0.068 C 
ATOM      9  C   UNL A   1      32.487  21.983  24.138  1.00  0.00     0.054 A 
ATOM     10  N   UNL A   1      31.949  23.220  24.279  1.00  0.00    -0.234 NA
ATOM     11  C   UNL A   1      32.166  23.921  25.394  1.00  0.00     0.160 A 
ATOM     12  C   UNL A   1      33.297  22.134  26.329  1.00  0.00     0.054 A 
ATOM     13  N   UNL A   1      32.802  23.400  26.445  1.00  0.00    -0.234 NA
ATOM     14  C   UNL A   1      34.034  21.702  27.569  1.00  0.00     0.068 C 
BRANCH  11  15
ATOM     15  C   UNL A   1      31.756  25.400  25.373  1.00  0.00     0.125 C 
ATOM     16  C   UNL A   1      32.084  26.070  24.038  1.00  0.00     0.046 C 
ATOM     17  O   UNL A   1      32.550  26.142  26.338  1.00  0.00    -0.367 OA
ATOM     18  C   UNL A   1      30.288  25.589  25.756  1.00  0.00     0.051 C 
ATOM     19  C   UNL A   1      33.537  26.472  24.182  1.00  0.00     0.032 C 
ATOM     20  C   UNL A   1      33.727  26.634  25.679  1.00  0.00     0.161 C 
ENDBRANCH  11  15
ENDBRANCH   4   7
ENDBRANCH   2   3
ENDBRANCH   1   2
BRANCH   1  21
ATOM     21  C   UNL A   1      38.885  20.241  25.629  1.00  0.00     0.118 C 
BRANCH  21  22
ATOM     22  N   UNL A   1      39.914  19.239  25.850  1.00  0.00    -0.352 N 
ATOM     23  C   UNL A   1      41.257  19.405  26.057  1.00  0.00     0.251 C 
ATOM     24  H   UNL A   1      39.601  18.306  25.853  1.00  0.00     0.163 HD
ATOM     25  O   UNL A   1      42.014  18.436  25.951  1.00  0.00    -0.269 OA
BRANCH  23  26
ATOM     26  C   UNL A   1      41.809  20.733  26.396  1.00  0.00     0.039 A 
ATOM     27  C   UNL A   1      42.050  21.651  25.370  1.00  0.00     0.014 A 
ATOM     28  C   UNL A   1      42.123  21.063  27.717  1.00  0.00     0.014 A 
ATOM     29  C   UNL A   1      42.563  22.913  25.675  1.00  0.00     0.010 A 
ATOM     30  C   UNL A   1      42.546  22.349  28.030  1.00  0.00     0.010 A 
ATOM     31  C   UNL A   1      42.788  23.281  27.011  1.00  0.00    -0.014 A 
BRANCH  31  32
ATOM     32  C   UNL A   1      43.304  24.625  27.369  1.00  0.00     0.031 A 
ATOM     33  C   UNL A   1      42.372  25.648  27.958  1.00  0.00     0.074 A 
ATOM     34  C   UNL A   1      44.582  24.943  27.092  1.00  0.00     0.049 A 
ATOM     35  N   UNL A   1      42.595  26.906  28.241  1.00  0.00    -0.248 NA
ATOM     36  C   UNL A   1      40.995  25.207  28.234  1.00  0.00     0.031 C 
ATOM     37  C   UNL A   1      45.562  24.047  26.476  1.00  0.00     0.029 A 
ATOM     38  N   UNL A   1      45.274  26.114  27.279  1.00  0.00    -0.354 N 
ATOM     39  C   UNL A   1      41.384  27.407  28.703  1.00  0.00     0.074 A 
ATOM     40  C   UNL A   1      40.417  26.338  28.609  1.00  0.00     0.031 C 
ATOM     41  C   UNL A   1      46.733  24.694  26.354  1.00  0.00     0.029 A 
ATOM     42  C   UNL A   1      46.575  26.058  26.843  1.00  0.00     0.049 A 
ATOM     43  H   UNL A   1      44.875  26.915  27.688  1.00  0.00     0.167 HD
ATOM     44  C   UNL A   1      41.113  28.644  29.185  1.00  0.00     0.037 A 
ATOM     45  C   UNL A   1      47.527  27.010  26.829  1.00  0.00     0.037 A 
ATOM     46  C   UNL A   1      42.093  29.690  29.306  1.00  0.00     0.049 A 
ATOM     47  C   UNL A   1      47.201  28.374  27.376  1.00  0.00     0.074 A 
ATOM     48  C   UNL A   1      41.942  30.956  29.842  1.00  0.00     0.029 A 
ATOM     49  N   UNL A   1      43.410  29.588  28.882  1.00  0.00    -0.354 N 
ATOM     50  N   UNL A   1      46.072  28.818  27.873  1.00  0.00    -0.248 NA
ATOM     51  C   UNL A   1      48.283  29.367  27.365  1.00  0.00     0.031 C 
ATOM     52  C   UNL A   1      43.155  31.637  29.698  1.00  0.00     0.029 A 
ATOM     53  C   UNL A   1      44.077  30.777  29.124  1.00  0.00     0.049 A 
ATOM     54  H   UNL A   1      43.810  28.789  28.469  1.00  0.00     0.167 HD
ATOM     55  C   UNL A   1      46.314  30.128  28.261  1.00  0.00     0.074 A 
ATOM     56  C   UNL A   1      47.703  30.403  27.953  1.00  0.00     0.031 C 
ATOM     57  C   UNL A   1      45.464  31.024  28.820  1.00  0.00     0.037 A 
BRANCH  44  58
ATOM     58  C   UNL A   1      39.704  28.929  29.621  1.00  0.00     0.064 A 
ATOM     59  C   UNL A   1      38.743  29.432  28.731  1.00  0.00     0.173 A 
ATOM     60  C   UNL A   1      39.299  28.666  30.939  1.00  0.00     0.173 A 
ATOM     61  F   UNL A   1      39.079  29.714  27.463  1.00  0.00    -0.203 F 
ATOM     62  C   UNL A   1      37.440  29.690  29.150  1.00  0.00     0.198 A 
ATOM     63  C   UNL A   1      37.987  28.894  31.346  1.00  0.00     0.198 A 
ATOM     64  F   UNL A   1      40.176  28.181  31.832  1.00  0.00    -0.203 F 
ATOM     65  F   UNL A   1      36.556  30.221  28.295  1.00  0.00    -0.200 F 
ATOM     66  C   UNL A   1      37.061  29.414  30.455  1.00  0.00     0.200 A 
ATOM     67  F   UNL A   1      37.620  28.612  32.604  1.00  0.00    -0.200 F 
ATOM     68  F   UNL A   1      35.806  29.654  30.855  1.00  0.00    -0.200 F 
ENDBRANCH  44  58
BRANCH  45  69
ATOM     69  C   UNL A   1      48.880  26.698  26.300  1.00  0.00     0.064 A 
ATOM     70  C   UNL A   1      49.229  27.019  24.980  1.00  0.00     0.173 A 
ATOM     71  C   UNL A   1      49.854  26.081  27.099  1.00  0.00     0.173 A 
ATOM     72  F   UNL A   1      48.327  27.594  24.171  1.00  0.00    -0.203 F 
ATOM     73  C   UNL A   1      50.490  26.714  24.474  1.00  0.00     0.198 A 
ATOM     74  C   UNL A   1      51.126  25.804  26.600  1.00  0.00     0.198 A 
ATOM     75  F   UNL A   1      49.575  25.762  28.372  1.00  0.00    -0.203 F 
ATOM     76  F   UNL A   1      50.781  26.990  23.195  1.00  0.00    -0.200 F 
ATOM     77  C   UNL A   1      51.440  26.112  25.286  1.00  0.00     0.200 A 
ATOM     78  F   UNL A   1      52.046  25.240  27.394  1.00  0.00    -0.200 F 
ATOM     79  F   UNL A   1      52.656  25.825  24.800  1.00  0.00    -0.200 F 
ENDBRANCH  45  69
BRANCH  57  80
ATOM     80  C   UNL A   1      46.018  32.373  29.171  1.00  0.00     0.064 A 
ATOM     81  C   UNL A   1      45.954  33.452  28.277  1.00  0.00     0.173 A 
ATOM     82  C   UNL A   1      46.576  32.600  30.439  1.00  0.00     0.173 A 
ATOM     83  F   UNL A   1      45.444  33.281  27.048  1.00  0.00    -0.203 F 
ATOM     84  C   UNL A   1      46.445  34.705  28.634  1.00  0.00     0.198 A 
ATOM     85  C   UNL A   1      47.036  33.861  30.803  1.00  0.00     0.198 A 
ATOM     86  F   UNL A   1      46.655  31.602  31.331  1.00  0.00    -0.203 F 
ATOM     87  F   UNL A   1      46.412  35.711  27.749  1.00  0.00    -0.200 F 
ATOM     88  C   UNL A   1      46.977  34.911  29.898  1.00  0.00     0.200 A 
ATOM     89  F   UNL A   1      47.536  34.063  32.029  1.00  0.00    -0.200 F 
ATOM     90  F   UNL A   1      47.438  36.121  30.243  1.00  0.00    -0.200 F 
ENDBRANCH  57  80
ENDBRANCH  31  32
ENDBRANCH  23  26
ENDBRANCH  21  22
ENDBRANCH   1  21
TORSDOF 11
ENDMDL
MODEL 2
REMARK VINA RESULT:     -12.4      0.219      1.634
REMARK SMILES Cc1nc([C@]2(C)CCCO2)nc(C)c1C(=O)NCCCNC(=O)c1ccc(-c2c3nc(c(-c4c(F)c(F)c(F)c(F)c4F)c4ccc([nH]4)c(-c4c(F)c(F)c(F)c(F)c4F)c4nc(c(-c5c(F)c(F)c(F)c(F)c5F)c5ccc2[nH]5)C=C4)C=C3)cc1
REMARK SMILES IDX 19 1 18 2 17 3 15 4 16 5 14 7 1 8 2 9 3 10 4 11 12 12 11 13
REMARK SMILES IDX 13 14 5 15 7 16 10 17 6 18 8 19 9 20 20 21 21 22 22 23 23 25
REMARK SMILES IDX 24 26 25 27 86 28 26 29 85 30 27 31 28 32 29 33 79 34 30 35
REMARK SMILES IDX 84 36 78 37 80 38 31 39 83 40 77 41 76 42 32 44 64 45 44 46
REMARK SMILES IDX 63 47 45 48 48 49 62 50 81 51 46 52 47 53 61 55 82 56 49 57
REMARK SMILES IDX 33 58 34 59 42 60 35 61 36 62 40 63 43 64 37 65 38 66 41 67
REMARK SMILES IDX 39 68 65 69 66 70 74 71 67 72 68 73 72 74 75 75 69 76 70 77
REMARK SMILES IDX 73 78 71 79 50 80 51 81 59 82 52 83 53 84 57 85 60 86 54 87
REMARK SMILES IDX 55 88 58 89 56 90
REMARK H PARENT 17 6 21 24 80 43 48 54
REMARK Flexibility Score: inf
ROOT
ATOM      1  C   UNL A   1      37.544  19.565  24.995  1.00  0.00     0.042 C 
ENDROOT
BRANCH   1   2
ATOM      2  C   UNL A   1      36.338  20.506  25.000  1.00  0.00     0.118 C 
BRANCH   2   3
ATOM      3  N   UNL A   1      35.119  19.732  25.016  1.00  0.00    -0.352 N 
ATOM      4  C   UNL A   1      33.789  19.990  25.190  1.00  0.00     0.254 C 
ATOM      5  O   UNL A   1      33.122  18.958  25.319  1.00  0.00    -0.269 OA
ATOM      6  H   UNL A   1      35.291  18.775  24.864  1.00  0.00     0.163 HD
BRANCH   4   7
ATOM      7  C   UNL A   1      33.086  21.315  25.194  1.00  0.00     0.082 A 
ATOM      8  C   UNL A   1      32.208  21.501  22.756  1.00  0.00     0.068 C 
ATOM      9  C   UNL A   1      32.401  21.949  24.161  1.00  0.00     0.054 A 
ATOM     10  N   UNL A   1      31.874  23.192  24.288  1.00  0.00    -0.234 NA
ATOM     11  C   UNL A   1      32.098  23.904  25.394  1.00  0.00     0.160 A 
ATOM     12  C   UNL A   1      33.215  22.119  26.349  1.00  0.00     0.054 A 
ATOM     13  N   UNL A   1      32.731  23.391  26.450  1.00  0.00    -0.234 NA
ATOM     14  C   UNL A   1      33.950  21.696  27.594  1.00  0.00     0.068 C 
BRANCH  11  15
ATOM     15  C   UNL A   1      31.700  25.386  25.355  1.00  0.00     0.125 C 
ATOM     16  C   UNL A   1      32.090  26.054  24.037  1.00  0.00     0.046 C 
ATOM     17  O   UNL A   1      32.457  26.122  26.355  1.00  0.00    -0.367 OA
ATOM     18  C   UNL A   1      30.218  25.587  25.674  1.00  0.00     0.051 C 
ATOM     19  C   UNL A   1      33.539  26.444  24.244  1.00  0.00     0.032 C 
ATOM     20  C   UNL A   1      33.665  26.606  25.748  1.00  0.00     0.161 C 
ENDBRANCH  11  15
ENDBRANCH   4   7
ENDBRANCH   2   3
ENDBRANCH   1   2
BRANCH   1  21
ATOM     21  C   UNL A   1      38.818  20.205  25.522  1.00  0.00     0.118 C 
BRANCH  21  22
ATOM     22  N   UNL A   1      39.818  19.201  25.849  1.00  0.00    -0.352 N 
ATOM     23  C   UNL A   1      41.150  19.360  26.123  1.00  0.00     0.251 C 
ATOM     24  H   UNL A   1      39.490  18.273  25.879  1.00  0.00     0.163 HD
ATOM     25  O   UNL A   1      41.896  18.376  26.107  1.00  0.00    -0.269 OA
BRANCH  23  26
ATOM     26  C   UNL A   1      41.703  20.696  26.428  1.00  0.00     0.039 A 
ATOM     27  C   UNL A   1      41.984  21.572  25.376  1.00  0.00     0.014 A 
ATOM     28  C   UNL A   1      41.979  21.073  27.746  1.00  0.00     0.014 A 
ATOM     29  C   UNL A   1      42.497  22.841  25.649  1.00  0.00     0.010 A 
ATOM     30  C   UNL A   1      42.403  22.367  28.022  1.00  0.00     0.010 A 
ATOM     31  C   UNL A   1      42.685  23.257  26.977  1.00  0.00    -0.014 A 
BRANCH  31  32
ATOM     32  C   UNL A   1      43.201  24.610  27.300  1.00  0.00     0.031 A 
ATOM     33  C   UNL A   1      42.270  25.649  27.860  1.00  0.00     0.074 A 
ATOM     34  C   UNL A   1      44.480  24.919  27.016  1.00  0.00     0.049 A 
ATOM     35  N   UNL A   1      42.492  26.914  28.110  1.00  0.00    -0.248 NA
ATOM     36  C   UNL A   1      40.892  25.216  28.146  1.00  0.00     0.031 C 
ATOM     37  C   UNL A   1      45.459  24.007  26.425  1.00  0.00     0.029 A 
ATOM     38  N   UNL A   1      45.172  26.094  27.172  1.00  0.00    -0.354 N 
ATOM     39  C   UNL A   1      41.282  27.428  28.557  1.00  0.00     0.074 A 
ATOM     40  C   UNL A   1      40.314  26.357  28.491  1.00  0.00     0.031 C 
ATOM     41  C   UNL A   1      46.631  24.649  26.286  1.00  0.00     0.029 A 
ATOM     42  C   UNL A   1      46.473  26.027  26.739  1.00  0.00     0.049 A 
ATOM     43  H   UNL A   1      44.774  26.907  27.560  1.00  0.00     0.167 HD
ATOM     44  C   UNL A   1      41.011  28.677  29.005  1.00  0.00     0.037 A 
ATOM     45  C   UNL A   1      47.426  26.977  26.700  1.00  0.00     0.037 A 
ATOM     46  C   UNL A   1      41.991  29.726  29.100  1.00  0.00     0.049 A 
ATOM     47  C   UNL A   1      47.101  28.355  27.210  1.00  0.00     0.074 A 
ATOM     48  C   UNL A   1      41.841  31.006  29.602  1.00  0.00     0.029 A 
ATOM     49  N   UNL A   1      43.309  29.612  28.680  1.00  0.00    -0.354 N 
ATOM     50  N   UNL A   1      45.972  28.813  27.695  1.00  0.00    -0.248 NA
ATOM     51  C   UNL A   1      48.183  29.347  27.174  1.00  0.00     0.031 C 
ATOM     52  C   UNL A   1      43.054  31.682  29.442  1.00  0.00     0.029 A 
ATOM     53  C   UNL A   1      43.977  30.806  28.891  1.00  0.00     0.049 A 
ATOM     54  H   UNL A   1      43.709  28.801  28.289  1.00  0.00     0.167 HD
ATOM     55  C   UNL A   1      46.214  30.133  28.047  1.00  0.00     0.074 A 
ATOM     56  C   UNL A   1      47.603  30.399  27.734  1.00  0.00     0.031 C 
ATOM     57  C   UNL A   1      45.364  31.044  28.582  1.00  0.00     0.037 A 
BRANCH  44  58
ATOM     58  C   UNL A   1      39.602  28.975  29.433  1.00  0.00     0.064 A 
ATOM     59  C   UNL A   1      38.642  29.455  28.528  1.00  0.00     0.173 A 
ATOM     60  C   UNL A   1      39.196  28.747  30.757  1.00  0.00     0.173 A 
ATOM     61  F   UNL A   1      38.980  29.703  27.254  1.00  0.00    -0.203 F 
ATOM     62  C   UNL A   1      37.339  29.725  28.939  1.00  0.00     0.198 A 
ATOM     63  C   UNL A   1      37.884  28.987  31.156  1.00  0.00     0.198 A 
ATOM     64  F   UNL A   1      40.071  28.285  31.663  1.00  0.00    -0.203 F 
ATOM     65  F   UNL A   1      36.456  30.234  28.069  1.00  0.00    -0.200 F 
ATOM     66  C   UNL A   1      36.959  29.483  30.251  1.00  0.00     0.200 A 
ATOM     67  F   UNL A   1      37.514  28.739  32.421  1.00  0.00    -0.200 F 
ATOM     68  F   UNL A   1      35.703  29.735  30.643  1.00  0.00    -0.200 F 
ENDBRANCH  44  58
BRANCH  45  69
ATOM     69  C   UNL A   1      48.780  26.650  26.182  1.00  0.00     0.064 A 
ATOM     70  C   UNL A   1      49.738  26.041  27.004  1.00  0.00     0.173 A 
ATOM     71  C   UNL A   1      49.143  26.933  24.857  1.00  0.00     0.173 A 
ATOM     72  F   UNL A   1      49.445  25.767  28.283  1.00  0.00    -0.203 F 
ATOM     73  C   UNL A   1      51.014  25.748  26.528  1.00  0.00     0.198 A 
ATOM     74  C   UNL A   1      50.411  26.611  24.373  1.00  0.00     0.198 A 
ATOM     75  F   UNL A   1      48.261  27.507  24.025  1.00  0.00    -0.203 F 
ATOM     76  F   UNL A   1      51.925  25.208  27.349  1.00  0.00    -0.200 F 
ATOM     77  C   UNL A   1      51.348  26.028  25.211  1.00  0.00     0.200 A 
ATOM     78  F   UNL A   1      50.723  26.867  23.095  1.00  0.00    -0.200 F 
ATOM     79  F   UNL A   1      52.574  25.739  24.752  1.00  0.00    -0.200 F 
ENDBRANCH  45  69
BRANCH  57  80
ATOM     80  C   UNL A   1      45.919  32.402  28.897  1.00  0.00     0.064 A 
ATOM     81  C   UNL A   1      46.513  32.686  30.135  1.00  0.00     0.173 A 
ATOM     82  C   UNL A   1      45.901  33.416  27.927  1.00  0.00     0.173 A 
ATOM     83  F   UNL A   1      46.541  31.754  31.100  1.00  0.00    -0.203 F 
ATOM     84  C   UNL A   1      47.051  33.942  30.398  1.00  0.00     0.198 A 
ATOM     85  C   UNL A   1      46.468  34.660  28.182  1.00  0.00     0.198 A 
ATOM     86  F   UNL A   1      45.350  33.192  26.725  1.00  0.00    -0.203 F 
ATOM     87  F   UNL A   1      47.574  34.206  31.603  1.00  0.00    -0.200 F 
ATOM     88  C   UNL A   1      47.036  34.925  29.419  1.00  0.00     0.200 A 
ATOM     89  F   UNL A   1      46.467  35.603  27.230  1.00  0.00    -0.200 F 
ATOM     90  F   UNL A   1      47.565  36.131  29.670  1.00  0.00    -0.200 F 
ENDBRANCH  57  80
ENDBRANCH  31  32
ENDBRANCH  23  26
ENDBRANCH  21  22
ENDBRANCH   1  21
TORSDOF 11
ENDMDL
MODEL 3
REMARK VINA RESULT:     -12.4      0.078      1.622
REMARK SMILES Cc1nc([C@]2(C)CCCO2)nc(C)c1C(=O)NCCCNC(=O)c1ccc(-c2c3nc(c(-c4c(F)c(F)c(F)c(F)c4F)c4ccc([nH]4)c(-c4c(F)c(F)c(F)c(F)c4F)c4nc(c(-c5c(F)c(F)c(F)c(F)c5F)c5ccc2[nH]5)C=C4)C=C3)cc1
REMARK SMILES IDX 19 1 18 2 17 3 15 4 16 5 14 7 1 8 2 9 3 10 4 11 12 12 11 13
REMARK SMILES IDX 13 14 5 15 7 16 10 17 6 18 8 19 9 20 20 21 21 22 22 23 23 25
REMARK SMILES IDX 24 26 25 27 86 28 26 29 85 30 27 31 28 32 29 33 79 34 30 35
REMARK SMILES IDX 84 36 78 37 80 38 31 39 83 40 77 41 76 42 32 44 64 45 44 46
REMARK SMILES IDX 63 47 45 48 48 49 62 50 81 51 46 52 47 53 61 55 82 56 49 57
REMARK SMILES IDX 33 58 34 59 42 60 35 61 36 62 40 63 43 64 37 65 38 66 41 67
REMARK SMILES IDX 39 68 65 69 66 70 74 71 67 72 68 73 72 74 75 75 69 76 70 77
REMARK SMILES IDX 73 78 71 79 50 80 51 81 59 82 52 83 53 84 57 85 60 86 54 87
REMARK SMILES IDX 55 88 58 89 56 90
REMARK H PARENT 17 6 21 24 80 43 48 54
REMARK Flexibility Score: inf
ROOT
ATOM      1  C   UNL A   1      37.592  19.614  24.991  1.00  0.00     0.042 C 
ENDROOT
BRANCH   1   2
ATOM      2  C   UNL A   1      36.391  20.563  24.997  1.00  0.00     0.118 C 
BRANCH   2   3
ATOM      3  N   UNL A   1      35.168  19.796  24.975  1.00  0.00    -0.352 N 
ATOM      4  C   UNL A   1      33.836  20.059  25.130  1.00  0.00     0.254 C 
ATOM      5  O   UNL A   1      33.161  19.029  25.226  1.00  0.00    -0.269 OA
ATOM      6  H   UNL A   1      35.336  18.841  24.807  1.00  0.00     0.163 HD
BRANCH   4   7
ATOM      7  C   UNL A   1      33.142  21.389  25.149  1.00  0.00     0.082 A 
ATOM      8  C   UNL A   1      32.322  21.637  22.696  1.00  0.00     0.068 C 
ATOM      9  C   UNL A   1      32.485  22.051  24.116  1.00  0.00     0.054 A 
ATOM     10  N   UNL A   1      31.963  23.294  24.259  1.00  0.00    -0.234 NA
ATOM     11  C   UNL A   1      32.165  23.979  25.387  1.00  0.00     0.160 A 
ATOM     12  C   UNL A   1      33.248  22.164  26.325  1.00  0.00     0.054 A 
ATOM     13  N   UNL A   1      32.770  23.436  26.446  1.00  0.00    -0.234 NA
ATOM     14  C   UNL A   1      33.952  21.707  27.577  1.00  0.00     0.068 C 
BRANCH  11  15
ATOM     15  C   UNL A   1      31.777  25.463  25.374  1.00  0.00     0.125 C 
ATOM     16  C   UNL A   1      32.123  26.139  24.047  1.00  0.00     0.046 C 
ATOM     17  O   UNL A   1      32.576  26.187  26.350  1.00  0.00    -0.367 OA
ATOM     18  C   UNL A   1      30.310  25.673  25.750  1.00  0.00     0.051 C 
ATOM     19  C   UNL A   1      33.581  26.517  24.203  1.00  0.00     0.032 C 
ATOM     20  C   UNL A   1      33.765  26.666  25.701  1.00  0.00     0.161 C 
ENDBRANCH  11  15
ENDBRANCH   4   7
ENDBRANCH   2   3
ENDBRANCH   1   2
BRANCH   1  21
ATOM     21  C   UNL A   1      38.865  20.239  25.539  1.00  0.00     0.118 C 
BRANCH  21  22
ATOM     22  N   UNL A   1      39.879  19.231  25.800  1.00  0.00    -0.352 N 
ATOM     23  C   UNL A   1      41.217  19.388  26.043  1.00  0.00     0.251 C 
ATOM     24  H   UNL A   1      39.558  18.300  25.802  1.00  0.00     0.163 HD
ATOM     25  O   UNL A   1      41.968  18.412  25.968  1.00  0.00    -0.269 OA
BRANCH  23  26
ATOM     26  C   UNL A   1      41.770  20.715  26.385  1.00  0.00     0.039 A 
ATOM     27  C   UNL A   1      42.022  21.631  25.359  1.00  0.00     0.014 A 
ATOM     28  C   UNL A   1      42.075  21.045  27.708  1.00  0.00     0.014 A 
ATOM     29  C   UNL A   1      42.535  22.892  25.667  1.00  0.00     0.010 A 
ATOM     30  C   UNL A   1      42.499  22.331  28.022  1.00  0.00     0.010 A 
ATOM     31  C   UNL A   1      42.751  23.261  27.004  1.00  0.00    -0.014 A 
BRANCH  31  32
ATOM     32  C   UNL A   1      43.267  24.604  27.365  1.00  0.00     0.031 A 
ATOM     33  C   UNL A   1      42.336  25.627  27.954  1.00  0.00     0.074 A 
ATOM     34  C   UNL A   1      44.547  24.921  27.090  1.00  0.00     0.049 A 
ATOM     35  N   UNL A   1      42.559  26.885  28.239  1.00  0.00    -0.248 NA
ATOM     36  C   UNL A   1      40.958  25.187  28.227  1.00  0.00     0.031 C 
ATOM     37  C   UNL A   1      45.526  24.025  26.475  1.00  0.00     0.029 A 
ATOM     38  N   UNL A   1      45.239  26.091  27.280  1.00  0.00    -0.354 N 
ATOM     39  C   UNL A   1      41.349  27.387  28.699  1.00  0.00     0.074 A 
ATOM     40  C   UNL A   1      40.381  26.318  28.603  1.00  0.00     0.031 C 
ATOM     41  C   UNL A   1      46.698  24.670  26.355  1.00  0.00     0.029 A 
ATOM     42  C   UNL A   1      46.541  26.035  26.846  1.00  0.00     0.049 A 
ATOM     43  H   UNL A   1      44.841  26.892  27.689  1.00  0.00     0.167 HD
ATOM     44  C   UNL A   1      41.078  28.623  29.182  1.00  0.00     0.037 A 
ATOM     45  C   UNL A   1      47.494  26.985  26.834  1.00  0.00     0.037 A 
ATOM     46  C   UNL A   1      42.059  29.668  29.306  1.00  0.00     0.049 A 
ATOM     47  C   UNL A   1      47.169  28.349  27.382  1.00  0.00     0.074 A 
ATOM     48  C   UNL A   1      41.909  30.934  29.843  1.00  0.00     0.029 A 
ATOM     49  N   UNL A   1      43.377  29.565  28.883  1.00  0.00    -0.354 N 
ATOM     50  N   UNL A   1      46.039  28.793  27.878  1.00  0.00    -0.248 NA
ATOM     51  C   UNL A   1      48.252  29.341  27.374  1.00  0.00     0.031 C 
ATOM     52  C   UNL A   1      43.122  31.613  29.702  1.00  0.00     0.029 A 
ATOM     53  C   UNL A   1      44.045  30.753  29.129  1.00  0.00     0.049 A 
ATOM     54  H   UNL A   1      43.777  28.766  28.470  1.00  0.00     0.167 HD
ATOM     55  C   UNL A   1      46.282  30.103  28.268  1.00  0.00     0.074 A 
ATOM     56  C   UNL A   1      47.672  30.377  27.963  1.00  0.00     0.031 C 
ATOM     57  C   UNL A   1      45.433  30.999  28.826  1.00  0.00     0.037 A 
BRANCH  44  58
ATOM     58  C   UNL A   1      39.669  28.909  29.616  1.00  0.00     0.064 A 
ATOM     59  C   UNL A   1      39.237  28.663  30.929  1.00  0.00     0.173 A 
ATOM     60  C   UNL A   1      38.746  29.468  28.719  1.00  0.00     0.173 A 
ATOM     61  F   UNL A   1      40.074  28.117  31.824  1.00  0.00    -0.203 F 
ATOM     62  C   UNL A   1      37.928  28.935  31.317  1.00  0.00     0.198 A 
ATOM     63  C   UNL A   1      37.448  29.771  29.121  1.00  0.00     0.198 A 
ATOM     64  F   UNL A   1      39.106  29.729  27.453  1.00  0.00    -0.203 F 
ATOM     65  F   UNL A   1      37.524  28.641  32.561  1.00  0.00    -0.200 F 
ATOM     66  C   UNL A   1      37.036  29.497  30.416  1.00  0.00     0.200 A 
ATOM     67  F   UNL A   1      36.592  30.327  28.251  1.00  0.00    -0.200 F 
ATOM     68  F   UNL A   1      35.780  29.766  30.793  1.00  0.00    -0.200 F 
ENDBRANCH  44  58
BRANCH  45  69
ATOM     69  C   UNL A   1      48.848  26.673  26.307  1.00  0.00     0.064 A 
ATOM     70  C   UNL A   1      49.199  26.995  24.988  1.00  0.00     0.173 A 
ATOM     71  C   UNL A   1      49.819  26.053  27.107  1.00  0.00     0.173 A 
ATOM     72  F   UNL A   1      48.300  27.573  24.179  1.00  0.00    -0.203 F 
ATOM     73  C   UNL A   1      50.461  26.690  24.484  1.00  0.00     0.198 A 
ATOM     74  C   UNL A   1      51.091  25.775  26.609  1.00  0.00     0.198 A 
ATOM     75  F   UNL A   1      49.538  25.731  28.378  1.00  0.00    -0.203 F 
ATOM     76  F   UNL A   1      50.755  26.968  23.206  1.00  0.00    -0.200 F 
ATOM     77  C   UNL A   1      51.409  26.085  25.296  1.00  0.00     0.200 A 
ATOM     78  F   UNL A   1      52.010  25.207  27.403  1.00  0.00    -0.200 F 
ATOM     79  F   UNL A   1      52.625  25.797  24.812  1.00  0.00    -0.200 F 
ENDBRANCH  45  69
BRANCH  57  80
ATOM     80  C   UNL A   1      45.988  32.347  29.180  1.00  0.00     0.064 A 
ATOM     81  C   UNL A   1      46.623  32.584  30.407  1.00  0.00     0.173 A 
ATOM     82  C   UNL A   1      45.926  33.401  28.255  1.00  0.00     0.173 A 
ATOM     83  F   UNL A   1      46.694  31.612  31.329  1.00  0.00    -0.203 F 
ATOM     84  C   UNL A   1      47.160  33.833  30.703  1.00  0.00     0.198 A 
ATOM     85  C   UNL A   1      46.492  34.639  28.543  1.00  0.00     0.198 A 
ATOM     86  F   UNL A   1      45.334  33.224  27.065  1.00  0.00    -0.203 F 
ATOM     87  F   UNL A   1      47.725  34.050  31.899  1.00  0.00    -0.200 F 
ATOM     88  C   UNL A   1      47.103  34.857  29.769  1.00  0.00     0.200 A 
ATOM     89  F   UNL A   1      46.449  35.622  27.633  1.00  0.00    -0.200 F 
ATOM     90  F   UNL A   1      47.631  36.055  30.053  1.00  0.00    -0.200 F 
ENDBRANCH  57  80
ENDBRANCH  31  32
ENDBRANCH  23  26
ENDBRANCH  21  22
ENDBRANCH   1  21
TORSDOF 11
ENDMDL
