MODEL 1
REMARK VINA RESULT:     -12.9      0.000      0.000
REMARK SMILES O=C(NCCCNC(=O)c1ccc(S(=O)(=O)NCC[NH+]2CCCC2)c(F)c1)c1ccc(-c2c3nc(c(-c4c(F)c(F)c(F)c(F)c4F)c4ccc([nH]4)c(-c4c(F)c(F)c(F)c(F)c4F)c4nc(c(-c5c(F)c(F)c(F)c(F)c5F)c5ccc2[nH]5)C=C4)C=C3)cc1
REMARK SMILES IDX 7 1 8 2 9 3 6 5 5 6 4 7 3 8 1 9 2 10 28 12 29 13 90 14 30 15
REMARK SMILES IDX 89 16 31 17 32 18 33 19 83 20 34 21 88 22 82 23 84 24 35 25
REMARK SMILES IDX 87 26 81 27 80 28 36 30 68 31 48 32 67 33 49 34 52 35 66 36
REMARK SMILES IDX 85 37 50 38 51 39 65 41 86 42 53 43 37 44 38 45 46 46 39 47
REMARK SMILES IDX 40 48 44 49 47 50 41 51 42 52 45 53 43 54 69 55 70 56 78 57
REMARK SMILES IDX 71 58 72 59 76 60 79 61 73 62 74 63 77 64 75 65 54 66 55 67
REMARK SMILES IDX 63 68 56 69 57 70 61 71 64 72 58 73 59 74 62 75 60 76 10 77
REMARK SMILES IDX 11 78 27 79 12 80 25 81 13 82 26 83 14 84 15 85 16 86 17 87
REMARK SMILES IDX 18 89 19 90 20 91 21 92 24 93 22 95 23 96
REMARK H PARENT 7 4 3 11 84 29 52 40 17 88 20 94
REMARK Flexibility Score: inf
ROOT
ATOM      1  N   UNL A   1      32.434  27.681  22.152  1.00  0.00    -0.352 N 
ATOM      2  C   UNL A   1      32.752  26.365  21.940  1.00  0.00     0.251 C 
ATOM      3  O   UNL A   1      33.283  26.030  20.885  1.00  0.00    -0.269 OA
ATOM      4  H   UNL A   1      32.522  28.257  21.358  1.00  0.00     0.163 HD
ENDROOT
BRANCH   1   5
ATOM      5  C   UNL A   1      31.989  28.374  23.354  1.00  0.00     0.118 C 
BRANCH   5   6
ATOM      6  C   UNL A   1      33.119  29.099  24.072  1.00  0.00     0.042 C 
BRANCH   6   7
ATOM      7  C   UNL A   1      32.979  29.148  25.587  1.00  0.00     0.118 C 
BRANCH   7   8
ATOM      8  N   UNL A   1      32.573  30.455  26.086  1.00  0.00    -0.352 N 
ATOM      9  O   UNL A   1      32.537  32.281  27.398  1.00  0.00    -0.269 OA
ATOM     10  C   UNL A   1      33.144  31.280  27.027  1.00  0.00     0.251 C 
ATOM     11  H   UNL A   1      31.750  30.809  25.679  1.00  0.00     0.163 HD
BRANCH  10  12
ATOM     12  C   UNL A   1      34.460  30.960  27.621  1.00  0.00     0.039 A 
ATOM     13  C   UNL A   1      34.781  29.662  28.014  1.00  0.00     0.014 A 
ATOM     14  C   UNL A   1      35.405  31.983  27.771  1.00  0.00     0.014 A 
ATOM     15  C   UNL A   1      35.952  29.424  28.726  1.00  0.00     0.010 A 
ATOM     16  C   UNL A   1      36.630  31.719  28.392  1.00  0.00     0.010 A 
ATOM     17  C   UNL A   1      36.892  30.448  28.923  1.00  0.00    -0.014 A 
BRANCH  17  18
ATOM     18  C   UNL A   1      38.140  30.146  29.671  1.00  0.00     0.031 A 
ATOM     19  C   UNL A   1      38.336  30.627  31.083  1.00  0.00     0.074 A 
ATOM     20  C   UNL A   1      39.072  29.364  29.092  1.00  0.00     0.049 A 
ATOM     21  N   UNL A   1      39.330  30.390  31.903  1.00  0.00    -0.248 NA
ATOM     22  C   UNL A   1      37.289  31.490  31.649  1.00  0.00     0.031 C 
ATOM     23  C   UNL A   1      39.001  28.847  27.724  1.00  0.00     0.029 A 
ATOM     24  N   UNL A   1      40.237  28.835  29.588  1.00  0.00    -0.354 N 
ATOM     25  C   UNL A   1      39.040  31.089  33.067  1.00  0.00     0.074 A 
ATOM     26  C   UNL A   1      37.788  31.779  32.843  1.00  0.00     0.031 C 
ATOM     27  C   UNL A   1      40.031  28.015  27.515  1.00  0.00     0.029 A 
ATOM     28  C   UNL A   1      40.866  27.984  28.712  1.00  0.00     0.049 A 
ATOM     29  H   UNL A   1      40.587  29.045  30.484  1.00  0.00     0.167 HD
ATOM     30  C   UNL A   1      39.749  31.141  34.220  1.00  0.00     0.037 A 
ATOM     31  C   UNL A   1      41.988  27.254  28.856  1.00  0.00     0.037 A 
ATOM     32  C   UNL A   1      40.979  30.431  34.453  1.00  0.00     0.049 A 
ATOM     33  C   UNL A   1      42.742  27.314  30.150  1.00  0.00     0.074 A 
ATOM     34  C   UNL A   1      41.765  30.416  35.593  1.00  0.00     0.029 A 
ATOM     35  N   UNL A   1      41.600  29.601  33.531  1.00  0.00    -0.354 N 
ATOM     36  N   UNL A   1      42.456  27.981  31.240  1.00  0.00    -0.248 NA
ATOM     37  C   UNL A   1      43.979  26.526  30.232  1.00  0.00     0.031 C 
ATOM     38  C   UNL A   1      42.874  29.600  35.351  1.00  0.00     0.029 A 
ATOM     39  C   UNL A   1      42.760  29.075  34.074  1.00  0.00     0.049 A 
ATOM     40  H   UNL A   1      41.264  29.414  32.625  1.00  0.00     0.167 HD
ATOM     41  C   UNL A   1      43.471  27.693  32.140  1.00  0.00     0.074 A 
ATOM     42  C   UNL A   1      44.369  26.770  31.477  1.00  0.00     0.031 C 
ATOM     43  C   UNL A   1      43.643  28.158  33.400  1.00  0.00     0.037 A 
BRANCH  30  44
ATOM     44  C   UNL A   1      39.216  32.002  35.327  1.00  0.00     0.064 A 
ATOM     45  C   UNL A   1      39.535  33.367  35.383  1.00  0.00     0.173 A 
ATOM     46  C   UNL A   1      38.442  31.465  36.367  1.00  0.00     0.173 A 
ATOM     47  F   UNL A   1      40.277  33.928  34.416  1.00  0.00    -0.203 F 
ATOM     48  C   UNL A   1      39.106  34.161  36.444  1.00  0.00     0.198 A 
ATOM     49  C   UNL A   1      37.996  32.267  37.414  1.00  0.00     0.198 A 
ATOM     50  F   UNL A   1      38.100  30.168  36.353  1.00  0.00    -0.203 F 
ATOM     51  F   UNL A   1      39.443  35.457  36.487  1.00  0.00    -0.200 F 
ATOM     52  C   UNL A   1      38.333  33.611  37.456  1.00  0.00     0.200 A 
ATOM     53  F   UNL A   1      37.232  31.739  38.380  1.00  0.00    -0.200 F 
ATOM     54  F   UNL A   1      37.912  34.379  38.470  1.00  0.00    -0.200 F 
ENDBRANCH  30  44
BRANCH  31  55
ATOM     55  C   UNL A   1      42.433  26.384  27.739  1.00  0.00     0.064 A 
ATOM     56  C   UNL A   1      43.382  26.825  26.806  1.00  0.00     0.173 A 
ATOM     57  C   UNL A   1      41.872  25.113  27.553  1.00  0.00     0.173 A 
ATOM     58  F   UNL A   1      43.940  28.037  26.940  1.00  0.00    -0.203 F 
ATOM     59  C   UNL A   1      43.734  26.038  25.713  1.00  0.00     0.198 A 
ATOM     60  C   UNL A   1      42.243  24.317  26.472  1.00  0.00     0.198 A 
ATOM     61  F   UNL A   1      40.972  24.643  28.429  1.00  0.00    -0.203 F 
ATOM     62  F   UNL A   1      44.613  26.500  24.813  1.00  0.00    -0.200 F 
ATOM     63  C   UNL A   1      43.167  24.783  25.548  1.00  0.00     0.200 A 
ATOM     64  F   UNL A   1      41.706  23.098  26.325  1.00  0.00    -0.200 F 
ATOM     65  F   UNL A   1      43.507  24.025  24.497  1.00  0.00    -0.200 F 
ENDBRANCH  31  55
BRANCH  43  66
ATOM     66  C   UNL A   1      44.844  27.672  34.153  1.00  0.00     0.064 A 
ATOM     67  C   UNL A   1      44.765  26.525  34.955  1.00  0.00     0.173 A 
ATOM     68  C   UNL A   1      46.056  28.377  34.124  1.00  0.00     0.173 A 
ATOM     69  F   UNL A   1      43.624  25.822  35.019  1.00  0.00    -0.203 F 
ATOM     70  C   UNL A   1      45.857  26.103  35.708  1.00  0.00     0.198 A 
ATOM     71  C   UNL A   1      47.153  27.940  34.862  1.00  0.00     0.198 A 
ATOM     72  F   UNL A   1      46.182  29.473  33.361  1.00  0.00    -0.203 F 
ATOM     73  F   UNL A   1      45.754  25.016  36.484  1.00  0.00    -0.200 F 
ATOM     74  C   UNL A   1      47.050  26.809  35.658  1.00  0.00     0.200 A 
ATOM     75  F   UNL A   1      48.313  28.609  34.796  1.00  0.00    -0.200 F 
ATOM     76  F   UNL A   1      48.105  26.394  36.374  1.00  0.00    -0.200 F 
ENDBRANCH  43  66
ENDBRANCH  17  18
ENDBRANCH  10  12
ENDBRANCH   7   8
ENDBRANCH   6   7
ENDBRANCH   5   6
ENDBRANCH   1   5
BRANCH   2  77
ATOM     77  C   UNL A   1      32.499  25.346  22.979  1.00  0.00     0.042 A 
ATOM     78  C   UNL A   1      31.400  24.485  22.911  1.00  0.00     0.015 A 
ATOM     79  C   UNL A   1      33.410  25.234  24.033  1.00  0.00     0.054 A 
ATOM     80  C   UNL A   1      31.129  23.626  23.973  1.00  0.00     0.026 A 
ATOM     81  C   UNL A   1      33.160  24.339  25.070  1.00  0.00     0.144 A 
ATOM     82  C   UNL A   1      31.999  23.578  25.071  1.00  0.00     0.118 A 
ATOM     83  F   UNL A   1      34.060  24.268  26.058  1.00  0.00    -0.205 F 
BRANCH  82  84
ATOM     84  S   UNL A   1      31.496  22.600  26.444  1.00  0.00     0.243 S 
ATOM     85  O   UNL A   1      31.615  23.448  27.614  1.00  0.00    -0.207 OA
ATOM     86  O   UNL A   1      30.241  21.988  26.079  1.00  0.00    -0.207 OA
BRANCH  84  87
ATOM     87  N   UNL A   1      32.584  21.365  26.612  1.00  0.00    -0.205 NA
ATOM     88  H   UNL A   1      32.030  20.525  26.786  1.00  0.00     0.141 HD
BRANCH  87  89
ATOM     89  C   UNL A   1      33.551  20.998  25.580  1.00  0.00     0.160 C 
BRANCH  89  90
ATOM     90  C   UNL A   1      33.205  19.702  24.821  1.00  0.00     0.278 C 
BRANCH  90  91
ATOM     91  N   UNL A   1      33.766  18.419  25.255  1.00  0.00    -0.334 N 
ATOM     92  C   UNL A   1      34.689  17.768  24.333  1.00  0.00     0.262 C 
ATOM     93  C   UNL A   1      32.775  17.439  25.696  1.00  0.00     0.262 C 
ATOM     94  H   UNL A   1      34.315  18.729  26.058  1.00  0.00     0.348 HD
ATOM     95  C   UNL A   1      33.920  16.611  23.728  1.00  0.00     0.067 C 
ATOM     96  C   UNL A   1      32.929  16.215  24.804  1.00  0.00     0.067 C 
ENDBRANCH  90  91
ENDBRANCH  89  90
ENDBRANCH  87  89
ENDBRANCH  84  87
ENDBRANCH  82  84
ENDBRANCH   2  77
TORSDOF 15
ENDMDL
MODEL 2
REMARK VINA RESULT:     -12.6      3.256      5.118
REMARK SMILES O=C(NCCCNC(=O)c1ccc(S(=O)(=O)NCC[NH+]2CCCC2)c(F)c1)c1ccc(-c2c3nc(c(-c4c(F)c(F)c(F)c(F)c4F)c4ccc([nH]4)c(-c4c(F)c(F)c(F)c(F)c4F)c4nc(c(-c5c(F)c(F)c(F)c(F)c5F)c5ccc2[nH]5)C=C4)C=C3)cc1
REMARK SMILES IDX 7 1 8 2 9 3 6 5 5 6 4 7 3 8 1 9 2 10 28 12 29 13 90 14 30 15
REMARK SMILES IDX 89 16 31 17 32 18 33 19 83 20 34 21 88 22 82 23 84 24 35 25
REMARK SMILES IDX 87 26 81 27 80 28 36 30 68 31 48 32 67 33 49 34 52 35 66 36
REMARK SMILES IDX 85 37 50 38 51 39 65 41 86 42 53 43 37 44 38 45 46 46 39 47
REMARK SMILES IDX 40 48 44 49 47 50 41 51 42 52 45 53 43 54 69 55 70 56 78 57
REMARK SMILES IDX 71 58 72 59 76 60 79 61 73 62 74 63 77 64 75 65 54 66 55 67
REMARK SMILES IDX 63 68 56 69 57 70 61 71 64 72 58 73 59 74 62 75 60 76 10 77
REMARK SMILES IDX 11 78 27 79 12 80 25 81 13 82 26 83 14 84 15 85 16 86 17 87
REMARK SMILES IDX 18 89 19 90 20 91 21 92 24 93 22 95 23 96
REMARK H PARENT 7 4 3 11 84 29 52 40 17 88 20 94
REMARK Flexibility Score: inf
ROOT
ATOM      1  N   UNL A   1      33.018  30.255  27.473  1.00  0.00    -0.352 N 
ATOM      2  C   UNL A   1      33.886  29.259  27.109  1.00  0.00     0.251 C 
ATOM      3  O   UNL A   1      34.878  29.035  27.797  1.00  0.00    -0.269 OA
ATOM      4  H   UNL A   1      33.341  30.834  28.200  1.00  0.00     0.163 HD
ENDROOT
BRANCH   1   5
ATOM      5  C   UNL A   1      31.696  30.602  26.967  1.00  0.00     0.118 C 
BRANCH   5   6
ATOM      6  C   UNL A   1      31.481  32.105  26.859  1.00  0.00     0.042 C 
BRANCH   6   7
ATOM      7  C   UNL A   1      32.729  32.943  27.100  1.00  0.00     0.118 C 
BRANCH   7   8
ATOM      8  N   UNL A   1      32.442  34.260  27.651  1.00  0.00    -0.352 N 
ATOM      9  O   UNL A   1      32.507  35.997  29.077  1.00  0.00    -0.269 OA
ATOM     10  C   UNL A   1      33.019  34.950  28.691  1.00  0.00     0.251 C 
ATOM     11  H   UNL A   1      31.708  34.739  27.202  1.00  0.00     0.163 HD
BRANCH  10  12
ATOM     12  C   UNL A   1      34.226  34.432  29.372  1.00  0.00     0.039 A 
ATOM     13  C   UNL A   1      35.504  34.707  28.888  1.00  0.00     0.014 A 
ATOM     14  C   UNL A   1      34.076  33.669  30.536  1.00  0.00     0.014 A 
ATOM     15  C   UNL A   1      36.606  34.067  29.443  1.00  0.00     0.010 A 
ATOM     16  C   UNL A   1      35.198  33.112  31.158  1.00  0.00     0.010 A 
ATOM     17  C   UNL A   1      36.469  33.263  30.586  1.00  0.00    -0.014 A 
BRANCH  17  18
ATOM     18  C   UNL A   1      37.676  32.614  31.160  1.00  0.00     0.031 A 
ATOM     19  C   UNL A   1      38.147  32.938  32.551  1.00  0.00     0.074 A 
ATOM     20  C   UNL A   1      38.307  31.665  30.441  1.00  0.00     0.049 A 
ATOM     21  N   UNL A   1      39.136  32.410  33.230  1.00  0.00    -0.248 NA
ATOM     22  C   UNL A   1      37.425  33.995  33.275  1.00  0.00     0.031 C 
ATOM     23  C   UNL A   1      37.952  31.271  29.076  1.00  0.00     0.029 A 
ATOM     24  N   UNL A   1      39.348  30.833  30.767  1.00  0.00    -0.354 N 
ATOM     25  C   UNL A   1      39.167  33.081  34.445  1.00  0.00     0.074 A 
ATOM     26  C   UNL A   1      38.114  34.073  34.405  1.00  0.00     0.031 C 
ATOM     27  C   UNL A   1      38.706  30.226  28.710  1.00  0.00     0.029 A 
ATOM     28  C   UNL A   1      39.637  29.911  29.790  1.00  0.00     0.049 A 
ATOM     29  H   UNL A   1      39.840  30.890  31.618  1.00  0.00     0.167 HD
ATOM     30  C   UNL A   1      39.992  32.881  35.500  1.00  0.00     0.037 A 
ATOM     31  C   UNL A   1      40.546  28.919  29.765  1.00  0.00     0.037 A 
ATOM     32  C   UNL A   1      41.021  31.876  35.550  1.00  0.00     0.049 A 
ATOM     33  C   UNL A   1      41.433  28.706  30.955  1.00  0.00     0.074 A 
ATOM     34  C   UNL A   1      41.902  31.593  36.580  1.00  0.00     0.029 A 
ATOM     35  N   UNL A   1      41.301  30.980  34.529  1.00  0.00    -0.354 N 
ATOM     36  N   UNL A   1      41.451  29.350  32.095  1.00  0.00    -0.248 NA
ATOM     37  C   UNL A   1      42.431  27.632  30.853  1.00  0.00     0.031 C 
ATOM     38  C   UNL A   1      42.733  30.545  36.171  1.00  0.00     0.029 A 
ATOM     39  C   UNL A   1      42.344  30.149  34.903  1.00  0.00     0.049 A 
ATOM     40  H   UNL A   1      40.828  30.941  33.667  1.00  0.00     0.167 HD
ATOM     41  C   UNL A   1      42.456  28.762  32.848  1.00  0.00     0.074 A 
ATOM     42  C   UNL A   1      43.009  27.691  32.045  1.00  0.00     0.031 C 
ATOM     43  C   UNL A   1      42.883  29.088  34.092  1.00  0.00     0.037 A 
BRANCH  30  44
ATOM     44  C   UNL A   1      39.825  33.774  36.694  1.00  0.00     0.064 A 
ATOM     45  C   UNL A   1      38.967  33.407  37.742  1.00  0.00     0.173 A 
ATOM     46  C   UNL A   1      40.465  35.020  36.774  1.00  0.00     0.173 A 
ATOM     47  F   UNL A   1      38.327  32.229  37.711  1.00  0.00    -0.203 F 
ATOM     48  C   UNL A   1      38.750  34.259  38.822  1.00  0.00     0.198 A 
ATOM     49  C   UNL A   1      40.262  35.859  37.867  1.00  0.00     0.198 A 
ATOM     50  F   UNL A   1      41.305  35.410  35.804  1.00  0.00    -0.203 F 
ATOM     51  F   UNL A   1      37.907  33.897  39.800  1.00  0.00    -0.200 F 
ATOM     52  C   UNL A   1      39.400  35.482  38.886  1.00  0.00     0.200 A 
ATOM     53  F   UNL A   1      40.908  37.031  37.937  1.00  0.00    -0.200 F 
ATOM     54  F   UNL A   1      39.198  36.296  39.930  1.00  0.00    -0.200 F 
ENDBRANCH  30  44
BRANCH  31  55
ATOM     55  C   UNL A   1      40.625  28.040  28.572  1.00  0.00     0.064 A 
ATOM     56  C   UNL A   1      39.956  26.807  28.529  1.00  0.00     0.173 A 
ATOM     57  C   UNL A   1      41.419  28.392  27.473  1.00  0.00     0.173 A 
ATOM     58  F   UNL A   1      39.191  26.425  29.562  1.00  0.00    -0.203 F 
ATOM     59  C   UNL A   1      40.101  25.949  27.444  1.00  0.00     0.198 A 
ATOM     60  C   UNL A   1      41.544  27.543  26.376  1.00  0.00     0.198 A 
ATOM     61  F   UNL A   1      42.064  29.568  27.462  1.00  0.00    -0.203 F 
ATOM     62  F   UNL A   1      39.486  24.759  27.446  1.00  0.00    -0.200 F 
ATOM     63  C   UNL A   1      40.893  26.318  26.366  1.00  0.00     0.200 A 
ATOM     64  F   UNL A   1      42.296  27.910  25.329  1.00  0.00    -0.200 F 
ATOM     65  F   UNL A   1      41.031  25.493  25.320  1.00  0.00    -0.200 F 
ENDBRANCH  31  55
BRANCH  43  66
ATOM     66  C   UNL A   1      43.999  28.272  34.669  1.00  0.00     0.064 A 
ATOM     67  C   UNL A   1      43.726  27.103  35.393  1.00  0.00     0.173 A 
ATOM     68  C   UNL A   1      45.335  28.681  34.553  1.00  0.00     0.173 A 
ATOM     69  F   UNL A   1      42.462  26.676  35.535  1.00  0.00    -0.203 F 
ATOM     70  C   UNL A   1      44.752  26.373  35.987  1.00  0.00     0.198 A 
ATOM     71  C   UNL A   1      46.362  27.937  35.131  1.00  0.00     0.198 A 
ATOM     72  F   UNL A   1      45.647  29.786  33.859  1.00  0.00    -0.203 F 
ATOM     73  F   UNL A   1      44.467  25.270  36.691  1.00  0.00    -0.200 F 
ATOM     74  C   UNL A   1      46.068  26.790  35.853  1.00  0.00     0.200 A 
ATOM     75  F   UNL A   1      47.635  28.328  34.982  1.00  0.00    -0.200 F 
ATOM     76  F   UNL A   1      47.057  26.080  36.415  1.00  0.00    -0.200 F 
ENDBRANCH  43  66
ENDBRANCH  17  18
ENDBRANCH  10  12
ENDBRANCH   7   8
ENDBRANCH   6   7
ENDBRANCH   5   6
ENDBRANCH   1   5
BRANCH   2  77
ATOM     77  C   UNL A   1      33.627  28.424  25.919  1.00  0.00     0.042 A 
ATOM     78  C   UNL A   1      34.214  28.706  24.682  1.00  0.00     0.015 A 
ATOM     79  C   UNL A   1      32.794  27.310  26.059  1.00  0.00     0.054 A 
ATOM     80  C   UNL A   1      33.845  27.970  23.558  1.00  0.00     0.026 A 
ATOM     81  C   UNL A   1      32.465  26.548  24.941  1.00  0.00     0.144 A 
ATOM     82  C   UNL A   1      32.942  26.906  23.687  1.00  0.00     0.118 A 
ATOM     83  F   UNL A   1      31.664  25.492  25.125  1.00  0.00    -0.205 F 
BRANCH  82  84
ATOM     84  S   UNL A   1      32.393  26.142  22.200  1.00  0.00     0.243 S 
ATOM     85  O   UNL A   1      33.484  26.266  21.252  1.00  0.00    -0.207 OA
ATOM     86  O   UNL A   1      31.857  24.855  22.570  1.00  0.00    -0.207 OA
BRANCH  84  87
ATOM     87  N   UNL A   1      31.123  27.026  21.615  1.00  0.00    -0.205 NA
ATOM     88  H   UNL A   1      30.302  26.425  21.699  1.00  0.00     0.141 HD
BRANCH  87  89
ATOM     89  C   UNL A   1      30.725  28.322  22.159  1.00  0.00     0.160 C 
BRANCH  89  90
ATOM     90  C   UNL A   1      29.285  28.364  22.706  1.00  0.00     0.278 C 
BRANCH  90  91
ATOM     91  N   UNL A   1      28.347  29.390  22.241  1.00  0.00    -0.334 N 
ATOM     92  C   UNL A   1      28.929  30.549  21.575  1.00  0.00     0.262 C 
ATOM     93  C   UNL A   1      27.404  29.856  23.255  1.00  0.00     0.262 C 
ATOM     94  H   UNL A   1      27.843  28.858  21.530  1.00  0.00     0.348 HD
ATOM     95  C   UNL A   1      28.837  31.687  22.572  1.00  0.00     0.067 C 
ATOM     96  C   UNL A   1      27.615  31.357  23.406  1.00  0.00     0.067 C 
ENDBRANCH  90  91
ENDBRANCH  89  90
ENDBRANCH  87  89
ENDBRANCH  84  87
ENDBRANCH  82  84
ENDBRANCH   2  77
TORSDOF 15
ENDMDL
MODEL 3
REMARK VINA RESULT:     -12.6      2.101      3.232
REMARK SMILES O=C(NCCCNC(=O)c1ccc(S(=O)(=O)NCC[NH+]2CCCC2)c(F)c1)c1ccc(-c2c3nc(c(-c4c(F)c(F)c(F)c(F)c4F)c4ccc([nH]4)c(-c4c(F)c(F)c(F)c(F)c4F)c4nc(c(-c5c(F)c(F)c(F)c(F)c5F)c5ccc2[nH]5)C=C4)C=C3)cc1
REMARK SMILES IDX 7 1 8 2 9 3 6 5 5 6 4 7 3 8 1 9 2 10 28 12 29 13 90 14 30 15
REMARK SMILES IDX 89 16 31 17 32 18 33 19 83 20 34 21 88 22 82 23 84 24 35 25
REMARK SMILES IDX 87 26 81 27 80 28 36 30 68 31 48 32 67 33 49 34 52 35 66 36
REMARK SMILES IDX 85 37 50 38 51 39 65 41 86 42 53 43 37 44 38 45 46 46 39 47
REMARK SMILES IDX 40 48 44 49 47 50 41 51 42 52 45 53 43 54 69 55 70 56 78 57
REMARK SMILES IDX 71 58 72 59 76 60 79 61 73 62 74 63 77 64 75 65 54 66 55 67
REMARK SMILES IDX 63 68 56 69 57 70 61 71 64 72 58 73 59 74 62 75 60 76 10 77
REMARK SMILES IDX 11 78 27 79 12 80 25 81 13 82 26 83 14 84 15 85 16 86 17 87
REMARK SMILES IDX 18 89 19 90 20 91 21 92 24 93 22 95 23 96
REMARK H PARENT 7 4 3 11 84 29 52 40 17 88 20 94
REMARK Flexibility Score: inf
ROOT
ATOM      1  N   UNL A   1      32.066  30.083  24.932  1.00  0.00    -0.352 N 
ATOM      2  C   UNL A   1      32.437  28.908  24.330  1.00  0.00     0.251 C 
ATOM      3  O   UNL A   1      32.944  28.931  23.213  1.00  0.00    -0.269 OA
ATOM      4  H   UNL A   1      32.099  30.872  24.344  1.00  0.00     0.163 HD
ENDROOT
BRANCH   1   5
ATOM      5  C   UNL A   1      31.632  30.362  26.294  1.00  0.00     0.118 C 
BRANCH   5   6
ATOM      6  C   UNL A   1      31.458  31.850  26.565  1.00  0.00     0.042 C 
BRANCH   6   7
ATOM      7  C   UNL A   1      32.699  32.544  27.111  1.00  0.00     0.118 C 
BRANCH   7   8
ATOM      8  N   UNL A   1      32.442  33.899  27.580  1.00  0.00    -0.352 N 
ATOM      9  O   UNL A   1      32.555  35.721  28.892  1.00  0.00    -0.269 OA
ATOM     10  C   UNL A   1      33.043  34.642  28.568  1.00  0.00     0.251 C 
ATOM     11  H   UNL A   1      31.712  34.362  27.109  1.00  0.00     0.163 HD
BRANCH  10  12
ATOM     12  C   UNL A   1      34.248  34.146  29.267  1.00  0.00     0.039 A 
ATOM     13  C   UNL A   1      35.523  34.581  28.911  1.00  0.00     0.014 A 
ATOM     14  C   UNL A   1      34.097  33.237  30.321  1.00  0.00     0.014 A 
ATOM     15  C   UNL A   1      36.643  33.970  29.465  1.00  0.00     0.010 A 
ATOM     16  C   UNL A   1      35.224  32.701  30.953  1.00  0.00     0.010 A 
ATOM     17  C   UNL A   1      36.509  33.024  30.494  1.00  0.00    -0.014 A 
BRANCH  17  18
ATOM     18  C   UNL A   1      37.733  32.411  31.073  1.00  0.00     0.031 A 
ATOM     19  C   UNL A   1      38.187  32.747  32.467  1.00  0.00     0.074 A 
ATOM     20  C   UNL A   1      38.396  31.483  30.355  1.00  0.00     0.049 A 
ATOM     21  N   UNL A   1      39.187  32.247  33.150  1.00  0.00    -0.248 NA
ATOM     22  C   UNL A   1      37.429  33.780  33.189  1.00  0.00     0.031 C 
ATOM     23  C   UNL A   1      38.059  31.081  28.988  1.00  0.00     0.029 A 
ATOM     24  N   UNL A   1      39.460  30.682  30.684  1.00  0.00    -0.354 N 
ATOM     25  C   UNL A   1      39.192  32.917  34.366  1.00  0.00     0.074 A 
ATOM     26  C   UNL A   1      38.110  33.877  34.322  1.00  0.00     0.031 C 
ATOM     27  C   UNL A   1      38.847  30.060  28.623  1.00  0.00     0.029 A 
ATOM     28  C   UNL A   1      39.781  29.772  29.707  1.00  0.00     0.049 A 
ATOM     29  H   UNL A   1      39.946  30.753  31.538  1.00  0.00     0.167 HD
ATOM     30  C   UNL A   1      40.018  32.740  35.424  1.00  0.00     0.037 A 
ATOM     31  C   UNL A   1      40.720  28.807  29.685  1.00  0.00     0.037 A 
ATOM     32  C   UNL A   1      41.076  31.767  35.478  1.00  0.00     0.049 A 
ATOM     33  C   UNL A   1      41.608  28.619  30.879  1.00  0.00     0.074 A 
ATOM     34  C   UNL A   1      41.961  31.508  36.512  1.00  0.00     0.029 A 
ATOM     35  N   UNL A   1      41.389  30.881  34.457  1.00  0.00    -0.354 N 
ATOM     36  N   UNL A   1      41.601  29.262  32.020  1.00  0.00    -0.248 NA
ATOM     37  C   UNL A   1      42.638  27.577  30.780  1.00  0.00     0.031 C 
ATOM     38  C   UNL A   1      42.825  30.486  36.106  1.00  0.00     0.029 A 
ATOM     39  C   UNL A   1      42.455  30.081  34.834  1.00  0.00     0.049 A 
ATOM     40  H   UNL A   1      40.921  30.830  33.592  1.00  0.00     0.167 HD
ATOM     41  C   UNL A   1      42.619  28.703  32.778  1.00  0.00     0.074 A 
ATOM     42  C   UNL A   1      43.208  27.651  31.976  1.00  0.00     0.031 C 
ATOM     43  C   UNL A   1      43.029  29.039  34.024  1.00  0.00     0.037 A 
BRANCH  30  44
ATOM     44  C   UNL A   1      39.818  33.625  36.620  1.00  0.00     0.064 A 
ATOM     45  C   UNL A   1      38.954  33.237  37.656  1.00  0.00     0.173 A 
ATOM     46  C   UNL A   1      40.431  34.883  36.712  1.00  0.00     0.173 A 
ATOM     47  F   UNL A   1      38.339  32.046  37.613  1.00  0.00    -0.203 F 
ATOM     48  C   UNL A   1      38.707  34.080  38.736  1.00  0.00     0.198 A 
ATOM     49  C   UNL A   1      40.198  35.714  37.805  1.00  0.00     0.198 A 
ATOM     50  F   UNL A   1      41.275  35.294  35.753  1.00  0.00    -0.203 F 
ATOM     51  F   UNL A   1      37.860  33.698  39.701  1.00  0.00    -0.200 F 
ATOM     52  C   UNL A   1      39.331  35.316  38.811  1.00  0.00     0.200 A 
ATOM     53  F   UNL A   1      40.819  36.899  37.887  1.00  0.00    -0.200 F 
ATOM     54  F   UNL A   1      39.099  36.122  39.856  1.00  0.00    -0.200 F 
ENDBRANCH  30  44
BRANCH  31  55
ATOM     55  C   UNL A   1      40.832  27.933  28.491  1.00  0.00     0.064 A 
ATOM     56  C   UNL A   1      40.170  26.699  28.427  1.00  0.00     0.173 A 
ATOM     57  C   UNL A   1      41.651  28.294  27.413  1.00  0.00     0.173 A 
ATOM     58  F   UNL A   1      39.381  26.309  29.439  1.00  0.00    -0.203 F 
ATOM     59  C   UNL A   1      40.344  25.845  27.342  1.00  0.00     0.198 A 
ATOM     60  C   UNL A   1      41.806  27.450  26.316  1.00  0.00     0.198 A 
ATOM     61  F   UNL A   1      42.291  29.472  27.423  1.00  0.00    -0.203 F 
ATOM     62  F   UNL A   1      39.734  24.653  27.325  1.00  0.00    -0.200 F 
ATOM     63  C   UNL A   1      41.160  26.222  26.286  1.00  0.00     0.200 A 
ATOM     64  F   UNL A   1      42.581  27.824  25.289  1.00  0.00    -0.200 F 
ATOM     65  F   UNL A   1      41.327  25.402  25.240  1.00  0.00    -0.200 F 
ENDBRANCH  31  55
BRANCH  43  66
ATOM     66  C   UNL A   1      44.167  28.256  34.606  1.00  0.00     0.064 A 
ATOM     67  C   UNL A   1      43.924  27.095  35.352  1.00  0.00     0.173 A 
ATOM     68  C   UNL A   1      45.494  28.690  34.470  1.00  0.00     0.173 A 
ATOM     69  F   UNL A   1      42.670  26.645  35.513  1.00  0.00    -0.203 F 
ATOM     70  C   UNL A   1      44.969  26.397  35.949  1.00  0.00     0.198 A 
ATOM     71  C   UNL A   1      46.540  27.977  35.052  1.00  0.00     0.198 A 
ATOM     72  F   UNL A   1      45.776  29.789  33.754  1.00  0.00    -0.203 F 
ATOM     73  F   UNL A   1      44.713  25.301  36.676  1.00  0.00    -0.200 F 
ATOM     74  C   UNL A   1      46.276  26.837  35.797  1.00  0.00     0.200 A 
ATOM     75  F   UNL A   1      47.804  28.391  34.885  1.00  0.00    -0.200 F 
ATOM     76  F   UNL A   1      47.284  26.158  36.362  1.00  0.00    -0.200 F 
ENDBRANCH  43  66
ENDBRANCH  17  18
ENDBRANCH  10  12
ENDBRANCH   7   8
ENDBRANCH   6   7
ENDBRANCH   5   6
ENDBRANCH   1   5
BRANCH   2  77
ATOM     77  C   UNL A   1      32.268  27.615  25.023  1.00  0.00     0.042 A 
ATOM     78  C   UNL A   1      33.359  26.914  25.546  1.00  0.00     0.015 A 
ATOM     79  C   UNL A   1      30.974  27.109  25.178  1.00  0.00     0.054 A 
ATOM     80  C   UNL A   1      33.171  25.641  26.079  1.00  0.00     0.026 A 
ATOM     81  C   UNL A   1      30.787  25.856  25.756  1.00  0.00     0.144 A 
ATOM     82  C   UNL A   1      31.881  25.100  26.154  1.00  0.00     0.118 A 
ATOM     83  F   UNL A   1      29.530  25.414  25.882  1.00  0.00    -0.205 F 
BRANCH  82  84
ATOM     84  S   UNL A   1      31.749  23.425  26.677  1.00  0.00     0.243 S 
ATOM     85  O   UNL A   1      33.033  23.075  27.251  1.00  0.00    -0.207 OA
ATOM     86  O   UNL A   1      30.528  23.324  27.438  1.00  0.00    -0.207 OA
BRANCH  84  87
ATOM     87  N   UNL A   1      31.534  22.490  25.328  1.00  0.00    -0.205 NA
ATOM     88  H   UNL A   1      31.841  23.061  24.540  1.00  0.00     0.141 HD
BRANCH  87  89
ATOM     89  C   UNL A   1      32.165  21.186  25.144  1.00  0.00     0.160 C 
BRANCH  89  90
ATOM     90  C   UNL A   1      33.490  21.228  24.358  1.00  0.00     0.278 C 
BRANCH  90  91
ATOM     91  N   UNL A   1      34.588  22.089  24.805  1.00  0.00    -0.334 N 
ATOM     92  C   UNL A   1      34.911  23.228  23.953  1.00  0.00     0.262 C 
ATOM     93  C   UNL A   1      35.824  21.380  25.128  1.00  0.00     0.262 C 
ATOM     94  H   UNL A   1      34.180  22.464  25.663  1.00  0.00     0.348 HD
ATOM     95  C   UNL A   1      36.202  22.864  23.250  1.00  0.00     0.067 C 
ATOM     96  C   UNL A   1      36.912  21.941  24.222  1.00  0.00     0.067 C 
ENDBRANCH  90  91
ENDBRANCH  89  90
ENDBRANCH  87  89
ENDBRANCH  84  87
ENDBRANCH  82  84
ENDBRANCH   2  77
TORSDOF 15
ENDMDL
