MODEL 1
REMARK VINA RESULT:     -13.8      0.000      0.000
REMARK SMILES Cc1n[nH]c2c1[C@@]1(C(=O)N([C@@H](C)C(=O)NCCCNC(=O)c3ccc(-c4c5nc(c(-c6c(F)c(F)c(F)c(F)c6F)c6ccc([nH]6)c(-c6c(F)c(F)c(F)c(F)c6F)c6nc(c(-c7c(F)c(F)c(F)c(F)c7F)c7ccc4[nH]7)C=C6)C=C5)cc3)c3ccccc31)C(C#N)=C(N)O2
REMARK SMILES IDX 17 1 16 2 15 3 13 4 14 5 11 7 12 8 10 9 1 10 2 11 3 12 6 13
REMARK SMILES IDX 4 14 5 15 7 16 96 18 8 19 90 20 91 21 94 22 9 23 85 24 89 25
REMARK SMILES IDX 86 26 88 27 87 28 92 29 93 30 95 31 18 34 19 35 20 36 21 38
REMARK SMILES IDX 22 39 23 40 84 41 24 42 83 43 25 44 26 45 27 46 77 47 28 48
REMARK SMILES IDX 82 49 76 50 78 51 29 52 81 53 75 54 74 55 30 57 62 58 42 59
REMARK SMILES IDX 61 60 43 61 46 62 60 63 79 64 44 65 45 66 59 68 80 69 47 70
REMARK SMILES IDX 31 71 32 72 40 73 33 74 34 75 38 76 41 77 35 78 36 79 39 80
REMARK SMILES IDX 37 81 63 82 64 83 72 84 65 85 66 86 70 87 73 88 67 89 68 90
REMARK SMILES IDX 71 91 69 92 48 93 49 94 57 95 50 96 51 97 55 98 58 99 52 100
REMARK SMILES IDX 53 101 56 102 54 103
REMARK H PARENT 15 6 4 17 95 32 95 33 19 37 78 56 46 67
REMARK Flexibility Score: inf
ROOT
ATOM      1  C   UNL A   1      33.322  31.411  27.527  1.00  0.00     0.042 C 
ENDROOT
BRANCH   1   2
ATOM      2  C   UNL A   1      33.617  30.116  26.761  1.00  0.00     0.117 C 
BRANCH   2   3
ATOM      3  N   UNL A   1      32.679  29.872  25.674  1.00  0.00    -0.354 N 
ATOM      4  C   UNL A   1      32.655  29.008  24.624  1.00  0.00     0.242 C 
ATOM      5  O   UNL A   1      31.639  29.064  23.916  1.00  0.00    -0.273 OA
ATOM      6  H   UNL A   1      31.891  30.461  25.706  1.00  0.00     0.163 HD
BRANCH   4   7
ATOM      7  C   UNL A   1      33.790  28.032  24.217  1.00  0.00     0.176 C 
ATOM      8  C   UNL A   1      34.479  28.309  22.886  1.00  0.00     0.042 C 
BRANCH   7   9
ATOM      9  N   UNL A   1      33.422  26.636  24.425  1.00  0.00    -0.298 N 
ATOM     10  C   UNL A   1      29.801  25.927  25.401  1.00  0.00     0.069 C 
ATOM     11  C   UNL A   1      30.310  24.697  26.064  1.00  0.00     0.068 A 
ATOM     12  N   UNL A   1      29.495  23.979  26.854  1.00  0.00    -0.177 NA
ATOM     13  C   UNL A   1      31.624  24.164  26.059  1.00  0.00     0.063 A 
ATOM     14  N   UNL A   1      30.299  23.052  27.409  1.00  0.00    -0.246 N 
ATOM     15  C   UNL A   1      31.581  23.147  26.976  1.00  0.00     0.222 A 
ATOM     16  C   UNL A   1      32.935  24.575  25.480  1.00  0.00     0.149 C 
ATOM     17  H   UNL A   1      29.990  22.379  28.058  1.00  0.00     0.193 HD
ATOM     18  O   UNL A   1      32.592  22.431  27.449  1.00  0.00    -0.422 OA
ATOM     19  C   UNL A   1      33.116  26.085  25.667  1.00  0.00     0.248 C 
ATOM     20  C   UNL A   1      32.859  24.449  23.984  1.00  0.00     0.002 A 
ATOM     21  C   UNL A   1      34.090  23.791  26.106  1.00  0.00     0.114 C 
ATOM     22  C   UNL A   1      33.878  22.797  27.018  1.00  0.00     0.208 C 
ATOM     23  O   UNL A   1      32.939  26.690  26.720  1.00  0.00    -0.273 OA
ATOM     24  C   UNL A   1      33.211  25.680  23.408  1.00  0.00     0.050 A 
ATOM     25  C   UNL A   1      32.542  23.346  23.201  1.00  0.00     0.008 A 
ATOM     26  C   UNL A   1      33.254  25.829  22.034  1.00  0.00     0.027 A 
ATOM     27  C   UNL A   1      32.562  23.496  21.817  1.00  0.00     0.001 A 
ATOM     28  C   UNL A   1      32.917  24.725  21.238  1.00  0.00     0.002 A 
BRANCH  21  29
ATOM     29  C   UNL A   1      35.532  24.061  25.709  1.00  0.00     0.102 C 
ATOM     30  N   UNL A   1      36.728  24.286  25.380  1.00  0.00    -0.193 NA
ENDBRANCH  21  29
BRANCH  22  31
ATOM     31  N   UNL A   1      34.850  22.039  27.604  1.00  0.00    -0.369 N 
ATOM     32  H   UNL A   1      35.458  21.503  27.046  1.00  0.00     0.159 HD
ATOM     33  H   UNL A   1      34.944  22.030  28.584  1.00  0.00     0.159 HD
ENDBRANCH  22  31
ENDBRANCH   7   9
ENDBRANCH   4   7
ENDBRANCH   2   3
ENDBRANCH   1   2
BRANCH   1  34
ATOM     34  C   UNL A   1      34.528  32.112  28.135  1.00  0.00     0.118 C 
BRANCH  34  35
ATOM     35  N   UNL A   1      34.430  32.274  29.570  1.00  0.00    -0.352 N 
ATOM     36  C   UNL A   1      35.231  31.973  30.636  1.00  0.00     0.251 C 
ATOM     37  H   UNL A   1      33.587  32.702  29.843  1.00  0.00     0.163 HD
ATOM     38  O   UNL A   1      34.801  32.332  31.738  1.00  0.00    -0.269 OA
BRANCH  36  39
ATOM     39  C   UNL A   1      36.538  31.248  30.590  1.00  0.00     0.039 A 
ATOM     40  C   UNL A   1      37.808  31.823  30.600  1.00  0.00     0.014 A 
ATOM     41  C   UNL A   1      36.454  29.841  30.511  1.00  0.00     0.014 A 
ATOM     42  C   UNL A   1      38.950  31.022  30.486  1.00  0.00     0.010 A 
ATOM     43  C   UNL A   1      37.592  29.038  30.419  1.00  0.00     0.010 A 
ATOM     44  C   UNL A   1      38.849  29.628  30.379  1.00  0.00    -0.014 A 
BRANCH  44  45
ATOM     45  C   UNL A   1      40.090  28.847  30.318  1.00  0.00     0.031 A 
ATOM     46  C   UNL A   1      40.816  28.679  31.609  1.00  0.00     0.074 A 
ATOM     47  C   UNL A   1      40.554  28.188  29.235  1.00  0.00     0.049 A 
ATOM     48  N   UNL A   1      42.007  29.087  31.909  1.00  0.00    -0.248 NA
ATOM     49  C   UNL A   1      40.119  28.004  32.712  1.00  0.00     0.031 C 
ATOM     50  C   UNL A   1      39.845  27.929  27.981  1.00  0.00     0.029 A 
ATOM     51  N   UNL A   1      41.745  27.525  29.065  1.00  0.00    -0.354 N 
ATOM     52  C   UNL A   1      42.281  28.582  33.180  1.00  0.00     0.074 A 
ATOM     53  C   UNL A   1      41.051  28.015  33.668  1.00  0.00     0.031 C 
ATOM     54  C   UNL A   1      40.523  27.002  27.270  1.00  0.00     0.029 A 
ATOM     55  C   UNL A   1      41.783  26.717  27.940  1.00  0.00     0.049 A 
ATOM     56  H   UNL A   1      42.503  27.615  29.686  1.00  0.00     0.167 HD
ATOM     57  C   UNL A   1      43.560  28.475  33.632  1.00  0.00     0.037 A 
ATOM     58  C   UNL A   1      42.755  25.846  27.579  1.00  0.00     0.037 A 
ATOM     59  C   UNL A   1      44.479  29.221  32.820  1.00  0.00     0.049 A 
ATOM     60  C   UNL A   1      44.035  26.266  28.197  1.00  0.00     0.074 A 
ATOM     61  C   UNL A   1      44.924  30.519  32.710  1.00  0.00     0.029 A 
ATOM     62  N   UNL A   1      44.922  28.543  31.722  1.00  0.00    -0.354 N 
ATOM     63  N   UNL A   1      44.675  27.361  27.888  1.00  0.00    -0.248 NA
ATOM     64  C   UNL A   1      44.549  25.552  29.364  1.00  0.00     0.031 C 
ATOM     65  C   UNL A   1      45.546  30.625  31.429  1.00  0.00     0.029 A 
ATOM     66  C   UNL A   1      45.451  29.392  30.791  1.00  0.00     0.049 A 
ATOM     67  H   UNL A   1      44.868  27.565  31.615  1.00  0.00     0.167 HD
ATOM     68  C   UNL A   1      45.378  27.677  29.030  1.00  0.00     0.074 A 
ATOM     69  C   UNL A   1      45.421  26.455  29.816  1.00  0.00     0.031 C 
ATOM     70  C   UNL A   1      45.537  28.974  29.412  1.00  0.00     0.037 A 
BRANCH  57  71
ATOM     71  C   UNL A   1      44.093  27.362  34.513  1.00  0.00     0.064 A 
ATOM     72  C   UNL A   1      44.053  26.033  34.032  1.00  0.00     0.173 A 
ATOM     73  C   UNL A   1      44.286  27.497  35.903  1.00  0.00     0.173 A 
ATOM     74  F   UNL A   1      43.862  25.783  32.728  1.00  0.00    -0.203 F 
ATOM     75  C   UNL A   1      44.113  24.931  34.890  1.00  0.00     0.198 A 
ATOM     76  C   UNL A   1      44.398  26.393  36.750  1.00  0.00     0.198 A 
ATOM     77  F   UNL A   1      44.257  28.691  36.507  1.00  0.00    -0.203 F 
ATOM     78  F   UNL A   1      43.939  23.695  34.402  1.00  0.00    -0.200 F 
ATOM     79  C   UNL A   1      44.277  25.113  36.249  1.00  0.00     0.200 A 
ATOM     80  F   UNL A   1      44.537  26.587  38.069  1.00  0.00    -0.200 F 
ATOM     81  F   UNL A   1      44.269  24.064  37.083  1.00  0.00    -0.200 F 
ENDBRANCH  57  71
BRANCH  58  82
ATOM     82  C   UNL A   1      42.622  24.558  26.858  1.00  0.00     0.064 A 
ATOM     83  C   UNL A   1      43.205  24.369  25.592  1.00  0.00     0.173 A 
ATOM     84  C   UNL A   1      42.161  23.398  27.511  1.00  0.00     0.173 A 
ATOM     85  F   UNL A   1      43.705  25.414  24.915  1.00  0.00    -0.203 F 
ATOM     86  C   UNL A   1      43.355  23.096  25.035  1.00  0.00     0.198 A 
ATOM     87  C   UNL A   1      42.297  22.129  26.947  1.00  0.00     0.198 A 
ATOM     88  F   UNL A   1      41.657  23.461  28.752  1.00  0.00    -0.203 F 
ATOM     89  F   UNL A   1      43.987  22.951  23.862  1.00  0.00    -0.200 F 
ATOM     90  C   UNL A   1      42.911  21.977  25.718  1.00  0.00     0.200 A 
ATOM     91  F   UNL A   1      41.892  21.051  27.632  1.00  0.00    -0.200 F 
ATOM     92  F   UNL A   1      43.114  20.751  25.215  1.00  0.00    -0.200 F 
ENDBRANCH  58  82
BRANCH  70  93
ATOM     93  C   UNL A   1      45.556  30.022  28.353  1.00  0.00     0.064 A 
ATOM     94  C   UNL A   1      44.410  30.635  27.829  1.00  0.00     0.173 A 
ATOM     95  C   UNL A   1      46.805  30.485  27.914  1.00  0.00     0.173 A 
ATOM     96  F   UNL A   1      43.188  30.297  28.262  1.00  0.00    -0.203 F 
ATOM     97  C   UNL A   1      44.514  31.648  26.877  1.00  0.00     0.198 A 
ATOM     98  C   UNL A   1      46.907  31.521  26.993  1.00  0.00     0.198 A 
ATOM     99  F   UNL A   1      47.932  29.959  28.420  1.00  0.00    -0.203 F 
ATOM    100  F   UNL A   1      43.407  32.214  26.375  1.00  0.00    -0.200 F 
ATOM    101  C   UNL A   1      45.762  32.095  26.466  1.00  0.00     0.200 A 
ATOM    102  F   UNL A   1      48.115  31.977  26.636  1.00  0.00    -0.200 F 
ATOM    103  F   UNL A   1      45.863  33.095  25.580  1.00  0.00    -0.200 F 
ENDBRANCH  70  93
ENDBRANCH  44  45
ENDBRANCH  36  39
ENDBRANCH  34  35
ENDBRANCH   1  34
TORSDOF 13
ENDMDL
MODEL 2
REMARK VINA RESULT:     -13.7      3.268      8.784
REMARK SMILES Cc1n[nH]c2c1[C@@]1(C(=O)N([C@@H](C)C(=O)NCCCNC(=O)c3ccc(-c4c5nc(c(-c6c(F)c(F)c(F)c(F)c6F)c6ccc([nH]6)c(-c6c(F)c(F)c(F)c(F)c6F)c6nc(c(-c7c(F)c(F)c(F)c(F)c7F)c7ccc4[nH]7)C=C6)C=C5)cc3)c3ccccc31)C(C#N)=C(N)O2
REMARK SMILES IDX 17 1 16 2 15 3 13 4 14 5 11 7 12 8 10 9 1 10 2 11 3 12 6 13
REMARK SMILES IDX 4 14 5 15 7 16 96 18 8 19 90 20 91 21 94 22 9 23 85 24 89 25
REMARK SMILES IDX 86 26 88 27 87 28 92 29 93 30 95 31 18 34 19 35 20 36 21 38
REMARK SMILES IDX 22 39 23 40 84 41 24 42 83 43 25 44 26 45 27 46 77 47 28 48
REMARK SMILES IDX 82 49 76 50 78 51 29 52 81 53 75 54 74 55 30 57 62 58 42 59
REMARK SMILES IDX 61 60 43 61 46 62 60 63 79 64 44 65 45 66 59 68 80 69 47 70
REMARK SMILES IDX 31 71 32 72 40 73 33 74 34 75 38 76 41 77 35 78 36 79 39 80
REMARK SMILES IDX 37 81 63 82 64 83 72 84 65 85 66 86 70 87 73 88 67 89 68 90
REMARK SMILES IDX 71 91 69 92 48 93 49 94 57 95 50 96 51 97 55 98 58 99 52 100
REMARK SMILES IDX 53 101 56 102 54 103
REMARK H PARENT 15 6 4 17 95 32 95 33 19 37 78 56 46 67
REMARK Flexibility Score: inf
ROOT
ATOM      1  C   UNL A   1      38.643  21.339  25.644  1.00  0.00     0.042 C 
ENDROOT
BRANCH   1   2
ATOM      2  C   UNL A   1      37.454  22.194  25.190  1.00  0.00     0.117 C 
BRANCH   2   3
ATOM      3  N   UNL A   1      36.184  21.484  25.257  1.00  0.00    -0.354 N 
ATOM      4  C   UNL A   1      34.952  21.799  25.737  1.00  0.00     0.242 C 
ATOM      5  O   UNL A   1      34.082  20.932  25.570  1.00  0.00    -0.273 OA
ATOM      6  H   UNL A   1      36.227  20.581  24.870  1.00  0.00     0.163 HD
BRANCH   4   7
ATOM      7  C   UNL A   1      34.573  23.089  26.511  1.00  0.00     0.176 C 
ATOM      8  C   UNL A   1      34.054  22.901  27.932  1.00  0.00     0.042 C 
BRANCH   7   9
ATOM      9  N   UNL A   1      33.787  24.011  25.700  1.00  0.00    -0.298 N 
ATOM     10  C   UNL A   1      32.976  22.922  22.133  1.00  0.00     0.069 C 
ATOM     11  C   UNL A   1      32.897  24.368  21.800  1.00  0.00     0.068 A 
ATOM     12  N   UNL A   1      32.808  24.754  20.517  1.00  0.00    -0.177 NA
ATOM     13  C   UNL A   1      32.983  25.487  22.669  1.00  0.00     0.063 A 
ATOM     14  N   UNL A   1      32.919  26.095  20.561  1.00  0.00    -0.246 N 
ATOM     15  C   UNL A   1      33.048  26.565  21.827  1.00  0.00     0.222 A 
ATOM     16  C   UNL A   1      33.200  25.682  24.131  1.00  0.00     0.149 C 
ATOM     17  H   UNL A   1      32.907  26.671  19.763  1.00  0.00     0.193 HD
ATOM     18  O   UNL A   1      33.288  27.832  22.139  1.00  0.00    -0.422 OA
ATOM     19  C   UNL A   1      34.289  24.717  24.610  1.00  0.00     0.248 C 
ATOM     20  C   UNL A   1      31.989  25.180  24.867  1.00  0.00     0.002 A 
ATOM     21  C   UNL A   1      33.557  27.135  24.450  1.00  0.00     0.114 C 
ATOM     22  C   UNL A   1      33.581  28.102  23.487  1.00  0.00     0.208 C 
ATOM     23  O   UNL A   1      35.377  24.557  24.064  1.00  0.00    -0.273 OA
ATOM     24  C   UNL A   1      32.399  24.236  25.822  1.00  0.00     0.050 A 
ATOM     25  C   UNL A   1      30.655  25.544  24.732  1.00  0.00     0.008 A 
ATOM     26  C   UNL A   1      31.478  23.639  26.662  1.00  0.00     0.027 A 
ATOM     27  C   UNL A   1      29.720  24.929  25.561  1.00  0.00     0.001 A 
ATOM     28  C   UNL A   1      30.128  23.987  26.519  1.00  0.00     0.002 A 
BRANCH  21  29
ATOM     29  C   UNL A   1      33.867  27.575  25.872  1.00  0.00     0.102 C 
ATOM     30  N   UNL A   1      34.125  27.940  27.051  1.00  0.00    -0.193 NA
ENDBRANCH  21  29
BRANCH  22  31
ATOM     31  N   UNL A   1      33.868  29.420  23.695  1.00  0.00    -0.369 N 
ATOM     32  H   UNL A   1      33.894  30.043  22.934  1.00  0.00     0.159 HD
ATOM     33  H   UNL A   1      34.047  29.747  24.606  1.00  0.00     0.159 HD
ENDBRANCH  22  31
ENDBRANCH   7   9
ENDBRANCH   4   7
ENDBRANCH   2   3
ENDBRANCH   1   2
BRANCH   1  34
ATOM     34  C   UNL A   1      39.662  22.037  26.534  1.00  0.00     0.118 C 
BRANCH  34  35
ATOM     35  N   UNL A   1      40.956  22.191  25.906  1.00  0.00    -0.352 N 
ATOM     36  C   UNL A   1      41.930  23.150  25.916  1.00  0.00     0.251 C 
ATOM     37  H   UNL A   1      41.192  21.423  25.337  1.00  0.00     0.163 HD
ATOM     38  O   UNL A   1      42.947  22.877  25.270  1.00  0.00    -0.269 OA
BRANCH  36  39
ATOM     39  C   UNL A   1      41.864  24.476  26.604  1.00  0.00     0.039 A 
ATOM     40  C   UNL A   1      42.542  24.844  27.766  1.00  0.00     0.014 A 
ATOM     41  C   UNL A   1      41.011  25.432  26.011  1.00  0.00     0.014 A 
ATOM     42  C   UNL A   1      42.336  26.103  28.340  1.00  0.00     0.010 A 
ATOM     43  C   UNL A   1      40.820  26.697  26.569  1.00  0.00     0.010 A 
ATOM     44  C   UNL A   1      41.462  27.030  27.754  1.00  0.00    -0.014 A 
BRANCH  44  45
ATOM     45  C   UNL A   1      41.337  28.353  28.379  1.00  0.00     0.031 A 
ATOM     46  C   UNL A   1      42.439  29.315  28.094  1.00  0.00     0.074 A 
ATOM     47  C   UNL A   1      40.271  28.794  29.082  1.00  0.00     0.049 A 
ATOM     48  N   UNL A   1      43.258  29.857  28.936  1.00  0.00    -0.248 NA
ATOM     49  C   UNL A   1      42.682  29.693  26.695  1.00  0.00     0.031 C 
ATOM     50  C   UNL A   1      38.957  28.162  29.193  1.00  0.00     0.029 A 
ATOM     51  N   UNL A   1      40.116  29.967  29.780  1.00  0.00    -0.354 N 
ATOM     52  C   UNL A   1      44.016  30.772  28.205  1.00  0.00     0.074 A 
ATOM     53  C   UNL A   1      43.694  30.555  26.819  1.00  0.00     0.031 C 
ATOM     54  C   UNL A   1      38.083  29.041  29.731  1.00  0.00     0.029 A 
ATOM     55  C   UNL A   1      38.805  30.236  30.141  1.00  0.00     0.049 A 
ATOM     56  H   UNL A   1      40.867  30.563  30.003  1.00  0.00     0.167 HD
ATOM     57  C   UNL A   1      44.680  31.786  28.824  1.00  0.00     0.037 A 
ATOM     58  C   UNL A   1      38.319  31.364  30.711  1.00  0.00     0.037 A 
ATOM     59  C   UNL A   1      44.766  31.583  30.243  1.00  0.00     0.049 A 
ATOM     60  C   UNL A   1      39.413  32.049  31.439  1.00  0.00     0.074 A 
ATOM     61  C   UNL A   1      45.563  30.895  31.129  1.00  0.00     0.029 A 
ATOM     62  N   UNL A   1      43.673  32.020  30.930  1.00  0.00    -0.354 N 
ATOM     63  N   UNL A   1      40.000  31.570  32.502  1.00  0.00    -0.248 NA
ATOM     64  C   UNL A   1      40.044  33.234  30.860  1.00  0.00     0.031 C 
ATOM     65  C   UNL A   1      44.835  30.826  32.355  1.00  0.00     0.029 A 
ATOM     66  C   UNL A   1      43.611  31.463  32.177  1.00  0.00     0.049 A 
ATOM     67  H   UNL A   1      43.011  32.658  30.574  1.00  0.00     0.167 HD
ATOM     68  C   UNL A   1      41.261  32.125  32.473  1.00  0.00     0.074 A 
ATOM     69  C   UNL A   1      41.168  33.265  31.577  1.00  0.00     0.031 C 
ATOM     70  C   UNL A   1      42.347  31.406  32.870  1.00  0.00     0.037 A 
BRANCH  57  71
ATOM     71  C   UNL A   1      44.869  33.184  28.268  1.00  0.00     0.064 A 
ATOM     72  C   UNL A   1      46.181  33.649  28.021  1.00  0.00     0.173 A 
ATOM     73  C   UNL A   1      43.873  34.181  28.321  1.00  0.00     0.173 A 
ATOM     74  F   UNL A   1      47.211  32.791  27.961  1.00  0.00    -0.203 F 
ATOM     75  C   UNL A   1      46.480  35.011  27.925  1.00  0.00     0.198 A 
ATOM     76  C   UNL A   1      44.169  35.537  28.171  1.00  0.00     0.198 A 
ATOM     77  F   UNL A   1      42.604  33.895  28.633  1.00  0.00    -0.203 F 
ATOM     78  F   UNL A   1      47.756  35.409  27.822  1.00  0.00    -0.200 F 
ATOM     79  C   UNL A   1      45.474  35.954  28.008  1.00  0.00     0.200 A 
ATOM     80  F   UNL A   1      43.185  36.441  28.275  1.00  0.00    -0.200 F 
ATOM     81  F   UNL A   1      45.763  37.262  27.982  1.00  0.00    -0.200 F 
ENDBRANCH  57  71
BRANCH  58  82
ATOM     82  C   UNL A   1      36.989  31.992  30.531  1.00  0.00     0.064 A 
ATOM     83  C   UNL A   1      36.008  31.920  31.536  1.00  0.00     0.173 A 
ATOM     84  C   UNL A   1      36.748  32.911  29.490  1.00  0.00     0.173 A 
ATOM     85  F   UNL A   1      36.174  31.101  32.585  1.00  0.00    -0.203 F 
ATOM     86  C   UNL A   1      34.880  32.745  31.522  1.00  0.00     0.198 A 
ATOM     87  C   UNL A   1      35.614  33.722  29.469  1.00  0.00     0.198 A 
ATOM     88  F   UNL A   1      37.655  33.108  28.523  1.00  0.00    -0.203 F 
ATOM     89  F   UNL A   1      34.009  32.702  32.540  1.00  0.00    -0.200 F 
ATOM     90  C   UNL A   1      34.690  33.653  30.495  1.00  0.00     0.200 A 
ATOM     91  F   UNL A   1      35.456  34.619  28.485  1.00  0.00    -0.200 F 
ATOM     92  F   UNL A   1      33.642  34.490  30.514  1.00  0.00    -0.200 F 
ENDBRANCH  58  82
BRANCH  70  93
ATOM     93  C   UNL A   1      42.150  30.347  33.901  1.00  0.00     0.064 A 
ATOM     94  C   UNL A   1      41.749  29.034  33.617  1.00  0.00     0.173 A 
ATOM     95  C   UNL A   1      42.469  30.661  35.230  1.00  0.00     0.173 A 
ATOM     96  F   UNL A   1      41.506  28.645  32.358  1.00  0.00    -0.203 F 
ATOM     97  C   UNL A   1      41.640  28.085  34.632  1.00  0.00     0.198 A 
ATOM     98  C   UNL A   1      42.396  29.703  36.235  1.00  0.00     0.198 A 
ATOM     99  F   UNL A   1      42.900  31.893  35.544  1.00  0.00    -0.203 F 
ATOM    100  F   UNL A   1      41.242  26.838  34.345  1.00  0.00    -0.200 F 
ATOM    101  C   UNL A   1      41.971  28.419  35.938  1.00  0.00     0.200 A 
ATOM    102  F   UNL A   1      42.761  30.021  37.484  1.00  0.00    -0.200 F 
ATOM    103  F   UNL A   1      41.904  27.497  36.908  1.00  0.00    -0.200 F 
ENDBRANCH  70  93
ENDBRANCH  44  45
ENDBRANCH  36  39
ENDBRANCH  34  35
ENDBRANCH   1  34
TORSDOF 13
ENDMDL
MODEL 3
REMARK VINA RESULT:     -13.5      2.975      8.364
REMARK SMILES Cc1n[nH]c2c1[C@@]1(C(=O)N([C@@H](C)C(=O)NCCCNC(=O)c3ccc(-c4c5nc(c(-c6c(F)c(F)c(F)c(F)c6F)c6ccc([nH]6)c(-c6c(F)c(F)c(F)c(F)c6F)c6nc(c(-c7c(F)c(F)c(F)c(F)c7F)c7ccc4[nH]7)C=C6)C=C5)cc3)c3ccccc31)C(C#N)=C(N)O2
REMARK SMILES IDX 17 1 16 2 15 3 13 4 14 5 11 7 12 8 10 9 1 10 2 11 3 12 6 13
REMARK SMILES IDX 4 14 5 15 7 16 96 18 8 19 90 20 91 21 94 22 9 23 85 24 89 25
REMARK SMILES IDX 86 26 88 27 87 28 92 29 93 30 95 31 18 34 19 35 20 36 21 38
REMARK SMILES IDX 22 39 23 40 84 41 24 42 83 43 25 44 26 45 27 46 77 47 28 48
REMARK SMILES IDX 82 49 76 50 78 51 29 52 81 53 75 54 74 55 30 57 62 58 42 59
REMARK SMILES IDX 61 60 43 61 46 62 60 63 79 64 44 65 45 66 59 68 80 69 47 70
REMARK SMILES IDX 31 71 32 72 40 73 33 74 34 75 38 76 41 77 35 78 36 79 39 80
REMARK SMILES IDX 37 81 63 82 64 83 72 84 65 85 66 86 70 87 73 88 67 89 68 90
REMARK SMILES IDX 71 91 69 92 48 93 49 94 57 95 50 96 51 97 55 98 58 99 52 100
REMARK SMILES IDX 53 101 56 102 54 103
REMARK H PARENT 15 6 4 17 95 32 95 33 19 37 78 56 46 67
REMARK Flexibility Score: inf
ROOT
ATOM      1  C   UNL A   1      36.580  21.268  24.716  1.00  0.00     0.042 C 
ENDROOT
BRANCH   1   2
ATOM      2  C   UNL A   1      35.187  21.873  24.927  1.00  0.00     0.117 C 
BRANCH   2   3
ATOM      3  N   UNL A   1      34.714  22.627  23.774  1.00  0.00    -0.354 N 
ATOM      4  C   UNL A   1      34.558  23.952  23.512  1.00  0.00     0.242 C 
ATOM      5  O   UNL A   1      34.162  24.221  22.369  1.00  0.00    -0.273 OA
ATOM      6  H   UNL A   1      34.449  22.052  23.020  1.00  0.00     0.163 HD
BRANCH   4   7
ATOM      7  C   UNL A   1      34.769  25.114  24.517  1.00  0.00     0.176 C 
ATOM      8  C   UNL A   1      35.550  24.785  25.783  1.00  0.00     0.042 C 
BRANCH   7   9
ATOM      9  N   UNL A   1      33.548  25.879  24.745  1.00  0.00    -0.298 N 
ATOM     10  C   UNL A   1      31.201  26.322  21.768  1.00  0.00     0.069 C 
ATOM     11  C   UNL A   1      30.742  27.574  22.424  1.00  0.00     0.068 A 
ATOM     12  N   UNL A   1      29.950  28.427  21.754  1.00  0.00    -0.177 NA
ATOM     13  C   UNL A   1      31.089  28.087  23.700  1.00  0.00     0.063 A 
ATOM     14  N   UNL A   1      29.862  29.503  22.558  1.00  0.00    -0.246 N 
ATOM     15  C   UNL A   1      30.549  29.345  23.718  1.00  0.00     0.222 A 
ATOM     16  C   UNL A   1      31.993  27.660  24.807  1.00  0.00     0.149 C 
ATOM     17  H   UNL A   1      29.355  30.316  22.330  1.00  0.00     0.193 HD
ATOM     18  O   UNL A   1      30.718  30.294  24.629  1.00  0.00    -0.422 OA
ATOM     19  C   UNL A   1      33.306  27.143  24.212  1.00  0.00     0.248 C 
ATOM     20  C   UNL A   1      31.423  26.421  25.440  1.00  0.00     0.002 A 
ATOM     21  C   UNL A   1      32.236  28.801  25.797  1.00  0.00     0.114 C 
ATOM     22  C   UNL A   1      31.614  30.010  25.673  1.00  0.00     0.208 C 
ATOM     23  O   UNL A   1      33.970  27.724  23.360  1.00  0.00    -0.273 OA
ATOM     24  C   UNL A   1      32.403  25.416  25.428  1.00  0.00     0.050 A 
ATOM     25  C   UNL A   1      30.171  26.208  26.003  1.00  0.00     0.008 A 
ATOM     26  C   UNL A   1      32.147  24.176  25.983  1.00  0.00     0.027 A 
ATOM     27  C   UNL A   1      29.900  24.953  26.544  1.00  0.00     0.001 A 
ATOM     28  C   UNL A   1      30.880  23.947  26.536  1.00  0.00     0.002 A 
BRANCH  21  29
ATOM     29  C   UNL A   1      33.159  28.624  26.991  1.00  0.00     0.102 C 
ATOM     30  N   UNL A   1      33.925  28.477  27.982  1.00  0.00    -0.193 NA
ENDBRANCH  21  29
BRANCH  22  31
ATOM     31  N   UNL A   1      31.762  31.067  26.524  1.00  0.00    -0.369 N 
ATOM     32  H   UNL A   1      31.801  31.984  26.167  1.00  0.00     0.159 HD
ATOM     33  H   UNL A   1      31.828  30.913  27.494  1.00  0.00     0.159 HD
ENDBRANCH  22  31
ENDBRANCH   7   9
ENDBRANCH   4   7
ENDBRANCH   2   3
ENDBRANCH   1   2
BRANCH   1  34
ATOM     34  C   UNL A   1      37.756  22.191  25.007  1.00  0.00     0.118 C 
BRANCH  34  35
ATOM     35  N   UNL A   1      38.786  21.566  25.808  1.00  0.00    -0.352 N 
ATOM     36  C   UNL A   1      39.659  21.992  26.769  1.00  0.00     0.251 C 
ATOM     37  H   UNL A   1      38.882  20.605  25.614  1.00  0.00     0.163 HD
ATOM     38  O   UNL A   1      40.368  21.112  27.267  1.00  0.00    -0.269 OA
BRANCH  36  39
ATOM     39  C   UNL A   1      39.840  23.399  27.243  1.00  0.00     0.039 A 
ATOM     40  C   UNL A   1      38.954  24.460  27.057  1.00  0.00     0.014 A 
ATOM     41  C   UNL A   1      41.044  23.662  27.932  1.00  0.00     0.014 A 
ATOM     42  C   UNL A   1      39.284  25.746  27.501  1.00  0.00     0.010 A 
ATOM     43  C   UNL A   1      41.367  24.938  28.395  1.00  0.00     0.010 A 
ATOM     44  C   UNL A   1      40.497  25.996  28.157  1.00  0.00    -0.014 A 
BRANCH  44  45
ATOM     45  C   UNL A   1      40.752  27.357  28.644  1.00  0.00     0.031 A 
ATOM     46  C   UNL A   1      41.977  28.019  28.112  1.00  0.00     0.074 A 
ATOM     47  C   UNL A   1      39.925  28.082  29.427  1.00  0.00     0.049 A 
ATOM     48  N   UNL A   1      43.011  28.426  28.774  1.00  0.00    -0.248 NA
ATOM     49  C   UNL A   1      42.078  28.222  26.660  1.00  0.00     0.031 C 
ATOM     50  C   UNL A   1      38.539  27.773  29.780  1.00  0.00     0.029 A 
ATOM     51  N   UNL A   1      40.130  29.310  30.007  1.00  0.00    -0.354 N 
ATOM     52  C   UNL A   1      43.825  29.087  27.854  1.00  0.00     0.074 A 
ATOM     53  C   UNL A   1      43.257  28.840  26.555  1.00  0.00     0.031 C 
ATOM     54  C   UNL A   1      37.965  28.867  30.328  1.00  0.00     0.029 A 
ATOM     55  C   UNL A   1      38.978  29.896  30.506  1.00  0.00     0.049 A 
ATOM     56  H   UNL A   1      41.016  29.736  30.062  1.00  0.00     0.167 HD
ATOM     57  C   UNL A   1      44.777  29.969  28.264  1.00  0.00     0.037 A 
ATOM     58  C   UNL A   1      38.836  31.145  31.008  1.00  0.00     0.037 A 
ATOM     59  C   UNL A   1      45.033  29.863  29.673  1.00  0.00     0.049 A 
ATOM     60  C   UNL A   1      40.149  31.620  31.506  1.00  0.00     0.074 A 
ATOM     61  C   UNL A   1      45.791  29.084  30.517  1.00  0.00     0.029 A 
ATOM     62  N   UNL A   1      44.176  30.589  30.446  1.00  0.00    -0.354 N 
ATOM     63  N   UNL A   1      40.775  31.105  32.528  1.00  0.00    -0.248 NA
ATOM     64  C   UNL A   1      40.920  32.582  30.722  1.00  0.00     0.031 C 
ATOM     65  C   UNL A   1      45.261  29.277  31.829  1.00  0.00     0.029 A 
ATOM     66  C   UNL A   1      44.188  30.159  31.744  1.00  0.00     0.049 A 
ATOM     67  H   UNL A   1      43.618  31.329  30.112  1.00  0.00     0.167 HD
ATOM     68  C   UNL A   1      42.106  31.356  32.272  1.00  0.00     0.074 A 
ATOM     69  C   UNL A   1      42.122  32.415  31.276  1.00  0.00     0.031 C 
ATOM     70  C   UNL A   1      43.062  30.444  32.600  1.00  0.00     0.037 A 
BRANCH  57  71
ATOM     71  C   UNL A   1      45.171  31.241  27.538  1.00  0.00     0.064 A 
ATOM     72  C   UNL A   1      46.490  31.363  27.043  1.00  0.00     0.173 A 
ATOM     73  C   UNL A   1      44.447  32.446  27.636  1.00  0.00     0.173 A 
ATOM     74  F   UNL A   1      47.276  30.283  26.918  1.00  0.00    -0.203 F 
ATOM     75  C   UNL A   1      47.062  32.605  26.755  1.00  0.00     0.198 A 
ATOM     76  C   UNL A   1      45.006  33.679  27.297  1.00  0.00     0.198 A 
ATOM     77  F   UNL A   1      43.221  32.492  28.170  1.00  0.00    -0.203 F 
ATOM     78  F   UNL A   1      48.357  32.680  26.414  1.00  0.00    -0.200 F 
ATOM     79  C   UNL A   1      46.322  33.763  26.890  1.00  0.00     0.200 A 
ATOM     80  F   UNL A   1      44.281  34.796  27.453  1.00  0.00    -0.200 F 
ATOM     81  F   UNL A   1      46.885  34.960  26.679  1.00  0.00    -0.200 F 
ENDBRANCH  57  71
BRANCH  58  82
ATOM     82  C   UNL A   1      37.657  32.042  30.936  1.00  0.00     0.064 A 
ATOM     83  C   UNL A   1      37.350  32.746  29.758  1.00  0.00     0.173 A 
ATOM     84  C   UNL A   1      36.654  32.013  31.925  1.00  0.00     0.173 A 
ATOM     85  F   UNL A   1      38.232  32.792  28.748  1.00  0.00    -0.203 F 
ATOM     86  C   UNL A   1      36.102  33.345  29.565  1.00  0.00     0.198 A 
ATOM     87  C   UNL A   1      35.415  32.625  31.738  1.00  0.00     0.198 A 
ATOM     88  F   UNL A   1      36.821  31.308  33.053  1.00  0.00    -0.203 F 
ATOM     89  F   UNL A   1      35.820  33.938  28.397  1.00  0.00    -0.200 F 
ATOM     90  C   UNL A   1      35.132  33.274  30.551  1.00  0.00     0.200 A 
ATOM     91  F   UNL A   1      34.474  32.523  32.686  1.00  0.00    -0.200 F 
ATOM     92  F   UNL A   1      33.913  33.792  30.341  1.00  0.00    -0.200 F 
ENDBRANCH  58  82
BRANCH  70  93
ATOM     93  C   UNL A   1      42.804  29.540  33.757  1.00  0.00     0.064 A 
ATOM     94  C   UNL A   1      42.123  28.318  33.668  1.00  0.00     0.173 A 
ATOM     95  C   UNL A   1      43.352  29.896  34.998  1.00  0.00     0.173 A 
ATOM     96  F   UNL A   1      41.644  27.880  32.497  1.00  0.00    -0.203 F 
ATOM     97  C   UNL A   1      41.971  27.503  34.789  1.00  0.00     0.198 A 
ATOM     98  C   UNL A   1      43.231  29.064  36.105  1.00  0.00     0.198 A 
ATOM     99  F   UNL A   1      44.051  31.035  35.122  1.00  0.00    -0.203 F 
ATOM    100  F   UNL A   1      41.304  26.344  34.690  1.00  0.00    -0.200 F 
ATOM    101  C   UNL A   1      42.531  27.873  36.003  1.00  0.00     0.200 A 
ATOM    102  F   UNL A   1      43.814  29.406  37.261  1.00  0.00    -0.200 F 
ATOM    103  F   UNL A   1      42.417  27.071  37.071  1.00  0.00    -0.200 F 
ENDBRANCH  70  93
ENDBRANCH  44  45
ENDBRANCH  36  39
ENDBRANCH  34  35
ENDBRANCH   1  34
TORSDOF 13
ENDMDL
