MODEL 1
REMARK VINA RESULT:     -12.9      0.000      0.000
REMARK SMILES O=C(CCc1cccnc1)Nc1ccsc1C(=O)NCCCNC(=O)c1ccc(-c2c3nc(c(-c4c(F)c(F)c(F)c(F)c4F)c4ccc([nH]4)c(-c4c(F)c(F)c(F)c(F)c4F)c4nc(c(-c5c(F)c(F)c(F)c(F)c5F)c5ccc2[nH]5)C=C4)C=C3)cc1
REMARK SMILES IDX 20 1 19 2 17 3 18 4 16 6 12 7 13 8 14 9 15 10 11 11 1 12
REMARK SMILES IDX 2 13 3 15 4 16 5 17 6 18 10 19 7 20 9 21 8 22 21 23 22 24
REMARK SMILES IDX 23 25 24 26 25 28 26 29 27 30 88 31 28 32 87 33 29 34 30 35
REMARK SMILES IDX 31 36 81 37 32 38 86 39 80 40 82 41 33 42 85 43 79 44 78 45
REMARK SMILES IDX 34 47 66 48 46 49 65 50 47 51 50 52 64 53 83 54 48 55 49 56
REMARK SMILES IDX 63 58 84 59 51 60 35 61 36 62 44 63 37 64 38 65 42 66 45 67
REMARK SMILES IDX 39 68 40 69 43 70 41 71 67 72 68 73 76 74 69 75 70 76 74 77
REMARK SMILES IDX 77 78 71 79 72 80 75 81 73 82 52 83 53 84 61 85 54 86 55 87
REMARK SMILES IDX 59 88 62 89 56 90 57 91 60 92 58 93
REMARK H PARENT 19 5 11 14 23 27 82 46 50 57
REMARK Flexibility Score: inf
ROOT
ATOM      1  C   UNL A   1      32.423  26.205  26.413  1.00  0.00     0.118 C 
ENDROOT
BRANCH   1   2
ATOM      2  N   UNL A   1      31.552  25.251  27.068  1.00  0.00    -0.351 N 
ATOM      3  C   UNL A   1      31.062  24.056  26.571  1.00  0.00     0.263 C 
ATOM      4  O   UNL A   1      30.372  23.390  27.349  1.00  0.00    -0.268 OA
ATOM      5  H   UNL A   1      31.272  25.482  27.983  1.00  0.00     0.163 HD
BRANCH   3   6
ATOM      6  C   UNL A   1      31.325  23.668  25.195  1.00  0.00     0.115 A 
ATOM      7  C   UNL A   1      30.839  24.128  23.978  1.00  0.00     0.065 A 
ATOM      8  C   UNL A   1      31.246  23.290  22.895  1.00  0.00     0.038 A 
ATOM      9  C   UNL A   1      32.142  22.323  23.287  1.00  0.00     0.068 A 
ATOM     10  S   UNL A   1      32.423  22.360  24.967  1.00  0.00    -0.137 S 
BRANCH   7  11
ATOM     11  N   UNL A   1      30.088  25.290  23.836  1.00  0.00    -0.325 N 
ATOM     12  O   UNL A   1      31.695  26.635  22.866  1.00  0.00    -0.275 OA
ATOM     13  C   UNL A   1      30.560  26.472  23.309  1.00  0.00     0.224 C 
ATOM     14  H   UNL A   1      29.150  25.265  24.135  1.00  0.00     0.169 HD
BRANCH  13  15
ATOM     15  C   UNL A   1      29.549  27.615  23.283  1.00  0.00     0.105 C 
BRANCH  15  16
ATOM     16  C   UNL A   1      30.082  29.006  23.642  1.00  0.00     0.047 C 
BRANCH  16  17
ATOM     17  C   UNL A   1      29.350  30.146  22.978  1.00  0.00    -0.029 A 
ATOM     18  C   UNL A   1      28.932  31.282  23.678  1.00  0.00     0.007 A 
ATOM     19  C   UNL A   1      29.026  30.099  21.628  1.00  0.00     0.114 A 
ATOM     20  C   UNL A   1      28.234  32.297  23.039  1.00  0.00     0.020 A 
ATOM     21  N   UNL A   1      28.361  31.076  20.969  1.00  0.00    -0.264 NA
ATOM     22  C   UNL A   1      27.970  32.147  21.693  1.00  0.00     0.111 A 
ENDBRANCH  16  17
ENDBRANCH  15  16
ENDBRANCH  13  15
ENDBRANCH   7  11
ENDBRANCH   3   6
ENDBRANCH   1   2
BRANCH   1  23
ATOM     23  C   UNL A   1      31.947  27.654  26.370  1.00  0.00     0.042 C 
BRANCH  23  24
ATOM     24  C   UNL A   1      32.972  28.772  26.172  1.00  0.00     0.118 C 
BRANCH  24  25
ATOM     25  N   UNL A   1      32.618  30.103  26.652  1.00  0.00    -0.352 N 
ATOM     26  C   UNL A   1      33.316  31.094  27.306  1.00  0.00     0.251 C 
ATOM     27  H   UNL A   1      31.681  30.344  26.470  1.00  0.00     0.163 HD
ATOM     28  O   UNL A   1      32.752  32.142  27.605  1.00  0.00    -0.269 OA
BRANCH  26  29
ATOM     29  C   UNL A   1      34.725  30.922  27.691  1.00  0.00     0.039 A 
ATOM     30  C   UNL A   1      35.563  32.043  27.756  1.00  0.00     0.014 A 
ATOM     31  C   UNL A   1      35.229  29.660  27.971  1.00  0.00     0.014 A 
ATOM     32  C   UNL A   1      36.861  31.911  28.253  1.00  0.00     0.010 A 
ATOM     33  C   UNL A   1      36.471  29.545  28.571  1.00  0.00     0.010 A 
ATOM     34  C   UNL A   1      37.290  30.672  28.747  1.00  0.00    -0.014 A 
BRANCH  34  35
ATOM     35  C   UNL A   1      38.552  30.480  29.502  1.00  0.00     0.031 A 
ATOM     36  C   UNL A   1      39.569  29.507  28.977  1.00  0.00     0.074 A 
ATOM     37  C   UNL A   1      38.666  30.989  30.744  1.00  0.00     0.049 A 
ATOM     38  N   UNL A   1      40.508  28.861  29.615  1.00  0.00    -0.248 NA
ATOM     39  C   UNL A   1      39.454  29.158  27.552  1.00  0.00     0.031 C 
ATOM     40  C   UNL A   1      37.718  31.905  31.382  1.00  0.00     0.029 A 
ATOM     41  N   UNL A   1      39.606  30.756  31.719  1.00  0.00    -0.354 N 
ATOM     42  C   UNL A   1      41.040  27.971  28.692  1.00  0.00     0.074 A 
ATOM     43  C   UNL A   1      40.307  28.149  27.456  1.00  0.00     0.031 C 
ATOM     44  C   UNL A   1      38.120  32.152  32.640  1.00  0.00     0.029 A 
ATOM     45  C   UNL A   1      39.314  31.365  32.916  1.00  0.00     0.049 A 
ATOM     46  H   UNL A   1      40.410  30.209  31.573  1.00  0.00     0.167 HD
ATOM     47  C   UNL A   1      42.051  27.087  28.868  1.00  0.00     0.037 A 
ATOM     48  C   UNL A   1      39.920  31.266  34.114  1.00  0.00     0.037 A 
ATOM     49  C   UNL A   1      42.820  26.988  30.080  1.00  0.00     0.049 A 
ATOM     50  C   UNL A   1      41.104  30.351  34.254  1.00  0.00     0.074 A 
ATOM     51  C   UNL A   1      43.928  26.202  30.339  1.00  0.00     0.029 A 
ATOM     52  N   UNL A   1      42.568  27.721  31.232  1.00  0.00    -0.354 N 
ATOM     53  N   UNL A   1      41.621  29.531  33.372  1.00  0.00    -0.248 NA
ATOM     54  C   UNL A   1      41.788  30.346  35.554  1.00  0.00     0.031 C 
ATOM     55  C   UNL A   1      44.338  26.448  31.654  1.00  0.00     0.029 A 
ATOM     56  C   UNL A   1      43.504  27.411  32.202  1.00  0.00     0.049 A 
ATOM     57  H   UNL A   1      41.833  28.367  31.341  1.00  0.00     0.167 HD
ATOM     58  C   UNL A   1      42.706  28.932  33.997  1.00  0.00     0.074 A 
ATOM     59  C   UNL A   1      42.777  29.490  35.333  1.00  0.00     0.031 C 
ATOM     60  C   UNL A   1      43.563  28.003  33.514  1.00  0.00     0.037 A 
BRANCH  47  61
ATOM     61  C   UNL A   1      42.385  26.168  27.729  1.00  0.00     0.064 A 
ATOM     62  C   UNL A   1      41.700  24.961  27.528  1.00  0.00     0.173 A 
ATOM     63  C   UNL A   1      43.387  26.514  26.809  1.00  0.00     0.173 A 
ATOM     64  F   UNL A   1      40.742  24.577  28.386  1.00  0.00    -0.203 F 
ATOM     65  C   UNL A   1      42.029  24.117  26.469  1.00  0.00     0.198 A 
ATOM     66  C   UNL A   1      43.691  25.684  25.733  1.00  0.00     0.198 A 
ATOM     67  F   UNL A   1      44.071  27.660  26.951  1.00  0.00    -0.203 F 
ATOM     68  F   UNL A   1      41.399  22.943  26.331  1.00  0.00    -0.200 F 
ATOM     69  C   UNL A   1      43.019  24.482  25.569  1.00  0.00     0.200 A 
ATOM     70  F   UNL A   1      44.640  26.044  24.858  1.00  0.00    -0.200 F 
ATOM     71  F   UNL A   1      43.330  23.672  24.549  1.00  0.00    -0.200 F 
ENDBRANCH  47  61
BRANCH  48  72
ATOM     72  C   UNL A   1      39.427  32.065  35.264  1.00  0.00     0.064 A 
ATOM     73  C   UNL A   1      38.592  31.484  36.227  1.00  0.00     0.173 A 
ATOM     74  C   UNL A   1      39.787  33.410  35.438  1.00  0.00     0.173 A 
ATOM     75  F   UNL A   1      38.209  30.206  36.094  1.00  0.00    -0.203 F 
ATOM     76  C   UNL A   1      38.118  32.220  37.311  1.00  0.00     0.198 A 
ATOM     77  C   UNL A   1      39.332  34.139  36.536  1.00  0.00     0.198 A 
ATOM     78  F   UNL A   1      40.593  34.011  34.551  1.00  0.00    -0.203 F 
ATOM     79  F   UNL A   1      37.288  31.649  38.194  1.00  0.00    -0.200 F 
ATOM     80  C   UNL A   1      38.493  33.546  37.466  1.00  0.00     0.200 A 
ATOM     81  F   UNL A   1      39.708  35.415  36.692  1.00  0.00    -0.200 F 
ATOM     82  F   UNL A   1      38.040  34.252  38.511  1.00  0.00    -0.200 F 
ENDBRANCH  48  72
BRANCH  60  83
ATOM     83  C   UNL A   1      44.681  27.570  34.412  1.00  0.00     0.064 A 
ATOM     84  C   UNL A   1      45.904  28.251  34.440  1.00  0.00     0.173 A 
ATOM     85  C   UNL A   1      44.498  26.495  35.294  1.00  0.00     0.173 A 
ATOM     86  F   UNL A   1      46.127  29.274  33.601  1.00  0.00    -0.203 F 
ATOM     87  C   UNL A   1      46.914  27.864  35.316  1.00  0.00     0.198 A 
ATOM     88  C   UNL A   1      45.502  26.125  36.184  1.00  0.00     0.198 A 
ATOM     89  F   UNL A   1      43.342  25.816  35.304  1.00  0.00    -0.203 F 
ATOM     90  F   UNL A   1      48.089  28.508  35.307  1.00  0.00    -0.200 F 
ATOM     91  C   UNL A   1      46.709  26.807  36.192  1.00  0.00     0.200 A 
ATOM     92  F   UNL A   1      45.299  25.112  37.037  1.00  0.00    -0.200 F 
ATOM     93  F   UNL A   1      47.679  26.443  37.042  1.00  0.00    -0.200 F 
ENDBRANCH  60  83
ENDBRANCH  34  35
ENDBRANCH  26  29
ENDBRANCH  24  25
ENDBRANCH  23  24
ENDBRANCH   1  23
TORSDOF 14
ENDMDL
MODEL 2
REMARK VINA RESULT:     -12.7      0.495      2.023
REMARK SMILES O=C(CCc1cccnc1)Nc1ccsc1C(=O)NCCCNC(=O)c1ccc(-c2c3nc(c(-c4c(F)c(F)c(F)c(F)c4F)c4ccc([nH]4)c(-c4c(F)c(F)c(F)c(F)c4F)c4nc(c(-c5c(F)c(F)c(F)c(F)c5F)c5ccc2[nH]5)C=C4)C=C3)cc1
REMARK SMILES IDX 20 1 19 2 17 3 18 4 16 6 12 7 13 8 14 9 15 10 11 11 1 12
REMARK SMILES IDX 2 13 3 15 4 16 5 17 6 18 10 19 7 20 9 21 8 22 21 23 22 24
REMARK SMILES IDX 23 25 24 26 25 28 26 29 27 30 88 31 28 32 87 33 29 34 30 35
REMARK SMILES IDX 31 36 81 37 32 38 86 39 80 40 82 41 33 42 85 43 79 44 78 45
REMARK SMILES IDX 34 47 66 48 46 49 65 50 47 51 50 52 64 53 83 54 48 55 49 56
REMARK SMILES IDX 63 58 84 59 51 60 35 61 36 62 44 63 37 64 38 65 42 66 45 67
REMARK SMILES IDX 39 68 40 69 43 70 41 71 67 72 68 73 76 74 69 75 70 76 74 77
REMARK SMILES IDX 77 78 71 79 72 80 75 81 73 82 52 83 53 84 61 85 54 86 55 87
REMARK SMILES IDX 59 88 62 89 56 90 57 91 60 92 58 93
REMARK H PARENT 19 5 11 14 23 27 82 46 50 57
REMARK Flexibility Score: inf
ROOT
ATOM      1  C   UNL A   1      32.416  26.571  26.381  1.00  0.00     0.118 C 
ENDROOT
BRANCH   1   2
ATOM      2  N   UNL A   1      31.451  25.524  26.643  1.00  0.00    -0.351 N 
ATOM      3  C   UNL A   1      31.290  24.320  25.979  1.00  0.00     0.263 C 
ATOM      4  O   UNL A   1      30.421  23.568  26.428  1.00  0.00    -0.268 OA
ATOM      5  H   UNL A   1      30.829  25.690  27.387  1.00  0.00     0.163 HD
BRANCH   3   6
ATOM      6  C   UNL A   1      32.085  24.019  24.799  1.00  0.00     0.115 A 
ATOM      7  C   UNL A   1      32.021  24.462  23.484  1.00  0.00     0.065 A 
ATOM      8  C   UNL A   1      32.897  23.721  22.634  1.00  0.00     0.038 A 
ATOM      9  C   UNL A   1      33.705  22.856  23.336  1.00  0.00     0.068 A 
ATOM     10  S   UNL A   1      33.347  22.864  25.002  1.00  0.00    -0.137 S 
BRANCH   7  11
ATOM     11  N   UNL A   1      31.232  25.528  23.066  1.00  0.00    -0.325 N 
ATOM     12  O   UNL A   1      32.889  27.112  22.798  1.00  0.00    -0.275 OA
ATOM     13  C   UNL A   1      31.705  26.786  22.766  1.00  0.00     0.224 C 
ATOM     14  H   UNL A   1      30.264  25.370  22.977  1.00  0.00     0.169 HD
BRANCH  13  15
ATOM     15  C   UNL A   1      30.636  27.794  22.353  1.00  0.00     0.105 C 
BRANCH  15  16
ATOM     16  C   UNL A   1      30.130  28.740  23.448  1.00  0.00     0.047 C 
BRANCH  16  17
ATOM     17  C   UNL A   1      29.435  29.976  22.934  1.00  0.00    -0.029 A 
ATOM     18  C   UNL A   1      29.129  31.065  23.756  1.00  0.00     0.007 A 
ATOM     19  C   UNL A   1      29.033  30.072  21.607  1.00  0.00     0.114 A 
ATOM     20  C   UNL A   1      28.462  32.173  23.254  1.00  0.00     0.020 A 
ATOM     21  N   UNL A   1      28.396  31.143  21.080  1.00  0.00    -0.264 NA
ATOM     22  C   UNL A   1      28.114  32.163  21.919  1.00  0.00     0.111 A 
ENDBRANCH  16  17
ENDBRANCH  15  16
ENDBRANCH  13  15
ENDBRANCH   7  11
ENDBRANCH   3   6
ENDBRANCH   1   2
BRANCH   1  23
ATOM     23  C   UNL A   1      31.946  28.008  26.587  1.00  0.00     0.042 C 
BRANCH  23  24
ATOM     24  C   UNL A   1      32.856  29.162  26.163  1.00  0.00     0.118 C 
BRANCH  24  25
ATOM     25  N   UNL A   1      32.555  30.487  26.694  1.00  0.00    -0.352 N 
ATOM     26  C   UNL A   1      33.291  31.421  27.389  1.00  0.00     0.251 C 
ATOM     27  H   UNL A   1      31.631  30.774  26.517  1.00  0.00     0.163 HD
ATOM     28  O   UNL A   1      32.770  32.480  27.726  1.00  0.00    -0.269 OA
BRANCH  26  29
ATOM     29  C   UNL A   1      34.689  31.175  27.772  1.00  0.00     0.039 A 
ATOM     30  C   UNL A   1      35.610  32.230  27.739  1.00  0.00     0.014 A 
ATOM     31  C   UNL A   1      35.102  29.905  28.149  1.00  0.00     0.014 A 
ATOM     32  C   UNL A   1      36.902  32.041  28.232  1.00  0.00     0.010 A 
ATOM     33  C   UNL A   1      36.341  29.744  28.744  1.00  0.00     0.010 A 
ATOM     34  C   UNL A   1      37.244  30.817  28.821  1.00  0.00    -0.014 A 
BRANCH  34  35
ATOM     35  C   UNL A   1      38.501  30.591  29.577  1.00  0.00     0.031 A 
ATOM     36  C   UNL A   1      39.504  29.612  29.037  1.00  0.00     0.074 A 
ATOM     37  C   UNL A   1      38.618  31.074  30.829  1.00  0.00     0.049 A 
ATOM     38  N   UNL A   1      40.430  28.940  29.667  1.00  0.00    -0.248 NA
ATOM     39  C   UNL A   1      39.389  29.292  27.606  1.00  0.00     0.031 C 
ATOM     40  C   UNL A   1      37.682  31.994  31.481  1.00  0.00     0.029 A 
ATOM     41  N   UNL A   1      39.550  30.809  31.802  1.00  0.00    -0.354 N 
ATOM     42  C   UNL A   1      40.953  28.059  28.728  1.00  0.00     0.074 A 
ATOM     43  C   UNL A   1      40.227  28.272  27.494  1.00  0.00     0.031 C 
ATOM     44  C   UNL A   1      38.082  32.211  32.744  1.00  0.00     0.029 A 
ATOM     45  C   UNL A   1      39.263  31.400  33.010  1.00  0.00     0.049 A 
ATOM     46  H   UNL A   1      40.346  30.252  31.649  1.00  0.00     0.167 HD
ATOM     47  C   UNL A   1      41.949  27.157  28.892  1.00  0.00     0.037 A 
ATOM     48  C   UNL A   1      39.862  31.269  34.207  1.00  0.00     0.037 A 
ATOM     49  C   UNL A   1      42.711  27.023  30.105  1.00  0.00     0.049 A 
ATOM     50  C   UNL A   1      41.032  30.333  34.335  1.00  0.00     0.074 A 
ATOM     51  C   UNL A   1      43.806  26.215  30.353  1.00  0.00     0.029 A 
ATOM     52  N   UNL A   1      42.466  27.738  31.269  1.00  0.00    -0.354 N 
ATOM     53  N   UNL A   1      41.539  29.522  33.439  1.00  0.00    -0.248 NA
ATOM     54  C   UNL A   1      41.710  30.293  35.637  1.00  0.00     0.031 C 
ATOM     55  C   UNL A   1      44.214  26.429  31.674  1.00  0.00     0.029 A 
ATOM     56  C   UNL A   1      43.394  27.395  32.237  1.00  0.00     0.049 A 
ATOM     57  H   UNL A   1      41.741  28.393  31.388  1.00  0.00     0.167 HD
ATOM     58  C   UNL A   1      42.612  28.895  34.057  1.00  0.00     0.074 A 
ATOM     59  C   UNL A   1      42.687  29.426  35.403  1.00  0.00     0.031 C 
ATOM     60  C   UNL A   1      43.457  27.961  33.559  1.00  0.00     0.037 A 
BRANCH  47  61
ATOM     61  C   UNL A   1      42.273  26.254  27.737  1.00  0.00     0.064 A 
ATOM     62  C   UNL A   1      43.299  26.553  26.829  1.00  0.00     0.173 A 
ATOM     63  C   UNL A   1      41.563  25.057  27.552  1.00  0.00     0.173 A 
ATOM     64  F   UNL A   1      44.000  27.691  26.953  1.00  0.00    -0.203 F 
ATOM     65  C   UNL A   1      43.580  25.707  25.759  1.00  0.00     0.198 A 
ATOM     66  C   UNL A   1      41.869  24.197  26.501  1.00  0.00     0.198 A 
ATOM     67  F   UNL A   1      40.574  24.719  28.393  1.00  0.00    -0.203 F 
ATOM     68  F   UNL A   1      44.528  26.043  24.874  1.00  0.00    -0.200 F 
ATOM     69  C   UNL A   1      42.870  24.527  25.600  1.00  0.00     0.200 A 
ATOM     70  F   UNL A   1      41.189  23.051  26.354  1.00  0.00    -0.200 F 
ATOM     71  F   UNL A   1      43.145  23.711  24.573  1.00  0.00    -0.200 F 
ENDBRANCH  47  61
BRANCH  48  72
ATOM     72  C   UNL A   1      39.377  32.054  35.371  1.00  0.00     0.064 A 
ATOM     73  C   UNL A   1      39.744  33.398  35.524  1.00  0.00     0.173 A 
ATOM     74  C   UNL A   1      38.532  31.494  36.340  1.00  0.00     0.173 A 
ATOM     75  F   UNL A   1      40.564  33.971  34.631  1.00  0.00    -0.203 F 
ATOM     76  C   UNL A   1      39.301  34.147  36.611  1.00  0.00     0.198 A 
ATOM     77  C   UNL A   1      38.069  32.252  37.415  1.00  0.00     0.198 A 
ATOM     78  F   UNL A   1      38.142  30.215  36.234  1.00  0.00    -0.203 F 
ATOM     79  F   UNL A   1      39.701  35.419  36.753  1.00  0.00    -0.200 F 
ATOM     80  C   UNL A   1      38.459  33.575  37.553  1.00  0.00     0.200 A 
ATOM     81  F   UNL A   1      37.243  31.700  38.314  1.00  0.00    -0.200 F 
ATOM     82  F   UNL A   1      38.029  34.298  38.596  1.00  0.00    -0.200 F 
ENDBRANCH  48  72
BRANCH  60  83
ATOM     83  C   UNL A   1      44.564  27.494  34.453  1.00  0.00     0.064 A 
ATOM     84  C   UNL A   1      44.428  26.352  35.253  1.00  0.00     0.173 A 
ATOM     85  C   UNL A   1      45.794  28.168  34.461  1.00  0.00     0.173 A 
ATOM     86  F   UNL A   1      43.263  25.687  35.288  1.00  0.00    -0.203 F 
ATOM     87  C   UNL A   1      45.484  25.906  36.042  1.00  0.00     0.198 A 
ATOM     88  C   UNL A   1      46.855  27.705  35.232  1.00  0.00     0.198 A 
ATOM     89  F   UNL A   1      45.970  29.263  33.708  1.00  0.00    -0.203 F 
ATOM     90  F   UNL A   1      45.325  24.830  36.823  1.00  0.00    -0.200 F 
ATOM     91  C   UNL A   1      46.699  26.578  36.024  1.00  0.00     0.200 A 
ATOM     92  F   UNL A   1      48.031  28.348  35.207  1.00  0.00    -0.200 F 
ATOM     93  F   UNL A   1      47.718  26.139  36.775  1.00  0.00    -0.200 F 
ENDBRANCH  60  83
ENDBRANCH  34  35
ENDBRANCH  26  29
ENDBRANCH  24  25
ENDBRANCH  23  24
ENDBRANCH   1  23
TORSDOF 14
ENDMDL
MODEL 3
REMARK VINA RESULT:     -12.5      2.014      3.522
REMARK SMILES O=C(CCc1cccnc1)Nc1ccsc1C(=O)NCCCNC(=O)c1ccc(-c2c3nc(c(-c4c(F)c(F)c(F)c(F)c4F)c4ccc([nH]4)c(-c4c(F)c(F)c(F)c(F)c4F)c4nc(c(-c5c(F)c(F)c(F)c(F)c5F)c5ccc2[nH]5)C=C4)C=C3)cc1
REMARK SMILES IDX 20 1 19 2 17 3 18 4 16 6 12 7 13 8 14 9 15 10 11 11 1 12
REMARK SMILES IDX 2 13 3 15 4 16 5 17 6 18 10 19 7 20 9 21 8 22 21 23 22 24
REMARK SMILES IDX 23 25 24 26 25 28 26 29 27 30 88 31 28 32 87 33 29 34 30 35
REMARK SMILES IDX 31 36 81 37 32 38 86 39 80 40 82 41 33 42 85 43 79 44 78 45
REMARK SMILES IDX 34 47 66 48 46 49 65 50 47 51 50 52 64 53 83 54 48 55 49 56
REMARK SMILES IDX 63 58 84 59 51 60 35 61 36 62 44 63 37 64 38 65 42 66 45 67
REMARK SMILES IDX 39 68 40 69 43 70 41 71 67 72 68 73 76 74 69 75 70 76 74 77
REMARK SMILES IDX 77 78 71 79 72 80 75 81 73 82 52 83 53 84 61 85 54 86 55 87
REMARK SMILES IDX 59 88 62 89 56 90 57 91 60 92 58 93
REMARK H PARENT 19 5 11 14 23 27 82 46 50 57
REMARK Flexibility Score: inf
ROOT
ATOM      1  C   UNL A   1      32.839  29.437  26.403  1.00  0.00     0.118 C 
ENDROOT
BRANCH   1   2
ATOM      2  N   UNL A   1      33.536  29.390  25.135  1.00  0.00    -0.351 N 
ATOM      3  C   UNL A   1      33.597  28.347  24.228  1.00  0.00     0.263 C 
ATOM      4  O   UNL A   1      34.220  28.572  23.187  1.00  0.00    -0.268 OA
ATOM      5  H   UNL A   1      34.029  30.204  24.887  1.00  0.00     0.163 HD
BRANCH   3   6
ATOM      6  C   UNL A   1      32.991  27.062  24.542  1.00  0.00     0.115 A 
ATOM      7  C   UNL A   1      31.671  26.656  24.693  1.00  0.00     0.065 A 
ATOM      8  C   UNL A   1      31.584  25.326  25.206  1.00  0.00     0.038 A 
ATOM      9  C   UNL A   1      32.811  24.709  25.282  1.00  0.00     0.068 A 
ATOM     10  S   UNL A   1      34.077  25.756  24.829  1.00  0.00    -0.137 S 
BRANCH   7  11
ATOM     11  N   UNL A   1      30.578  27.440  24.341  1.00  0.00    -0.325 N 
ATOM     12  O   UNL A   1      30.715  27.229  22.046  1.00  0.00    -0.275 OA
ATOM     13  C   UNL A   1      30.176  27.693  23.048  1.00  0.00     0.224 C 
ATOM     14  H   UNL A   1      30.052  27.842  25.070  1.00  0.00     0.169 HD
BRANCH  13  15
ATOM     15  C   UNL A   1      28.958  28.604  22.919  1.00  0.00     0.105 C 
BRANCH  15  16
ATOM     16  C   UNL A   1      29.141  30.056  23.376  1.00  0.00     0.047 C 
BRANCH  16  17
ATOM     17  C   UNL A   1      28.618  31.087  22.407  1.00  0.00    -0.029 A 
ATOM     18  C   UNL A   1      28.284  30.776  21.085  1.00  0.00     0.007 A 
ATOM     19  C   UNL A   1      28.475  32.416  22.783  1.00  0.00     0.114 A 
ATOM     20  C   UNL A   1      27.834  31.757  20.213  1.00  0.00     0.020 A 
ATOM     21  N   UNL A   1      28.025  33.395  21.966  1.00  0.00    -0.264 NA
ATOM     22  C   UNL A   1      27.726  33.045  20.696  1.00  0.00     0.111 A 
ENDBRANCH  16  17
ENDBRANCH  15  16
ENDBRANCH  13  15
ENDBRANCH   7  11
ENDBRANCH   3   6
ENDBRANCH   1   2
BRANCH   1  23
ATOM     23  C   UNL A   1      32.326  30.800  26.858  1.00  0.00     0.042 C 
BRANCH  23  24
ATOM     24  C   UNL A   1      33.331  31.883  27.256  1.00  0.00     0.118 C 
BRANCH  24  25
ATOM     25  N   UNL A   1      32.800  33.188  27.633  1.00  0.00    -0.352 N 
ATOM     26  C   UNL A   1      33.206  34.159  28.523  1.00  0.00     0.251 C 
ATOM     27  H   UNL A   1      31.977  33.427  27.149  1.00  0.00     0.163 HD
ATOM     28  O   UNL A   1      32.548  35.187  28.647  1.00  0.00    -0.269 OA
BRANCH  26  29
ATOM     29  C   UNL A   1      34.402  33.986  29.361  1.00  0.00     0.039 A 
ATOM     30  C   UNL A   1      34.293  33.317  30.588  1.00  0.00     0.014 A 
ATOM     31  C   UNL A   1      35.627  34.496  28.954  1.00  0.00     0.014 A 
ATOM     32  C   UNL A   1      35.443  33.026  31.324  1.00  0.00     0.010 A 
ATOM     33  C   UNL A   1      36.776  34.109  29.621  1.00  0.00     0.010 A 
ATOM     34  C   UNL A   1      36.701  33.345  30.796  1.00  0.00    -0.014 A 
BRANCH  34  35
ATOM     35  C   UNL A   1      37.981  32.875  31.382  1.00  0.00     0.031 A 
ATOM     36  C   UNL A   1      38.694  31.724  30.733  1.00  0.00     0.074 A 
ATOM     37  C   UNL A   1      38.357  33.319  32.597  1.00  0.00     0.049 A 
ATOM     38  N   UNL A   1      39.550  30.881  31.246  1.00  0.00    -0.248 NA
ATOM     39  C   UNL A   1      38.327  31.440  29.336  1.00  0.00     0.031 C 
ATOM     40  C   UNL A   1      37.712  34.398  33.349  1.00  0.00     0.029 A 
ATOM     41  N   UNL A   1      39.344  32.873  33.442  1.00  0.00    -0.354 N 
ATOM     42  C   UNL A   1      39.761  29.921  30.265  1.00  0.00     0.074 A 
ATOM     43  C   UNL A   1      38.930  30.277  29.135  1.00  0.00     0.031 C 
ATOM     44  C   UNL A   1      38.314  34.526  34.542  1.00  0.00     0.029 A 
ATOM     45  C   UNL A   1      39.341  33.501  34.665  1.00  0.00     0.049 A 
ATOM     46  H   UNL A   1      39.989  32.173  33.195  1.00  0.00     0.167 HD
ATOM     47  C   UNL A   1      40.578  28.842  30.312  1.00  0.00     0.037 A 
ATOM     48  C   UNL A   1      40.060  33.249  35.774  1.00  0.00     0.037 A 
ATOM     49  C   UNL A   1      41.457  28.556  31.415  1.00  0.00     0.049 A 
ATOM     50  C   UNL A   1      41.034  32.103  35.763  1.00  0.00     0.074 A 
ATOM     51  C   UNL A   1      42.398  27.549  31.531  1.00  0.00     0.029 A 
ATOM     52  N   UNL A   1      41.513  29.297  32.587  1.00  0.00    -0.354 N 
ATOM     53  N   UNL A   1      41.250  31.215  34.824  1.00  0.00    -0.248 NA
ATOM     54  C   UNL A   1      41.862  31.925  36.963  1.00  0.00     0.031 C 
ATOM     55  C   UNL A   1      43.015  27.673  32.781  1.00  0.00     0.029 A 
ATOM     56  C   UNL A   1      42.479  28.776  33.428  1.00  0.00     0.049 A 
ATOM     57  H   UNL A   1      40.951  30.080  32.788  1.00  0.00     0.167 HD
ATOM     58  C   UNL A   1      42.255  30.388  35.306  1.00  0.00     0.074 A 
ATOM     59  C   UNL A   1      42.612  30.887  36.619  1.00  0.00     0.031 C 
ATOM     60  C   UNL A   1      42.829  29.311  34.719  1.00  0.00     0.037 A 
BRANCH  47  61
ATOM     61  C   UNL A   1      40.562  27.900  29.144  1.00  0.00     0.064 A 
ATOM     62  C   UNL A   1      41.414  28.074  28.043  1.00  0.00     0.173 A 
ATOM     63  C   UNL A   1      39.701  26.792  29.137  1.00  0.00     0.173 A 
ATOM     64  F   UNL A   1      42.247  29.124  27.993  1.00  0.00    -0.203 F 
ATOM     65  C   UNL A   1      41.380  27.193  26.964  1.00  0.00     0.198 A 
ATOM     66  C   UNL A   1      39.693  25.895  28.072  1.00  0.00     0.198 A 
ATOM     67  F   UNL A   1      38.868  26.575  30.166  1.00  0.00    -0.203 F 
ATOM     68  F   UNL A   1      42.163  27.412  25.899  1.00  0.00    -0.200 F 
ATOM     69  C   UNL A   1      40.525  26.102  26.982  1.00  0.00     0.200 A 
ATOM     70  F   UNL A   1      38.874  24.834  28.096  1.00  0.00    -0.200 F 
ATOM     71  F   UNL A   1      40.498  25.253  25.946  1.00  0.00    -0.200 F 
ENDBRANCH  47  61
BRANCH  48  72
ATOM     72  C   UNL A   1      39.898  34.106  36.976  1.00  0.00     0.064 A 
ATOM     73  C   UNL A   1      40.607  35.309  37.092  1.00  0.00     0.173 A 
ATOM     74  C   UNL A   1      39.027  33.759  38.018  1.00  0.00     0.173 A 
ATOM     75  F   UNL A   1      41.464  35.674  36.127  1.00  0.00    -0.203 F 
ATOM     76  C   UNL A   1      40.470  36.123  38.214  1.00  0.00     0.198 A 
ATOM     77  C   UNL A   1      38.870  34.586  39.130  1.00  0.00     0.198 A 
ATOM     78  F   UNL A   1      38.315  32.624  37.951  1.00  0.00    -0.203 F 
ATOM     79  F   UNL A   1      41.192  37.247  38.316  1.00  0.00    -0.200 F 
ATOM     80  C   UNL A   1      39.597  35.763  39.229  1.00  0.00     0.200 A 
ATOM     81  F   UNL A   1      38.015  34.244  40.102  1.00  0.00    -0.200 F 
ATOM     82  F   UNL A   1      39.460  36.549  40.306  1.00  0.00    -0.200 F 
ENDBRANCH  48  72
BRANCH  60  83
ATOM     83  C   UNL A   1      43.935  28.633  35.466  1.00  0.00     0.064 A 
ATOM     84  C   UNL A   1      43.678  27.609  36.386  1.00  0.00     0.173 A 
ATOM     85  C   UNL A   1      45.271  28.977  35.210  1.00  0.00     0.173 A 
ATOM     86  F   UNL A   1      42.415  27.260  36.673  1.00  0.00    -0.203 F 
ATOM     87  C   UNL A   1      44.723  26.958  37.036  1.00  0.00     0.198 A 
ATOM     88  C   UNL A   1      46.313  28.308  35.844  1.00  0.00     0.198 A 
ATOM     89  F   UNL A   1      45.564  29.949  34.334  1.00  0.00    -0.203 F 
ATOM     90  F   UNL A   1      44.456  26.002  37.936  1.00  0.00    -0.200 F 
ATOM     91  C   UNL A   1      46.038  27.302  36.759  1.00  0.00     0.200 A 
ATOM     92  F   UNL A   1      47.583  28.634  35.568  1.00  0.00    -0.200 F 
ATOM     93  F   UNL A   1      47.043  26.665  37.377  1.00  0.00    -0.200 F 
ENDBRANCH  60  83
ENDBRANCH  34  35
ENDBRANCH  26  29
ENDBRANCH  24  25
ENDBRANCH  23  24
ENDBRANCH   1  23
TORSDOF 14
ENDMDL
