MODEL 1
REMARK VINA RESULT:     -14.2      0.000      0.000
REMARK SMILES COc1ccc2c(c1)c(CC(=O)NCCCNC(=O)c1ccc(-c3c4nc(c(-c5c(F)c(F)c(F)c(F)c5F)c5ccc([nH]5)c(-c5c(F)c(F)c(F)c(F)c5F)c5nc(c(-c6c(F)c(F)c(F)c(F)c6F)c6ccc3[nH]6)C=C5)C=C4)cc1)c(C)n2C(=O)c1ccc(Cl)cc1
REMARK SMILES IDX 14 1 13 2 11 3 12 4 10 6 9 7 3 8 4 9 8 10 5 11 7 12 6 13
REMARK SMILES IDX 85 14 83 15 84 16 2 17 1 18 86 19 87 20 88 21 89 22 94 23
REMARK SMILES IDX 90 24 93 25 91 26 92 27 15 28 16 29 17 30 18 31 19 33 20 34
REMARK SMILES IDX 21 35 82 36 22 37 81 38 23 39 24 40 25 41 75 42 26 43 80 44
REMARK SMILES IDX 74 45 76 46 27 47 79 48 73 49 72 50 28 52 60 53 40 54 59 55
REMARK SMILES IDX 41 56 44 57 58 58 77 59 42 60 43 61 57 63 78 64 45 65 29 66
REMARK SMILES IDX 30 67 38 68 31 69 32 70 36 71 39 72 33 73 34 74 37 75 35 76
REMARK SMILES IDX 61 77 62 78 70 79 63 80 64 81 68 82 71 83 65 84 66 85 69 86
REMARK SMILES IDX 67 87 46 88 47 89 55 90 48 91 49 92 53 93 56 94 50 95 51 96
REMARK SMILES IDX 54 97 52 98
REMARK H PARENT 13 5 17 32 76 51 44 62
REMARK Flexibility Score: inf
ROOT
ATOM      1  C   UNL A   1      31.769  28.415  26.635  1.00  0.00     0.117 C 
ENDROOT
BRANCH   1   2
ATOM      2  N   UNL A   1      32.560  28.096  25.462  1.00  0.00    -0.356 N 
ATOM      3  C   UNL A   1      33.018  26.886  25.029  1.00  0.00     0.224 C 
ATOM      4  O   UNL A   1      33.681  26.857  23.989  1.00  0.00    -0.275 OA
ATOM      5  H   UNL A   1      32.803  28.865  24.897  1.00  0.00     0.163 HD
BRANCH   3   6
ATOM      6  C   UNL A   1      32.666  25.613  25.780  1.00  0.00     0.138 C 
BRANCH   6   7
ATOM      7  C   UNL A   1      33.097  24.359  25.074  1.00  0.00    -0.009 A 
ATOM      8  C   UNL A   1      36.800  23.511  25.436  1.00  0.00     0.119 A 
ATOM      9  C   UNL A   1      36.783  22.395  24.615  1.00  0.00     0.048 A 
ATOM     10  C   UNL A   1      35.621  24.213  25.681  1.00  0.00     0.057 A 
ATOM     11  C   UNL A   1      35.598  21.985  23.998  1.00  0.00     0.031 A 
ATOM     12  C   UNL A   1      34.409  23.809  25.076  1.00  0.00     0.008 A 
ATOM     13  C   UNL A   1      34.395  22.673  24.260  1.00  0.00     0.057 A 
ATOM     14  N   UNL A   1      33.062  22.438  23.870  1.00  0.00    -0.280 N 
ATOM     15  C   UNL A   1      32.321  23.572  24.232  1.00  0.00     0.028 A 
ATOM     16  C   UNL A   1      30.919  23.854  23.786  1.00  0.00     0.065 C 
BRANCH   8  17
ATOM     17  O   UNL A   1      37.927  23.966  26.065  1.00  0.00    -0.497 OA
ATOM     18  C   UNL A   1      38.888  22.943  26.317  1.00  0.00     0.278 C 
ENDBRANCH   8  17
BRANCH  14  19
ATOM     19  C   UNL A   1      32.559  21.262  23.243  1.00  0.00     0.262 C 
ATOM     20  O   UNL A   1      32.075  21.344  22.110  1.00  0.00    -0.268 OA
BRANCH  19  21
ATOM     21  C   UNL A   1      32.537  19.919  23.841  1.00  0.00     0.040 A 
ATOM     22  C   UNL A   1      32.639  19.756  25.227  1.00  0.00     0.015 A 
ATOM     23  C   UNL A   1      32.450  18.810  22.992  1.00  0.00     0.015 A 
ATOM     24  C   UNL A   1      32.750  18.467  25.756  1.00  0.00     0.021 A 
ATOM     25  C   UNL A   1      32.550  17.525  23.528  1.00  0.00     0.021 A 
ATOM     26  C   UNL A   1      32.720  17.361  24.903  1.00  0.00     0.041 A 
ATOM     27  Cl  UNL A   1      32.923  15.781  25.552  1.00  0.00    -0.084 Cl
ENDBRANCH  19  21
ENDBRANCH  14  19
ENDBRANCH   6   7
ENDBRANCH   3   6
ENDBRANCH   1   2
BRANCH   1  28
ATOM     28  C   UNL A   1      31.934  29.871  27.075  1.00  0.00     0.042 C 
BRANCH  28  29
ATOM     29  C   UNL A   1      33.379  30.366  27.001  1.00  0.00     0.118 C 
BRANCH  29  30
ATOM     30  N   UNL A   1      33.733  31.281  28.069  1.00  0.00    -0.352 N 
ATOM     31  C   UNL A   1      34.879  31.637  28.714  1.00  0.00     0.251 C 
ATOM     32  H   UNL A   1      32.948  31.765  28.416  1.00  0.00     0.163 HD
ATOM     33  O   UNL A   1      34.769  32.544  29.544  1.00  0.00    -0.269 OA
BRANCH  31  34
ATOM     34  C   UNL A   1      36.204  30.981  28.555  1.00  0.00     0.039 A 
ATOM     35  C   UNL A   1      36.426  29.706  28.036  1.00  0.00     0.014 A 
ATOM     36  C   UNL A   1      37.301  31.699  29.075  1.00  0.00     0.014 A 
ATOM     37  C   UNL A   1      37.676  29.110  28.166  1.00  0.00     0.010 A 
ATOM     38  C   UNL A   1      38.553  31.116  29.191  1.00  0.00     0.010 A 
ATOM     39  C   UNL A   1      38.716  29.792  28.804  1.00  0.00    -0.014 A 
BRANCH  39  40
ATOM     40  C   UNL A   1      39.966  29.079  29.032  1.00  0.00     0.031 A 
ATOM     41  C   UNL A   1      40.314  28.847  30.463  1.00  0.00     0.074 A 
ATOM     42  C   UNL A   1      40.727  28.603  28.024  1.00  0.00     0.049 A 
ATOM     43  N   UNL A   1      41.345  29.278  31.116  1.00  0.00    -0.248 NA
ATOM     44  C   UNL A   1      39.336  28.130  31.296  1.00  0.00     0.031 C 
ATOM     45  C   UNL A   1      40.410  28.515  26.596  1.00  0.00     0.029 A 
ATOM     46  N   UNL A   1      41.951  28.012  28.094  1.00  0.00    -0.354 N 
ATOM     47  C   UNL A   1      41.229  28.767  32.407  1.00  0.00     0.074 A 
ATOM     48  C   UNL A   1      39.923  28.167  32.493  1.00  0.00     0.031 C 
ATOM     49  C   UNL A   1      41.304  27.703  25.986  1.00  0.00     0.029 A 
ATOM     50  C   UNL A   1      42.334  27.337  26.942  1.00  0.00     0.049 A 
ATOM     51  H   UNL A   1      42.520  28.059  28.897  1.00  0.00     0.167 HD
ATOM     52  C   UNL A   1      42.287  28.724  33.264  1.00  0.00     0.037 A 
ATOM     53  C   UNL A   1      43.385  26.488  26.824  1.00  0.00     0.037 A 
ATOM     54  C   UNL A   1      43.333  29.626  32.862  1.00  0.00     0.049 A 
ATOM     55  C   UNL A   1      44.316  26.772  27.946  1.00  0.00     0.074 A 
ATOM     56  C   UNL A   1      43.428  30.998  32.730  1.00  0.00     0.029 A 
ATOM     57  N   UNL A   1      44.410  29.118  32.182  1.00  0.00    -0.354 N 
ATOM     58  N   UNL A   1      45.015  27.868  28.050  1.00  0.00    -0.248 NA
ATOM     59  C   UNL A   1      44.114  26.036  29.187  1.00  0.00     0.031 C 
ATOM     60  C   UNL A   1      44.233  31.201  31.572  1.00  0.00     0.029 A 
ATOM     61  C   UNL A   1      44.627  29.945  31.109  1.00  0.00     0.049 A 
ATOM     62  H   UNL A   1      44.928  28.314  32.417  1.00  0.00     0.167 HD
ATOM     63  C   UNL A   1      44.971  28.184  29.398  1.00  0.00     0.074 A 
ATOM     64  C   UNL A   1      44.463  26.985  30.060  1.00  0.00     0.031 C 
ATOM     65  C   UNL A   1      45.079  29.477  29.823  1.00  0.00     0.037 A 
BRANCH  52  66
ATOM     66  C   UNL A   1      42.509  27.645  34.291  1.00  0.00     0.064 A 
ATOM     67  C   UNL A   1      43.110  26.428  33.909  1.00  0.00     0.173 A 
ATOM     68  C   UNL A   1      41.885  27.646  35.557  1.00  0.00     0.173 A 
ATOM     69  F   UNL A   1      43.713  26.307  32.717  1.00  0.00    -0.203 F 
ATOM     70  C   UNL A   1      43.029  25.283  34.708  1.00  0.00     0.198 A 
ATOM     71  C   UNL A   1      41.850  26.517  36.372  1.00  0.00     0.198 A 
ATOM     72  F   UNL A   1      41.190  28.700  36.002  1.00  0.00    -0.203 F 
ATOM     73  F   UNL A   1      43.512  24.119  34.253  1.00  0.00    -0.200 F 
ATOM     74  C   UNL A   1      42.394  25.327  35.935  1.00  0.00     0.200 A 
ATOM     75  F   UNL A   1      41.213  26.574  37.550  1.00  0.00    -0.200 F 
ATOM     76  F   UNL A   1      42.263  24.218  36.674  1.00  0.00    -0.200 F 
ENDBRANCH  52  66
BRANCH  53  77
ATOM     77  C   UNL A   1      43.452  25.217  26.062  1.00  0.00     0.064 A 
ATOM     78  C   UNL A   1      44.505  24.968  25.164  1.00  0.00     0.173 A 
ATOM     79  C   UNL A   1      42.664  24.107  26.425  1.00  0.00     0.173 A 
ATOM     80  F   UNL A   1      45.329  25.962  24.799  1.00  0.00    -0.203 F 
ATOM     81  C   UNL A   1      44.776  23.680  24.690  1.00  0.00     0.198 A 
ATOM     82  C   UNL A   1      42.934  22.823  25.947  1.00  0.00     0.198 A 
ATOM     83  F   UNL A   1      41.684  24.227  27.331  1.00  0.00    -0.203 F 
ATOM     84  F   UNL A   1      45.832  23.469  23.891  1.00  0.00    -0.200 F 
ATOM     85  C   UNL A   1      43.999  22.607  25.094  1.00  0.00     0.200 A 
ATOM     86  F   UNL A   1      42.198  21.788  26.377  1.00  0.00    -0.200 F 
ATOM     87  F   UNL A   1      44.301  21.362  24.698  1.00  0.00    -0.200 F 
ENDBRANCH  53  77
BRANCH  65  88
ATOM     88  C   UNL A   1      45.466  30.519  28.811  1.00  0.00     0.064 A 
ATOM     89  C   UNL A   1      44.552  31.162  27.958  1.00  0.00     0.173 A 
ATOM     90  C   UNL A   1      46.788  30.982  28.804  1.00  0.00     0.173 A 
ATOM     91  F   UNL A   1      43.250  30.852  27.983  1.00  0.00    -0.203 F 
ATOM     92  C   UNL A   1      44.957  32.185  27.101  1.00  0.00     0.198 A 
ATOM     93  C   UNL A   1      47.182  32.029  27.975  1.00  0.00     0.198 A 
ATOM     94  F   UNL A   1      47.693  30.446  29.639  1.00  0.00    -0.203 F 
ATOM     95  F   UNL A   1      44.069  32.770  26.284  1.00  0.00    -0.200 F 
ATOM     96  C   UNL A   1      46.271  32.621  27.116  1.00  0.00     0.200 A 
ATOM     97  F   UNL A   1      48.442  32.482  28.030  1.00  0.00    -0.200 F 
ATOM     98  F   UNL A   1      46.655  33.629  26.321  1.00  0.00    -0.200 F 
ENDBRANCH  65  88
ENDBRANCH  39  40
ENDBRANCH  31  34
ENDBRANCH  29  30
ENDBRANCH  28  29
ENDBRANCH   1  28
TORSDOF 14
ENDMDL
MODEL 2
REMARK VINA RESULT:     -13.9      3.021      8.532
REMARK SMILES COc1ccc2c(c1)c(CC(=O)NCCCNC(=O)c1ccc(-c3c4nc(c(-c5c(F)c(F)c(F)c(F)c5F)c5ccc([nH]5)c(-c5c(F)c(F)c(F)c(F)c5F)c5nc(c(-c6c(F)c(F)c(F)c(F)c6F)c6ccc3[nH]6)C=C5)C=C4)cc1)c(C)n2C(=O)c1ccc(Cl)cc1
REMARK SMILES IDX 14 1 13 2 11 3 12 4 10 6 9 7 3 8 4 9 8 10 5 11 7 12 6 13
REMARK SMILES IDX 85 14 83 15 84 16 2 17 1 18 86 19 87 20 88 21 89 22 94 23
REMARK SMILES IDX 90 24 93 25 91 26 92 27 15 28 16 29 17 30 18 31 19 33 20 34
REMARK SMILES IDX 21 35 82 36 22 37 81 38 23 39 24 40 25 41 75 42 26 43 80 44
REMARK SMILES IDX 74 45 76 46 27 47 79 48 73 49 72 50 28 52 60 53 40 54 59 55
REMARK SMILES IDX 41 56 44 57 58 58 77 59 42 60 43 61 57 63 78 64 45 65 29 66
REMARK SMILES IDX 30 67 38 68 31 69 32 70 36 71 39 72 33 73 34 74 37 75 35 76
REMARK SMILES IDX 61 77 62 78 70 79 63 80 64 81 68 82 71 83 65 84 66 85 69 86
REMARK SMILES IDX 67 87 46 88 47 89 55 90 48 91 49 92 53 93 56 94 50 95 51 96
REMARK SMILES IDX 54 97 52 98
REMARK H PARENT 13 5 17 32 76 51 44 62
REMARK Flexibility Score: inf
ROOT
ATOM      1  C   UNL A   1      38.920  22.482  26.497  1.00  0.00     0.117 C 
ENDROOT
BRANCH   1   2
ATOM      2  N   UNL A   1      38.335  22.979  25.265  1.00  0.00    -0.356 N 
ATOM      3  C   UNL A   1      37.043  23.326  24.999  1.00  0.00     0.224 C 
ATOM      4  O   UNL A   1      36.775  23.727  23.864  1.00  0.00    -0.275 OA
ATOM      5  H   UNL A   1      38.962  23.079  24.513  1.00  0.00     0.163 HD
BRANCH   3   6
ATOM      6  C   UNL A   1      35.987  23.271  26.090  1.00  0.00     0.138 C 
BRANCH   6   7
ATOM      7  C   UNL A   1      34.707  22.614  25.657  1.00  0.00    -0.009 A 
ATOM      8  C   UNL A   1      31.550  24.636  26.370  1.00  0.00     0.119 A 
ATOM      9  C   UNL A   1      30.653  23.684  25.914  1.00  0.00     0.048 A 
ATOM     10  C   UNL A   1      32.921  24.391  26.296  1.00  0.00     0.057 A 
ATOM     11  C   UNL A   1      31.107  22.462  25.411  1.00  0.00     0.031 A 
ATOM     12  C   UNL A   1      33.403  23.166  25.781  1.00  0.00     0.008 A 
ATOM     13  C   UNL A   1      32.492  22.215  25.308  1.00  0.00     0.057 A 
ATOM     14  N   UNL A   1      33.228  21.144  24.767  1.00  0.00    -0.280 N 
ATOM     15  C   UNL A   1      34.565  21.329  25.148  1.00  0.00     0.028 A 
ATOM     16  C   UNL A   1      35.645  20.301  25.001  1.00  0.00     0.065 C 
BRANCH   8  17
ATOM     17  O   UNL A   1      31.171  25.849  26.876  1.00  0.00    -0.497 OA
ATOM     18  C   UNL A   1      31.584  26.952  26.071  1.00  0.00     0.278 C 
ENDBRANCH   8  17
BRANCH  14  19
ATOM     19  C   UNL A   1      32.715  20.082  23.967  1.00  0.00     0.262 C 
ATOM     20  O   UNL A   1      32.153  20.349  22.901  1.00  0.00    -0.268 OA
BRANCH  19  21
ATOM     21  C   UNL A   1      32.768  18.654  24.310  1.00  0.00     0.040 A 
ATOM     22  C   UNL A   1      32.526  18.227  25.621  1.00  0.00     0.015 A 
ATOM     23  C   UNL A   1      33.103  17.737  23.307  1.00  0.00     0.015 A 
ATOM     24  C   UNL A   1      32.714  16.882  25.946  1.00  0.00     0.021 A 
ATOM     25  C   UNL A   1      33.277  16.392  23.637  1.00  0.00     0.021 A 
ATOM     26  C   UNL A   1      33.103  15.975  24.957  1.00  0.00     0.041 A 
ATOM     27  Cl  UNL A   1      33.397  14.333  25.376  1.00  0.00    -0.084 Cl
ENDBRANCH  19  21
ENDBRANCH  14  19
ENDBRANCH   6   7
ENDBRANCH   3   6
ENDBRANCH   1   2
BRANCH   1  28
ATOM     28  C   UNL A   1      39.770  21.230  26.278  1.00  0.00     0.042 C 
BRANCH  28  29
ATOM     29  C   UNL A   1      41.209  21.379  26.774  1.00  0.00     0.118 C 
BRANCH  29  30
ATOM     30  N   UNL A   1      42.074  22.077  25.841  1.00  0.00    -0.352 N 
ATOM     31  C   UNL A   1      42.480  23.365  25.658  1.00  0.00     0.251 C 
ATOM     32  H   UNL A   1      42.464  21.467  25.173  1.00  0.00     0.163 HD
ATOM     33  O   UNL A   1      43.314  23.543  24.766  1.00  0.00    -0.269 OA
BRANCH  31  34
ATOM     34  C   UNL A   1      41.953  24.552  26.380  1.00  0.00     0.039 A 
ATOM     35  C   UNL A   1      41.175  25.567  25.824  1.00  0.00     0.014 A 
ATOM     36  C   UNL A   1      42.378  24.684  27.718  1.00  0.00     0.014 A 
ATOM     37  C   UNL A   1      40.952  26.742  26.533  1.00  0.00     0.010 A 
ATOM     38  C   UNL A   1      42.143  25.846  28.437  1.00  0.00     0.010 A 
ATOM     39  C   UNL A   1      41.495  26.903  27.812  1.00  0.00    -0.014 A 
BRANCH  39  40
ATOM     40  C   UNL A   1      41.344  28.199  28.462  1.00  0.00     0.031 A 
ATOM     41  C   UNL A   1      42.434  29.178  28.188  1.00  0.00     0.074 A 
ATOM     42  C   UNL A   1      40.266  28.518  29.209  1.00  0.00     0.049 A 
ATOM     43  N   UNL A   1      43.252  29.722  29.030  1.00  0.00    -0.248 NA
ATOM     44  C   UNL A   1      42.713  29.513  26.782  1.00  0.00     0.031 C 
ATOM     45  C   UNL A   1      39.007  27.785  29.365  1.00  0.00     0.029 A 
ATOM     46  N   UNL A   1      40.048  29.643  29.943  1.00  0.00    -0.354 N 
ATOM     47  C   UNL A   1      44.058  30.584  28.289  1.00  0.00     0.074 A 
ATOM     48  C   UNL A   1      43.760  30.331  26.903  1.00  0.00     0.031 C 
ATOM     49  C   UNL A   1      38.087  28.590  29.944  1.00  0.00     0.029 A 
ATOM     50  C   UNL A   1      38.729  29.834  30.331  1.00  0.00     0.049 A 
ATOM     51  H   UNL A   1      40.769  30.272  30.180  1.00  0.00     0.167 HD
ATOM     52  C   UNL A   1      44.792  31.570  28.876  1.00  0.00     0.037 A 
ATOM     53  C   UNL A   1      38.208  30.966  30.867  1.00  0.00     0.037 A 
ATOM     54  C   UNL A   1      44.977  31.328  30.281  1.00  0.00     0.049 A 
ATOM     55  C   UNL A   1      39.337  31.764  31.409  1.00  0.00     0.074 A 
ATOM     56  C   UNL A   1      45.611  30.345  31.017  1.00  0.00     0.029 A 
ATOM     57  N   UNL A   1      44.168  31.987  31.172  1.00  0.00    -0.354 N 
ATOM     58  N   UNL A   1      40.040  31.412  32.449  1.00  0.00    -0.248 NA
ATOM     59  C   UNL A   1      39.975  32.717  30.511  1.00  0.00     0.031 C 
ATOM     60  C   UNL A   1      44.775  30.139  32.153  1.00  0.00     0.029 A 
ATOM     61  C   UNL A   1      43.722  31.050  32.069  1.00  0.00     0.049 A 
ATOM     62  H   UNL A   1      43.950  32.948  31.169  1.00  0.00     0.167 HD
ATOM     63  C   UNL A   1      41.343  31.750  32.119  1.00  0.00     0.074 A 
ATOM     64  C   UNL A   1      41.234  32.612  30.945  1.00  0.00     0.031 C 
ATOM     65  C   UNL A   1      42.403  31.073  32.651  1.00  0.00     0.037 A 
BRANCH  52  66
ATOM     66  C   UNL A   1      45.080  32.909  28.247  1.00  0.00     0.064 A 
ATOM     67  C   UNL A   1      44.032  33.833  28.059  1.00  0.00     0.173 A 
ATOM     68  C   UNL A   1      46.276  33.193  27.556  1.00  0.00     0.173 A 
ATOM     69  F   UNL A   1      42.843  33.650  28.651  1.00  0.00    -0.203 F 
ATOM     70  C   UNL A   1      44.157  34.920  27.188  1.00  0.00     0.198 A 
ATOM     71  C   UNL A   1      46.413  34.306  26.729  1.00  0.00     0.198 A 
ATOM     72  F   UNL A   1      47.316  32.349  27.564  1.00  0.00    -0.203 F 
ATOM     73  F   UNL A   1      43.098  35.706  26.949  1.00  0.00    -0.200 F 
ATOM     74  C   UNL A   1      45.344  35.152  26.519  1.00  0.00     0.200 A 
ATOM     75  F   UNL A   1      47.566  34.502  26.073  1.00  0.00    -0.200 F 
ATOM     76  F   UNL A   1      45.446  36.156  25.640  1.00  0.00    -0.200 F 
ENDBRANCH  52  66
BRANCH  53  77
ATOM     77  C   UNL A   1      36.882  31.576  30.600  1.00  0.00     0.064 A 
ATOM     78  C   UNL A   1      35.973  31.814  31.644  1.00  0.00     0.173 A 
ATOM     79  C   UNL A   1      36.608  32.216  29.374  1.00  0.00     0.173 A 
ATOM     80  F   UNL A   1      36.183  31.277  32.856  1.00  0.00    -0.203 F 
ATOM     81  C   UNL A   1      34.878  32.671  31.484  1.00  0.00     0.198 A 
ATOM     82  C   UNL A   1      35.513  33.067  29.215  1.00  0.00     0.198 A 
ATOM     83  F   UNL A   1      37.454  32.112  28.340  1.00  0.00    -0.203 F 
ATOM     84  F   UNL A   1      34.072  32.929  32.524  1.00  0.00    -0.200 F 
ATOM     85  C   UNL A   1      34.658  33.308  30.274  1.00  0.00     0.200 A 
ATOM     86  F   UNL A   1      35.334  33.706  28.050  1.00  0.00    -0.200 F 
ATOM     87  F   UNL A   1      33.653  34.184  30.140  1.00  0.00    -0.200 F 
ENDBRANCH  53  77
BRANCH  65  88
ATOM     88  C   UNL A   1      42.129  30.103  33.766  1.00  0.00     0.064 A 
ATOM     89  C   UNL A   1      41.719  28.772  33.566  1.00  0.00     0.173 A 
ATOM     90  C   UNL A   1      42.427  30.494  35.078  1.00  0.00     0.173 A 
ATOM     91  F   UNL A   1      41.519  28.291  32.333  1.00  0.00    -0.203 F 
ATOM     92  C   UNL A   1      41.565  27.894  34.637  1.00  0.00     0.198 A 
ATOM     93  C   UNL A   1      42.310  29.603  36.141  1.00  0.00     0.198 A 
ATOM     94  F   UNL A   1      42.879  31.734  35.323  1.00  0.00    -0.203 F 
ATOM     95  F   UNL A   1      41.156  26.635  34.421  1.00  0.00    -0.200 F 
ATOM     96  C   UNL A   1      41.868  28.309  35.923  1.00  0.00     0.200 A 
ATOM     97  F   UNL A   1      42.653  29.994  37.376  1.00  0.00    -0.200 F 
ATOM     98  F   UNL A   1      41.758  27.455  36.951  1.00  0.00    -0.200 F 
ENDBRANCH  65  88
ENDBRANCH  39  40
ENDBRANCH  31  34
ENDBRANCH  29  30
ENDBRANCH  28  29
ENDBRANCH   1  28
TORSDOF 14
ENDMDL
MODEL 3
REMARK VINA RESULT:     -13.8      3.391      8.918
REMARK SMILES COc1ccc2c(c1)c(CC(=O)NCCCNC(=O)c1ccc(-c3c4nc(c(-c5c(F)c(F)c(F)c(F)c5F)c5ccc([nH]5)c(-c5c(F)c(F)c(F)c(F)c5F)c5nc(c(-c6c(F)c(F)c(F)c(F)c6F)c6ccc3[nH]6)C=C5)C=C4)cc1)c(C)n2C(=O)c1ccc(Cl)cc1
REMARK SMILES IDX 14 1 13 2 11 3 12 4 10 6 9 7 3 8 4 9 8 10 5 11 7 12 6 13
REMARK SMILES IDX 85 14 83 15 84 16 2 17 1 18 86 19 87 20 88 21 89 22 94 23
REMARK SMILES IDX 90 24 93 25 91 26 92 27 15 28 16 29 17 30 18 31 19 33 20 34
REMARK SMILES IDX 21 35 82 36 22 37 81 38 23 39 24 40 25 41 75 42 26 43 80 44
REMARK SMILES IDX 74 45 76 46 27 47 79 48 73 49 72 50 28 52 60 53 40 54 59 55
REMARK SMILES IDX 41 56 44 57 58 58 77 59 42 60 43 61 57 63 78 64 45 65 29 66
REMARK SMILES IDX 30 67 38 68 31 69 32 70 36 71 39 72 33 73 34 74 37 75 35 76
REMARK SMILES IDX 61 77 62 78 70 79 63 80 64 81 68 82 71 83 65 84 66 85 69 86
REMARK SMILES IDX 67 87 46 88 47 89 55 90 48 91 49 92 53 93 56 94 50 95 51 96
REMARK SMILES IDX 54 97 52 98
REMARK H PARENT 13 5 17 32 76 51 44 62
REMARK Flexibility Score: inf
ROOT
ATOM      1  C   UNL A   1      38.170  22.362  25.766  1.00  0.00     0.117 C 
ENDROOT
BRANCH   1   2
ATOM      2  N   UNL A   1      37.419  22.579  24.544  1.00  0.00    -0.356 N 
ATOM      3  C   UNL A   1      36.381  23.431  24.305  1.00  0.00     0.224 C 
ATOM      4  O   UNL A   1      35.892  23.443  23.173  1.00  0.00    -0.275 OA
ATOM      5  H   UNL A   1      37.699  22.030  23.775  1.00  0.00     0.163 HD
BRANCH   3   6
ATOM      6  C   UNL A   1      35.890  24.373  25.391  1.00  0.00     0.138 C 
BRANCH   6   7
ATOM      7  C   UNL A   1      34.395  24.516  25.433  1.00  0.00    -0.009 A 
ATOM      8  C   UNL A   1      32.471  21.220  25.405  1.00  0.00     0.119 A 
ATOM      9  C   UNL A   1      31.205  21.782  25.372  1.00  0.00     0.048 A 
ATOM     10  C   UNL A   1      33.596  22.042  25.461  1.00  0.00     0.057 A 
ATOM     11  C   UNL A   1      31.044  23.170  25.360  1.00  0.00     0.031 A 
ATOM     12  C   UNL A   1      33.455  23.449  25.461  1.00  0.00     0.008 A 
ATOM     13  C   UNL A   1      32.174  24.010  25.443  1.00  0.00     0.057 A 
ATOM     14  N   UNL A   1      32.313  25.408  25.546  1.00  0.00    -0.280 N 
ATOM     15  C   UNL A   1      33.672  25.701  25.362  1.00  0.00     0.028 A 
ATOM     16  C   UNL A   1      34.227  27.076  25.146  1.00  0.00     0.065 C 
BRANCH   8  17
ATOM     17  O   UNL A   1      32.698  19.871  25.415  1.00  0.00    -0.497 OA
ATOM     18  C   UNL A   1      33.915  19.497  24.772  1.00  0.00     0.278 C 
ENDBRANCH   8  17
BRANCH  14  19
ATOM     19  C   UNL A   1      31.272  26.345  25.807  1.00  0.00     0.262 C 
ATOM     20  O   UNL A   1      30.917  26.541  26.973  1.00  0.00    -0.268 OA
BRANCH  19  21
ATOM     21  C   UNL A   1      30.538  27.109  24.788  1.00  0.00     0.040 A 
ATOM     22  C   UNL A   1      30.987  28.372  24.386  1.00  0.00     0.015 A 
ATOM     23  C   UNL A   1      29.364  26.563  24.258  1.00  0.00     0.015 A 
ATOM     24  C   UNL A   1      30.200  29.131  23.516  1.00  0.00     0.021 A 
ATOM     25  C   UNL A   1      28.589  27.322  23.380  1.00  0.00     0.021 A 
ATOM     26  C   UNL A   1      28.998  28.609  23.031  1.00  0.00     0.041 A 
ATOM     27  Cl  UNL A   1      28.001  29.572  22.013  1.00  0.00    -0.084 Cl
ENDBRANCH  19  21
ENDBRANCH  14  19
ENDBRANCH   6   7
ENDBRANCH   3   6
ENDBRANCH   1   2
BRANCH   1  28
ATOM     28  C   UNL A   1      39.089  21.142  25.680  1.00  0.00     0.042 C 
BRANCH  28  29
ATOM     29  C   UNL A   1      40.386  21.301  26.476  1.00  0.00     0.118 C 
BRANCH  29  30
ATOM     30  N   UNL A   1      41.449  21.942  25.726  1.00  0.00    -0.352 N 
ATOM     31  C   UNL A   1      42.049  23.166  25.728  1.00  0.00     0.251 C 
ATOM     32  H   UNL A   1      41.833  21.344  25.044  1.00  0.00     0.163 HD
ATOM     33  O   UNL A   1      43.006  23.297  24.960  1.00  0.00    -0.269 OA
BRANCH  31  34
ATOM     34  C   UNL A   1      41.603  24.350  26.509  1.00  0.00     0.039 A 
ATOM     35  C   UNL A   1      40.615  25.257  26.125  1.00  0.00     0.014 A 
ATOM     36  C   UNL A   1      42.330  24.604  27.690  1.00  0.00     0.014 A 
ATOM     37  C   UNL A   1      40.461  26.452  26.817  1.00  0.00     0.010 A 
ATOM     38  C   UNL A   1      42.167  25.787  28.395  1.00  0.00     0.010 A 
ATOM     39  C   UNL A   1      41.284  26.742  27.910  1.00  0.00    -0.014 A 
BRANCH  39  40
ATOM     40  C   UNL A   1      41.173  28.060  28.522  1.00  0.00     0.031 A 
ATOM     41  C   UNL A   1      42.253  29.022  28.161  1.00  0.00     0.074 A 
ATOM     42  C   UNL A   1      40.134  28.412  29.309  1.00  0.00     0.049 A 
ATOM     43  N   UNL A   1      43.114  29.589  28.943  1.00  0.00    -0.248 NA
ATOM     44  C   UNL A   1      42.464  29.307  26.733  1.00  0.00     0.031 C 
ATOM     45  C   UNL A   1      38.880  27.694  29.551  1.00  0.00     0.029 A 
ATOM     46  N   UNL A   1      39.959  29.563  30.013  1.00  0.00    -0.354 N 
ATOM     47  C   UNL A   1      43.887  30.419  28.134  1.00  0.00     0.074 A 
ATOM     48  C   UNL A   1      43.521  30.121  26.774  1.00  0.00     0.031 C 
ATOM     49  C   UNL A   1      37.994  28.525  30.146  1.00  0.00     0.029 A 
ATOM     50  C   UNL A   1      38.661  29.777  30.459  1.00  0.00     0.049 A 
ATOM     51  H   UNL A   1      40.693  30.195  30.193  1.00  0.00     0.167 HD
ATOM     52  C   UNL A   1      44.654  31.420  28.651  1.00  0.00     0.037 A 
ATOM     53  C   UNL A   1      38.173  30.930  30.980  1.00  0.00     0.037 A 
ATOM     54  C   UNL A   1      44.907  31.224  30.052  1.00  0.00     0.049 A 
ATOM     55  C   UNL A   1      39.332  31.738  31.439  1.00  0.00     0.074 A 
ATOM     56  C   UNL A   1      45.571  30.262  30.790  1.00  0.00     0.029 A 
ATOM     57  N   UNL A   1      44.147  31.919  30.959  1.00  0.00    -0.354 N 
ATOM     58  N   UNL A   1      40.083  31.417  32.454  1.00  0.00    -0.248 NA
ATOM     59  C   UNL A   1      39.930  32.655  30.478  1.00  0.00     0.031 C 
ATOM     60  C   UNL A   1      44.791  30.101  31.971  1.00  0.00     0.029 A 
ATOM     61  C   UNL A   1      43.740  31.016  31.908  1.00  0.00     0.049 A 
ATOM     62  H   UNL A   1      43.934  32.880  30.933  1.00  0.00     0.167 HD
ATOM     63  C   UNL A   1      41.370  31.734  32.050  1.00  0.00     0.074 A 
ATOM     64  C   UNL A   1      41.208  32.557  30.854  1.00  0.00     0.031 C 
ATOM     65  C   UNL A   1      42.451  31.068  32.553  1.00  0.00     0.037 A 
BRANCH  52  66
ATOM     66  C   UNL A   1      44.918  32.734  27.963  1.00  0.00     0.064 A 
ATOM     67  C   UNL A   1      46.206  33.014  27.460  1.00  0.00     0.173 A 
ATOM     68  C   UNL A   1      44.043  33.836  28.046  1.00  0.00     0.173 A 
ATOM     69  F   UNL A   1      47.127  32.044  27.358  1.00  0.00    -0.203 F 
ATOM     70  C   UNL A   1      46.602  34.314  27.134  1.00  0.00     0.198 A 
ATOM     71  C   UNL A   1      44.425  35.123  27.671  1.00  0.00     0.198 A 
ATOM     72  F   UNL A   1      42.826  33.734  28.596  1.00  0.00    -0.203 F 
ATOM     73  F   UNL A   1      47.870  34.552  26.772  1.00  0.00    -0.200 F 
ATOM     74  C   UNL A   1      45.714  35.368  27.245  1.00  0.00     0.200 A 
ATOM     75  F   UNL A   1      43.556  36.134  27.805  1.00  0.00    -0.200 F 
ATOM     76  F   UNL A   1      46.109  36.622  26.990  1.00  0.00    -0.200 F 
ENDBRANCH  52  66
BRANCH  53  77
ATOM     77  C   UNL A   1      36.839  31.540  30.757  1.00  0.00     0.064 A 
ATOM     78  C   UNL A   1      35.994  31.844  31.838  1.00  0.00     0.173 A 
ATOM     79  C   UNL A   1      36.499  32.116  29.517  1.00  0.00     0.173 A 
ATOM     80  F   UNL A   1      36.270  31.371  33.063  1.00  0.00    -0.203 F 
ATOM     81  C   UNL A   1      34.899  32.704  31.696  1.00  0.00     0.198 A 
ATOM     82  C   UNL A   1      35.404  32.970  29.375  1.00  0.00     0.198 A 
ATOM     83  F   UNL A   1      37.283  31.947  28.443  1.00  0.00    -0.203 F 
ATOM     84  F   UNL A   1      34.158  33.027  32.765  1.00  0.00    -0.200 F 
ATOM     85  C   UNL A   1      34.614  33.277  30.468  1.00  0.00     0.200 A 
ATOM     86  F   UNL A   1      35.163  33.548  28.190  1.00  0.00    -0.200 F 
ATOM     87  F   UNL A   1      33.610  34.156  30.344  1.00  0.00    -0.200 F 
ENDBRANCH  53  77
BRANCH  65  88
ATOM     88  C   UNL A   1      42.227  30.139  33.712  1.00  0.00     0.064 A 
ATOM     89  C   UNL A   1      41.827  28.797  33.577  1.00  0.00     0.173 A 
ATOM     90  C   UNL A   1      42.565  30.583  34.997  1.00  0.00     0.173 A 
ATOM     91  F   UNL A   1      41.591  28.267  32.371  1.00  0.00    -0.203 F 
ATOM     92  C   UNL A   1      41.720  27.958  34.685  1.00  0.00     0.198 A 
ATOM     93  C   UNL A   1      42.495  29.732  36.097  1.00  0.00     0.198 A 
ATOM     94  F   UNL A   1      43.010  31.836  35.179  1.00  0.00    -0.203 F 
ATOM     95  F   UNL A   1      41.319  26.687  34.532  1.00  0.00    -0.200 F 
ATOM     96  C   UNL A   1      42.061  28.426  35.944  1.00  0.00     0.200 A 
ATOM     97  F   UNL A   1      42.875  30.174  37.304  1.00  0.00    -0.200 F 
ATOM     98  F   UNL A   1      41.996  27.610  37.006  1.00  0.00    -0.200 F 
ENDBRANCH  65  88
ENDBRANCH  39  40
ENDBRANCH  31  34
ENDBRANCH  29  30
ENDBRANCH  28  29
ENDBRANCH   1  28
TORSDOF 14
ENDMDL
