MODEL 1
REMARK VINA RESULT:     -11.3      0.000      0.000
REMARK SMILES CN(C)c1ccc(C(=O)N[C@@H](CO)C(=O)NCCCNC(=O)c2ccc(-c3c4nc(c(-c5c(F)c(F)c(F)c(F)c5F)c5ccc([nH]5)c(-c5c(F)c(F)c(F)c(F)c5F)c5nc(c(-c6c(F)c(F)c(F)c(F)c6F)c6ccc3[nH]6)C=C5)C=C4)cc2)cn1
REMARK SMILES IDX 17 1 16 2 14 3 15 4 11 6 10 7 8 8 9 9 7 11 4 12 5 13 87 14
REMARK SMILES IDX 6 15 86 16 2 17 1 18 3 19 12 20 13 21 18 23 19 24 20 25
REMARK SMILES IDX 21 26 22 28 23 29 24 30 85 31 25 32 84 33 26 34 27 35 28 36
REMARK SMILES IDX 78 37 29 38 83 39 77 40 79 41 30 42 82 43 76 44 75 45 31 47
REMARK SMILES IDX 63 48 43 49 62 50 44 51 47 52 61 53 80 54 45 55 46 56 60 58
REMARK SMILES IDX 81 59 48 60 32 61 33 62 41 63 34 64 35 65 39 66 42 67 36 68
REMARK SMILES IDX 37 69 40 70 38 71 64 72 65 73 73 74 66 75 67 76 71 77 74 78
REMARK SMILES IDX 68 79 69 80 72 81 70 82 49 83 50 84 58 85 51 86 52 87 56 88
REMARK SMILES IDX 59 89 53 90 54 91 57 92 55 93
REMARK H PARENT 16 5 10 10 13 22 20 27 79 46 47 57
REMARK Flexibility Score: inf
ROOT
ATOM      1  C   UNL A   1      34.771  23.427  23.641  1.00  0.00     0.117 C 
ENDROOT
BRANCH   1   2
ATOM      2  N   UNL A   1      33.962  22.234  23.801  1.00  0.00    -0.354 N 
ATOM      3  C   UNL A   1      33.305  21.757  24.893  1.00  0.00     0.244 C 
ATOM      4  O   UNL A   1      32.666  20.708  24.756  1.00  0.00    -0.273 OA
ATOM      5  H   UNL A   1      33.875  21.682  22.990  1.00  0.00     0.163 HD
BRANCH   3   6
ATOM      6  C   UNL A   1      33.373  22.446  26.268  1.00  0.00     0.197 C 
BRANCH   6   7
ATOM      7  N   UNL A   1      32.028  22.564  26.836  1.00  0.00    -0.338 N 
ATOM      8  C   UNL A   1      31.065  23.541  26.768  1.00  0.00     0.253 C 
ATOM      9  O   UNL A   1      29.971  23.276  27.267  1.00  0.00    -0.269 OA
ATOM     10  H   UNL A   1      31.760  21.785  27.376  1.00  0.00     0.164 HD
BRANCH   8  11
ATOM     11  C   UNL A   1      31.285  24.901  26.217  1.00  0.00     0.058 A 
ATOM     12  C   UNL A   1      31.347  27.513  25.192  1.00  0.00     0.127 A 
ATOM     13  C   UNL A   1      32.456  26.975  25.843  1.00  0.00     0.048 A 
ATOM     14  N   UNL A   1      30.248  26.750  25.014  1.00  0.00    -0.239 NA
ATOM     15  C   UNL A   1      32.439  25.661  26.325  1.00  0.00     0.019 A 
ATOM     16  C   UNL A   1      30.243  25.479  25.503  1.00  0.00     0.127 A 
BRANCH  12  17
ATOM     17  N   UNL A   1      31.344  28.811  24.719  1.00  0.00    -0.363 N 
ATOM     18  C   UNL A   1      30.443  29.247  23.672  1.00  0.00     0.144 C 
ATOM     19  C   UNL A   1      32.232  29.769  25.352  1.00  0.00     0.144 C 
ENDBRANCH  12  17
ENDBRANCH   8  11
ENDBRANCH   6   7
BRANCH   6  20
ATOM     20  C   UNL A   1      34.459  21.909  27.212  1.00  0.00     0.191 C 
BRANCH  20  21
ATOM     21  O   UNL A   1      35.469  21.118  26.601  1.00  0.00    -0.394 OA
ATOM     22  H   UNL A   1      35.577  20.293  27.098  1.00  0.00     0.210 HD
ENDBRANCH  20  21
ENDBRANCH   6  20
ENDBRANCH   3   6
ENDBRANCH   1   2
BRANCH   1  23
ATOM     23  C   UNL A   1      36.260  23.134  23.646  1.00  0.00     0.042 C 
BRANCH  23  24
ATOM     24  C   UNL A   1      36.977  23.603  24.898  1.00  0.00     0.118 C 
BRANCH  24  25
ATOM     25  N   UNL A   1      37.926  22.621  25.408  1.00  0.00    -0.352 N 
ATOM     26  C   UNL A   1      39.079  22.803  26.135  1.00  0.00     0.251 C 
ATOM     27  H   UNL A   1      37.708  21.684  25.200  1.00  0.00     0.163 HD
ATOM     28  O   UNL A   1      39.852  21.871  26.305  1.00  0.00    -0.269 OA
BRANCH  26  29
ATOM     29  C   UNL A   1      39.390  24.135  26.692  1.00  0.00     0.039 A 
ATOM     30  C   UNL A   1      39.031  24.425  28.010  1.00  0.00     0.014 A 
ATOM     31  C   UNL A   1      40.043  25.093  25.916  1.00  0.00     0.014 A 
ATOM     32  C   UNL A   1      39.391  25.655  28.567  1.00  0.00     0.010 A 
ATOM     33  C   UNL A   1      40.505  26.261  26.505  1.00  0.00     0.010 A 
ATOM     34  C   UNL A   1      40.166  26.567  27.830  1.00  0.00    -0.014 A 
BRANCH  34  35
ATOM     35  C   UNL A   1      40.589  27.870  28.399  1.00  0.00     0.031 A 
ATOM     36  C   UNL A   1      42.039  28.094  28.739  1.00  0.00     0.074 A 
ATOM     37  C   UNL A   1      39.673  28.823  28.661  1.00  0.00     0.049 A 
ATOM     38  N   UNL A   1      42.605  29.112  29.335  1.00  0.00    -0.248 NA
ATOM     39  C   UNL A   1      42.977  27.010  28.393  1.00  0.00     0.031 C 
ATOM     40  C   UNL A   1      38.234  28.709  28.416  1.00  0.00     0.029 A 
ATOM     41  N   UNL A   1      39.816  30.077  29.201  1.00  0.00    -0.354 N 
ATOM     42  C   UNL A   1      43.951  28.788  29.437  1.00  0.00     0.074 A 
ATOM     43  C   UNL A   1      44.109  27.448  28.920  1.00  0.00     0.031 C 
ATOM     44  C   UNL A   1      37.633  29.854  28.778  1.00  0.00     0.029 A 
ATOM     45  C   UNL A   1      38.633  30.765  29.323  1.00  0.00     0.049 A 
ATOM     46  H   UNL A   1      40.686  30.448  29.476  1.00  0.00     0.167 HD
ATOM     47  C   UNL A   1      44.973  29.553  29.884  1.00  0.00     0.037 A 
ATOM     48  C   UNL A   1      38.388  31.989  29.828  1.00  0.00     0.037 A 
ATOM     49  C   UNL A   1      44.818  30.895  30.375  1.00  0.00     0.049 A 
ATOM     50  C   UNL A   1      39.545  32.805  30.351  1.00  0.00     0.074 A 
ATOM     51  C   UNL A   1      45.791  31.764  30.836  1.00  0.00     0.029 A 
ATOM     52  N   UNL A   1      43.607  31.565  30.460  1.00  0.00    -0.354 N 
ATOM     53  N   UNL A   1      40.821  32.506  30.393  1.00  0.00    -0.248 NA
ATOM     54  C   UNL A   1      39.226  34.135  30.887  1.00  0.00     0.031 C 
ATOM     55  C   UNL A   1      45.163  32.948  31.236  1.00  0.00     0.029 A 
ATOM     56  C   UNL A   1      43.808  32.836  30.970  1.00  0.00     0.049 A 
ATOM     57  H   UNL A   1      42.735  31.193  30.197  1.00  0.00     0.167 HD
ATOM     58  C   UNL A   1      41.458  33.625  30.913  1.00  0.00     0.074 A 
ATOM     59  C   UNL A   1      40.430  34.614  31.158  1.00  0.00     0.031 C 
ATOM     60  C   UNL A   1      42.775  33.819  31.169  1.00  0.00     0.037 A 
BRANCH  47  61
ATOM     61  C   UNL A   1      46.356  28.970  29.833  1.00  0.00     0.064 A 
ATOM     62  C   UNL A   1      46.854  28.180  30.882  1.00  0.00     0.173 A 
ATOM     63  C   UNL A   1      47.172  29.152  28.707  1.00  0.00     0.173 A 
ATOM     64  F   UNL A   1      46.120  27.987  31.989  1.00  0.00    -0.203 F 
ATOM     65  C   UNL A   1      48.122  27.610  30.812  1.00  0.00     0.198 A 
ATOM     66  C   UNL A   1      48.427  28.554  28.627  1.00  0.00     0.198 A 
ATOM     67  F   UNL A   1      46.745  29.897  27.676  1.00  0.00    -0.203 F 
ATOM     68  F   UNL A   1      48.591  26.896  31.845  1.00  0.00    -0.200 F 
ATOM     69  C   UNL A   1      48.903  27.788  29.681  1.00  0.00     0.200 A 
ATOM     70  F   UNL A   1      49.175  28.715  27.527  1.00  0.00    -0.200 F 
ATOM     71  F   UNL A   1      50.117  27.225  29.608  1.00  0.00    -0.200 F 
ENDBRANCH  47  61
BRANCH  48  72
ATOM     72  C   UNL A   1      37.005  32.537  29.861  1.00  0.00     0.064 A 
ATOM     73  C   UNL A   1      36.513  33.318  28.804  1.00  0.00     0.173 A 
ATOM     74  C   UNL A   1      36.169  32.349  30.971  1.00  0.00     0.173 A 
ATOM     75  F   UNL A   1      37.279  33.543  27.726  1.00  0.00    -0.203 F 
ATOM     76  C   UNL A   1      35.264  33.930  28.879  1.00  0.00     0.198 A 
ATOM     77  C   UNL A   1      34.903  32.930  31.028  1.00  0.00     0.198 A 
ATOM     78  F   UNL A   1      36.583  31.603  32.007  1.00  0.00    -0.203 F 
ATOM     79  F   UNL A   1      34.855  34.737  27.890  1.00  0.00    -0.200 F 
ATOM     80  C   UNL A   1      34.459  33.735  29.990  1.00  0.00     0.200 A 
ATOM     81  F   UNL A   1      34.122  32.725  32.097  1.00  0.00    -0.200 F 
ATOM     82  F   UNL A   1      33.263  34.335  30.069  1.00  0.00    -0.200 F 
ENDBRANCH  48  72
BRANCH  60  83
ATOM     83  C   UNL A   1      43.190  35.173  31.667  1.00  0.00     0.064 A 
ATOM     84  C   UNL A   1      43.607  36.190  30.795  1.00  0.00     0.173 A 
ATOM     85  C   UNL A   1      43.129  35.467  33.038  1.00  0.00     0.173 A 
ATOM     86  F   UNL A   1      43.693  35.956  29.477  1.00  0.00    -0.203 F 
ATOM     87  C   UNL A   1      43.983  37.439  31.283  1.00  0.00     0.198 A 
ATOM     88  C   UNL A   1      43.469  36.728  33.517  1.00  0.00     0.198 A 
ATOM     89  F   UNL A   1      42.726  34.534  33.913  1.00  0.00    -0.203 F 
ATOM     90  F   UNL A   1      44.435  38.376  30.438  1.00  0.00    -0.200 F 
ATOM     91  C   UNL A   1      43.906  37.709  32.641  1.00  0.00     0.200 A 
ATOM     92  F   UNL A   1      43.376  36.992  34.828  1.00  0.00    -0.200 F 
ATOM     93  F   UNL A   1      44.260  38.915  33.106  1.00  0.00    -0.200 F 
ENDBRANCH  60  83
ENDBRANCH  34  35
ENDBRANCH  26  29
ENDBRANCH  24  25
ENDBRANCH  23  24
ENDBRANCH   1  23
TORSDOF 15
ENDMDL
MODEL 2
REMARK VINA RESULT:     -11.2      3.674      9.003
REMARK SMILES CN(C)c1ccc(C(=O)N[C@@H](CO)C(=O)NCCCNC(=O)c2ccc(-c3c4nc(c(-c5c(F)c(F)c(F)c(F)c5F)c5ccc([nH]5)c(-c5c(F)c(F)c(F)c(F)c5F)c5nc(c(-c6c(F)c(F)c(F)c(F)c6F)c6ccc3[nH]6)C=C5)C=C4)cc2)cn1
REMARK SMILES IDX 17 1 16 2 14 3 15 4 11 6 10 7 8 8 9 9 7 11 4 12 5 13 87 14
REMARK SMILES IDX 6 15 86 16 2 17 1 18 3 19 12 20 13 21 18 23 19 24 20 25
REMARK SMILES IDX 21 26 22 28 23 29 24 30 85 31 25 32 84 33 26 34 27 35 28 36
REMARK SMILES IDX 78 37 29 38 83 39 77 40 79 41 30 42 82 43 76 44 75 45 31 47
REMARK SMILES IDX 63 48 43 49 62 50 44 51 47 52 61 53 80 54 45 55 46 56 60 58
REMARK SMILES IDX 81 59 48 60 32 61 33 62 41 63 34 64 35 65 39 66 42 67 36 68
REMARK SMILES IDX 37 69 40 70 38 71 64 72 65 73 73 74 66 75 67 76 71 77 74 78
REMARK SMILES IDX 68 79 69 80 72 81 70 82 49 83 50 84 58 85 51 86 52 87 56 88
REMARK SMILES IDX 59 89 53 90 54 91 57 92 55 93
REMARK H PARENT 16 5 10 10 13 22 20 27 79 46 47 57
REMARK Flexibility Score: inf
ROOT
ATOM      1  C   UNL A   1      31.674  27.016  26.092  1.00  0.00     0.117 C 
ENDROOT
BRANCH   1   2
ATOM      2  N   UNL A   1      30.968  27.490  24.917  1.00  0.00    -0.354 N 
ATOM      3  C   UNL A   1      31.419  27.727  23.655  1.00  0.00     0.244 C 
ATOM      4  O   UNL A   1      30.594  28.121  22.824  1.00  0.00    -0.273 OA
ATOM      5  H   UNL A   1      30.009  27.668  25.055  1.00  0.00     0.163 HD
BRANCH   3   6
ATOM      6  C   UNL A   1      32.898  27.568  23.261  1.00  0.00     0.197 C 
BRANCH   6   7
ATOM      7  N   UNL A   1      33.000  26.935  21.943  1.00  0.00    -0.338 N 
ATOM      8  C   UNL A   1      33.032  25.625  21.534  1.00  0.00     0.253 C 
ATOM      9  O   UNL A   1      32.998  25.423  20.319  1.00  0.00    -0.269 OA
ATOM     10  H   UNL A   1      33.055  27.580  21.201  1.00  0.00     0.164 HD
BRANCH   8  11
ATOM     11  C   UNL A   1      33.191  24.464  22.443  1.00  0.00     0.058 A 
ATOM     12  C   UNL A   1      33.167  22.165  24.054  1.00  0.00     0.127 A 
ATOM     13  C   UNL A   1      34.370  22.741  23.649  1.00  0.00     0.048 A 
ATOM     14  N   UNL A   1      32.001  22.748  23.703  1.00  0.00    -0.239 NA
ATOM     15  C   UNL A   1      34.384  23.906  22.874  1.00  0.00     0.019 A 
ATOM     16  C   UNL A   1      32.034  23.873  22.936  1.00  0.00     0.127 A 
BRANCH  12  17
ATOM     17  N   UNL A   1      33.135  21.010  24.811  1.00  0.00    -0.363 N 
ATOM     18  C   UNL A   1      32.368  19.848  24.411  1.00  0.00     0.144 C 
ATOM     19  C   UNL A   1      33.957  20.955  26.006  1.00  0.00     0.144 C 
ENDBRANCH  12  17
ENDBRANCH   8  11
ENDBRANCH   6   7
BRANCH   6  20
ATOM     20  C   UNL A   1      33.769  28.814  23.478  1.00  0.00     0.191 C 
BRANCH  20  21
ATOM     21  O   UNL A   1      33.218  29.807  24.333  1.00  0.00    -0.394 OA
ATOM     22  H   UNL A   1      33.583  30.674  24.097  1.00  0.00     0.210 HD
ENDBRANCH  20  21
ENDBRANCH   6  20
ENDBRANCH   3   6
ENDBRANCH   1   2
BRANCH   1  23
ATOM     23  C   UNL A   1      31.820  28.081  27.162  1.00  0.00     0.042 C 
BRANCH  23  24
ATOM     24  C   UNL A   1      33.241  28.574  27.353  1.00  0.00     0.118 C 
BRANCH  24  25
ATOM     25  N   UNL A   1      33.339  30.027  27.375  1.00  0.00    -0.352 N 
ATOM     26  C   UNL A   1      34.339  30.839  27.859  1.00  0.00     0.251 C 
ATOM     27  H   UNL A   1      32.571  30.502  26.983  1.00  0.00     0.163 HD
ATOM     28  O   UNL A   1      34.155  32.043  27.969  1.00  0.00    -0.269 OA
BRANCH  26  29
ATOM     29  C   UNL A   1      35.629  30.245  28.266  1.00  0.00     0.039 A 
ATOM     30  C   UNL A   1      36.691  30.234  27.360  1.00  0.00     0.014 A 
ATOM     31  C   UNL A   1      35.791  29.709  29.544  1.00  0.00     0.014 A 
ATOM     32  C   UNL A   1      37.936  29.744  27.764  1.00  0.00     0.010 A 
ATOM     33  C   UNL A   1      37.054  29.337  29.981  1.00  0.00     0.010 A 
ATOM     34  C   UNL A   1      38.136  29.328  29.091  1.00  0.00    -0.014 A 
BRANCH  34  35
ATOM     35  C   UNL A   1      39.452  28.828  29.562  1.00  0.00     0.031 A 
ATOM     36  C   UNL A   1      40.225  29.625  30.581  1.00  0.00     0.074 A 
ATOM     37  C   UNL A   1      39.973  27.701  29.041  1.00  0.00     0.049 A 
ATOM     38  N   UNL A   1      41.430  29.426  31.050  1.00  0.00    -0.248 NA
ATOM     39  C   UNL A   1      39.568  30.829  31.119  1.00  0.00     0.031 C 
ATOM     40  C   UNL A   1      39.340  26.865  28.018  1.00  0.00     0.029 A 
ATOM     41  N   UNL A   1      41.163  27.066  29.294  1.00  0.00    -0.354 N 
ATOM     42  C   UNL A   1      41.671  30.475  31.927  1.00  0.00     0.074 A 
ATOM     43  C   UNL A   1      40.527  31.355  31.865  1.00  0.00     0.031 C 
ATOM     44  C   UNL A   1      40.134  25.815  27.753  1.00  0.00     0.029 A 
ATOM     45  C   UNL A   1      41.351  25.926  28.549  1.00  0.00     0.049 A 
ATOM     46  H   UNL A   1      41.821  27.396  29.947  1.00  0.00     0.167 HD
ATOM     47  C   UNL A   1      42.733  30.669  32.742  1.00  0.00     0.037 A 
ATOM     48  C   UNL A   1      42.395  25.076  28.511  1.00  0.00     0.037 A 
ATOM     49  C   UNL A   1      43.859  29.779  32.820  1.00  0.00     0.049 A 
ATOM     50  C   UNL A   1      43.579  25.338  29.407  1.00  0.00     0.074 A 
ATOM     51  C   UNL A   1      44.980  29.873  33.626  1.00  0.00     0.029 A 
ATOM     52  N   UNL A   1      44.001  28.623  32.067  1.00  0.00    -0.354 N 
ATOM     53  N   UNL A   1      43.771  26.307  30.270  1.00  0.00    -0.248 NA
ATOM     54  C   UNL A   1      44.690  24.379  29.330  1.00  0.00     0.031 C 
ATOM     55  C   UNL A   1      45.819  28.794  33.332  1.00  0.00     0.029 A 
ATOM     56  C   UNL A   1      45.193  27.997  32.387  1.00  0.00     0.049 A 
ATOM     57  H   UNL A   1      43.350  28.296  31.404  1.00  0.00     0.167 HD
ATOM     58  C   UNL A   1      44.996  26.046  30.869  1.00  0.00     0.074 A 
ATOM     59  C   UNL A   1      45.497  24.821  30.283  1.00  0.00     0.031 C 
ATOM     60  C   UNL A   1      45.652  26.757  31.819  1.00  0.00     0.037 A 
BRANCH  47  61
ATOM     61  C   UNL A   1      42.714  31.873  33.639  1.00  0.00     0.064 A 
ATOM     62  C   UNL A   1      42.140  31.819  34.920  1.00  0.00     0.173 A 
ATOM     63  C   UNL A   1      43.321  33.074  33.243  1.00  0.00     0.173 A 
ATOM     64  F   UNL A   1      41.533  30.699  35.341  1.00  0.00    -0.203 F 
ATOM     65  C   UNL A   1      42.159  32.927  35.762  1.00  0.00     0.198 A 
ATOM     66  C   UNL A   1      43.367  34.170  34.100  1.00  0.00     0.198 A 
ATOM     67  F   UNL A   1      43.886  33.179  32.031  1.00  0.00    -0.203 F 
ATOM     68  F   UNL A   1      41.567  32.864  36.962  1.00  0.00    -0.200 F 
ATOM     69  C   UNL A   1      42.782  34.097  35.356  1.00  0.00     0.200 A 
ATOM     70  F   UNL A   1      43.981  35.296  33.713  1.00  0.00    -0.200 F 
ATOM     71  F   UNL A   1      42.815  35.159  36.175  1.00  0.00    -0.200 F 
ENDBRANCH  47  61
BRANCH  48  72
ATOM     72  C   UNL A   1      42.379  23.891  27.610  1.00  0.00     0.064 A 
ATOM     73  C   UNL A   1      41.972  22.633  28.081  1.00  0.00     0.173 A 
ATOM     74  C   UNL A   1      42.829  23.973  26.285  1.00  0.00     0.173 A 
ATOM     75  F   UNL A   1      41.548  22.497  29.346  1.00  0.00    -0.203 F 
ATOM     76  C   UNL A   1      42.065  21.498  27.278  1.00  0.00     0.198 A 
ATOM     77  C   UNL A   1      42.885  22.842  25.471  1.00  0.00     0.198 A 
ATOM     78  F   UNL A   1      43.222  25.151  25.779  1.00  0.00    -0.203 F 
ATOM     79  F   UNL A   1      41.745  20.297  27.782  1.00  0.00    -0.200 F 
ATOM     80  C   UNL A   1      42.520  21.603  25.973  1.00  0.00     0.200 A 
ATOM     81  F   UNL A   1      43.310  22.951  24.205  1.00  0.00    -0.200 F 
ATOM     82  F   UNL A   1      42.623  20.509  25.206  1.00  0.00    -0.200 F 
ENDBRANCH  48  72
BRANCH  60  83
ATOM     83  C   UNL A   1      46.942  26.189  32.339  1.00  0.00     0.064 A 
ATOM     84  C   UNL A   1      46.983  25.337  33.452  1.00  0.00     0.173 A 
ATOM     85  C   UNL A   1      48.151  26.474  31.684  1.00  0.00     0.173 A 
ATOM     86  F   UNL A   1      45.856  25.042  34.119  1.00  0.00    -0.203 F 
ATOM     87  C   UNL A   1      48.191  24.820  33.912  1.00  0.00     0.198 A 
ATOM     88  C   UNL A   1      49.351  25.926  32.124  1.00  0.00     0.198 A 
ATOM     89  F   UNL A   1      48.165  27.275  30.608  1.00  0.00    -0.203 F 
ATOM     90  F   UNL A   1      48.214  24.055  35.012  1.00  0.00    -0.200 F 
ATOM     91  C   UNL A   1      49.371  25.108  33.243  1.00  0.00     0.200 A 
ATOM     92  F   UNL A   1      50.487  26.191  31.466  1.00  0.00    -0.200 F 
ATOM     93  F   UNL A   1      50.532  24.602  33.683  1.00  0.00    -0.200 F 
ENDBRANCH  60  83
ENDBRANCH  34  35
ENDBRANCH  26  29
ENDBRANCH  24  25
ENDBRANCH  23  24
ENDBRANCH   1  23
TORSDOF 15
ENDMDL
MODEL 3
REMARK VINA RESULT:     -11.1      4.414      7.947
REMARK SMILES CN(C)c1ccc(C(=O)N[C@@H](CO)C(=O)NCCCNC(=O)c2ccc(-c3c4nc(c(-c5c(F)c(F)c(F)c(F)c5F)c5ccc([nH]5)c(-c5c(F)c(F)c(F)c(F)c5F)c5nc(c(-c6c(F)c(F)c(F)c(F)c6F)c6ccc3[nH]6)C=C5)C=C4)cc2)cn1
REMARK SMILES IDX 17 1 16 2 14 3 15 4 11 6 10 7 8 8 9 9 7 11 4 12 5 13 87 14
REMARK SMILES IDX 6 15 86 16 2 17 1 18 3 19 12 20 13 21 18 23 19 24 20 25
REMARK SMILES IDX 21 26 22 28 23 29 24 30 85 31 25 32 84 33 26 34 27 35 28 36
REMARK SMILES IDX 78 37 29 38 83 39 77 40 79 41 30 42 82 43 76 44 75 45 31 47
REMARK SMILES IDX 63 48 43 49 62 50 44 51 47 52 61 53 80 54 45 55 46 56 60 58
REMARK SMILES IDX 81 59 48 60 32 61 33 62 41 63 34 64 35 65 39 66 42 67 36 68
REMARK SMILES IDX 37 69 40 70 38 71 64 72 65 73 73 74 66 75 67 76 71 77 74 78
REMARK SMILES IDX 68 79 69 80 72 81 70 82 49 83 50 84 58 85 51 86 52 87 56 88
REMARK SMILES IDX 59 89 53 90 54 91 57 92 55 93
REMARK H PARENT 16 5 10 10 13 22 20 27 79 46 47 57
REMARK Flexibility Score: inf
ROOT
ATOM      1  C   UNL A   1      31.038  31.018  25.354  1.00  0.00     0.117 C 
ENDROOT
BRANCH   1   2
ATOM      2  N   UNL A   1      32.250  30.249  25.143  1.00  0.00    -0.354 N 
ATOM      3  C   UNL A   1      32.492  28.922  25.322  1.00  0.00     0.244 C 
ATOM      4  O   UNL A   1      33.627  28.513  25.051  1.00  0.00    -0.273 OA
ATOM      5  H   UNL A   1      33.018  30.771  24.818  1.00  0.00     0.163 HD
BRANCH   3   6
ATOM      6  C   UNL A   1      31.434  27.955  25.883  1.00  0.00     0.197 C 
BRANCH   6   7
ATOM      7  N   UNL A   1      31.121  26.925  24.889  1.00  0.00    -0.338 N 
ATOM      8  C   UNL A   1      30.530  26.968  23.650  1.00  0.00     0.253 C 
ATOM      9  O   UNL A   1      30.525  25.920  23.002  1.00  0.00    -0.269 OA
ATOM     10  H   UNL A   1      31.388  26.018  25.166  1.00  0.00     0.164 HD
BRANCH   8  11
ATOM     11  C   UNL A   1      29.836  28.154  23.091  1.00  0.00     0.058 A 
ATOM     12  C   UNL A   1      28.751  30.373  21.760  1.00  0.00     0.127 A 
ATOM     13  C   UNL A   1      27.984  29.634  22.658  1.00  0.00     0.048 A 
ATOM     14  N   UNL A   1      30.045  30.042  21.564  1.00  0.00    -0.239 NA
ATOM     15  C   UNL A   1      28.532  28.548  23.348  1.00  0.00     0.019 A 
ATOM     16  C   UNL A   1      30.558  28.973  22.232  1.00  0.00     0.127 A 
BRANCH  12  17
ATOM     17  N   UNL A   1      28.221  31.442  21.063  1.00  0.00    -0.363 N 
ATOM     18  C   UNL A   1      27.769  31.321  19.692  1.00  0.00     0.144 C 
ATOM     19  C   UNL A   1      28.060  32.702  21.767  1.00  0.00     0.144 C 
ENDBRANCH  12  17
ENDBRANCH   8  11
ENDBRANCH   6   7
BRANCH   6  20
ATOM     20  C   UNL A   1      31.700  27.455  27.310  1.00  0.00     0.191 C 
BRANCH  20  21
ATOM     21  O   UNL A   1      32.613  28.232  28.074  1.00  0.00    -0.394 OA
ATOM     22  H   UNL A   1      33.461  27.766  28.137  1.00  0.00     0.210 HD
ENDBRANCH  20  21
ENDBRANCH   6  20
ENDBRANCH   3   6
ENDBRANCH   1   2
BRANCH   1  23
ATOM     23  C   UNL A   1      31.072  31.831  26.634  1.00  0.00     0.042 C 
BRANCH  23  24
ATOM     24  C   UNL A   1      32.415  32.475  26.921  1.00  0.00     0.118 C 
BRANCH  24  25
ATOM     25  N   UNL A   1      32.296  33.847  27.395  1.00  0.00    -0.352 N 
ATOM     26  C   UNL A   1      32.999  34.507  28.376  1.00  0.00     0.251 C 
ATOM     27  H   UNL A   1      31.606  34.385  26.944  1.00  0.00     0.163 HD
ATOM     28  O   UNL A   1      32.624  35.602  28.772  1.00  0.00    -0.269 OA
BRANCH  26  29
ATOM     29  C   UNL A   1      34.197  33.877  28.966  1.00  0.00     0.039 A 
ATOM     30  C   UNL A   1      35.459  34.395  28.667  1.00  0.00     0.014 A 
ATOM     31  C   UNL A   1      34.074  32.780  29.821  1.00  0.00     0.014 A 
ATOM     32  C   UNL A   1      36.590  33.853  29.282  1.00  0.00     0.010 A 
ATOM     33  C   UNL A   1      35.181  32.323  30.521  1.00  0.00     0.010 A 
ATOM     34  C   UNL A   1      36.455  32.838  30.244  1.00  0.00    -0.014 A 
BRANCH  34  35
ATOM     35  C   UNL A   1      37.632  32.257  30.937  1.00  0.00     0.031 A 
ATOM     36  C   UNL A   1      38.409  31.150  30.273  1.00  0.00     0.074 A 
ATOM     37  C   UNL A   1      37.967  32.680  32.172  1.00  0.00     0.049 A 
ATOM     38  N   UNL A   1      39.400  30.436  30.742  1.00  0.00    -0.248 NA
ATOM     39  C   UNL A   1      37.992  30.769  28.912  1.00  0.00     0.031 C 
ATOM     40  C   UNL A   1      37.267  33.715  32.935  1.00  0.00     0.029 A 
ATOM     41  N   UNL A   1      38.980  32.282  33.008  1.00  0.00    -0.354 N 
ATOM     42  C   UNL A   1      39.716  29.528  29.740  1.00  0.00     0.074 A 
ATOM     43  C   UNL A   1      38.763  29.720  28.672  1.00  0.00     0.031 C 
ATOM     44  C   UNL A   1      37.887  33.890  34.113  1.00  0.00     0.029 A 
ATOM     45  C   UNL A   1      38.998  32.950  34.209  1.00  0.00     0.049 A 
ATOM     46  H   UNL A   1      39.632  31.584  32.770  1.00  0.00     0.167 HD
ATOM     47  C   UNL A   1      40.736  28.639  29.695  1.00  0.00     0.037 A 
ATOM     48  C   UNL A   1      39.817  32.807  35.270  1.00  0.00     0.037 A 
ATOM     49  C   UNL A   1      41.699  28.467  30.748  1.00  0.00     0.049 A 
ATOM     50  C   UNL A   1      40.923  31.784  35.202  1.00  0.00     0.074 A 
ATOM     51  C   UNL A   1      42.781  27.607  30.795  1.00  0.00     0.029 A 
ATOM     52  N   UNL A   1      41.698  29.178  31.938  1.00  0.00    -0.354 N 
ATOM     53  N   UNL A   1      41.242  30.967  34.227  1.00  0.00    -0.248 NA
ATOM     54  C   UNL A   1      41.790  31.670  36.383  1.00  0.00     0.031 C 
ATOM     55  C   UNL A   1      43.413  27.770  32.031  1.00  0.00     0.029 A 
ATOM     56  C   UNL A   1      42.759  28.773  32.729  1.00  0.00     0.049 A 
ATOM     57  H   UNL A   1      41.040  29.868  32.184  1.00  0.00     0.167 HD
ATOM     58  C   UNL A   1      42.371  30.283  34.657  1.00  0.00     0.074 A 
ATOM     59  C   UNL A   1      42.690  30.788  35.975  1.00  0.00     0.031 C 
ATOM     60  C   UNL A   1      43.080  29.319  34.021  1.00  0.00     0.037 A 
BRANCH  47  61
ATOM     61  C   UNL A   1      40.882  27.807  28.453  1.00  0.00     0.064 A 
ATOM     62  C   UNL A   1      40.230  26.571  28.322  1.00  0.00     0.173 A 
ATOM     63  C   UNL A   1      41.632  28.271  27.362  1.00  0.00     0.173 A 
ATOM     64  F   UNL A   1      39.512  26.075  29.342  1.00  0.00    -0.203 F 
ATOM     65  C   UNL A   1      40.338  25.822  27.154  1.00  0.00     0.198 A 
ATOM     66  C   UNL A   1      41.712  27.534  26.183  1.00  0.00     0.198 A 
ATOM     67  F   UNL A   1      42.275  29.446  27.433  1.00  0.00    -0.203 F 
ATOM     68  F   UNL A   1      39.741  24.625  27.070  1.00  0.00    -0.200 F 
ATOM     69  C   UNL A   1      41.069  26.309  26.082  1.00  0.00     0.200 A 
ATOM     70  F   UNL A   1      42.408  28.012  25.142  1.00  0.00    -0.200 F 
ATOM     71  F   UNL A   1      41.159  25.595  24.951  1.00  0.00    -0.200 F 
ENDBRANCH  47  61
BRANCH  48  72
ATOM     72  C   UNL A   1      39.644  33.650  36.484  1.00  0.00     0.064 A 
ATOM     73  C   UNL A   1      38.860  33.210  37.562  1.00  0.00     0.173 A 
ATOM     74  C   UNL A   1      40.201  34.934  36.570  1.00  0.00     0.173 A 
ATOM     75  F   UNL A   1      38.291  31.996  37.524  1.00  0.00    -0.203 F 
ATOM     76  C   UNL A   1      38.599  34.039  38.651  1.00  0.00     0.198 A 
ATOM     77  C   UNL A   1      39.970  35.749  37.678  1.00  0.00     0.198 A 
ATOM     78  F   UNL A   1      40.966  35.403  35.573  1.00  0.00    -0.203 F 
ATOM     79  F   UNL A   1      37.781  33.621  39.627  1.00  0.00    -0.200 F 
ATOM     80  C   UNL A   1      39.155  35.307  38.709  1.00  0.00     0.200 A 
ATOM     81  F   UNL A   1      40.523  36.968  37.737  1.00  0.00    -0.200 F 
ATOM     82  F   UNL A   1      38.893  36.110  39.749  1.00  0.00    -0.200 F 
ENDBRANCH  48  72
BRANCH  60  83
ATOM     83  C   UNL A   1      44.315  28.805  34.705  1.00  0.00     0.064 A 
ATOM     84  C   UNL A   1      44.284  27.688  35.553  1.00  0.00     0.173 A 
ATOM     85  C   UNL A   1      45.555  29.421  34.474  1.00  0.00     0.173 A 
ATOM     86  F   UNL A   1      43.122  27.070  35.815  1.00  0.00    -0.203 F 
ATOM     87  C   UNL A   1      45.444  27.229  36.172  1.00  0.00     0.198 A 
ATOM     88  C   UNL A   1      46.718  28.936  35.064  1.00  0.00     0.198 A 
ATOM     89  F   UNL A   1      45.641  30.485  33.662  1.00  0.00    -0.203 F 
ATOM     90  F   UNL A   1      45.381  26.196  37.024  1.00  0.00    -0.200 F 
ATOM     91  C   UNL A   1      46.659  27.848  35.921  1.00  0.00     0.200 A 
ATOM     92  F   UNL A   1      47.893  29.524  34.805  1.00  0.00    -0.200 F 
ATOM     93  F   UNL A   1      47.775  27.398  36.512  1.00  0.00    -0.200 F 
ENDBRANCH  60  83
ENDBRANCH  34  35
ENDBRANCH  26  29
ENDBRANCH  24  25
ENDBRANCH  23  24
ENDBRANCH   1  23
TORSDOF 15
ENDMDL
