MODEL 1
REMARK VINA RESULT:     -11.3      0.000      0.000
REMARK SMILES O=C(CCc1nc(-c2ccccc2)c(-c2ccccc2)o1)NCCCNC(=O)c1ccc(-c2c3nc(c(-c4c(F)c(F)c(F)c(F)c4F)c4ccc([nH]4)c(-c4c(F)c(F)c(F)c(F)c4F)c4nc(c(-c5c(F)c(F)c(F)c(F)c5F)c5ccc2[nH]5)C=C4)C=C3)cc1
REMARK SMILES IDX 23 1 22 2 1 3 2 4 3 6 4 7 5 8 6 9 21 10 7 11 14 12 8 13 9 14
REMARK SMILES IDX 13 15 10 16 12 17 11 18 15 19 16 20 20 21 17 22 19 23 18 24
REMARK SMILES IDX 24 25 25 26 26 27 27 28 28 30 29 31 30 32 91 33 31 34 90 35
REMARK SMILES IDX 32 36 33 37 34 38 84 39 35 40 89 41 83 42 85 43 36 44 88 45
REMARK SMILES IDX 82 46 81 47 37 49 69 50 49 51 68 52 50 53 53 54 67 55 86 56
REMARK SMILES IDX 51 57 52 58 66 60 87 61 54 62 38 63 39 64 47 65 40 66 41 67
REMARK SMILES IDX 45 68 48 69 42 70 43 71 46 72 44 73 70 74 71 75 79 76 72 77
REMARK SMILES IDX 73 78 77 79 80 80 74 81 75 82 78 83 76 84 55 85 56 86 64 87
REMARK SMILES IDX 57 88 58 89 62 90 65 91 59 92 60 93 63 94 61 95
REMARK H PARENT 22 5 26 29 85 48 53 59
REMARK Flexibility Score: inf
ROOT
ATOM      1  C   UNL A   1      33.515  35.406  28.672  1.00  0.00     0.117 C 
ENDROOT
BRANCH   1   2
ATOM      2  N   UNL A   1      33.125  35.201  30.050  1.00  0.00    -0.356 N 
ATOM      3  O   UNL A   1      32.850  37.410  30.597  1.00  0.00    -0.275 OA
ATOM      4  C   UNL A   1      32.808  36.226  30.908  1.00  0.00     0.220 C 
ATOM      5  H   UNL A   1      33.086  34.278  30.391  1.00  0.00     0.163 HD
BRANCH   4   6
ATOM      6  C   UNL A   1      32.413  35.778  32.301  1.00  0.00     0.110 C 
BRANCH   6   7
ATOM      7  C   UNL A   1      33.517  36.009  33.327  1.00  0.00     0.107 C 
BRANCH   7   8
ATOM      8  C   UNL A   1      34.700  35.102  33.221  1.00  0.00     0.196 A 
ATOM      9  N   UNL A   1      34.986  34.064  33.990  1.00  0.00    -0.213 NA
ATOM     10  O   UNL A   1      35.586  35.304  32.184  1.00  0.00    -0.440 OA
ATOM     11  C   UNL A   1      36.131  33.554  33.437  1.00  0.00     0.117 A 
ATOM     12  C   UNL A   1      36.470  34.276  32.311  1.00  0.00     0.162 A 
BRANCH  11  13
ATOM     13  C   UNL A   1      36.853  32.364  33.840  1.00  0.00     0.004 A 
ATOM     14  C   UNL A   1      37.821  32.451  34.856  1.00  0.00     0.010 A 
ATOM     15  C   UNL A   1      36.760  31.198  33.077  1.00  0.00     0.010 A 
ATOM     16  C   UNL A   1      38.738  31.420  35.051  1.00  0.00     0.001 A 
ATOM     17  C   UNL A   1      37.674  30.161  33.283  1.00  0.00     0.001 A 
ATOM     18  C   UNL A   1      38.672  30.281  34.253  1.00  0.00     0.000 A 
ENDBRANCH  11  13
BRANCH  12  19
ATOM     19  C   UNL A   1      37.492  34.079  31.303  1.00  0.00     0.020 A 
ATOM     20  C   UNL A   1      37.184  33.479  30.079  1.00  0.00     0.012 A 
ATOM     21  C   UNL A   1      38.725  34.731  31.461  1.00  0.00     0.012 A 
ATOM     22  C   UNL A   1      38.073  33.597  29.008  1.00  0.00     0.001 A 
ATOM     23  C   UNL A   1      39.611  34.839  30.393  1.00  0.00     0.001 A 
ATOM     24  C   UNL A   1      39.276  34.288  29.161  1.00  0.00     0.000 A 
ENDBRANCH  12  19
ENDBRANCH   7   8
ENDBRANCH   6   7
ENDBRANCH   4   6
ENDBRANCH   1   2
BRANCH   1  25
ATOM     25  C   UNL A   1      34.436  34.298  28.165  1.00  0.00     0.042 C 
BRANCH  25  26
ATOM     26  C   UNL A   1      34.347  32.982  28.937  1.00  0.00     0.118 C 
BRANCH  26  27
ATOM     27  N   UNL A   1      33.886  31.881  28.115  1.00  0.00    -0.352 N 
ATOM     28  C   UNL A   1      34.470  30.703  27.729  1.00  0.00     0.251 C 
ATOM     29  H   UNL A   1      32.974  32.003  27.765  1.00  0.00     0.163 HD
ATOM     30  O   UNL A   1      33.858  30.022  26.904  1.00  0.00    -0.269 OA
BRANCH  28  31
ATOM     31  C   UNL A   1      35.776  30.204  28.247  1.00  0.00     0.039 A 
ATOM     32  C   UNL A   1      36.863  30.234  27.359  1.00  0.00     0.014 A 
ATOM     33  C   UNL A   1      35.962  29.620  29.505  1.00  0.00     0.014 A 
ATOM     34  C   UNL A   1      38.110  29.726  27.731  1.00  0.00     0.010 A 
ATOM     35  C   UNL A   1      37.218  29.148  29.899  1.00  0.00     0.010 A 
ATOM     36  C   UNL A   1      38.303  29.210  29.018  1.00  0.00    -0.014 A 
BRANCH  36  37
ATOM     37  C   UNL A   1      39.663  28.879  29.496  1.00  0.00     0.031 A 
ATOM     38  C   UNL A   1      40.422  29.782  30.418  1.00  0.00     0.074 A 
ATOM     39  C   UNL A   1      40.229  27.758  29.012  1.00  0.00     0.049 A 
ATOM     40  N   UNL A   1      41.608  29.611  30.947  1.00  0.00    -0.248 NA
ATOM     41  C   UNL A   1      39.779  31.053  30.783  1.00  0.00     0.031 C 
ATOM     42  C   UNL A   1      39.596  26.853  28.050  1.00  0.00     0.029 A 
ATOM     43  N   UNL A   1      41.454  27.194  29.246  1.00  0.00    -0.354 N 
ATOM     44  C   UNL A   1      41.850  30.740  31.716  1.00  0.00     0.074 A 
ATOM     45  C   UNL A   1      40.708  31.617  31.545  1.00  0.00     0.031 C 
ATOM     46  C   UNL A   1      40.431  25.838  27.787  1.00  0.00     0.029 A 
ATOM     47  C   UNL A   1      41.663  26.035  28.542  1.00  0.00     0.049 A 
ATOM     48  H   UNL A   1      42.119  27.583  29.859  1.00  0.00     0.167 HD
ATOM     49  C   UNL A   1      42.923  31.006  32.502  1.00  0.00     0.037 A 
ATOM     50  C   UNL A   1      42.732  25.219  28.512  1.00  0.00     0.037 A 
ATOM     51  C   UNL A   1      44.060  30.126  32.636  1.00  0.00     0.049 A 
ATOM     52  C   UNL A   1      43.904  25.536  29.394  1.00  0.00     0.074 A 
ATOM     53  C   UNL A   1      45.177  30.270  33.442  1.00  0.00     0.029 A 
ATOM     54  N   UNL A   1      44.233  28.943  31.928  1.00  0.00    -0.354 N 
ATOM     55  N   UNL A   1      44.081  26.555  30.201  1.00  0.00    -0.248 NA
ATOM     56  C   UNL A   1      45.015  24.578  29.379  1.00  0.00     0.031 C 
ATOM     57  C   UNL A   1      46.050  29.208  33.177  1.00  0.00     0.029 A 
ATOM     58  C   UNL A   1      45.448  28.362  32.259  1.00  0.00     0.049 A 
ATOM     59  H   UNL A   1      43.587  28.571  31.285  1.00  0.00     0.167 HD
ATOM     60  C   UNL A   1      45.305  26.343  30.819  1.00  0.00     0.074 A 
ATOM     61  C   UNL A   1      45.817  25.090  30.302  1.00  0.00     0.031 C 
ATOM     62  C   UNL A   1      45.943  27.113  31.735  1.00  0.00     0.037 A 
BRANCH  49  63
ATOM     63  C   UNL A   1      42.927  32.294  33.279  1.00  0.00     0.064 A 
ATOM     64  C   UNL A   1      42.477  32.355  34.608  1.00  0.00     0.173 A 
ATOM     65  C   UNL A   1      43.441  33.473  32.713  1.00  0.00     0.173 A 
ATOM     66  F   UNL A   1      41.971  31.262  35.200  1.00  0.00    -0.203 F 
ATOM     67  C   UNL A   1      42.517  33.546  35.329  1.00  0.00     0.198 A 
ATOM     68  C   UNL A   1      43.509  34.655  33.448  1.00  0.00     0.198 A 
ATOM     69  F   UNL A   1      43.892  33.475  31.450  1.00  0.00    -0.203 F 
ATOM     70  F   UNL A   1      42.040  33.587  36.581  1.00  0.00    -0.200 F 
ATOM     71  C   UNL A   1      43.040  34.693  34.752  1.00  0.00     0.200 A 
ATOM     72  F   UNL A   1      44.029  35.758  32.892  1.00  0.00    -0.200 F 
ATOM     73  F   UNL A   1      43.087  35.836  35.450  1.00  0.00    -0.200 F 
ENDBRANCH  49  63
BRANCH  50  74
ATOM     74  C   UNL A   1      42.704  24.004  27.658  1.00  0.00     0.064 A 
ATOM     75  C   UNL A   1      43.050  24.069  26.302  1.00  0.00     0.173 A 
ATOM     76  C   UNL A   1      42.356  22.751  28.184  1.00  0.00     0.173 A 
ATOM     77  F   UNL A   1      43.382  25.247  25.752  1.00  0.00    -0.203 F 
ATOM     78  C   UNL A   1      43.025  22.933  25.497  1.00  0.00     0.198 A 
ATOM     79  C   UNL A   1      42.362  21.609  27.386  1.00  0.00     0.198 A 
ATOM     80  F   UNL A   1      42.033  22.632  29.480  1.00  0.00    -0.203 F 
ATOM     81  F   UNL A   1      43.315  23.033  24.193  1.00  0.00    -0.200 F 
ATOM     82  C   UNL A   1      42.687  21.703  26.041  1.00  0.00     0.200 A 
ATOM     83  F   UNL A   1      42.057  20.419  27.921  1.00  0.00    -0.200 F 
ATOM     84  F   UNL A   1      42.671  20.609  25.268  1.00  0.00    -0.200 F 
ENDBRANCH  50  74
BRANCH  62  85
ATOM     85  C   UNL A   1      47.247  26.590  32.269  1.00  0.00     0.064 A 
ATOM     86  C   UNL A   1      47.305  25.720  33.368  1.00  0.00     0.173 A 
ATOM     87  C   UNL A   1      48.457  26.968  31.667  1.00  0.00     0.173 A 
ATOM     88  F   UNL A   1      46.178  25.340  33.989  1.00  0.00    -0.203 F 
ATOM     89  C   UNL A   1      48.527  25.284  33.873  1.00  0.00     0.198 A 
ATOM     90  C   UNL A   1      49.676  26.499  32.150  1.00  0.00     0.198 A 
ATOM     91  F   UNL A   1      48.459  27.792  30.608  1.00  0.00    -0.203 F 
ATOM     92  F   UNL A   1      48.562  24.512  34.967  1.00  0.00    -0.200 F 
ATOM     93  C   UNL A   1      49.711  25.669  33.260  1.00  0.00     0.200 A 
ATOM     94  F   UNL A   1      50.817  26.859  31.547  1.00  0.00    -0.200 F 
ATOM     95  F   UNL A   1      50.887  25.249  33.747  1.00  0.00    -0.200 F 
ENDBRANCH  62  85
ENDBRANCH  36  37
ENDBRANCH  28  31
ENDBRANCH  26  27
ENDBRANCH  25  26
ENDBRANCH   1  25
TORSDOF 14
ENDMDL
MODEL 2
REMARK VINA RESULT:     -11.3      4.150     11.531
REMARK SMILES O=C(CCc1nc(-c2ccccc2)c(-c2ccccc2)o1)NCCCNC(=O)c1ccc(-c2c3nc(c(-c4c(F)c(F)c(F)c(F)c4F)c4ccc([nH]4)c(-c4c(F)c(F)c(F)c(F)c4F)c4nc(c(-c5c(F)c(F)c(F)c(F)c5F)c5ccc2[nH]5)C=C4)C=C3)cc1
REMARK SMILES IDX 23 1 22 2 1 3 2 4 3 6 4 7 5 8 6 9 21 10 7 11 14 12 8 13 9 14
REMARK SMILES IDX 13 15 10 16 12 17 11 18 15 19 16 20 20 21 17 22 19 23 18 24
REMARK SMILES IDX 24 25 25 26 26 27 27 28 28 30 29 31 30 32 91 33 31 34 90 35
REMARK SMILES IDX 32 36 33 37 34 38 84 39 35 40 89 41 83 42 85 43 36 44 88 45
REMARK SMILES IDX 82 46 81 47 37 49 69 50 49 51 68 52 50 53 53 54 67 55 86 56
REMARK SMILES IDX 51 57 52 58 66 60 87 61 54 62 38 63 39 64 47 65 40 66 41 67
REMARK SMILES IDX 45 68 48 69 42 70 43 71 46 72 44 73 70 74 71 75 79 76 72 77
REMARK SMILES IDX 73 78 77 79 80 80 74 81 75 82 78 83 76 84 55 85 56 86 64 87
REMARK SMILES IDX 57 88 58 89 62 90 65 91 59 92 60 93 63 94 61 95
REMARK H PARENT 22 5 26 29 85 48 53 59
REMARK Flexibility Score: inf
ROOT
ATOM      1  C   UNL A   1      42.196  19.757  26.123  1.00  0.00     0.117 C 
ENDROOT
BRANCH   1   2
ATOM      2  N   UNL A   1      43.640  19.781  26.040  1.00  0.00    -0.356 N 
ATOM      3  O   UNL A   1      43.852  18.252  24.346  1.00  0.00    -0.275 OA
ATOM      4  C   UNL A   1      44.360  19.031  25.142  1.00  0.00     0.220 C 
ATOM      5  H   UNL A   1      44.133  20.366  26.660  1.00  0.00     0.163 HD
BRANCH   4   6
ATOM      6  C   UNL A   1      45.862  19.227  25.224  1.00  0.00     0.110 C 
BRANCH   6   7
ATOM      7  C   UNL A   1      46.343  20.424  24.412  1.00  0.00     0.107 C 
BRANCH   7   8
ATOM      8  C   UNL A   1      46.077  21.765  25.017  1.00  0.00     0.196 A 
ATOM      9  N   UNL A   1      46.220  22.948  24.441  1.00  0.00    -0.213 NA
ATOM     10  O   UNL A   1      45.571  21.813  26.299  1.00  0.00    -0.440 OA
ATOM     11  C   UNL A   1      45.794  23.830  25.398  1.00  0.00     0.117 A 
ATOM     12  C   UNL A   1      45.353  23.141  26.509  1.00  0.00     0.162 A 
BRANCH  11  13
ATOM     13  C   UNL A   1      45.673  25.269  25.281  1.00  0.00     0.004 A 
ATOM     14  C   UNL A   1      46.804  26.080  25.477  1.00  0.00     0.010 A 
ATOM     15  C   UNL A   1      44.410  25.860  25.204  1.00  0.00     0.010 A 
ATOM     16  C   UNL A   1      46.667  27.452  25.680  1.00  0.00     0.001 A 
ATOM     17  C   UNL A   1      44.277  27.238  25.396  1.00  0.00     0.001 A 
ATOM     18  C   UNL A   1      45.400  28.028  25.653  1.00  0.00     0.000 A 
ENDBRANCH  11  13
BRANCH  12  19
ATOM     19  C   UNL A   1      44.694  23.578  27.723  1.00  0.00     0.020 A 
ATOM     20  C   UNL A   1      43.320  23.395  27.897  1.00  0.00     0.012 A 
ATOM     21  C   UNL A   1      45.487  23.942  28.823  1.00  0.00     0.012 A 
ATOM     22  C   UNL A   1      42.764  23.504  29.174  1.00  0.00     0.001 A 
ATOM     23  C   UNL A   1      44.927  24.058  30.092  1.00  0.00     0.001 A 
ATOM     24  C   UNL A   1      43.568  23.821  30.270  1.00  0.00     0.000 A 
ENDBRANCH  12  19
ENDBRANCH   7   8
ENDBRANCH   6   7
ENDBRANCH   4   6
ENDBRANCH   1   2
BRANCH   1  25
ATOM     25  C   UNL A   1      41.592  21.155  26.025  1.00  0.00     0.042 C 
BRANCH  25  26
ATOM     26  C   UNL A   1      40.380  21.398  26.924  1.00  0.00     0.118 C 
BRANCH  26  27
ATOM     27  N   UNL A   1      39.247  21.943  26.201  1.00  0.00    -0.352 N 
ATOM     28  C   UNL A   1      38.667  23.184  26.185  1.00  0.00     0.251 C 
ATOM     29  H   UNL A   1      38.808  21.293  25.607  1.00  0.00     0.163 HD
ATOM     30  O   UNL A   1      37.616  23.299  25.552  1.00  0.00    -0.269 OA
BRANCH  28  31
ATOM     31  C   UNL A   1      39.232  24.384  26.867  1.00  0.00     0.039 A 
ATOM     32  C   UNL A   1      40.080  25.205  26.106  1.00  0.00     0.014 A 
ATOM     33  C   UNL A   1      39.058  24.684  28.222  1.00  0.00     0.014 A 
ATOM     34  C   UNL A   1      40.708  26.313  26.676  1.00  0.00     0.010 A 
ATOM     35  C   UNL A   1      39.651  25.817  28.789  1.00  0.00     0.010 A 
ATOM     36  C   UNL A   1      40.471  26.645  28.016  1.00  0.00    -0.014 A 
BRANCH  36  37
ATOM     37  C   UNL A   1      40.948  27.933  28.564  1.00  0.00     0.031 A 
ATOM     38  C   UNL A   1      42.387  28.163  28.911  1.00  0.00     0.074 A 
ATOM     39  C   UNL A   1      40.022  28.878  28.809  1.00  0.00     0.049 A 
ATOM     40  N   UNL A   1      42.960  29.248  29.370  1.00  0.00    -0.248 NA
ATOM     41  C   UNL A   1      43.303  27.025  28.741  1.00  0.00     0.031 C 
ATOM     42  C   UNL A   1      38.585  28.718  28.574  1.00  0.00     0.029 A 
ATOM     43  N   UNL A   1      40.140  30.145  29.315  1.00  0.00    -0.354 N 
ATOM     44  C   UNL A   1      44.302  28.933  29.530  1.00  0.00     0.074 A 
ATOM     45  C   UNL A   1      44.451  27.537  29.169  1.00  0.00     0.031 C 
ATOM     46  C   UNL A   1      37.956  29.850  28.920  1.00  0.00     0.029 A 
ATOM     47  C   UNL A   1      38.940  30.802  29.421  1.00  0.00     0.049 A 
ATOM     48  H   UNL A   1      41.001  30.545  29.575  1.00  0.00     0.167 HD
ATOM     49  C   UNL A   1      45.312  29.745  29.929  1.00  0.00     0.037 A 
ATOM     50  C   UNL A   1      38.665  32.038  29.873  1.00  0.00     0.037 A 
ATOM     51  C   UNL A   1      45.133  31.127  30.307  1.00  0.00     0.049 A 
ATOM     52  C   UNL A   1      39.804  32.915  30.306  1.00  0.00     0.074 A 
ATOM     53  C   UNL A   1      46.091  32.055  30.677  1.00  0.00     0.029 A 
ATOM     54  N   UNL A   1      43.906  31.774  30.382  1.00  0.00    -0.354 N 
ATOM     55  N   UNL A   1      41.086  32.643  30.355  1.00  0.00    -0.248 NA
ATOM     56  C   UNL A   1      39.460  34.279  30.722  1.00  0.00     0.031 C 
ATOM     57  C   UNL A   1      45.440  33.242  31.033  1.00  0.00     0.029 A 
ATOM     58  C   UNL A   1      44.080  33.079  30.817  1.00  0.00     0.049 A 
ATOM     59  H   UNL A   1      43.039  31.365  30.158  1.00  0.00     0.167 HD
ATOM     60  C   UNL A   1      41.707  33.812  30.771  1.00  0.00     0.074 A 
ATOM     61  C   UNL A   1      40.659  34.798  30.945  1.00  0.00     0.031 C 
ATOM     62  C   UNL A   1      43.025  34.048  30.984  1.00  0.00     0.037 A 
BRANCH  49  63
ATOM     63  C   UNL A   1      46.702  29.169  29.979  1.00  0.00     0.064 A 
ATOM     64  C   UNL A   1      47.179  28.494  31.114  1.00  0.00     0.173 A 
ATOM     65  C   UNL A   1      47.548  29.238  28.861  1.00  0.00     0.173 A 
ATOM     66  F   UNL A   1      46.416  28.400  32.214  1.00  0.00    -0.203 F 
ATOM     67  C   UNL A   1      48.455  27.935  31.137  1.00  0.00     0.198 A 
ATOM     68  C   UNL A   1      48.812  28.651  28.876  1.00  0.00     0.198 A 
ATOM     69  F   UNL A   1      47.145  29.864  27.744  1.00  0.00    -0.203 F 
ATOM     70  F   UNL A   1      48.902  27.335  32.249  1.00  0.00    -0.200 F 
ATOM     71  C   UNL A   1      49.267  28.006  30.016  1.00  0.00     0.200 A 
ATOM     72  F   UNL A   1      49.589  28.707  27.785  1.00  0.00    -0.200 F 
ATOM     73  F   UNL A   1      50.490  27.460  30.037  1.00  0.00    -0.200 F 
ENDBRANCH  49  63
BRANCH  50  74
ATOM     74  C   UNL A   1      37.261  32.522  29.880  1.00  0.00     0.064 A 
ATOM     75  C   UNL A   1      36.741  33.240  28.795  1.00  0.00     0.173 A 
ATOM     76  C   UNL A   1      36.404  32.255  30.958  1.00  0.00     0.173 A 
ATOM     77  F   UNL A   1      37.525  33.527  27.745  1.00  0.00    -0.203 F 
ATOM     78  C   UNL A   1      35.425  33.697  28.798  1.00  0.00     0.198 A 
ATOM     79  C   UNL A   1      35.078  32.683  30.946  1.00  0.00     0.198 A 
ATOM     80  F   UNL A   1      36.848  31.556  32.013  1.00  0.00    -0.203 F 
ATOM     81  F   UNL A   1      34.968  34.421  27.768  1.00  0.00    -0.200 F 
ATOM     82  C   UNL A   1      34.593  33.413  29.871  1.00  0.00     0.200 A 
ATOM     83  F   UNL A   1      34.272  32.387  31.974  1.00  0.00    -0.200 F 
ATOM     84  F   UNL A   1      33.325  33.844  29.869  1.00  0.00    -0.200 F 
ENDBRANCH  50  74
BRANCH  62  85
ATOM     85  C   UNL A   1      43.407  35.446  31.384  1.00  0.00     0.064 A 
ATOM     86  C   UNL A   1      43.413  35.860  32.724  1.00  0.00     0.173 A 
ATOM     87  C   UNL A   1      43.772  36.384  30.406  1.00  0.00     0.173 A 
ATOM     88  F   UNL A   1      43.057  35.008  33.697  1.00  0.00    -0.203 F 
ATOM     89  C   UNL A   1      43.728  37.173  33.066  1.00  0.00     0.198 A 
ATOM     90  C   UNL A   1      44.125  37.685  30.755  1.00  0.00     0.198 A 
ATOM     91  F   UNL A   1      43.791  36.038  29.109  1.00  0.00    -0.203 F 
ATOM     92  F   UNL A   1      43.657  37.566  34.345  1.00  0.00    -0.200 F 
ATOM     93  C   UNL A   1      44.089  38.082  32.082  1.00  0.00     0.200 A 
ATOM     94  F   UNL A   1      44.488  38.556  29.804  1.00  0.00    -0.200 F 
ATOM     95  F   UNL A   1      44.390  39.345  32.413  1.00  0.00    -0.200 F 
ENDBRANCH  62  85
ENDBRANCH  36  37
ENDBRANCH  28  31
ENDBRANCH  26  27
ENDBRANCH  25  26
ENDBRANCH   1  25
TORSDOF 14
ENDMDL
MODEL 3
REMARK VINA RESULT:     -11.1      3.954     10.671
REMARK SMILES O=C(CCc1nc(-c2ccccc2)c(-c2ccccc2)o1)NCCCNC(=O)c1ccc(-c2c3nc(c(-c4c(F)c(F)c(F)c(F)c4F)c4ccc([nH]4)c(-c4c(F)c(F)c(F)c(F)c4F)c4nc(c(-c5c(F)c(F)c(F)c(F)c5F)c5ccc2[nH]5)C=C4)C=C3)cc1
REMARK SMILES IDX 23 1 22 2 1 3 2 4 3 6 4 7 5 8 6 9 21 10 7 11 14 12 8 13 9 14
REMARK SMILES IDX 13 15 10 16 12 17 11 18 15 19 16 20 20 21 17 22 19 23 18 24
REMARK SMILES IDX 24 25 25 26 26 27 27 28 28 30 29 31 30 32 91 33 31 34 90 35
REMARK SMILES IDX 32 36 33 37 34 38 84 39 35 40 89 41 83 42 85 43 36 44 88 45
REMARK SMILES IDX 82 46 81 47 37 49 69 50 49 51 68 52 50 53 53 54 67 55 86 56
REMARK SMILES IDX 51 57 52 58 66 60 87 61 54 62 38 63 39 64 47 65 40 66 41 67
REMARK SMILES IDX 45 68 48 69 42 70 43 71 46 72 44 73 70 74 71 75 79 76 72 77
REMARK SMILES IDX 73 78 77 79 80 80 74 81 75 82 78 83 76 84 55 85 56 86 64 87
REMARK SMILES IDX 57 88 58 89 62 90 65 91 59 92 60 93 63 94 61 95
REMARK H PARENT 22 5 26 29 85 48 53 59
REMARK Flexibility Score: inf
ROOT
ATOM      1  C   UNL A   1      42.370  19.736  26.207  1.00  0.00     0.117 C 
ENDROOT
BRANCH   1   2
ATOM      2  N   UNL A   1      43.811  19.764  26.077  1.00  0.00    -0.356 N 
ATOM      3  O   UNL A   1      43.979  18.153  24.455  1.00  0.00    -0.275 OA
ATOM      4  C   UNL A   1      44.507  18.973  25.195  1.00  0.00     0.220 C 
ATOM      5  H   UNL A   1      44.319  20.381  26.652  1.00  0.00     0.163 HD
BRANCH   4   6
ATOM      6  C   UNL A   1      46.009  19.180  25.219  1.00  0.00     0.110 C 
BRANCH   6   7
ATOM      7  C   UNL A   1      46.445  20.408  24.428  1.00  0.00     0.107 C 
BRANCH   7   8
ATOM      8  C   UNL A   1      46.035  21.726  25.002  1.00  0.00     0.196 A 
ATOM      9  N   UNL A   1      45.843  22.860  24.348  1.00  0.00    -0.213 NA
ATOM     10  O   UNL A   1      45.764  21.794  26.352  1.00  0.00    -0.440 OA
ATOM     11  C   UNL A   1      45.429  23.732  25.321  1.00  0.00     0.117 A 
ATOM     12  C   UNL A   1      45.333  23.074  26.530  1.00  0.00     0.162 A 
BRANCH  11  13
ATOM     13  C   UNL A   1      45.012  25.109  25.154  1.00  0.00     0.004 A 
ATOM     14  C   UNL A   1      45.938  26.145  25.369  1.00  0.00     0.010 A 
ATOM     15  C   UNL A   1      43.658  25.417  25.011  1.00  0.00     0.010 A 
ATOM     16  C   UNL A   1      45.505  27.461  25.522  1.00  0.00     0.001 A 
ATOM     17  C   UNL A   1      43.229  26.739  25.153  1.00  0.00     0.001 A 
ATOM     18  C   UNL A   1      44.148  27.754  25.428  1.00  0.00     0.000 A 
ENDBRANCH  11  13
BRANCH  12  19
ATOM     19  C   UNL A   1      44.826  23.488  27.822  1.00  0.00     0.020 A 
ATOM     20  C   UNL A   1      43.589  23.034  28.285  1.00  0.00     0.012 A 
ATOM     21  C   UNL A   1      45.702  24.132  28.711  1.00  0.00     0.012 A 
ATOM     22  C   UNL A   1      43.268  23.160  29.639  1.00  0.00     0.001 A 
ATOM     23  C   UNL A   1      45.375  24.262  30.058  1.00  0.00     0.001 A 
ATOM     24  C   UNL A   1      44.165  23.759  30.526  1.00  0.00     0.000 A 
ENDBRANCH  12  19
ENDBRANCH   7   8
ENDBRANCH   6   7
ENDBRANCH   4   6
ENDBRANCH   1   2
BRANCH   1  25
ATOM     25  C   UNL A   1      41.761  21.134  26.137  1.00  0.00     0.042 C 
BRANCH  25  26
ATOM     26  C   UNL A   1      40.572  21.367  27.068  1.00  0.00     0.118 C 
BRANCH  26  27
ATOM     27  N   UNL A   1      39.372  21.763  26.358  1.00  0.00    -0.352 N 
ATOM     28  C   UNL A   1      38.691  22.949  26.277  1.00  0.00     0.251 C 
ATOM     29  H   UNL A   1      38.968  21.038  25.830  1.00  0.00     0.163 HD
ATOM     30  O   UNL A   1      37.611  22.931  25.682  1.00  0.00    -0.269 OA
BRANCH  28  31
ATOM     31  C   UNL A   1      39.177  24.238  26.848  1.00  0.00     0.039 A 
ATOM     32  C   UNL A   1      38.832  24.509  28.182  1.00  0.00     0.014 A 
ATOM     33  C   UNL A   1      39.853  25.225  26.123  1.00  0.00     0.014 A 
ATOM     34  C   UNL A   1      39.185  25.719  28.784  1.00  0.00     0.010 A 
ATOM     35  C   UNL A   1      40.246  26.421  26.732  1.00  0.00     0.010 A 
ATOM     36  C   UNL A   1      39.924  26.670  28.070  1.00  0.00    -0.014 A 
BRANCH  36  37
ATOM     37  C   UNL A   1      40.492  27.848  28.760  1.00  0.00     0.031 A 
ATOM     38  C   UNL A   1      39.654  29.033  29.130  1.00  0.00     0.074 A 
ATOM     39  C   UNL A   1      41.819  27.849  28.984  1.00  0.00     0.049 A 
ATOM     40  N   UNL A   1      40.003  30.123  29.765  1.00  0.00    -0.248 NA
ATOM     41  C   UNL A   1      38.241  29.002  28.720  1.00  0.00     0.031 C 
ATOM     42  C   UNL A   1      42.732  26.772  28.591  1.00  0.00     0.029 A 
ATOM     43  N   UNL A   1      42.632  28.776  29.578  1.00  0.00    -0.354 N 
ATOM     44  C   UNL A   1      38.858  30.903  29.845  1.00  0.00     0.074 A 
ATOM     45  C   UNL A   1      37.811  30.183  29.147  1.00  0.00     0.031 C 
ATOM     46  C   UNL A   1      43.977  27.093  28.970  1.00  0.00     0.029 A 
ATOM     47  C   UNL A   1      43.952  28.404  29.608  1.00  0.00     0.049 A 
ATOM     48  H   UNL A   1      42.301  29.626  29.949  1.00  0.00     0.167 HD
ATOM     49  C   UNL A   1      38.701  32.101  30.460  1.00  0.00     0.037 A 
ATOM     50  C   UNL A   1      45.025  29.049  30.098  1.00  0.00     0.037 A 
ATOM     51  C   UNL A   1      39.767  32.809  31.128  1.00  0.00     0.049 A 
ATOM     52  C   UNL A   1      44.821  30.373  30.775  1.00  0.00     0.074 A 
ATOM     53  C   UNL A   1      39.709  34.003  31.827  1.00  0.00     0.029 A 
ATOM     54  N   UNL A   1      41.092  32.395  31.163  1.00  0.00    -0.354 N 
ATOM     55  N   UNL A   1      43.713  31.057  30.939  1.00  0.00    -0.248 NA
ATOM     56  C   UNL A   1      46.010  31.004  31.356  1.00  0.00     0.031 C 
ATOM     57  C   UNL A   1      41.007  34.340  32.231  1.00  0.00     0.029 A 
ATOM     58  C   UNL A   1      41.865  33.321  31.848  1.00  0.00     0.049 A 
ATOM     59  H   UNL A   1      41.434  31.564  30.760  1.00  0.00     0.167 HD
ATOM     60  C   UNL A   1      44.064  32.179  31.675  1.00  0.00     0.074 A 
ATOM     61  C   UNL A   1      45.486  32.074  31.936  1.00  0.00     0.031 C 
ATOM     62  C   UNL A   1      43.280  33.201  32.099  1.00  0.00     0.037 A 
BRANCH  49  63
ATOM     63  C   UNL A   1      37.333  32.728  30.443  1.00  0.00     0.064 A 
ATOM     64  C   UNL A   1      36.923  33.574  29.400  1.00  0.00     0.173 A 
ATOM     65  C   UNL A   1      36.397  32.436  31.448  1.00  0.00     0.173 A 
ATOM     66  F   UNL A   1      37.776  33.892  28.414  1.00  0.00    -0.203 F 
ATOM     67  C   UNL A   1      35.642  34.122  29.377  1.00  0.00     0.198 A 
ATOM     68  C   UNL A   1      35.106  32.960  31.406  1.00  0.00     0.198 A 
ATOM     69  F   UNL A   1      36.728  31.629  32.467  1.00  0.00    -0.203 F 
ATOM     70  F   UNL A   1      35.291  34.961  28.393  1.00  0.00    -0.200 F 
ATOM     71  C   UNL A   1      34.732  33.808  30.375  1.00  0.00     0.200 A 
ATOM     72  F   UNL A   1      34.224  32.644  32.364  1.00  0.00    -0.200 F 
ATOM     73  F   UNL A   1      33.497  34.328  30.346  1.00  0.00    -0.200 F 
ENDBRANCH  49  63
BRANCH  50  74
ATOM     74  C   UNL A   1      46.366  28.418  30.009  1.00  0.00     0.064 A 
ATOM     75  C   UNL A   1      46.819  27.544  31.006  1.00  0.00     0.173 A 
ATOM     76  C   UNL A   1      47.212  28.654  28.914  1.00  0.00     0.173 A 
ATOM     77  F   UNL A   1      46.049  27.294  32.076  1.00  0.00    -0.203 F 
ATOM     78  C   UNL A   1      48.076  26.950  30.927  1.00  0.00     0.198 A 
ATOM     79  C   UNL A   1      48.456  28.034  28.820  1.00  0.00     0.198 A 
ATOM     80  F   UNL A   1      46.819  29.469  27.925  1.00  0.00    -0.203 F 
ATOM     81  F   UNL A   1      48.502  26.155  31.917  1.00  0.00    -0.200 F 
ATOM     82  C   UNL A   1      48.891  27.190  29.831  1.00  0.00     0.200 A 
ATOM     83  F   UNL A   1      49.230  28.252  27.748  1.00  0.00    -0.200 F 
ATOM     84  F   UNL A   1      50.097  26.612  29.751  1.00  0.00    -0.200 F 
ENDBRANCH  50  74
BRANCH  62  85
ATOM     85  C   UNL A   1      43.942  34.261  32.934  1.00  0.00     0.064 A 
ATOM     86  C   UNL A   1      44.035  34.159  34.329  1.00  0.00     0.173 A 
ATOM     87  C   UNL A   1      44.491  35.399  32.321  1.00  0.00     0.173 A 
ATOM     88  F   UNL A   1      43.513  33.100  34.966  1.00  0.00    -0.203 F 
ATOM     89  C   UNL A   1      44.613  35.176  35.085  1.00  0.00     0.198 A 
ATOM     90  C   UNL A   1      45.104  36.395  33.076  1.00  0.00     0.198 A 
ATOM     91  F   UNL A   1      44.436  35.544  30.989  1.00  0.00    -0.203 F 
ATOM     92  F   UNL A   1      44.627  35.090  36.422  1.00  0.00    -0.200 F 
ATOM     93  C   UNL A   1      45.152  36.290  34.458  1.00  0.00     0.200 A 
ATOM     94  F   UNL A   1      45.637  37.462  32.467  1.00  0.00    -0.200 F 
ATOM     95  F   UNL A   1      45.707  37.268  35.186  1.00  0.00    -0.200 F 
ENDBRANCH  62  85
ENDBRANCH  36  37
ENDBRANCH  28  31
ENDBRANCH  26  27
ENDBRANCH  25  26
ENDBRANCH   1  25
TORSDOF 14
ENDMDL
