MODEL 1
REMARK VINA RESULT:     -13.6      0.000      0.000
REMARK SMILES CCn1nc(C)c(NS(=O)(=O)c2cc(C(=O)NCCCNC(=O)c3ccc(-c4c5nc(c(-c6c(F)c(F)c(F)c(F)c6F)c6ccc([nH]6)c(-c6c(F)c(F)c(F)c(F)c6F)c6nc(c(-c7c(F)c(F)c(F)c(F)c7F)c7ccc4[nH]7)C=C6)C=C5)cc3)cc(F)c2C)c1C
REMARK SMILES IDX 18 1 17 2 15 3 16 4 14 6 12 7 13 8 90 9 88 10 91 11 87 12
REMARK SMILES IDX 89 13 9 14 10 15 11 16 8 17 7 19 3 20 4 21 92 22 5 23 93 24
REMARK SMILES IDX 6 25 2 26 1 27 19 28 20 29 21 30 22 31 23 33 24 34 25 35
REMARK SMILES IDX 86 36 26 37 85 38 27 39 28 40 29 41 79 42 30 43 84 44 78 45
REMARK SMILES IDX 80 46 31 47 83 48 77 49 76 50 32 52 64 53 44 54 63 55 45 56
REMARK SMILES IDX 48 57 62 58 81 59 46 60 47 61 61 63 82 64 49 65 33 66 34 67
REMARK SMILES IDX 42 68 35 69 36 70 40 71 43 72 37 73 38 74 41 75 39 76 65 77
REMARK SMILES IDX 66 78 74 79 67 80 68 81 72 82 75 83 69 84 70 85 73 86 71 87
REMARK SMILES IDX 50 88 51 89 59 90 52 91 53 92 57 93 60 94 54 95 55 96 58 97
REMARK SMILES IDX 56 98
REMARK H PARENT 17 5 8 18 21 32 80 51 48 62
REMARK Flexibility Score: inf
ROOT
ATOM      1  C   UNL A   1      33.424  28.256  24.208  1.00  0.00     0.118 C 
ENDROOT
BRANCH   1   2
ATOM      2  N   UNL A   1      32.365  28.471  23.227  1.00  0.00    -0.352 N 
ATOM      3  C   UNL A   1      31.318  27.663  22.847  1.00  0.00     0.251 C 
ATOM      4  O   UNL A   1      30.526  28.067  22.001  1.00  0.00    -0.269 OA
ATOM      5  H   UNL A   1      32.406  29.338  22.761  1.00  0.00     0.163 HD
BRANCH   3   6
ATOM      6  C   UNL A   1      31.091  26.346  23.498  1.00  0.00     0.044 A 
ATOM      7  C   UNL A   1      31.646  23.975  23.739  1.00  0.00     0.094 A 
ATOM      8  C   UNL A   1      31.634  25.167  23.005  1.00  0.00     0.036 A 
ATOM      9  C   UNL A   1      30.983  23.924  24.964  1.00  0.00     0.005 A 
ATOM     10  C   UNL A   1      30.280  25.078  25.364  1.00  0.00     0.128 A 
ATOM     11  C   UNL A   1      30.914  22.724  25.855  1.00  0.00     0.049 C 
ATOM     12  C   UNL A   1      30.342  26.281  24.663  1.00  0.00     0.053 A 
ATOM     13  F   UNL A   1      29.545  25.041  26.485  1.00  0.00    -0.207 F 
BRANCH   7  14
ATOM     14  S   UNL A   1      32.663  22.692  23.037  1.00  0.00     0.262 S 
ATOM     15  O   UNL A   1      33.616  23.360  22.181  1.00  0.00    -0.201 OA
ATOM     16  O   UNL A   1      31.779  21.681  22.481  1.00  0.00    -0.201 OA
BRANCH  14  17
ATOM     17  N   UNL A   1      33.553  21.931  24.217  1.00  0.00    -0.276 N 
ATOM     18  H   UNL A   1      33.139  21.126  24.607  1.00  0.00     0.180 HD
BRANCH  17  19
ATOM     19  C   UNL A   1      34.800  22.272  24.732  1.00  0.00     0.093 A 
ATOM     20  N   UNL A   1      36.908  22.007  25.267  1.00  0.00    -0.268 N 
ATOM     21  N   UNL A   1      36.699  23.326  25.409  1.00  0.00    -0.176 NA
ATOM     22  C   UNL A   1      35.758  21.313  25.002  1.00  0.00     0.060 A 
ATOM     23  C   UNL A   1      35.400  23.499  25.123  1.00  0.00     0.084 A 
ATOM     24  C   UNL A   1      35.656  19.830  24.987  1.00  0.00     0.069 C 
ATOM     25  C   UNL A   1      34.838  24.864  25.258  1.00  0.00     0.071 C 
BRANCH  20  26
ATOM     26  C   UNL A   1      38.244  21.450  25.376  1.00  0.00     0.141 C 
ATOM     27  C   UNL A   1      39.176  22.169  26.338  1.00  0.00     0.029 C 
ENDBRANCH  20  26
ENDBRANCH  17  19
ENDBRANCH  14  17
ENDBRANCH   7  14
ENDBRANCH   3   6
ENDBRANCH   1   2
BRANCH   1  28
ATOM     28  C   UNL A   1      32.987  28.746  25.599  1.00  0.00     0.042 C 
BRANCH  28  29
ATOM     29  C   UNL A   1      34.183  28.963  26.476  1.00  0.00     0.118 C 
BRANCH  29  30
ATOM     30  N   UNL A   1      34.274  30.358  26.909  1.00  0.00    -0.352 N 
ATOM     31  C   UNL A   1      35.076  30.884  27.896  1.00  0.00     0.251 C 
ATOM     32  H   UNL A   1      33.691  30.996  26.437  1.00  0.00     0.163 HD
ATOM     33  O   UNL A   1      34.809  31.952  28.428  1.00  0.00    -0.269 OA
BRANCH  31  34
ATOM     34  C   UNL A   1      36.291  30.145  28.265  1.00  0.00     0.039 A 
ATOM     35  C   UNL A   1      36.452  29.530  29.511  1.00  0.00     0.014 A 
ATOM     36  C   UNL A   1      37.327  30.149  27.342  1.00  0.00     0.014 A 
ATOM     37  C   UNL A   1      37.682  28.953  29.814  1.00  0.00     0.010 A 
ATOM     38  C   UNL A   1      38.391  29.338  27.511  1.00  0.00     0.010 A 
ATOM     39  C   UNL A   1      38.637  28.893  28.800  1.00  0.00    -0.014 A 
BRANCH  39  40
ATOM     40  C   UNL A   1      40.007  28.457  28.935  1.00  0.00     0.031 A 
ATOM     41  C   UNL A   1      40.315  27.079  28.582  1.00  0.00     0.074 A 
ATOM     42  C   UNL A   1      40.899  29.457  29.124  1.00  0.00     0.049 A 
ATOM     43  N   UNL A   1      41.300  26.413  29.056  1.00  0.00    -0.248 NA
ATOM     44  C   UNL A   1      39.471  26.305  27.677  1.00  0.00     0.031 C 
ATOM     45  C   UNL A   1      42.337  29.501  28.942  1.00  0.00     0.029 A 
ATOM     46  N   UNL A   1      40.592  30.742  29.614  1.00  0.00    -0.354 N 
ATOM     47  C   UNL A   1      41.448  25.309  28.245  1.00  0.00     0.074 A 
ATOM     48  C   UNL A   1      40.184  25.181  27.561  1.00  0.00     0.031 C 
ATOM     49  C   UNL A   1      42.821  30.563  29.619  1.00  0.00     0.029 A 
ATOM     50  C   UNL A   1      41.710  31.167  30.345  1.00  0.00     0.049 A 
ATOM     51  H   UNL A   1      39.756  31.243  29.473  1.00  0.00     0.167 HD
ATOM     52  C   UNL A   1      42.704  24.796  28.097  1.00  0.00     0.037 A 
ATOM     53  C   UNL A   1      41.578  31.244  31.703  1.00  0.00     0.037 A 
ATOM     54  C   UNL A   1      43.644  25.592  28.903  1.00  0.00     0.049 A 
ATOM     55  C   UNL A   1      42.354  30.139  32.369  1.00  0.00     0.074 A 
ATOM     56  C   UNL A   1      44.493  26.634  28.562  1.00  0.00     0.029 A 
ATOM     57  N   UNL A   1      43.483  25.656  30.286  1.00  0.00    -0.354 N 
ATOM     58  N   UNL A   1      42.648  29.006  31.789  1.00  0.00    -0.248 NA
ATOM     59  C   UNL A   1      42.942  30.267  33.695  1.00  0.00     0.031 C 
ATOM     60  C   UNL A   1      44.758  27.383  29.744  1.00  0.00     0.029 A 
ATOM     61  C   UNL A   1      44.083  26.793  30.800  1.00  0.00     0.049 A 
ATOM     62  H   UNL A   1      43.006  24.984  30.824  1.00  0.00     0.167 HD
ATOM     63  C   UNL A   1      43.489  28.291  32.592  1.00  0.00     0.074 A 
ATOM     64  C   UNL A   1      43.636  29.120  33.778  1.00  0.00     0.031 C 
ATOM     65  C   UNL A   1      44.024  27.088  32.227  1.00  0.00     0.037 A 
BRANCH  52  66
ATOM     66  C   UNL A   1      43.160  23.831  27.015  1.00  0.00     0.064 A 
ATOM     67  C   UNL A   1      42.834  22.458  27.112  1.00  0.00     0.173 A 
ATOM     68  C   UNL A   1      43.924  24.159  25.876  1.00  0.00     0.173 A 
ATOM     69  F   UNL A   1      42.051  21.994  28.095  1.00  0.00    -0.203 F 
ATOM     70  C   UNL A   1      43.289  21.501  26.197  1.00  0.00     0.198 A 
ATOM     71  C   UNL A   1      44.401  23.200  24.974  1.00  0.00     0.198 A 
ATOM     72  F   UNL A   1      44.203  25.420  25.545  1.00  0.00    -0.203 F 
ATOM     73  F   UNL A   1      42.946  20.215  26.356  1.00  0.00    -0.200 F 
ATOM     74  C   UNL A   1      44.087  21.870  25.137  1.00  0.00     0.200 A 
ATOM     75  F   UNL A   1      45.160  23.586  23.937  1.00  0.00    -0.200 F 
ATOM     76  F   UNL A   1      44.527  20.955  24.261  1.00  0.00    -0.200 F 
ENDBRANCH  52  66
BRANCH  53  77
ATOM     77  C   UNL A   1      40.225  31.774  32.084  1.00  0.00     0.064 A 
ATOM     78  C   UNL A   1      39.378  30.853  32.741  1.00  0.00     0.173 A 
ATOM     79  C   UNL A   1      40.001  33.137  32.333  1.00  0.00     0.173 A 
ATOM     80  F   UNL A   1      39.514  29.539  32.504  1.00  0.00    -0.203 F 
ATOM     81  C   UNL A   1      38.534  31.255  33.773  1.00  0.00     0.198 A 
ATOM     82  C   UNL A   1      39.109  33.539  33.337  1.00  0.00     0.198 A 
ATOM     83  F   UNL A   1      40.736  34.071  31.713  1.00  0.00    -0.203 F 
ATOM     84  F   UNL A   1      37.906  30.333  34.519  1.00  0.00    -0.200 F 
ATOM     85  C   UNL A   1      38.435  32.594  34.101  1.00  0.00     0.200 A 
ATOM     86  F   UNL A   1      38.969  34.841  33.625  1.00  0.00    -0.200 F 
ATOM     87  F   UNL A   1      37.730  32.963  35.180  1.00  0.00    -0.200 F 
ENDBRANCH  53  77
BRANCH  65  88
ATOM     88  C   UNL A   1      44.638  26.113  33.197  1.00  0.00     0.064 A 
ATOM     89  C   UNL A   1      43.893  25.405  34.153  1.00  0.00     0.173 A 
ATOM     90  C   UNL A   1      45.997  25.737  33.078  1.00  0.00     0.173 A 
ATOM     91  F   UNL A   1      42.565  25.554  34.261  1.00  0.00    -0.203 F 
ATOM     92  C   UNL A   1      44.481  24.466  34.998  1.00  0.00     0.198 A 
ATOM     93  C   UNL A   1      46.560  24.735  33.864  1.00  0.00     0.198 A 
ATOM     94  F   UNL A   1      46.812  26.301  32.176  1.00  0.00    -0.203 F 
ATOM     95  F   UNL A   1      43.740  23.874  35.944  1.00  0.00    -0.200 F 
ATOM     96  C   UNL A   1      45.810  24.122  34.844  1.00  0.00     0.200 A 
ATOM     97  F   UNL A   1      47.828  24.359  33.650  1.00  0.00    -0.200 F 
ATOM     98  F   UNL A   1      46.360  23.182  35.624  1.00  0.00    -0.200 F 
ENDBRANCH  65  88
ENDBRANCH  39  40
ENDBRANCH  31  34
ENDBRANCH  29  30
ENDBRANCH  28  29
ENDBRANCH   1  28
TORSDOF 14
ENDMDL
MODEL 2
REMARK VINA RESULT:     -13.5      0.780      1.439
REMARK SMILES CCn1nc(C)c(NS(=O)(=O)c2cc(C(=O)NCCCNC(=O)c3ccc(-c4c5nc(c(-c6c(F)c(F)c(F)c(F)c6F)c6ccc([nH]6)c(-c6c(F)c(F)c(F)c(F)c6F)c6nc(c(-c7c(F)c(F)c(F)c(F)c7F)c7ccc4[nH]7)C=C6)C=C5)cc3)cc(F)c2C)c1C
REMARK SMILES IDX 18 1 17 2 15 3 16 4 14 6 12 7 13 8 90 9 88 10 91 11 87 12
REMARK SMILES IDX 89 13 9 14 10 15 11 16 8 17 7 19 3 20 4 21 92 22 5 23 93 24
REMARK SMILES IDX 6 25 2 26 1 27 19 28 20 29 21 30 22 31 23 33 24 34 25 35
REMARK SMILES IDX 86 36 26 37 85 38 27 39 28 40 29 41 79 42 30 43 84 44 78 45
REMARK SMILES IDX 80 46 31 47 83 48 77 49 76 50 32 52 64 53 44 54 63 55 45 56
REMARK SMILES IDX 48 57 62 58 81 59 46 60 47 61 61 63 82 64 49 65 33 66 34 67
REMARK SMILES IDX 42 68 35 69 36 70 40 71 43 72 37 73 38 74 41 75 39 76 65 77
REMARK SMILES IDX 66 78 74 79 67 80 68 81 72 82 75 83 69 84 70 85 73 86 71 87
REMARK SMILES IDX 50 88 51 89 59 90 52 91 53 92 57 93 60 94 54 95 55 96 58 97
REMARK SMILES IDX 56 98
REMARK H PARENT 17 5 8 18 21 32 80 51 48 62
REMARK Flexibility Score: inf
ROOT
ATOM      1  C   UNL A   1      31.885  29.800  25.393  1.00  0.00     0.118 C 
ENDROOT
BRANCH   1   2
ATOM      2  N   UNL A   1      31.224  29.897  24.096  1.00  0.00    -0.352 N 
ATOM      3  C   UNL A   1      30.696  28.920  23.284  1.00  0.00     0.251 C 
ATOM      4  O   UNL A   1      30.162  29.242  22.227  1.00  0.00    -0.269 OA
ATOM      5  H   UNL A   1      31.141  30.813  23.744  1.00  0.00     0.163 HD
BRANCH   3   6
ATOM      6  C   UNL A   1      30.696  27.494  23.702  1.00  0.00     0.044 A 
ATOM      7  C   UNL A   1      31.790  25.306  23.780  1.00  0.00     0.094 A 
ATOM      8  C   UNL A   1      31.612  26.573  23.210  1.00  0.00     0.036 A 
ATOM      9  C   UNL A   1      30.937  24.894  24.802  1.00  0.00     0.005 A 
ATOM     10  C   UNL A   1      29.894  25.770  25.164  1.00  0.00     0.128 A 
ATOM     11  C   UNL A   1      31.009  23.574  25.503  1.00  0.00     0.049 C 
ATOM     12  C   UNL A   1      29.777  27.059  24.645  1.00  0.00     0.053 A 
ATOM     13  F   UNL A   1      28.990  25.374  26.071  1.00  0.00    -0.207 F 
BRANCH   7  14
ATOM     14  S   UNL A   1      33.222  24.429  23.185  1.00  0.00     0.262 S 
ATOM     15  O   UNL A   1      33.668  25.142  22.010  1.00  0.00    -0.201 OA
ATOM     16  O   UNL A   1      32.868  23.023  23.083  1.00  0.00    -0.201 OA
BRANCH  14  17
ATOM     17  N   UNL A   1      34.467  24.516  24.282  1.00  0.00    -0.276 N 
ATOM     18  H   UNL A   1      34.748  25.426  24.532  1.00  0.00     0.180 HD
BRANCH  17  19
ATOM     19  C   UNL A   1      35.169  23.482  24.896  1.00  0.00     0.093 A 
ATOM     20  N   UNL A   1      36.807  22.064  25.221  1.00  0.00    -0.268 N 
ATOM     21  N   UNL A   1      36.080  21.986  26.347  1.00  0.00    -0.176 NA
ATOM     22  C   UNL A   1      36.217  22.843  24.261  1.00  0.00     0.060 A 
ATOM     23  C   UNL A   1      35.050  22.821  26.147  1.00  0.00     0.084 A 
ATOM     24  C   UNL A   1      36.694  22.953  22.858  1.00  0.00     0.069 C 
ATOM     25  C   UNL A   1      34.015  22.907  27.206  1.00  0.00     0.071 C 
BRANCH  20  26
ATOM     26  C   UNL A   1      38.084  21.383  25.111  1.00  0.00     0.141 C 
ATOM     27  C   UNL A   1      39.132  21.788  26.134  1.00  0.00     0.029 C 
ENDBRANCH  20  26
ENDBRANCH  17  19
ENDBRANCH  14  17
ENDBRANCH   7  14
ENDBRANCH   3   6
ENDBRANCH   1   2
BRANCH   1  28
ATOM     28  C   UNL A   1      33.278  29.167  25.250  1.00  0.00     0.042 C 
BRANCH  28  29
ATOM     29  C   UNL A   1      34.016  29.224  26.553  1.00  0.00     0.118 C 
BRANCH  29  30
ATOM     30  N   UNL A   1      34.156  30.602  27.022  1.00  0.00    -0.352 N 
ATOM     31  C   UNL A   1      34.981  31.076  28.017  1.00  0.00     0.251 C 
ATOM     32  H   UNL A   1      33.591  31.272  26.571  1.00  0.00     0.163 HD
ATOM     33  O   UNL A   1      34.752  32.138  28.579  1.00  0.00    -0.269 OA
BRANCH  31  34
ATOM     34  C   UNL A   1      36.172  30.288  28.358  1.00  0.00     0.039 A 
ATOM     35  C   UNL A   1      36.289  29.574  29.555  1.00  0.00     0.014 A 
ATOM     36  C   UNL A   1      37.233  30.346  27.465  1.00  0.00     0.014 A 
ATOM     37  C   UNL A   1      37.500  28.953  29.843  1.00  0.00     0.010 A 
ATOM     38  C   UNL A   1      38.279  29.505  27.597  1.00  0.00     0.010 A 
ATOM     39  C   UNL A   1      38.483  28.955  28.854  1.00  0.00    -0.014 A 
BRANCH  39  40
ATOM     40  C   UNL A   1      39.841  28.484  28.990  1.00  0.00     0.031 A 
ATOM     41  C   UNL A   1      40.115  27.100  28.637  1.00  0.00     0.074 A 
ATOM     42  C   UNL A   1      40.758  29.462  29.179  1.00  0.00     0.049 A 
ATOM     43  N   UNL A   1      41.082  26.409  29.112  1.00  0.00    -0.248 NA
ATOM     44  C   UNL A   1      39.252  26.346  27.732  1.00  0.00     0.031 C 
ATOM     45  C   UNL A   1      42.196  29.470  28.997  1.00  0.00     0.029 A 
ATOM     46  N   UNL A   1      40.482  30.754  29.669  1.00  0.00    -0.354 N 
ATOM     47  C   UNL A   1      41.203  25.302  28.302  1.00  0.00     0.074 A 
ATOM     48  C   UNL A   1      39.937  25.205  27.617  1.00  0.00     0.031 C 
ATOM     49  C   UNL A   1      42.707  30.519  29.675  1.00  0.00     0.029 A 
ATOM     50  C   UNL A   1      41.611  31.152  30.400  1.00  0.00     0.049 A 
ATOM     51  H   UNL A   1      39.660  31.276  29.527  1.00  0.00     0.167 HD
ATOM     52  C   UNL A   1      42.446  24.757  28.154  1.00  0.00     0.037 A 
ATOM     53  C   UNL A   1      41.480  31.233  31.758  1.00  0.00     0.037 A 
ATOM     54  C   UNL A   1      43.405  25.530  28.961  1.00  0.00     0.049 A 
ATOM     55  C   UNL A   1      42.228  30.109  32.424  1.00  0.00     0.074 A 
ATOM     56  C   UNL A   1      44.280  26.549  28.621  1.00  0.00     0.029 A 
ATOM     57  N   UNL A   1      43.245  25.598  30.344  1.00  0.00    -0.354 N 
ATOM     58  N   UNL A   1      42.493  28.968  31.845  1.00  0.00    -0.248 NA
ATOM     59  C   UNL A   1      42.817  30.223  33.751  1.00  0.00     0.031 C 
ATOM     60  C   UNL A   1      44.563  27.292  29.802  1.00  0.00     0.029 A 
ATOM     61  C   UNL A   1      43.873  26.719  30.858  1.00  0.00     0.049 A 
ATOM     62  H   UNL A   1      42.750  24.938  30.882  1.00  0.00     0.167 HD
ATOM     63  C   UNL A   1      43.315  28.233  32.649  1.00  0.00     0.074 A 
ATOM     64  C   UNL A   1      43.483  29.058  33.835  1.00  0.00     0.031 C 
ATOM     65  C   UNL A   1      43.820  27.017  32.285  1.00  0.00     0.037 A 
BRANCH  52  66
ATOM     66  C   UNL A   1      42.877  23.780  27.073  1.00  0.00     0.064 A 
ATOM     67  C   UNL A   1      42.597  22.402  27.215  1.00  0.00     0.173 A 
ATOM     68  C   UNL A   1      43.577  24.103  25.892  1.00  0.00     0.173 A 
ATOM     69  F   UNL A   1      41.874  21.939  28.245  1.00  0.00    -0.203 F 
ATOM     70  C   UNL A   1      43.035  21.437  26.301  1.00  0.00     0.198 A 
ATOM     71  C   UNL A   1      44.039  23.137  24.990  1.00  0.00     0.198 A 
ATOM     72  F   UNL A   1      43.805  25.364  25.521  1.00  0.00    -0.203 F 
ATOM     73  F   UNL A   1      42.737  20.146  26.504  1.00  0.00    -0.200 F 
ATOM     74  C   UNL A   1      43.772  21.803  25.196  1.00  0.00     0.200 A 
ATOM     75  F   UNL A   1      44.737  23.520  23.910  1.00  0.00    -0.200 F 
ATOM     76  F   UNL A   1      44.196  20.881  24.321  1.00  0.00    -0.200 F 
ENDBRANCH  52  66
BRANCH  53  77
ATOM     77  C   UNL A   1      40.140  31.796  32.138  1.00  0.00     0.064 A 
ATOM     78  C   UNL A   1      39.267  30.896  32.788  1.00  0.00     0.173 A 
ATOM     79  C   UNL A   1      39.952  33.164  32.393  1.00  0.00     0.173 A 
ATOM     80  F   UNL A   1      39.369  29.579  32.546  1.00  0.00    -0.203 F 
ATOM     81  C   UNL A   1      38.431  31.315  33.820  1.00  0.00     0.198 A 
ATOM     82  C   UNL A   1      39.068  33.585  33.396  1.00  0.00     0.198 A 
ATOM     83  F   UNL A   1      40.713  34.081  31.779  1.00  0.00    -0.203 F 
ATOM     84  F   UNL A   1      37.777  30.407  34.560  1.00  0.00    -0.200 F 
ATOM     85  C   UNL A   1      38.367  32.655  34.154  1.00  0.00     0.200 A 
ATOM     86  F   UNL A   1      38.961  34.888  33.689  1.00  0.00    -0.200 F 
ATOM     87  F   UNL A   1      37.669  33.037  35.232  1.00  0.00    -0.200 F 
ENDBRANCH  53  77
BRANCH  65  88
ATOM     88  C   UNL A   1      44.409  26.027  33.256  1.00  0.00     0.064 A 
ATOM     89  C   UNL A   1      45.765  25.667  33.261  1.00  0.00     0.173 A 
ATOM     90  C   UNL A   1      43.638  25.528  34.334  1.00  0.00     0.173 A 
ATOM     91  F   UNL A   1      46.636  26.194  32.389  1.00  0.00    -0.203 F 
ATOM     92  C   UNL A   1      46.292  24.792  34.210  1.00  0.00     0.198 A 
ATOM     93  C   UNL A   1      44.189  24.726  35.329  1.00  0.00     0.198 A 
ATOM     94  F   UNL A   1      42.339  25.830  34.475  1.00  0.00    -0.203 F 
ATOM     95  F   UNL A   1      47.576  24.422  34.125  1.00  0.00    -0.200 F 
ATOM     96  C   UNL A   1      45.507  24.333  35.250  1.00  0.00     0.200 A 
ATOM     97  F   UNL A   1      43.435  24.353  36.372  1.00  0.00    -0.200 F 
ATOM     98  F   UNL A   1      46.029  23.533  36.188  1.00  0.00    -0.200 F 
ENDBRANCH  65  88
ENDBRANCH  39  40
ENDBRANCH  31  34
ENDBRANCH  29  30
ENDBRANCH  28  29
ENDBRANCH   1  28
TORSDOF 14
ENDMDL
MODEL 3
REMARK VINA RESULT:     -13.4      3.018      9.206
REMARK SMILES CCn1nc(C)c(NS(=O)(=O)c2cc(C(=O)NCCCNC(=O)c3ccc(-c4c5nc(c(-c6c(F)c(F)c(F)c(F)c6F)c6ccc([nH]6)c(-c6c(F)c(F)c(F)c(F)c6F)c6nc(c(-c7c(F)c(F)c(F)c(F)c7F)c7ccc4[nH]7)C=C6)C=C5)cc3)cc(F)c2C)c1C
REMARK SMILES IDX 18 1 17 2 15 3 16 4 14 6 12 7 13 8 90 9 88 10 91 11 87 12
REMARK SMILES IDX 89 13 9 14 10 15 11 16 8 17 7 19 3 20 4 21 92 22 5 23 93 24
REMARK SMILES IDX 6 25 2 26 1 27 19 28 20 29 21 30 22 31 23 33 24 34 25 35
REMARK SMILES IDX 86 36 26 37 85 38 27 39 28 40 29 41 79 42 30 43 84 44 78 45
REMARK SMILES IDX 80 46 31 47 83 48 77 49 76 50 32 52 64 53 44 54 63 55 45 56
REMARK SMILES IDX 48 57 62 58 81 59 46 60 47 61 61 63 82 64 49 65 33 66 34 67
REMARK SMILES IDX 42 68 35 69 36 70 40 71 43 72 37 73 38 74 41 75 39 76 65 77
REMARK SMILES IDX 66 78 74 79 67 80 68 81 72 82 75 83 69 84 70 85 73 86 71 87
REMARK SMILES IDX 50 88 51 89 59 90 52 91 53 92 57 93 60 94 54 95 55 96 58 97
REMARK SMILES IDX 56 98
REMARK H PARENT 17 5 8 18 21 32 80 51 48 62
REMARK Flexibility Score: inf
ROOT
ATOM      1  C   UNL A   1      34.714  22.741  26.324  1.00  0.00     0.118 C 
ENDROOT
BRANCH   1   2
ATOM      2  N   UNL A   1      33.747  21.658  26.173  1.00  0.00    -0.352 N 
ATOM      3  C   UNL A   1      32.631  21.558  25.373  1.00  0.00     0.251 C 
ATOM      4  O   UNL A   1      31.967  20.526  25.399  1.00  0.00    -0.269 OA
ATOM      5  H   UNL A   1      33.922  20.869  26.736  1.00  0.00     0.163 HD
BRANCH   3   6
ATOM      6  C   UNL A   1      32.265  22.644  24.428  1.00  0.00     0.044 A 
ATOM      7  C   UNL A   1      31.244  24.826  23.998  1.00  0.00     0.094 A 
ATOM      8  C   UNL A   1      31.395  23.670  24.773  1.00  0.00     0.036 A 
ATOM      9  C   UNL A   1      31.894  24.910  22.767  1.00  0.00     0.005 A 
ATOM     10  C   UNL A   1      32.627  23.782  22.348  1.00  0.00     0.128 A 
ATOM     11  C   UNL A   1      31.827  26.079  21.837  1.00  0.00     0.049 C 
ATOM     12  C   UNL A   1      32.834  22.670  23.164  1.00  0.00     0.053 A 
ATOM     13  F   UNL A   1      33.186  23.779  21.129  1.00  0.00    -0.207 F 
BRANCH   7  14
ATOM     14  S   UNL A   1      30.319  26.126  24.790  1.00  0.00     0.262 S 
ATOM     15  O   UNL A   1      30.277  25.788  26.195  1.00  0.00    -0.201 OA
ATOM     16  O   UNL A   1      29.077  26.297  24.054  1.00  0.00    -0.201 OA
BRANCH  14  17
ATOM     17  N   UNL A   1      31.125  27.575  24.685  1.00  0.00    -0.276 N 
ATOM     18  H   UNL A   1      30.825  28.175  23.963  1.00  0.00     0.180 HD
BRANCH  17  19
ATOM     19  C   UNL A   1      32.165  28.060  25.473  1.00  0.00     0.093 A 
ATOM     20  N   UNL A   1      33.193  29.410  26.858  1.00  0.00    -0.268 N 
ATOM     21  N   UNL A   1      33.983  28.325  26.815  1.00  0.00    -0.176 NA
ATOM     22  C   UNL A   1      32.164  29.354  25.956  1.00  0.00     0.060 A 
ATOM     23  C   UNL A   1      33.387  27.503  25.939  1.00  0.00     0.084 A 
ATOM     24  C   UNL A   1      31.254  30.488  25.648  1.00  0.00     0.069 C 
ATOM     25  C   UNL A   1      34.065  26.224  25.618  1.00  0.00     0.071 C 
BRANCH  20  26
ATOM     26  C   UNL A   1      33.453  30.482  27.802  1.00  0.00     0.141 C 
ATOM     27  C   UNL A   1      34.526  31.474  27.386  1.00  0.00     0.029 C 
ENDBRANCH  20  26
ENDBRANCH  17  19
ENDBRANCH  14  17
ENDBRANCH   7  14
ENDBRANCH   3   6
ENDBRANCH   1   2
BRANCH   1  28
ATOM     28  C   UNL A   1      36.023  22.410  25.588  1.00  0.00     0.042 C 
BRANCH  28  29
ATOM     29  C   UNL A   1      37.134  23.291  26.075  1.00  0.00     0.118 C 
BRANCH  29  30
ATOM     30  N   UNL A   1      38.360  22.524  26.291  1.00  0.00    -0.352 N 
ATOM     31  C   UNL A   1      39.637  23.007  26.470  1.00  0.00     0.251 C 
ATOM     32  H   UNL A   1      38.260  21.544  26.311  1.00  0.00     0.163 HD
ATOM     33  O   UNL A   1      40.616  22.304  26.262  1.00  0.00    -0.269 OA
BRANCH  31  34
ATOM     34  C   UNL A   1      39.791  24.383  26.959  1.00  0.00     0.039 A 
ATOM     35  C   UNL A   1      40.340  25.406  26.179  1.00  0.00     0.014 A 
ATOM     36  C   UNL A   1      39.440  24.617  28.281  1.00  0.00     0.014 A 
ATOM     37  C   UNL A   1      40.555  26.649  26.767  1.00  0.00     0.010 A 
ATOM     38  C   UNL A   1      39.362  25.878  28.751  1.00  0.00     0.010 A 
ATOM     39  C   UNL A   1      40.075  26.846  28.061  1.00  0.00    -0.014 A 
BRANCH  39  40
ATOM     40  C   UNL A   1      40.300  28.003  28.894  1.00  0.00     0.031 A 
ATOM     41  C   UNL A   1      39.322  29.079  28.835  1.00  0.00     0.074 A 
ATOM     42  C   UNL A   1      41.260  27.841  29.834  1.00  0.00     0.049 A 
ATOM     43  N   UNL A   1      39.574  30.303  29.110  1.00  0.00    -0.248 NA
ATOM     44  C   UNL A   1      37.950  28.854  28.390  1.00  0.00     0.031 C 
ATOM     45  C   UNL A   1      41.532  28.572  31.057  1.00  0.00     0.029 A 
ATOM     46  N   UNL A   1      42.291  26.882  29.789  1.00  0.00    -0.354 N 
ATOM     47  C   UNL A   1      38.354  30.925  29.266  1.00  0.00     0.074 A 
ATOM     48  C   UNL A   1      37.410  30.056  28.607  1.00  0.00     0.031 C 
ATOM     49  C   UNL A   1      42.795  28.298  31.445  1.00  0.00     0.029 A 
ATOM     50  C   UNL A   1      43.403  27.463  30.416  1.00  0.00     0.049 A 
ATOM     51  H   UNL A   1      42.243  25.981  29.394  1.00  0.00     0.167 HD
ATOM     52  C   UNL A   1      38.285  31.976  30.134  1.00  0.00     0.037 A 
ATOM     53  C   UNL A   1      44.463  27.801  29.622  1.00  0.00     0.037 A 
ATOM     54  C   UNL A   1      39.619  32.206  30.713  1.00  0.00     0.049 A 
ATOM     55  C   UNL A   1      44.556  29.297  29.481  1.00  0.00     0.074 A 
ATOM     56  C   UNL A   1      40.181  31.804  31.915  1.00  0.00     0.029 A 
ATOM     57  N   UNL A   1      40.683  32.546  29.879  1.00  0.00    -0.354 N 
ATOM     58  N   UNL A   1      43.537  30.105  29.616  1.00  0.00    -0.248 NA
ATOM     59  C   UNL A   1      45.815  30.000  29.277  1.00  0.00     0.031 C 
ATOM     60  C   UNL A   1      41.596  31.812  31.758  1.00  0.00     0.029 A 
ATOM     61  C   UNL A   1      41.894  32.227  30.470  1.00  0.00     0.049 A 
ATOM     62  H   UNL A   1      40.586  32.957  28.989  1.00  0.00     0.167 HD
ATOM     63  C   UNL A   1      43.978  31.396  29.589  1.00  0.00     0.074 A 
ATOM     64  C   UNL A   1      45.411  31.278  29.367  1.00  0.00     0.031 C 
ATOM     65  C   UNL A   1      43.152  32.469  29.773  1.00  0.00     0.037 A 
BRANCH  52  66
ATOM     66  C   UNL A   1      37.018  32.578  30.719  1.00  0.00     0.064 A 
ATOM     67  C   UNL A   1      36.248  33.482  29.952  1.00  0.00     0.173 A 
ATOM     68  C   UNL A   1      36.505  32.341  32.012  1.00  0.00     0.173 A 
ATOM     69  F   UNL A   1      36.558  33.757  28.678  1.00  0.00    -0.203 F 
ATOM     70  C   UNL A   1      35.117  34.136  30.456  1.00  0.00     0.198 A 
ATOM     71  C   UNL A   1      35.390  33.014  32.525  1.00  0.00     0.198 A 
ATOM     72  F   UNL A   1      37.018  31.415  32.823  1.00  0.00    -0.203 F 
ATOM     73  F   UNL A   1      34.439  34.986  29.673  1.00  0.00    -0.200 F 
ATOM     74  C   UNL A   1      34.698  33.915  31.749  1.00  0.00     0.200 A 
ATOM     75  F   UNL A   1      34.988  32.766  33.781  1.00  0.00    -0.200 F 
ATOM     76  F   UNL A   1      33.618  34.542  32.234  1.00  0.00    -0.200 F 
ENDBRANCH  52  66
BRANCH  53  77
ATOM     77  C   UNL A   1      44.695  26.763  28.561  1.00  0.00     0.064 A 
ATOM     78  C   UNL A   1      44.403  27.171  27.241  1.00  0.00     0.173 A 
ATOM     79  C   UNL A   1      45.639  25.736  28.718  1.00  0.00     0.173 A 
ATOM     80  F   UNL A   1      43.474  28.116  27.027  1.00  0.00    -0.203 F 
ATOM     81  C   UNL A   1      45.188  26.761  26.166  1.00  0.00     0.198 A 
ATOM     82  C   UNL A   1      46.389  25.287  27.622  1.00  0.00     0.198 A 
ATOM     83  F   UNL A   1      45.936  25.266  29.937  1.00  0.00    -0.203 F 
ATOM     84  F   UNL A   1      45.022  27.331  24.962  1.00  0.00    -0.200 F 
ATOM     85  C   UNL A   1      46.211  25.853  26.366  1.00  0.00     0.200 A 
ATOM     86  F   UNL A   1      47.348  24.367  27.800  1.00  0.00    -0.200 F 
ATOM     87  F   UNL A   1      47.048  25.565  25.360  1.00  0.00    -0.200 F 
ENDBRANCH  53  77
BRANCH  65  88
ATOM     88  C   UNL A   1      43.511  33.881  29.391  1.00  0.00     0.064 A 
ATOM     89  C   UNL A   1      43.691  34.298  28.063  1.00  0.00     0.173 A 
ATOM     90  C   UNL A   1      43.523  34.910  30.363  1.00  0.00     0.173 A 
ATOM     91  F   UNL A   1      43.549  33.449  27.034  1.00  0.00    -0.203 F 
ATOM     92  C   UNL A   1      43.965  35.625  27.738  1.00  0.00     0.198 A 
ATOM     93  C   UNL A   1      43.710  36.247  30.024  1.00  0.00     0.198 A 
ATOM     94  F   UNL A   1      43.321  34.658  31.664  1.00  0.00    -0.203 F 
ATOM     95  F   UNL A   1      44.204  35.956  26.462  1.00  0.00    -0.200 F 
ATOM     96  C   UNL A   1      43.961  36.600  28.716  1.00  0.00     0.200 A 
ATOM     97  F   UNL A   1      43.625  37.189  30.972  1.00  0.00    -0.200 F 
ATOM     98  F   UNL A   1      44.175  37.882  28.393  1.00  0.00    -0.200 F 
ENDBRANCH  65  88
ENDBRANCH  39  40
ENDBRANCH  31  34
ENDBRANCH  29  30
ENDBRANCH  28  29
ENDBRANCH   1  28
TORSDOF 14
ENDMDL
