MODEL 1
REMARK VINA RESULT:     -12.6      0.000      0.000
REMARK SMILES CO[C@@H]1C[C@@H](C(=O)NCCCNC(=O)c2ccc(-c3c4nc(c(-c5c(F)c(F)c(F)c(F)c5F)c5ccc([nH]5)c(-c5c(F)c(F)c(F)c(F)c5F)c5nc(c(-c6c(F)c(F)c(F)c(F)c6F)c6ccc3[nH]6)C=C5)C=C4)cc2)N(C(=O)c2nc(C(C)C)n[nH]2)C1
REMARK SMILES IDX 9 1 8 2 6 3 7 4 5 6 3 7 4 8 89 9 78 10 2 11 1 12 79 13 80 14
REMARK SMILES IDX 81 15 82 16 88 17 83 18 87 19 84 21 85 22 86 23 10 24 11 25
REMARK SMILES IDX 12 26 13 27 14 29 15 30 16 31 77 32 17 33 76 34 18 35 19 36
REMARK SMILES IDX 20 37 70 38 21 39 75 40 69 41 71 42 22 43 74 44 68 45 67 46
REMARK SMILES IDX 23 48 55 49 35 50 54 51 36 52 39 53 53 54 72 55 37 56 38 57
REMARK SMILES IDX 52 59 73 60 40 61 24 62 25 63 33 64 26 65 27 66 31 67 34 68
REMARK SMILES IDX 28 69 29 70 32 71 30 72 56 73 57 74 65 75 58 76 59 77 63 78
REMARK SMILES IDX 66 79 60 80 61 81 64 82 62 83 41 84 42 85 50 86 43 87 44 88
REMARK SMILES IDX 48 89 51 90 45 91 46 92 49 93 47 94
REMARK H PARENT 8 5 88 20 12 28 71 47 39 58
REMARK Flexibility Score: inf
ROOT
ATOM      1  C   UNL A   1      31.243  31.184  26.181  1.00  0.00     0.117 C 
ENDROOT
BRANCH   1   2
ATOM      2  N   UNL A   1      32.376  30.461  26.713  1.00  0.00    -0.354 N 
ATOM      3  C   UNL A   1      32.814  29.184  26.666  1.00  0.00     0.242 C 
ATOM      4  O   UNL A   1      33.929  29.056  27.178  1.00  0.00    -0.273 OA
ATOM      5  H   UNL A   1      32.975  31.040  27.238  1.00  0.00     0.163 HD
BRANCH   3   6
ATOM      6  C   UNL A   1      32.148  28.001  25.922  1.00  0.00     0.177 C 
ATOM      7  C   UNL A   1      31.919  25.626  25.441  1.00  0.00     0.139 C 
ATOM      8  C   UNL A   1      32.530  26.604  26.437  1.00  0.00     0.069 C 
ATOM      9  C   UNL A   1      31.892  26.406  24.133  1.00  0.00     0.153 C 
ATOM     10  N   UNL A   1      32.299  27.779  24.454  1.00  0.00    -0.321 N 
BRANCH   7  11
ATOM     11  O   UNL A   1      30.669  25.065  25.846  1.00  0.00    -0.380 OA
ATOM     12  C   UNL A   1      30.662  23.774  26.435  1.00  0.00     0.195 C 
ENDBRANCH   7  11
BRANCH  10  13
ATOM     13  C   UNL A   1      32.341  28.649  23.356  1.00  0.00     0.291 C 
ATOM     14  O   UNL A   1      33.441  28.984  22.905  1.00  0.00    -0.265 OA
BRANCH  13  15
ATOM     15  C   UNL A   1      31.141  29.249  22.839  1.00  0.00     0.214 A 
ATOM     16  N   UNL A   1      29.954  29.188  23.411  1.00  0.00    -0.207 NA
ATOM     17  N   UNL A   1      30.993  29.785  21.592  1.00  0.00    -0.255 N 
ATOM     18  C   UNL A   1      29.126  29.785  22.493  1.00  0.00     0.153 A 
ATOM     19  N   UNL A   1      29.717  30.130  21.341  1.00  0.00    -0.158 NA
ATOM     20  H   UNL A   1      31.732  29.904  20.953  1.00  0.00     0.192 HD
BRANCH  18  21
ATOM     21  C   UNL A   1      27.668  29.990  22.743  1.00  0.00     0.053 C 
ATOM     22  C   UNL A   1      27.025  28.712  23.279  1.00  0.00     0.016 C 
ATOM     23  C   UNL A   1      27.418  31.157  23.702  1.00  0.00     0.016 C 
ENDBRANCH  18  21
ENDBRANCH  13  15
ENDBRANCH  10  13
ENDBRANCH   3   6
ENDBRANCH   1   2
BRANCH   1  24
ATOM     24  C   UNL A   1      31.370  32.686  26.405  1.00  0.00     0.042 C 
BRANCH  24  25
ATOM     25  C   UNL A   1      32.523  33.065  27.333  1.00  0.00     0.118 C 
BRANCH  25  26
ATOM     26  N   UNL A   1      32.464  34.461  27.735  1.00  0.00    -0.352 N 
ATOM     27  C   UNL A   1      33.067  35.110  28.779  1.00  0.00     0.251 C 
ATOM     28  H   UNL A   1      31.899  35.031  27.164  1.00  0.00     0.163 HD
ATOM     29  O   UNL A   1      32.689  36.237  29.082  1.00  0.00    -0.269 OA
BRANCH  27  30
ATOM     30  C   UNL A   1      34.163  34.474  29.541  1.00  0.00     0.039 A 
ATOM     31  C   UNL A   1      35.456  34.528  29.011  1.00  0.00     0.014 A 
ATOM     32  C   UNL A   1      33.919  33.759  30.718  1.00  0.00     0.014 A 
ATOM     33  C   UNL A   1      36.504  33.888  29.671  1.00  0.00     0.010 A 
ATOM     34  C   UNL A   1      34.977  33.176  31.413  1.00  0.00     0.010 A 
ATOM     35  C   UNL A   1      36.275  33.218  30.884  1.00  0.00    -0.014 A 
BRANCH  35  36
ATOM     36  C   UNL A   1      37.389  32.535  31.584  1.00  0.00     0.031 A 
ATOM     37  C   UNL A   1      38.129  31.411  30.914  1.00  0.00     0.074 A 
ATOM     38  C   UNL A   1      37.721  32.924  32.830  1.00  0.00     0.049 A 
ATOM     39  N   UNL A   1      39.136  30.702  31.360  1.00  0.00    -0.248 NA
ATOM     40  C   UNL A   1      37.663  31.015  29.577  1.00  0.00     0.031 C 
ATOM     41  C   UNL A   1      37.042  33.967  33.598  1.00  0.00     0.029 A 
ATOM     42  N   UNL A   1      38.718  32.489  33.665  1.00  0.00    -0.354 N 
ATOM     43  C   UNL A   1      39.415  29.775  30.365  1.00  0.00     0.074 A 
ATOM     44  C   UNL A   1      38.444  29.976  29.313  1.00  0.00     0.031 C 
ATOM     45  C   UNL A   1      37.661  34.115  34.781  1.00  0.00     0.029 A 
ATOM     46  C   UNL A   1      38.767  33.165  34.858  1.00  0.00     0.049 A 
ATOM     47  H   UNL A   1      39.338  31.762  33.432  1.00  0.00     0.167 HD
ATOM     48  C   UNL A   1      40.409  28.856  30.322  1.00  0.00     0.037 A 
ATOM     49  C   UNL A   1      39.620  33.041  35.891  1.00  0.00     0.037 A 
ATOM     50  C   UNL A   1      41.392  28.676  31.359  1.00  0.00     0.049 A 
ATOM     51  C   UNL A   1      40.743  32.044  35.796  1.00  0.00     0.074 A 
ATOM     52  C   UNL A   1      42.454  27.792  31.402  1.00  0.00     0.029 A 
ATOM     53  N   UNL A   1      41.433  29.410  32.536  1.00  0.00    -0.354 N 
ATOM     54  N   UNL A   1      41.027  31.209  34.828  1.00  0.00    -0.248 NA
ATOM     55  C   UNL A   1      41.672  31.987  36.933  1.00  0.00     0.031 C 
ATOM     56  C   UNL A   1      43.130  27.977  32.615  1.00  0.00     0.029 A 
ATOM     57  C   UNL A   1      42.505  28.999  33.311  1.00  0.00     0.049 A 
ATOM     58  H   UNL A   1      40.796  30.118  32.783  1.00  0.00     0.167 HD
ATOM     59  C   UNL A   1      42.178  30.544  35.225  1.00  0.00     0.074 A 
ATOM     60  C   UNL A   1      42.552  31.089  36.513  1.00  0.00     0.031 C 
ATOM     61  C   UNL A   1      42.862  29.564  34.585  1.00  0.00     0.037 A 
BRANCH  48  62
ATOM     62  C   UNL A   1      40.494  27.984  29.104  1.00  0.00     0.064 A 
ATOM     63  C   UNL A   1      39.761  26.791  29.010  1.00  0.00     0.173 A 
ATOM     64  C   UNL A   1      41.282  28.361  28.007  1.00  0.00     0.173 A 
ATOM     65  F   UNL A   1      39.005  26.381  30.039  1.00  0.00    -0.203 F 
ATOM     66  C   UNL A   1      39.831  25.996  27.870  1.00  0.00     0.198 A 
ATOM     67  C   UNL A   1      41.330  27.575  26.858  1.00  0.00     0.198 A 
ATOM     68  F   UNL A   1      41.999  29.493  28.046  1.00  0.00    -0.203 F 
ATOM     69  F   UNL A   1      39.154  24.840  27.817  1.00  0.00    -0.200 F 
ATOM     70  C   UNL A   1      40.609  26.392  26.792  1.00  0.00     0.200 A 
ATOM     71  F   UNL A   1      42.075  27.962  25.814  1.00  0.00    -0.200 F 
ATOM     72  F   UNL A   1      40.670  25.628  25.692  1.00  0.00    -0.200 F 
ENDBRANCH  48  62
BRANCH  49  73
ATOM     73  C   UNL A   1      39.482  33.919  37.080  1.00  0.00     0.064 A 
ATOM     74  C   UNL A   1      40.060  35.196  37.099  1.00  0.00     0.173 A 
ATOM     75  C   UNL A   1      38.781  33.500  38.219  1.00  0.00     0.173 A 
ATOM     76  F   UNL A   1      40.754  35.632  36.038  1.00  0.00    -0.203 F 
ATOM     77  C   UNL A   1      39.962  36.012  38.223  1.00  0.00     0.198 A 
ATOM     78  C   UNL A   1      38.664  34.327  39.334  1.00  0.00     0.198 A 
ATOM     79  F   UNL A   1      38.203  32.290  38.246  1.00  0.00    -0.203 F 
ATOM     80  F   UNL A   1      40.562  37.210  38.232  1.00  0.00    -0.200 F 
ATOM     81  C   UNL A   1      39.262  35.579  39.338  1.00  0.00     0.200 A 
ATOM     82  F   UNL A   1      37.975  33.911  40.406  1.00  0.00    -0.200 F 
ATOM     83  F   UNL A   1      39.169  36.364  40.421  1.00  0.00    -0.200 F 
ENDBRANCH  49  73
BRANCH  61  84
ATOM     84  C   UNL A   1      44.095  29.048  35.262  1.00  0.00     0.064 A 
ATOM     85  C   UNL A   1      45.357  29.603  35.006  1.00  0.00     0.173 A 
ATOM     86  C   UNL A   1      44.011  27.993  36.182  1.00  0.00     0.173 A 
ATOM     87  F   UNL A   1      45.488  30.603  34.120  1.00  0.00    -0.203 F 
ATOM     88  C   UNL A   1      46.498  29.098  35.624  1.00  0.00     0.198 A 
ATOM     89  C   UNL A   1      45.150  27.508  36.816  1.00  0.00     0.198 A 
ATOM     90  F   UNL A   1      42.826  27.433  36.463  1.00  0.00    -0.203 F 
ATOM     91  F   UNL A   1      47.700  29.608  35.325  1.00  0.00    -0.200 F 
ATOM     92  C   UNL A   1      46.393  28.054  36.530  1.00  0.00     0.200 A 
ATOM     93  F   UNL A   1      45.048  26.502  37.698  1.00  0.00    -0.200 F 
ATOM     94  F   UNL A   1      47.493  27.565  37.121  1.00  0.00    -0.200 F 
ENDBRANCH  61  84
ENDBRANCH  35  36
ENDBRANCH  27  30
ENDBRANCH  25  26
ENDBRANCH  24  25
ENDBRANCH   1  24
TORSDOF 14
ENDMDL
MODEL 2
REMARK VINA RESULT:     -12.5      6.252     11.582
REMARK SMILES CO[C@@H]1C[C@@H](C(=O)NCCCNC(=O)c2ccc(-c3c4nc(c(-c5c(F)c(F)c(F)c(F)c5F)c5ccc([nH]5)c(-c5c(F)c(F)c(F)c(F)c5F)c5nc(c(-c6c(F)c(F)c(F)c(F)c6F)c6ccc3[nH]6)C=C5)C=C4)cc2)N(C(=O)c2nc(C(C)C)n[nH]2)C1
REMARK SMILES IDX 9 1 8 2 6 3 7 4 5 6 3 7 4 8 89 9 78 10 2 11 1 12 79 13 80 14
REMARK SMILES IDX 81 15 82 16 88 17 83 18 87 19 84 21 85 22 86 23 10 24 11 25
REMARK SMILES IDX 12 26 13 27 14 29 15 30 16 31 77 32 17 33 76 34 18 35 19 36
REMARK SMILES IDX 20 37 70 38 21 39 75 40 69 41 71 42 22 43 74 44 68 45 67 46
REMARK SMILES IDX 23 48 55 49 35 50 54 51 36 52 39 53 53 54 72 55 37 56 38 57
REMARK SMILES IDX 52 59 73 60 40 61 24 62 25 63 33 64 26 65 27 66 31 67 34 68
REMARK SMILES IDX 28 69 29 70 32 71 30 72 56 73 57 74 65 75 58 76 59 77 63 78
REMARK SMILES IDX 66 79 60 80 61 81 64 82 62 83 41 84 42 85 50 86 43 87 44 88
REMARK SMILES IDX 48 89 51 90 45 91 46 92 49 93 47 94
REMARK H PARENT 8 5 88 20 12 28 71 47 39 58
REMARK Flexibility Score: inf
ROOT
ATOM      1  C   UNL A   1      36.772  20.165  24.943  1.00  0.00     0.117 C 
ENDROOT
BRANCH   1   2
ATOM      2  N   UNL A   1      37.024  21.563  25.208  1.00  0.00    -0.354 N 
ATOM      3  C   UNL A   1      36.314  22.708  25.106  1.00  0.00     0.242 C 
ATOM      4  O   UNL A   1      36.917  23.674  25.578  1.00  0.00    -0.273 OA
ATOM      5  H   UNL A   1      37.935  21.721  25.545  1.00  0.00     0.163 HD
BRANCH   3   6
ATOM      6  C   UNL A   1      34.846  22.850  24.633  1.00  0.00     0.177 C 
ATOM      7  C   UNL A   1      32.907  24.193  24.032  1.00  0.00     0.139 C 
ATOM      8  C   UNL A   1      34.410  24.277  24.267  1.00  0.00     0.069 C 
ATOM      9  C   UNL A   1      32.461  23.044  24.928  1.00  0.00     0.153 C 
ATOM     10  N   UNL A   1      33.681  22.438  25.472  1.00  0.00    -0.321 N 
BRANCH   7  11
ATOM     11  O   UNL A   1      32.524  24.085  22.660  1.00  0.00    -0.380 OA
ATOM     12  C   UNL A   1      32.797  25.172  21.790  1.00  0.00     0.195 C 
ENDBRANCH   7  11
BRANCH  10  13
ATOM     13  C   UNL A   1      33.462  21.357  26.337  1.00  0.00     0.291 C 
ATOM     14  O   UNL A   1      33.553  21.542  27.554  1.00  0.00    -0.265 OA
BRANCH  13  15
ATOM     15  C   UNL A   1      33.266  20.027  25.827  1.00  0.00     0.214 A 
ATOM     16  N   UNL A   1      33.231  19.701  24.549  1.00  0.00    -0.207 NA
ATOM     17  N   UNL A   1      32.877  18.943  26.560  1.00  0.00    -0.255 N 
ATOM     18  C   UNL A   1      32.895  18.371  24.567  1.00  0.00     0.153 A 
ATOM     19  N   UNL A   1      32.627  17.874  25.783  1.00  0.00    -0.158 NA
ATOM     20  H   UNL A   1      32.789  18.945  27.541  1.00  0.00     0.192 HD
BRANCH  18  21
ATOM     21  C   UNL A   1      32.790  17.553  23.323  1.00  0.00     0.053 C 
ATOM     22  C   UNL A   1      32.341  18.415  22.143  1.00  0.00     0.016 C 
ATOM     23  C   UNL A   1      34.109  16.848  22.998  1.00  0.00     0.016 C 
ENDBRANCH  18  21
ENDBRANCH  13  15
ENDBRANCH  10  13
ENDBRANCH   3   6
ENDBRANCH   1   2
BRANCH   1  24
ATOM     24  C   UNL A   1      38.058  19.346  24.933  1.00  0.00     0.042 C 
BRANCH  24  25
ATOM     25  C   UNL A   1      39.184  19.978  25.751  1.00  0.00     0.118 C 
BRANCH  25  26
ATOM     26  N   UNL A   1      40.285  19.054  25.968  1.00  0.00    -0.352 N 
ATOM     27  C   UNL A   1      41.626  19.289  26.107  1.00  0.00     0.251 C 
ATOM     28  H   UNL A   1      40.023  18.106  26.024  1.00  0.00     0.163 HD
ATOM     29  O   UNL A   1      42.410  18.347  26.038  1.00  0.00    -0.269 OA
BRANCH  27  30
ATOM     30  C   UNL A   1      42.140  20.655  26.343  1.00  0.00     0.039 A 
ATOM     31  C   UNL A   1      42.326  21.074  27.664  1.00  0.00     0.014 A 
ATOM     32  C   UNL A   1      42.358  21.548  25.289  1.00  0.00     0.014 A 
ATOM     33  C   UNL A   1      42.752  22.376  27.926  1.00  0.00     0.010 A 
ATOM     34  C   UNL A   1      42.847  22.827  25.547  1.00  0.00     0.010 A 
ATOM     35  C   UNL A   1      43.028  23.258  26.869  1.00  0.00    -0.014 A 
BRANCH  35  36
ATOM     36  C   UNL A   1      43.478  24.643  27.147  1.00  0.00     0.031 A 
ATOM     37  C   UNL A   1      42.523  25.647  27.730  1.00  0.00     0.074 A 
ATOM     38  C   UNL A   1      44.746  24.995  26.860  1.00  0.00     0.049 A 
ATOM     39  N   UNL A   1      42.734  26.898  28.054  1.00  0.00    -0.248 NA
ATOM     40  C   UNL A   1      41.143  25.193  27.960  1.00  0.00     0.031 C 
ATOM     41  C   UNL A   1      45.746  24.121  26.245  1.00  0.00     0.029 A 
ATOM     42  N   UNL A   1      45.409  26.179  27.052  1.00  0.00    -0.354 N 
ATOM     43  C   UNL A   1      41.516  27.380  28.515  1.00  0.00     0.074 A 
ATOM     44  C   UNL A   1      40.558  26.304  28.386  1.00  0.00     0.031 C 
ATOM     45  C   UNL A   1      46.906  24.789  26.139  1.00  0.00     0.029 A 
ATOM     46  C   UNL A   1      46.725  26.139  26.662  1.00  0.00     0.049 A 
ATOM     47  H   UNL A   1      44.984  26.980  27.433  1.00  0.00     0.167 HD
ATOM     48  C   UNL A   1      41.230  28.601  29.025  1.00  0.00     0.037 A 
ATOM     49  C   UNL A   1      47.680  27.085  26.734  1.00  0.00     0.037 A 
ATOM     50  C   UNL A   1      42.192  29.661  29.179  1.00  0.00     0.049 A 
ATOM     51  C   UNL A   1      47.345  28.416  27.348  1.00  0.00     0.074 A 
ATOM     52  C   UNL A   1      42.010  30.926  29.707  1.00  0.00     0.029 A 
ATOM     53  N   UNL A   1      43.526  29.568  28.810  1.00  0.00    -0.354 N 
ATOM     54  N   UNL A   1      46.202  28.843  27.827  1.00  0.00    -0.248 NA
ATOM     55  C   UNL A   1      48.439  29.391  27.445  1.00  0.00     0.031 C 
ATOM     56  C   UNL A   1      43.232  31.608  29.641  1.00  0.00     0.029 A 
ATOM     57  C   UNL A   1      44.179  30.754  29.101  1.00  0.00     0.049 A 
ATOM     58  H   UNL A   1      43.946  28.778  28.402  1.00  0.00     0.167 HD
ATOM     59  C   UNL A   1      46.443  30.123  28.303  1.00  0.00     0.074 A 
ATOM     60  C   UNL A   1      47.846  30.396  28.075  1.00  0.00     0.031 C 
ATOM     61  C   UNL A   1      45.579  30.998  28.873  1.00  0.00     0.037 A 
BRANCH  48  62
ATOM     62  C   UNL A   1      39.819  28.852  29.471  1.00  0.00     0.064 A 
ATOM     63  C   UNL A   1      38.853  29.353  28.585  1.00  0.00     0.173 A 
ATOM     64  C   UNL A   1      39.419  28.553  30.781  1.00  0.00     0.173 A 
ATOM     65  F   UNL A   1      39.191  29.669  27.326  1.00  0.00    -0.203 F 
ATOM     66  C   UNL A   1      37.542  29.567  29.002  1.00  0.00     0.198 A 
ATOM     67  C   UNL A   1      38.100  28.745  31.187  1.00  0.00     0.198 A 
ATOM     68  F   UNL A   1      40.302  28.069  31.666  1.00  0.00    -0.203 F 
ATOM     69  F   UNL A   1      36.646  30.084  28.149  1.00  0.00    -0.200 F 
ATOM     70  C   UNL A   1      37.165  29.256  30.299  1.00  0.00     0.200 A 
ATOM     71  F   UNL A   1      37.734  28.436  32.439  1.00  0.00    -0.200 F 
ATOM     72  F   UNL A   1      35.901  29.456  30.697  1.00  0.00    -0.200 F 
ENDBRANCH  48  62
BRANCH  49  73
ATOM     73  C   UNL A   1      49.056  26.789  26.264  1.00  0.00     0.064 A 
ATOM     74  C   UNL A   1      49.429  27.039  24.935  1.00  0.00     0.173 A 
ATOM     75  C   UNL A   1      50.020  26.247  27.123  1.00  0.00     0.173 A 
ATOM     76  F   UNL A   1      48.534  27.542  24.073  1.00  0.00    -0.203 F 
ATOM     77  C   UNL A   1      50.708  26.734  24.479  1.00  0.00     0.198 A 
ATOM     78  C   UNL A   1      51.308  25.964  26.671  1.00  0.00     0.198 A 
ATOM     79  F   UNL A   1      49.715  25.998  28.405  1.00  0.00    -0.203 F 
ATOM     80  F   UNL A   1      51.024  26.941  23.193  1.00  0.00    -0.200 F 
ATOM     81  C   UNL A   1      51.647  26.201  25.347  1.00  0.00     0.200 A 
ATOM     82  F   UNL A   1      52.218  25.461  27.516  1.00  0.00    -0.200 F 
ATOM     83  F   UNL A   1      52.879  25.906  24.907  1.00  0.00    -0.200 F 
ENDBRANCH  49  73
BRANCH  61  84
ATOM     84  C   UNL A   1      46.143  32.316  29.310  1.00  0.00     0.064 A 
ATOM     85  C   UNL A   1      46.673  32.495  30.596  1.00  0.00     0.173 A 
ATOM     86  C   UNL A   1      46.160  33.408  28.429  1.00  0.00     0.173 A 
ATOM     87  F   UNL A   1      46.663  31.483  31.477  1.00  0.00    -0.203 F 
ATOM     88  C   UNL A   1      47.172  33.732  30.996  1.00  0.00     0.198 A 
ATOM     89  C   UNL A   1      46.682  34.635  28.826  1.00  0.00     0.198 A 
ATOM     90  F   UNL A   1      45.668  33.285  27.188  1.00  0.00    -0.203 F 
ATOM     91  F   UNL A   1      47.625  33.896  32.246  1.00  0.00    -0.200 F 
ATOM     92  C   UNL A   1      47.180  34.798  30.111  1.00  0.00     0.200 A 
ATOM     93  F   UNL A   1      46.695  35.665  27.967  1.00  0.00    -0.200 F 
ATOM     94  F   UNL A   1      47.655  35.990  30.500  1.00  0.00    -0.200 F 
ENDBRANCH  61  84
ENDBRANCH  35  36
ENDBRANCH  27  30
ENDBRANCH  25  26
ENDBRANCH  24  25
ENDBRANCH   1  24
TORSDOF 14
ENDMDL
MODEL 3
REMARK VINA RESULT:     -12.5      6.063     10.272
REMARK SMILES CO[C@@H]1C[C@@H](C(=O)NCCCNC(=O)c2ccc(-c3c4nc(c(-c5c(F)c(F)c(F)c(F)c5F)c5ccc([nH]5)c(-c5c(F)c(F)c(F)c(F)c5F)c5nc(c(-c6c(F)c(F)c(F)c(F)c6F)c6ccc3[nH]6)C=C5)C=C4)cc2)N(C(=O)c2nc(C(C)C)n[nH]2)C1
REMARK SMILES IDX 9 1 8 2 6 3 7 4 5 6 3 7 4 8 89 9 78 10 2 11 1 12 79 13 80 14
REMARK SMILES IDX 81 15 82 16 88 17 83 18 87 19 84 21 85 22 86 23 10 24 11 25
REMARK SMILES IDX 12 26 13 27 14 29 15 30 16 31 77 32 17 33 76 34 18 35 19 36
REMARK SMILES IDX 20 37 70 38 21 39 75 40 69 41 71 42 22 43 74 44 68 45 67 46
REMARK SMILES IDX 23 48 55 49 35 50 54 51 36 52 39 53 53 54 72 55 37 56 38 57
REMARK SMILES IDX 52 59 73 60 40 61 24 62 25 63 33 64 26 65 27 66 31 67 34 68
REMARK SMILES IDX 28 69 29 70 32 71 30 72 56 73 57 74 65 75 58 76 59 77 63 78
REMARK SMILES IDX 66 79 60 80 61 81 64 82 62 83 41 84 42 85 50 86 43 87 44 88
REMARK SMILES IDX 48 89 51 90 45 91 46 92 49 93 47 94
REMARK H PARENT 8 5 88 20 12 28 71 47 39 58
REMARK Flexibility Score: inf
ROOT
ATOM      1  C   UNL A   1      36.559  20.276  24.999  1.00  0.00     0.117 C 
ENDROOT
BRANCH   1   2
ATOM      2  N   UNL A   1      36.809  21.649  25.376  1.00  0.00    -0.354 N 
ATOM      3  C   UNL A   1      36.189  22.832  25.176  1.00  0.00     0.242 C 
ATOM      4  O   UNL A   1      36.717  23.747  25.811  1.00  0.00    -0.273 OA
ATOM      5  H   UNL A   1      37.631  21.746  25.908  1.00  0.00     0.163 HD
BRANCH   3   6
ATOM      6  C   UNL A   1      34.865  23.068  24.406  1.00  0.00     0.177 C 
ATOM      7  C   UNL A   1      33.242  24.527  23.329  1.00  0.00     0.139 C 
ATOM      8  C   UNL A   1      34.671  24.490  23.858  1.00  0.00     0.069 C 
ATOM      9  C   UNL A   1      32.506  23.514  24.196  1.00  0.00     0.153 C 
ATOM     10  N   UNL A   1      33.522  22.849  25.019  1.00  0.00    -0.321 N 
BRANCH   7  11
ATOM     11  O   UNL A   1      33.124  24.329  21.919  1.00  0.00    -0.380 OA
ATOM     12  C   UNL A   1      32.842  25.450  21.096  1.00  0.00     0.195 C 
ENDBRANCH   7  11
BRANCH  10  13
ATOM     13  C   UNL A   1      33.020  21.878  25.897  1.00  0.00     0.291 C 
ATOM     14  O   UNL A   1      32.692  22.221  27.037  1.00  0.00    -0.265 OA
BRANCH  13  15
ATOM     15  C   UNL A   1      33.005  20.487  25.535  1.00  0.00     0.214 A 
ATOM     16  N   UNL A   1      32.882  20.023  24.306  1.00  0.00    -0.207 NA
ATOM     17  N   UNL A   1      32.900  19.439  26.404  1.00  0.00    -0.255 N 
ATOM     18  C   UNL A   1      32.791  18.665  24.484  1.00  0.00     0.153 A 
ATOM     19  N   UNL A   1      32.757  18.266  25.763  1.00  0.00    -0.158 NA
ATOM     20  H   UNL A   1      32.927  19.533  27.384  1.00  0.00     0.192 HD
BRANCH  18  21
ATOM     21  C   UNL A   1      32.691  17.711  23.340  1.00  0.00     0.053 C 
ATOM     22  C   UNL A   1      32.365  18.451  22.044  1.00  0.00     0.016 C 
ATOM     23  C   UNL A   1      33.971  16.887  23.178  1.00  0.00     0.016 C 
ENDBRANCH  18  21
ENDBRANCH  13  15
ENDBRANCH  10  13
ENDBRANCH   3   6
ENDBRANCH   1   2
BRANCH   1  24
ATOM     24  C   UNL A   1      37.838  19.446  24.990  1.00  0.00     0.042 C 
BRANCH  24  25
ATOM     25  C   UNL A   1      38.997  20.112  25.731  1.00  0.00     0.118 C 
BRANCH  25  26
ATOM     26  N   UNL A   1      40.117  19.205  25.918  1.00  0.00    -0.352 N 
ATOM     27  C   UNL A   1      41.450  19.466  26.092  1.00  0.00     0.251 C 
ATOM     28  H   UNL A   1      39.880  18.250  25.918  1.00  0.00     0.163 HD
ATOM     29  O   UNL A   1      42.259  18.549  25.987  1.00  0.00    -0.269 OA
BRANCH  27  30
ATOM     30  C   UNL A   1      41.925  20.830  26.409  1.00  0.00     0.039 A 
ATOM     31  C   UNL A   1      42.126  21.166  27.751  1.00  0.00     0.014 A 
ATOM     32  C   UNL A   1      42.089  21.799  25.413  1.00  0.00     0.014 A 
ATOM     33  C   UNL A   1      42.515  22.461  28.092  1.00  0.00     0.010 A 
ATOM     34  C   UNL A   1      42.542  23.073  25.747  1.00  0.00     0.010 A 
ATOM     35  C   UNL A   1      42.739  23.421  27.091  1.00  0.00    -0.014 A 
BRANCH  35  36
ATOM     36  C   UNL A   1      43.150  24.799  27.453  1.00  0.00     0.031 A 
ATOM     37  C   UNL A   1      44.554  25.265  27.188  1.00  0.00     0.074 A 
ATOM     38  C   UNL A   1      42.256  25.622  28.032  1.00  0.00     0.049 A 
ATOM     39  N   UNL A   1      45.096  26.434  27.423  1.00  0.00    -0.248 NA
ATOM     40  C   UNL A   1      45.480  24.282  26.604  1.00  0.00     0.031 C 
ATOM     41  C   UNL A   1      40.882  25.264  28.384  1.00  0.00     0.029 A 
ATOM     42  N   UNL A   1      42.370  26.931  28.423  1.00  0.00    -0.354 N 
ATOM     43  C   UNL A   1      46.421  26.324  27.024  1.00  0.00     0.074 A 
ATOM     44  C   UNL A   1      46.618  24.962  26.578  1.00  0.00     0.031 C 
ATOM     45  C   UNL A   1      40.268  26.337  28.910  1.00  0.00     0.029 A 
ATOM     46  C   UNL A   1      41.212  27.450  28.947  1.00  0.00     0.049 A 
ATOM     47  H   UNL A   1      43.202  27.450  28.337  1.00  0.00     0.167 HD
ATOM     48  C   UNL A   1      47.380  27.280  27.007  1.00  0.00     0.037 A 
ATOM     49  C   UNL A   1      40.940  28.690  29.393  1.00  0.00     0.037 A 
ATOM     50  C   UNL A   1      47.174  28.642  27.425  1.00  0.00     0.049 A 
ATOM     51  C   UNL A   1      42.011  29.744  29.318  1.00  0.00     0.074 A 
ATOM     52  C   UNL A   1      48.071  29.694  27.424  1.00  0.00     0.029 A 
ATOM     53  N   UNL A   1      45.973  29.140  27.912  1.00  0.00    -0.354 N 
ATOM     54  N   UNL A   1      43.246  29.640  28.892  1.00  0.00    -0.248 NA
ATOM     55  C   UNL A   1      41.643  31.091  29.773  1.00  0.00     0.031 C 
ATOM     56  C   UNL A   1      47.420  30.827  27.927  1.00  0.00     0.029 A 
ATOM     57  C   UNL A   1      46.108  30.485  28.212  1.00  0.00     0.049 A 
ATOM     58  H   UNL A   1      45.149  28.615  28.026  1.00  0.00     0.167 HD
ATOM     59  C   UNL A   1      43.795  30.909  29.004  1.00  0.00     0.074 A 
ATOM     60  C   UNL A   1      42.752  31.772  29.518  1.00  0.00     0.031 C 
ATOM     61  C   UNL A   1      45.052  31.324  28.713  1.00  0.00     0.037 A 
BRANCH  48  62
ATOM     62  C   UNL A   1      48.738  26.889  26.503  1.00  0.00     0.064 A 
ATOM     63  C   UNL A   1      49.706  26.348  27.362  1.00  0.00     0.173 A 
ATOM     64  C   UNL A   1      49.063  27.019  25.145  1.00  0.00     0.173 A 
ATOM     65  F   UNL A   1      49.449  26.218  28.673  1.00  0.00    -0.203 F 
ATOM     66  C   UNL A   1      50.958  25.972  26.884  1.00  0.00     0.198 A 
ATOM     67  C   UNL A   1      50.308  26.619  24.666  1.00  0.00     0.198 A 
ATOM     68  F   UNL A   1      48.172  27.528  24.282  1.00  0.00    -0.203 F 
ATOM     69  F   UNL A   1      51.882  25.494  27.731  1.00  0.00    -0.200 F 
ATOM     70  C   UNL A   1      51.255  26.100  25.536  1.00  0.00     0.200 A 
ATOM     71  F   UNL A   1      50.592  26.736  23.361  1.00  0.00    -0.200 F 
ATOM     72  F   UNL A   1      52.459  25.731  25.076  1.00  0.00    -0.200 F 
ENDBRANCH  48  62
BRANCH  49  73
ATOM     73  C   UNL A   1      39.584  29.020  29.896  1.00  0.00     0.064 A 
ATOM     74  C   UNL A   1      38.604  29.533  29.034  1.00  0.00     0.173 A 
ATOM     75  C   UNL A   1      39.241  28.838  31.242  1.00  0.00     0.173 A 
ATOM     76  F   UNL A   1      38.893  29.739  27.742  1.00  0.00    -0.203 F 
ATOM     77  C   UNL A   1      37.340  29.875  29.507  1.00  0.00     0.198 A 
ATOM     78  C   UNL A   1      37.967  29.158  31.709  1.00  0.00     0.198 A 
ATOM     79  F   UNL A   1      40.140  28.341  32.104  1.00  0.00    -0.203 F 
ATOM     80  F   UNL A   1      36.437  30.406  28.670  1.00  0.00    -0.200 F 
ATOM     81  C   UNL A   1      37.021  29.684  30.842  1.00  0.00     0.200 A 
ATOM     82  F   UNL A   1      37.658  28.960  32.998  1.00  0.00    -0.200 F 
ATOM     83  F   UNL A   1      35.804  30.014  31.296  1.00  0.00    -0.200 F 
ENDBRANCH  49  73
BRANCH  61  84
ATOM     84  C   UNL A   1      45.348  32.778  28.921  1.00  0.00     0.064 A 
ATOM     85  C   UNL A   1      45.864  33.254  30.135  1.00  0.00     0.173 A 
ATOM     86  C   UNL A   1      45.121  33.703  27.891  1.00  0.00     0.173 A 
ATOM     87  F   UNL A   1      46.081  32.408  31.154  1.00  0.00    -0.203 F 
ATOM     88  C   UNL A   1      46.112  34.611  30.322  1.00  0.00     0.198 A 
ATOM     89  C   UNL A   1      45.394  35.055  28.074  1.00  0.00     0.198 A 
ATOM     90  F   UNL A   1      44.633  33.296  26.711  1.00  0.00    -0.203 F 
ATOM     91  F   UNL A   1      46.555  35.052  31.508  1.00  0.00    -0.200 F 
ATOM     92  C   UNL A   1      45.881  35.509  29.291  1.00  0.00     0.200 A 
ATOM     93  F   UNL A   1      45.176  35.922  27.075  1.00  0.00    -0.200 F 
ATOM     94  F   UNL A   1      46.115  36.816  29.475  1.00  0.00    -0.200 F 
ENDBRANCH  61  84
ENDBRANCH  35  36
ENDBRANCH  27  30
ENDBRANCH  25  26
ENDBRANCH  24  25
ENDBRANCH   1  24
TORSDOF 14
ENDMDL
