MODEL 1
REMARK VINA RESULT:     -10.8      0.000      0.000
REMARK SMILES CN(C)C(=O)CNC(=O)NCCOCC(=O)NCCCNC(=O)c1ccc(-c2c3nc(c(-c4c(F)c(F)c(F)c(F)c4F)c4ccc([nH]4)c(-c4c(F)c(F)c(F)c(F)c4F)c4nc(c(-c5c(F)c(F)c(F)c(F)c5F)c5ccc2[nH]5)C=C4)C=C3)cc1
REMARK SMILES IDX 15 1 16 2 17 3 14 5 13 6 12 7 11 8 10 9 7 10 8 11 9 13 6 15
REMARK SMILES IDX 4 16 1 17 2 18 3 19 5 20 18 21 19 22 20 23 21 24 22 25 23 27
REMARK SMILES IDX 24 28 25 29 86 30 26 31 85 32 27 33 28 34 29 35 79 36 30 37
REMARK SMILES IDX 84 38 78 39 80 40 31 41 83 42 77 43 76 44 32 46 64 47 44 48
REMARK SMILES IDX 63 49 45 50 48 51 62 52 81 53 46 54 47 55 61 57 82 58 49 59
REMARK SMILES IDX 33 60 34 61 42 62 35 63 36 64 40 65 43 66 37 67 38 68 41 69
REMARK SMILES IDX 39 70 65 71 66 72 74 73 67 74 68 75 72 76 75 77 69 78 70 79
REMARK SMILES IDX 73 80 71 81 50 82 51 83 59 84 52 85 53 86 57 87 60 88 54 89
REMARK SMILES IDX 55 90 58 91 56 92
REMARK H PARENT 17 4 7 12 10 14 21 26 80 45 48 56
REMARK Flexibility Score: inf
ROOT
ATOM      1  C   UNL A   1      36.834  23.008  25.359  1.00  0.00     0.245 C 
ATOM      2  O   UNL A   1      37.114  23.937  26.114  1.00  0.00    -0.272 OA
ATOM      3  N   UNL A   1      37.208  21.739  25.696  1.00  0.00    -0.354 N 
ATOM      4  H   UNL A   1      37.692  21.643  26.547  1.00  0.00     0.163 HD
ENDROOT
BRANCH   1   5
ATOM      5  C   UNL A   1      36.082  23.229  24.045  1.00  0.00     0.260 C 
BRANCH   5   6
ATOM      6  O   UNL A   1      34.810  23.846  24.167  1.00  0.00    -0.370 OA
BRANCH   6   7
ATOM      7  C   UNL A   1      33.734  23.149  23.521  1.00  0.00     0.182 C 
BRANCH   7   8
ATOM      8  C   UNL A   1      32.640  24.086  22.997  1.00  0.00     0.146 C 
BRANCH   8   9
ATOM      9  N   UNL A   1      32.892  24.540  21.635  1.00  0.00    -0.336 N 
ATOM     10  N   UNL A   1      31.777  26.589  21.275  1.00  0.00    -0.329 N 
ATOM     11  C   UNL A   1      32.511  25.558  20.868  1.00  0.00     0.315 C 
ATOM     12  H   UNL A   1      31.598  27.226  20.545  1.00  0.00     0.165 HD
ATOM     13  O   UNL A   1      32.917  25.578  19.705  1.00  0.00    -0.249 OA
ATOM     14  H   UNL A   1      33.505  23.934  21.159  1.00  0.00     0.165 HD
BRANCH  10  15
ATOM     15  C   UNL A   1      31.175  27.013  22.521  1.00  0.00     0.218 C 
BRANCH  15  16
ATOM     16  C   UNL A   1      30.056  28.078  22.491  1.00  0.00     0.241 C 
ATOM     17  C   UNL A   1      27.846  28.948  22.967  1.00  0.00     0.146 C 
ATOM     18  N   UNL A   1      28.836  27.895  23.127  1.00  0.00    -0.347 N 
ATOM     19  C   UNL A   1      28.429  26.720  23.875  1.00  0.00     0.146 C 
ATOM     20  O   UNL A   1      30.228  29.063  21.758  1.00  0.00    -0.273 OA
ENDBRANCH  15  16
ENDBRANCH  10  15
ENDBRANCH   8   9
ENDBRANCH   7   8
ENDBRANCH   6   7
ENDBRANCH   5   6
ENDBRANCH   1   5
BRANCH   3  21
ATOM     21  C   UNL A   1      36.976  20.517  24.952  1.00  0.00     0.117 C 
BRANCH  21  22
ATOM     22  C   UNL A   1      38.167  19.569  25.005  1.00  0.00     0.042 C 
BRANCH  22  23
ATOM     23  C   UNL A   1      39.181  19.899  26.097  1.00  0.00     0.118 C 
BRANCH  23  24
ATOM     24  N   UNL A   1      40.336  19.011  26.080  1.00  0.00    -0.352 N 
ATOM     25  C   UNL A   1      41.677  19.283  26.114  1.00  0.00     0.251 C 
ATOM     26  H   UNL A   1      40.114  18.054  26.034  1.00  0.00     0.163 HD
ATOM     27  O   UNL A   1      42.481  18.378  25.880  1.00  0.00    -0.269 OA
BRANCH  25  28
ATOM     28  C   UNL A   1      42.178  20.639  26.421  1.00  0.00     0.039 A 
ATOM     29  C   UNL A   1      42.424  21.517  25.360  1.00  0.00     0.014 A 
ATOM     30  C   UNL A   1      42.465  21.032  27.730  1.00  0.00     0.014 A 
ATOM     31  C   UNL A   1      42.903  22.803  25.617  1.00  0.00     0.010 A 
ATOM     32  C   UNL A   1      42.870  22.339  27.992  1.00  0.00     0.010 A 
ATOM     33  C   UNL A   1      43.101  23.233  26.938  1.00  0.00    -0.014 A 
BRANCH  33  34
ATOM     34  C   UNL A   1      43.561  24.614  27.232  1.00  0.00     0.031 A 
ATOM     35  C   UNL A   1      42.597  25.636  27.766  1.00  0.00     0.074 A 
ATOM     36  C   UNL A   1      44.833  24.962  26.960  1.00  0.00     0.049 A 
ATOM     37  N   UNL A   1      42.793  26.905  28.024  1.00  0.00    -0.248 NA
ATOM     38  C   UNL A   1      41.221  25.179  28.018  1.00  0.00     0.031 C 
ATOM     39  C   UNL A   1      45.848  24.075  26.391  1.00  0.00     0.029 A 
ATOM     40  N   UNL A   1      45.485  26.158  27.114  1.00  0.00    -0.354 N 
ATOM     41  C   UNL A   1      41.567  27.398  28.448  1.00  0.00     0.074 A 
ATOM     42  C   UNL A   1      40.621  26.307  28.368  1.00  0.00     0.031 C 
ATOM     43  C   UNL A   1      47.001  24.751  26.264  1.00  0.00     0.029 A 
ATOM     44  C   UNL A   1      46.799  26.125  26.710  1.00  0.00     0.049 A 
ATOM     45  H   UNL A   1      45.054  26.965  27.479  1.00  0.00     0.167 HD
ATOM     46  C   UNL A   1      41.264  28.645  28.885  1.00  0.00     0.037 A 
ATOM     47  C   UNL A   1      47.730  27.096  26.699  1.00  0.00     0.037 A 
ATOM     48  C   UNL A   1      42.215  29.718  28.998  1.00  0.00     0.049 A 
ATOM     49  C   UNL A   1      47.372  28.465  27.207  1.00  0.00     0.074 A 
ATOM     50  C   UNL A   1      42.022  30.994  29.497  1.00  0.00     0.029 A 
ATOM     51  N   UNL A   1      43.544  29.637  28.605  1.00  0.00    -0.354 N 
ATOM     52  N   UNL A   1      46.227  28.901  27.671  1.00  0.00    -0.248 NA
ATOM     53  C   UNL A   1      48.439  29.475  27.196  1.00  0.00     0.031 C 
ATOM     54  C   UNL A   1      43.225  31.699  29.371  1.00  0.00     0.029 A 
ATOM     55  C   UNL A   1      44.178  30.848  28.833  1.00  0.00     0.049 A 
ATOM     56  H   UNL A   1      43.972  28.839  28.222  1.00  0.00     0.167 HD
ATOM     57  C   UNL A   1      46.440  30.225  28.028  1.00  0.00     0.074 A 
ATOM     58  C   UNL A   1      47.829  30.517  27.742  1.00  0.00     0.031 C 
ATOM     59  C   UNL A   1      45.563  31.119  28.547  1.00  0.00     0.037 A 
BRANCH  46  60
ATOM     60  C   UNL A   1      39.841  28.913  29.284  1.00  0.00     0.064 A 
ATOM     61  C   UNL A   1      38.874  29.294  28.342  1.00  0.00     0.173 A 
ATOM     62  C   UNL A   1      39.434  28.753  30.616  1.00  0.00     0.173 A 
ATOM     63  F   UNL A   1      39.216  29.472  27.057  1.00  0.00    -0.203 F 
ATOM     64  C   UNL A   1      37.556  29.532  28.725  1.00  0.00     0.198 A 
ATOM     65  C   UNL A   1      38.109  28.964  30.991  1.00  0.00     0.198 A 
ATOM     66  F   UNL A   1      40.318  28.384  31.555  1.00  0.00    -0.203 F 
ATOM     67  F   UNL A   1      36.660  29.939  27.816  1.00  0.00    -0.200 F 
ATOM     68  C   UNL A   1      37.173  29.360  30.047  1.00  0.00     0.200 A 
ATOM     69  F   UNL A   1      37.739  28.786  32.266  1.00  0.00    -0.200 F 
ATOM     70  F   UNL A   1      35.904  29.582  30.412  1.00  0.00    -0.200 F 
ENDBRANCH  46  60
BRANCH  47  71
ATOM     71  C   UNL A   1      49.103  26.797  26.217  1.00  0.00     0.064 A 
ATOM     72  C   UNL A   1      50.080  26.304  27.093  1.00  0.00     0.173 A 
ATOM     73  C   UNL A   1      49.466  26.995  24.877  1.00  0.00     0.173 A 
ATOM     74  F   UNL A   1      49.784  26.117  28.388  1.00  0.00    -0.203 F 
ATOM     75  C   UNL A   1      51.373  26.035  26.651  1.00  0.00     0.198 A 
ATOM     76  C   UNL A   1      50.753  26.702  24.430  1.00  0.00     0.198 A 
ATOM     77  F   UNL A   1      48.566  27.459  23.999  1.00  0.00    -0.203 F 
ATOM     78  F   UNL A   1      52.299  25.603  27.517  1.00  0.00    -0.200 F 
ATOM     79  C   UNL A   1      51.707  26.230  25.319  1.00  0.00     0.200 A 
ATOM     80  F   UNL A   1      51.068  26.877  23.140  1.00  0.00    -0.200 F 
ATOM     81  F   UNL A   1      52.951  25.968  24.893  1.00  0.00    -0.200 F 
ENDBRANCH  47  71
BRANCH  59  82
ATOM     82  C   UNL A   1      46.087  32.489  28.862  1.00  0.00     0.064 A 
ATOM     83  C   UNL A   1      46.033  33.529  27.922  1.00  0.00     0.173 A 
ATOM     84  C   UNL A   1      46.614  32.773  30.130  1.00  0.00     0.173 A 
ATOM     85  F   UNL A   1      45.552  33.302  26.690  1.00  0.00    -0.203 F 
ATOM     86  C   UNL A   1      46.511  34.799  28.234  1.00  0.00     0.198 A 
ATOM     87  C   UNL A   1      47.065  34.051  30.447  1.00  0.00     0.198 A 
ATOM     88  F   UNL A   1      46.682  31.814  31.065  1.00  0.00    -0.203 F 
ATOM     89  F   UNL A   1      46.490  35.766  27.307  1.00  0.00    -0.200 F 
ATOM     90  C   UNL A   1      47.019  35.060  29.498  1.00  0.00     0.200 A 
ATOM     91  F   UNL A   1      47.547  34.305  31.672  1.00  0.00    -0.200 F 
ATOM     92  F   UNL A   1      47.474  36.285  29.798  1.00  0.00    -0.200 F 
ENDBRANCH  59  82
ENDBRANCH  33  34
ENDBRANCH  25  28
ENDBRANCH  23  24
ENDBRANCH  22  23
ENDBRANCH  21  22
ENDBRANCH   3  21
TORSDOF 16
ENDMDL
MODEL 2
REMARK VINA RESULT:     -10.8      3.832      7.530
REMARK SMILES CN(C)C(=O)CNC(=O)NCCOCC(=O)NCCCNC(=O)c1ccc(-c2c3nc(c(-c4c(F)c(F)c(F)c(F)c4F)c4ccc([nH]4)c(-c4c(F)c(F)c(F)c(F)c4F)c4nc(c(-c5c(F)c(F)c(F)c(F)c5F)c5ccc2[nH]5)C=C4)C=C3)cc1
REMARK SMILES IDX 15 1 16 2 17 3 14 5 13 6 12 7 11 8 10 9 7 10 8 11 9 13 6 15
REMARK SMILES IDX 4 16 1 17 2 18 3 19 5 20 18 21 19 22 20 23 21 24 22 25 23 27
REMARK SMILES IDX 24 28 25 29 86 30 26 31 85 32 27 33 28 34 29 35 79 36 30 37
REMARK SMILES IDX 84 38 78 39 80 40 31 41 83 42 77 43 76 44 32 46 64 47 44 48
REMARK SMILES IDX 63 49 45 50 48 51 62 52 81 53 46 54 47 55 61 57 82 58 49 59
REMARK SMILES IDX 33 60 34 61 42 62 35 63 36 64 40 65 43 66 37 67 38 68 41 69
REMARK SMILES IDX 39 70 65 71 66 72 74 73 67 74 68 75 72 76 75 77 69 78 70 79
REMARK SMILES IDX 73 80 71 81 50 82 51 83 59 84 52 85 53 86 57 87 60 88 54 89
REMARK SMILES IDX 55 90 58 91 56 92
REMARK H PARENT 17 4 7 12 10 14 21 26 80 45 48 56
REMARK Flexibility Score: inf
ROOT
ATOM      1  C   UNL A   1      31.406  23.928  26.786  1.00  0.00     0.245 C 
ATOM      2  O   UNL A   1      30.411  23.399  27.277  1.00  0.00    -0.272 OA
ATOM      3  N   UNL A   1      31.509  25.290  26.792  1.00  0.00    -0.354 N 
ATOM      4  H   UNL A   1      30.758  25.778  27.200  1.00  0.00     0.163 HD
ENDROOT
BRANCH   1   5
ATOM      5  C   UNL A   1      32.535  23.107  26.161  1.00  0.00     0.260 C 
BRANCH   5   6
ATOM      6  O   UNL A   1      32.792  23.367  24.790  1.00  0.00    -0.370 OA
BRANCH   6   7
ATOM      7  C   UNL A   1      31.700  23.085  23.903  1.00  0.00     0.182 C 
BRANCH   7   8
ATOM      8  C   UNL A   1      31.196  24.324  23.156  1.00  0.00     0.146 C 
BRANCH   8   9
ATOM      9  N   UNL A   1      32.005  24.644  21.987  1.00  0.00    -0.336 N 
ATOM     10  N   UNL A   1      32.095  26.988  21.715  1.00  0.00    -0.329 N 
ATOM     11  C   UNL A   1      32.365  25.745  21.330  1.00  0.00     0.315 C 
ATOM     12  H   UNL A   1      32.442  27.655  21.080  1.00  0.00     0.165 HD
ATOM     13  O   UNL A   1      33.051  25.604  20.316  1.00  0.00    -0.249 OA
ATOM     14  H   UNL A   1      32.385  23.834  21.576  1.00  0.00     0.165 HD
BRANCH  10  15
ATOM     15  C   UNL A   1      31.420  27.608  22.835  1.00  0.00     0.218 C 
BRANCH  15  16
ATOM     16  C   UNL A   1      30.158  28.460  22.574  1.00  0.00     0.241 C 
ATOM     17  C   UNL A   1      27.788  28.953  22.675  1.00  0.00     0.146 C 
ATOM     18  N   UNL A   1      28.904  28.098  23.046  1.00  0.00    -0.347 N 
ATOM     19  C   UNL A   1      28.590  26.907  23.814  1.00  0.00     0.146 C 
ATOM     20  O   UNL A   1      30.271  29.424  21.802  1.00  0.00    -0.273 OA
ENDBRANCH  15  16
ENDBRANCH  10  15
ENDBRANCH   8   9
ENDBRANCH   7   8
ENDBRANCH   6   7
ENDBRANCH   5   6
ENDBRANCH   1   5
BRANCH   3  21
ATOM     21  C   UNL A   1      32.589  26.101  26.270  1.00  0.00     0.117 C 
BRANCH  21  22
ATOM     22  C   UNL A   1      32.490  27.556  26.711  1.00  0.00     0.042 C 
BRANCH  22  23
ATOM     23  C   UNL A   1      33.829  28.287  26.761  1.00  0.00     0.118 C 
BRANCH  23  24
ATOM     24  N   UNL A   1      33.694  29.681  27.159  1.00  0.00    -0.352 N 
ATOM     25  C   UNL A   1      34.511  30.484  27.908  1.00  0.00     0.251 C 
ATOM     26  H   UNL A   1      32.875  30.121  26.835  1.00  0.00     0.163 HD
ATOM     27  O   UNL A   1      34.094  31.578  28.291  1.00  0.00    -0.269 OA
BRANCH  25  28
ATOM     28  C   UNL A   1      35.880  30.061  28.269  1.00  0.00     0.039 A 
ATOM     29  C   UNL A   1      36.886  30.150  27.300  1.00  0.00     0.014 A 
ATOM     30  C   UNL A   1      36.170  29.522  29.525  1.00  0.00     0.014 A 
ATOM     31  C   UNL A   1      38.188  29.753  27.610  1.00  0.00     0.010 A 
ATOM     32  C   UNL A   1      37.483  29.198  29.857  1.00  0.00     0.010 A 
ATOM     33  C   UNL A   1      38.503  29.301  28.901  1.00  0.00    -0.014 A 
BRANCH  33  34
ATOM     34  C   UNL A   1      39.892  28.923  29.261  1.00  0.00     0.031 A 
ATOM     35  C   UNL A   1      40.736  29.847  30.094  1.00  0.00     0.074 A 
ATOM     36  C   UNL A   1      40.412  27.775  28.788  1.00  0.00     0.049 A 
ATOM     37  N   UNL A   1      41.988  29.722  30.460  1.00  0.00    -0.248 NA
ATOM     38  C   UNL A   1      40.099  31.090  30.556  1.00  0.00     0.031 C 
ATOM     39  C   UNL A   1      39.710  26.822  27.928  1.00  0.00     0.029 A 
ATOM     40  N   UNL A   1      41.656  27.221  28.953  1.00  0.00    -0.354 N 
ATOM     41  C   UNL A   1      42.290  30.873  31.173  1.00  0.00     0.074 A 
ATOM     42  C   UNL A   1      41.109  31.708  31.151  1.00  0.00     0.031 C 
ATOM     43  C   UNL A   1      40.526  25.790  27.658  1.00  0.00     0.029 A 
ATOM     44  C   UNL A   1      41.816  26.024  28.297  1.00  0.00     0.049 A 
ATOM     45  H   UNL A   1      42.366  27.641  29.490  1.00  0.00     0.167 HD
ATOM     46  C   UNL A   1      43.443  31.196  31.807  1.00  0.00     0.037 A 
ATOM     47  C   UNL A   1      42.886  25.212  28.219  1.00  0.00     0.037 A 
ATOM     48  C   UNL A   1      44.604  30.348  31.859  1.00  0.00     0.049 A 
ATOM     49  C   UNL A   1      44.148  25.584  28.948  1.00  0.00     0.074 A 
ATOM     50  C   UNL A   1      45.794  30.552  32.535  1.00  0.00     0.029 A 
ATOM     51  N   UNL A   1      44.719  29.129  31.205  1.00  0.00    -0.354 N 
ATOM     52  N   UNL A   1      44.398  26.643  29.678  1.00  0.00    -0.248 NA
ATOM     53  C   UNL A   1      45.272  24.644  28.848  1.00  0.00     0.031 C 
ATOM     54  C   UNL A   1      46.644  29.475  32.260  1.00  0.00     0.029 A 
ATOM     55  C   UNL A   1      45.968  28.580  31.447  1.00  0.00     0.049 A 
ATOM     56  H   UNL A   1      44.018  28.717  30.651  1.00  0.00     0.167 HD
ATOM     57  C   UNL A   1      45.697  26.487  30.143  1.00  0.00     0.074 A 
ATOM     58  C   UNL A   1      46.177  25.222  29.625  1.00  0.00     0.031 C 
ATOM     59  C   UNL A   1      46.427  27.317  30.927  1.00  0.00     0.037 A 
BRANCH  46  60
ATOM     60  C   UNL A   1      43.502  32.522  32.509  1.00  0.00     0.064 A 
ATOM     61  C   UNL A   1      43.039  32.679  33.824  1.00  0.00     0.173 A 
ATOM     62  C   UNL A   1      44.059  33.640  31.871  1.00  0.00     0.173 A 
ATOM     63  F   UNL A   1      42.487  31.643  34.473  1.00  0.00    -0.203 F 
ATOM     64  C   UNL A   1      43.108  33.913  34.465  1.00  0.00     0.198 A 
ATOM     65  C   UNL A   1      44.152  34.866  32.525  1.00  0.00     0.198 A 
ATOM     66  F   UNL A   1      44.522  33.543  30.616  1.00  0.00    -0.203 F 
ATOM     67  F   UNL A   1      42.618  34.050  35.705  1.00  0.00    -0.200 F 
ATOM     68  C   UNL A   1      43.670  35.004  33.818  1.00  0.00     0.200 A 
ATOM     69  F   UNL A   1      44.706  35.915  31.903  1.00  0.00    -0.200 F 
ATOM     70  F   UNL A   1      43.742  36.189  34.439  1.00  0.00    -0.200 F 
ENDBRANCH  46  60
BRANCH  47  71
ATOM     71  C   UNL A   1      42.800  23.948  27.443  1.00  0.00     0.064 A 
ATOM     72  C   UNL A   1      42.343  22.767  28.044  1.00  0.00     0.173 A 
ATOM     73  C   UNL A   1      43.167  23.894  26.091  1.00  0.00     0.173 A 
ATOM     74  F   UNL A   1      41.999  22.766  29.340  1.00  0.00    -0.203 F 
ATOM     75  C   UNL A   1      42.273  21.576  27.326  1.00  0.00     0.198 A 
ATOM     76  C   UNL A   1      43.073  22.708  25.367  1.00  0.00     0.198 A 
ATOM     77  F   UNL A   1      43.605  24.999  25.469  1.00  0.00    -0.203 F 
ATOM     78  F   UNL A   1      41.871  20.452  27.936  1.00  0.00    -0.200 F 
ATOM     79  C   UNL A   1      42.633  21.548  25.987  1.00  0.00     0.200 A 
ATOM     80  F   UNL A   1      43.407  22.688  24.070  1.00  0.00    -0.200 F 
ATOM     81  F   UNL A   1      42.562  20.402  25.296  1.00  0.00    -0.200 F 
ENDBRANCH  47  71
BRANCH  59  82
ATOM     82  C   UNL A   1      47.811  26.871  31.295  1.00  0.00     0.064 A 
ATOM     83  C   UNL A   1      48.039  25.996  32.368  1.00  0.00     0.173 A 
ATOM     84  C   UNL A   1      48.917  27.294  30.544  1.00  0.00     0.173 A 
ATOM     85  F   UNL A   1      47.014  25.576  33.125  1.00  0.00    -0.203 F 
ATOM     86  C   UNL A   1      49.327  25.580  32.689  1.00  0.00     0.198 A 
ATOM     87  C   UNL A   1      50.201  26.855  30.852  1.00  0.00     0.198 A 
ATOM     88  F   UNL A   1      48.751  28.127  29.505  1.00  0.00    -0.203 F 
ATOM     89  F   UNL A   1      49.527  24.779  33.745  1.00  0.00    -0.200 F 
ATOM     90  C   UNL A   1      50.406  26.004  31.926  1.00  0.00     0.200 A 
ATOM     91  F   UNL A   1      51.241  27.256  30.108  1.00  0.00    -0.200 F 
ATOM     92  F   UNL A   1      51.646  25.597  32.235  1.00  0.00    -0.200 F 
ENDBRANCH  59  82
ENDBRANCH  33  34
ENDBRANCH  25  28
ENDBRANCH  23  24
ENDBRANCH  22  23
ENDBRANCH  21  22
ENDBRANCH   3  21
TORSDOF 16
ENDMDL
MODEL 3
REMARK VINA RESULT:     -10.8      5.679     11.156
REMARK SMILES CN(C)C(=O)CNC(=O)NCCOCC(=O)NCCCNC(=O)c1ccc(-c2c3nc(c(-c4c(F)c(F)c(F)c(F)c4F)c4ccc([nH]4)c(-c4c(F)c(F)c(F)c(F)c4F)c4nc(c(-c5c(F)c(F)c(F)c(F)c5F)c5ccc2[nH]5)C=C4)C=C3)cc1
REMARK SMILES IDX 15 1 16 2 17 3 14 5 13 6 12 7 11 8 10 9 7 10 8 11 9 13 6 15
REMARK SMILES IDX 4 16 1 17 2 18 3 19 5 20 18 21 19 22 20 23 21 24 22 25 23 27
REMARK SMILES IDX 24 28 25 29 86 30 26 31 85 32 27 33 28 34 29 35 79 36 30 37
REMARK SMILES IDX 84 38 78 39 80 40 31 41 83 42 77 43 76 44 32 46 64 47 44 48
REMARK SMILES IDX 63 49 45 50 48 51 62 52 81 53 46 54 47 55 61 57 82 58 49 59
REMARK SMILES IDX 33 60 34 61 42 62 35 63 36 64 40 65 43 66 37 67 38 68 41 69
REMARK SMILES IDX 39 70 65 71 66 72 74 73 67 74 68 75 72 76 75 77 69 78 70 79
REMARK SMILES IDX 73 80 71 81 50 82 51 83 59 84 52 85 53 86 57 87 60 88 54 89
REMARK SMILES IDX 55 90 58 91 56 92
REMARK H PARENT 17 4 7 12 10 14 21 26 80 45 48 56
REMARK Flexibility Score: inf
ROOT
ATOM      1  C   UNL A   1      33.199  29.168  26.118  1.00  0.00     0.245 C 
ATOM      2  O   UNL A   1      33.933  28.541  26.879  1.00  0.00    -0.272 OA
ATOM      3  N   UNL A   1      32.325  30.080  26.637  1.00  0.00    -0.354 N 
ATOM      4  H   UNL A   1      32.338  30.183  27.616  1.00  0.00     0.163 HD
ENDROOT
BRANCH   1   5
ATOM      5  C   UNL A   1      33.227  28.954  24.604  1.00  0.00     0.260 C 
BRANCH   5   6
ATOM      6  O   UNL A   1      32.397  27.910  24.119  1.00  0.00    -0.370 OA
BRANCH   6   7
ATOM      7  C   UNL A   1      31.093  28.323  23.686  1.00  0.00     0.182 C 
BRANCH   7   8
ATOM      8  C   UNL A   1      30.604  27.566  22.447  1.00  0.00     0.146 C 
BRANCH   8   9
ATOM      9  N   UNL A   1      31.689  26.928  21.712  1.00  0.00    -0.336 N 
ATOM     10  N   UNL A   1      31.829  24.656  22.340  1.00  0.00    -0.329 N 
ATOM     11  C   UNL A   1      32.258  25.725  21.676  1.00  0.00     0.315 C 
ATOM     12  H   UNL A   1      32.400  23.870  22.182  1.00  0.00     0.165 HD
ATOM     13  O   UNL A   1      33.222  25.573  20.924  1.00  0.00    -0.249 OA
ATOM     14  H   UNL A   1      32.112  27.550  21.077  1.00  0.00     0.165 HD
BRANCH  10  15
ATOM     15  C   UNL A   1      30.733  24.356  23.236  1.00  0.00     0.218 C 
BRANCH  15  16
ATOM     16  C   UNL A   1      30.989  24.348  24.760  1.00  0.00     0.241 C 
ATOM     17  C   UNL A   1      31.664  23.352  26.863  1.00  0.00     0.146 C 
ATOM     18  N   UNL A   1      31.535  23.254  25.418  1.00  0.00    -0.347 N 
ATOM     19  C   UNL A   1      31.919  21.995  24.809  1.00  0.00     0.146 C 
ATOM     20  O   UNL A   1      30.563  25.312  25.414  1.00  0.00    -0.273 OA
ENDBRANCH  15  16
ENDBRANCH  10  15
ENDBRANCH   8   9
ENDBRANCH   7   8
ENDBRANCH   6   7
ENDBRANCH   5   6
ENDBRANCH   1   5
BRANCH   3  21
ATOM     21  C   UNL A   1      31.384  30.916  25.920  1.00  0.00     0.117 C 
BRANCH  21  22
ATOM     22  C   UNL A   1      31.250  32.302  26.536  1.00  0.00     0.042 C 
BRANCH  22  23
ATOM     23  C   UNL A   1      32.515  32.805  27.226  1.00  0.00     0.118 C 
BRANCH  23  24
ATOM     24  N   UNL A   1      32.408  34.193  27.654  1.00  0.00    -0.352 N 
ATOM     25  C   UNL A   1      33.055  34.878  28.647  1.00  0.00     0.251 C 
ATOM     26  H   UNL A   1      31.761  34.730  27.143  1.00  0.00     0.163 HD
ATOM     27  O   UNL A   1      32.654  35.999  28.966  1.00  0.00    -0.269 OA
BRANCH  25  28
ATOM     28  C   UNL A   1      34.219  34.297  29.348  1.00  0.00     0.039 A 
ATOM     29  C   UNL A   1      33.999  33.574  30.526  1.00  0.00     0.014 A 
ATOM     30  C   UNL A   1      35.523  34.507  28.894  1.00  0.00     0.014 A 
ATOM     31  C   UNL A   1      35.079  33.018  31.214  1.00  0.00     0.010 A 
ATOM     32  C   UNL A   1      36.592  33.888  29.538  1.00  0.00     0.010 A 
ATOM     33  C   UNL A   1      36.382  33.145  30.708  1.00  0.00    -0.014 A 
BRANCH  33  34
ATOM     34  C   UNL A   1      37.535  32.517  31.399  1.00  0.00     0.031 A 
ATOM     35  C   UNL A   1      38.275  31.378  30.754  1.00  0.00     0.074 A 
ATOM     36  C   UNL A   1      37.877  32.933  32.633  1.00  0.00     0.049 A 
ATOM     37  N   UNL A   1      39.265  30.661  31.225  1.00  0.00    -0.248 NA
ATOM     38  C   UNL A   1      37.827  30.972  29.413  1.00  0.00     0.031 C 
ATOM     39  C   UNL A   1      37.203  33.992  33.384  1.00  0.00     0.029 A 
ATOM     40  N   UNL A   1      38.870  32.505  33.477  1.00  0.00    -0.354 N 
ATOM     41  C   UNL A   1      39.542  29.713  30.250  1.00  0.00     0.074 A 
ATOM     42  C   UNL A   1      38.587  29.912  29.182  1.00  0.00     0.031 C 
ATOM     43  C   UNL A   1      37.814  34.147  34.569  1.00  0.00     0.029 A 
ATOM     44  C   UNL A   1      38.900  33.178  34.675  1.00  0.00     0.049 A 
ATOM     45  H   UNL A   1      39.501  31.785  33.248  1.00  0.00     0.167 HD
ATOM     46  C   UNL A   1      40.518  28.773  30.238  1.00  0.00     0.037 A 
ATOM     47  C   UNL A   1      39.711  33.026  35.738  1.00  0.00     0.037 A 
ATOM     48  C   UNL A   1      41.489  28.601  31.286  1.00  0.00     0.049 A 
ATOM     49  C   UNL A   1      40.798  31.989  35.692  1.00  0.00     0.074 A 
ATOM     50  C   UNL A   1      42.561  27.727  31.335  1.00  0.00     0.029 A 
ATOM     51  N   UNL A   1      41.504  29.321  32.472  1.00  0.00    -0.354 N 
ATOM     52  N   UNL A   1      41.094  31.144  34.735  1.00  0.00    -0.248 NA
ATOM     53  C   UNL A   1      41.669  31.890  36.871  1.00  0.00     0.031 C 
ATOM     54  C   UNL A   1      43.203  27.891  32.567  1.00  0.00     0.029 A 
ATOM     55  C   UNL A   1      42.557  28.897  33.268  1.00  0.00     0.049 A 
ATOM     56  H   UNL A   1      40.863  30.027  32.712  1.00  0.00     0.167 HD
ATOM     57  C   UNL A   1      42.196  30.431  35.184  1.00  0.00     0.074 A 
ATOM     58  C   UNL A   1      42.527  30.952  36.494  1.00  0.00     0.031 C 
ATOM     59  C   UNL A   1      42.874  29.431  34.567  1.00  0.00     0.037 A 
BRANCH  46  60
ATOM     60  C   UNL A   1      40.591  27.863  29.047  1.00  0.00     0.064 A 
ATOM     61  C   UNL A   1      41.453  28.128  27.971  1.00  0.00     0.173 A 
ATOM     62  C   UNL A   1      39.817  26.695  28.995  1.00  0.00     0.173 A 
ATOM     63  F   UNL A   1      42.205  29.238  27.967  1.00  0.00    -0.203 F 
ATOM     64  C   UNL A   1      41.517  27.270  26.876  1.00  0.00     0.198 A 
ATOM     65  C   UNL A   1      39.904  25.824  27.912  1.00  0.00     0.198 A 
ATOM     66  F   UNL A   1      38.981  26.392  30.000  1.00  0.00    -0.203 F 
ATOM     67  F   UNL A   1      42.313  27.567  25.840  1.00  0.00    -0.200 F 
ATOM     68  C   UNL A   1      40.747  26.116  26.850  1.00  0.00     0.200 A 
ATOM     69  F   UNL A   1      39.169  24.704  27.893  1.00  0.00    -0.200 F 
ATOM     70  F   UNL A   1      40.815  25.288  25.799  1.00  0.00    -0.200 F 
ENDBRANCH  46  60
BRANCH  47  71
ATOM     71  C   UNL A   1      39.543  33.901  36.927  1.00  0.00     0.064 A 
ATOM     72  C   UNL A   1      38.830  33.459  38.050  1.00  0.00     0.173 A 
ATOM     73  C   UNL A   1      40.091  35.191  36.967  1.00  0.00     0.173 A 
ATOM     74  F   UNL A   1      38.272  32.239  38.049  1.00  0.00    -0.203 F 
ATOM     75  C   UNL A   1      38.657  34.279  39.161  1.00  0.00     0.198 A 
ATOM     76  C   UNL A   1      39.938  36.003  38.089  1.00  0.00     0.198 A 
ATOM     77  F   UNL A   1      40.786  35.659  35.920  1.00  0.00    -0.203 F 
ATOM     78  F   UNL A   1      37.937  33.847  40.205  1.00  0.00    -0.200 F 
ATOM     79  C   UNL A   1      39.215  35.549  39.183  1.00  0.00     0.200 A 
ATOM     80  F   UNL A   1      40.491  37.223  38.113  1.00  0.00    -0.200 F 
ATOM     81  F   UNL A   1      39.052  36.337  40.254  1.00  0.00    -0.200 F 
ENDBRANCH  47  71
BRANCH  59  82
ATOM     82  C   UNL A   1      44.055  28.856  35.290  1.00  0.00     0.064 A 
ATOM     83  C   UNL A   1      43.916  27.791  36.193  1.00  0.00     0.173 A 
ATOM     84  C   UNL A   1      45.345  29.351  35.050  1.00  0.00     0.173 A 
ATOM     85  F   UNL A   1      42.700  27.294  36.467  1.00  0.00    -0.203 F 
ATOM     86  C   UNL A   1      45.023  27.259  36.846  1.00  0.00     0.198 A 
ATOM     87  C   UNL A   1      46.453  28.799  35.685  1.00  0.00     0.198 A 
ATOM     88  F   UNL A   1      45.532  30.366  34.192  1.00  0.00    -0.203 F 
ATOM     89  F   UNL A   1      44.862  26.271  37.737  1.00  0.00    -0.200 F 
ATOM     90  C   UNL A   1      46.291  27.758  36.586  1.00  0.00     0.200 A 
ATOM     91  F   UNL A   1      47.679  29.274  35.425  1.00  0.00    -0.200 F 
ATOM     92  F   UNL A   1      47.357  27.240  37.213  1.00  0.00    -0.200 F 
ENDBRANCH  59  82
ENDBRANCH  33  34
ENDBRANCH  25  28
ENDBRANCH  23  24
ENDBRANCH  22  23
ENDBRANCH  21  22
ENDBRANCH   3  21
TORSDOF 16
ENDMDL
