MODEL 1
REMARK VINA RESULT:     -13.7      0.000      0.000
REMARK SMILES COc1ccc(-c2cc(F)cc(C(=O)NCCCNC(=O)c3ccc(-c4c5nc(c(-c6c(F)c(F)c(F)c(F)c6F)c6ccc([nH]6)c(-c6c(F)c(F)c(F)c(F)c6F)c6nc(c(-c7c(F)c(F)c(F)c(F)c7F)c7ccc4[nH]7)C=C6)C=C5)cc3)c2)cc1C
REMARK SMILES IDX 17 1 16 2 15 3 13 4 14 5 12 7 7 8 8 9 85 10 9 11 10 12 11 13
REMARK SMILES IDX 6 14 3 15 4 16 87 17 5 18 86 19 88 20 2 21 1 22 18 23 19 24
REMARK SMILES IDX 20 25 21 27 22 28 23 29 84 30 24 31 83 32 25 33 26 34 27 35
REMARK SMILES IDX 77 36 28 37 82 38 76 39 78 40 29 41 81 42 75 43 74 44 30 46
REMARK SMILES IDX 62 47 42 48 61 49 43 50 46 51 60 52 79 53 44 54 45 55 59 57
REMARK SMILES IDX 80 58 47 59 31 60 32 61 40 62 33 63 34 64 38 65 41 66 35 67
REMARK SMILES IDX 36 68 39 69 37 70 63 71 64 72 72 73 65 74 66 75 70 76 73 77
REMARK SMILES IDX 67 78 68 79 71 80 69 81 48 82 49 83 57 84 50 85 51 86 55 87
REMARK SMILES IDX 58 88 52 89 53 90 56 91 54 92
REMARK H PARENT 15 6 19 26 78 45 46 56
REMARK Flexibility Score: inf
ROOT
ATOM      1  C   UNL A   1      38.505  21.244  25.403  1.00  0.00     0.042 C 
ENDROOT
BRANCH   1   2
ATOM      2  C   UNL A   1      37.060  21.134  24.910  1.00  0.00     0.118 C 
BRANCH   2   3
ATOM      3  N   UNL A   1      36.105  21.236  26.003  1.00  0.00    -0.352 N 
ATOM      4  C   UNL A   1      34.918  21.911  26.165  1.00  0.00     0.251 C 
ATOM      5  O   UNL A   1      34.331  21.729  27.233  1.00  0.00    -0.269 OA
ATOM      6  H   UNL A   1      36.364  20.710  26.794  1.00  0.00     0.163 HD
BRANCH   4   7
ATOM      7  C   UNL A   1      34.304  22.838  25.159  1.00  0.00     0.043 A 
ATOM      8  C   UNL A   1      33.436  25.105  24.728  1.00  0.00    -0.015 A 
ATOM      9  C   UNL A   1      33.203  24.744  23.396  1.00  0.00     0.048 A 
ATOM     10  C   UNL A   1      33.998  24.147  25.593  1.00  0.00     0.022 A 
ATOM     11  C   UNL A   1      33.506  23.468  22.964  1.00  0.00     0.124 A 
ATOM     12  F   UNL A   1      33.283  23.132  21.686  1.00  0.00    -0.207 F 
ATOM     13  C   UNL A   1      34.041  22.523  23.828  1.00  0.00     0.053 A 
BRANCH   8  14
ATOM     14  C   UNL A   1      33.083  26.458  25.174  1.00  0.00    -0.018 A 
ATOM     15  C   UNL A   1      32.520  29.136  25.819  1.00  0.00     0.121 A 
ATOM     16  C   UNL A   1      33.528  28.444  26.495  1.00  0.00     0.047 A 
ATOM     17  C   UNL A   1      31.785  28.512  24.805  1.00  0.00    -0.008 A 
ATOM     18  C   UNL A   1      33.803  27.111  26.181  1.00  0.00     0.012 A 
ATOM     19  C   UNL A   1      32.061  27.167  24.515  1.00  0.00     0.016 A 
ATOM     20  C   UNL A   1      30.726  29.223  24.016  1.00  0.00     0.048 C 
BRANCH  15  21
ATOM     21  O   UNL A   1      32.381  30.465  26.120  1.00  0.00    -0.496 OA
ATOM     22  C   UNL A   1      33.233  30.861  27.194  1.00  0.00     0.278 C 
ENDBRANCH  15  21
ENDBRANCH   8  14
ENDBRANCH   4   7
ENDBRANCH   2   3
ENDBRANCH   1   2
BRANCH   1  23
ATOM     23  C   UNL A   1      38.883  22.626  25.913  1.00  0.00     0.118 C 
BRANCH  23  24
ATOM     24  N   UNL A   1      40.313  22.769  26.182  1.00  0.00    -0.352 N 
ATOM     25  C   UNL A   1      41.014  23.901  26.552  1.00  0.00     0.251 C 
ATOM     26  H   UNL A   1      40.849  21.948  26.089  1.00  0.00     0.163 HD
ATOM     27  O   UNL A   1      42.227  23.861  26.729  1.00  0.00    -0.269 OA
BRANCH  25  28
ATOM     28  C   UNL A   1      40.252  25.124  26.875  1.00  0.00     0.039 A 
ATOM     29  C   UNL A   1      40.631  26.300  26.222  1.00  0.00     0.014 A 
ATOM     30  C   UNL A   1      39.411  25.156  27.985  1.00  0.00     0.014 A 
ATOM     31  C   UNL A   1      40.396  27.519  26.846  1.00  0.00     0.010 A 
ATOM     32  C   UNL A   1      39.247  26.357  28.647  1.00  0.00     0.010 A 
ATOM     33  C   UNL A   1      39.825  27.517  28.118  1.00  0.00    -0.014 A 
BRANCH  33  34
ATOM     34  C   UNL A   1      39.958  28.647  29.028  1.00  0.00     0.031 A 
ATOM     35  C   UNL A   1      38.962  29.734  29.027  1.00  0.00     0.074 A 
ATOM     36  C   UNL A   1      40.999  28.667  29.892  1.00  0.00     0.049 A 
ATOM     37  N   UNL A   1      39.175  30.905  29.526  1.00  0.00    -0.248 NA
ATOM     38  C   UNL A   1      37.668  29.619  28.362  1.00  0.00     0.031 C 
ATOM     39  C   UNL A   1      41.191  29.545  31.043  1.00  0.00     0.029 A 
ATOM     40  N   UNL A   1      42.234  28.008  29.745  1.00  0.00    -0.354 N 
ATOM     41  C   UNL A   1      37.983  31.588  29.509  1.00  0.00     0.074 A 
ATOM     42  C   UNL A   1      37.129  30.809  28.651  1.00  0.00     0.031 C 
ATOM     43  C   UNL A   1      42.504  29.610  31.320  1.00  0.00     0.029 A 
ATOM     44  C   UNL A   1      43.199  28.905  30.257  1.00  0.00     0.049 A 
ATOM     45  H   UNL A   1      42.392  27.112  29.366  1.00  0.00     0.167 HD
ATOM     46  C   UNL A   1      37.836  32.655  30.343  1.00  0.00     0.037 A 
ATOM     47  C   UNL A   1      44.163  29.451  29.463  1.00  0.00     0.037 A 
ATOM     48  C   UNL A   1      39.140  33.111  30.831  1.00  0.00     0.049 A 
ATOM     49  C   UNL A   1      44.170  30.961  29.442  1.00  0.00     0.074 A 
ATOM     50  C   UNL A   1      39.797  33.013  32.045  1.00  0.00     0.029 A 
ATOM     51  N   UNL A   1      40.086  33.552  29.907  1.00  0.00    -0.354 N 
ATOM     52  N   UNL A   1      43.157  31.699  29.800  1.00  0.00    -0.248 NA
ATOM     53  C   UNL A   1      45.294  31.751  28.948  1.00  0.00     0.031 C 
ATOM     54  C   UNL A   1      41.171  33.307  31.822  1.00  0.00     0.029 A 
ATOM     55  C   UNL A   1      41.339  33.624  30.483  1.00  0.00     0.049 A 
ATOM     56  H   UNL A   1      39.888  33.782  28.970  1.00  0.00     0.167 HD
ATOM     57  C   UNL A   1      43.437  33.013  29.529  1.00  0.00     0.074 A 
ATOM     58  C   UNL A   1      44.801  32.998  29.036  1.00  0.00     0.031 C 
ATOM     59  C   UNL A   1      42.505  33.997  29.692  1.00  0.00     0.037 A 
BRANCH  46  60
ATOM     60  C   UNL A   1      36.512  33.163  30.900  1.00  0.00     0.064 A 
ATOM     61  C   UNL A   1      35.673  33.976  30.100  1.00  0.00     0.173 A 
ATOM     62  C   UNL A   1      36.070  33.022  32.234  1.00  0.00     0.173 A 
ATOM     63  F   UNL A   1      35.947  34.200  28.807  1.00  0.00    -0.203 F 
ATOM     64  C   UNL A   1      34.530  34.612  30.603  1.00  0.00     0.198 A 
ATOM     65  C   UNL A   1      34.906  33.624  32.724  1.00  0.00     0.198 A 
ATOM     66  F   UNL A   1      36.752  32.337  33.152  1.00  0.00    -0.203 F 
ATOM     67  F   UNL A   1      33.812  35.418  29.808  1.00  0.00    -0.200 F 
ATOM     68  C   UNL A   1      34.144  34.435  31.915  1.00  0.00     0.200 A 
ATOM     69  F   UNL A   1      34.553  33.432  34.004  1.00  0.00    -0.200 F 
ATOM     70  F   UNL A   1      33.057  35.048  32.402  1.00  0.00    -0.200 F 
ENDBRANCH  46  60
BRANCH  47  71
ATOM     71  C   UNL A   1      44.539  28.605  28.298  1.00  0.00     0.064 A 
ATOM     72  C   UNL A   1      45.343  27.469  28.509  1.00  0.00     0.173 A 
ATOM     73  C   UNL A   1      43.871  28.704  27.071  1.00  0.00     0.173 A 
ATOM     74  F   UNL A   1      46.003  27.321  29.669  1.00  0.00    -0.203 F 
ATOM     75  C   UNL A   1      45.393  26.432  27.581  1.00  0.00     0.198 A 
ATOM     76  C   UNL A   1      43.934  27.668  26.137  1.00  0.00     0.198 A 
ATOM     77  F   UNL A   1      43.071  29.749  26.814  1.00  0.00    -0.203 F 
ATOM     78  F   UNL A   1      46.082  25.317  27.862  1.00  0.00    -0.200 F 
ATOM     79  C   UNL A   1      44.670  26.523  26.404  1.00  0.00     0.200 A 
ATOM     80  F   UNL A   1      43.207  27.741  25.013  1.00  0.00    -0.200 F 
ATOM     81  F   UNL A   1      44.646  25.493  25.548  1.00  0.00    -0.200 F 
ENDBRANCH  47  71
BRANCH  59  82
ATOM     82  C   UNL A   1      42.632  35.407  29.167  1.00  0.00     0.064 A 
ATOM     83  C   UNL A   1      41.953  35.888  28.034  1.00  0.00     0.173 A 
ATOM     84  C   UNL A   1      43.354  36.378  29.901  1.00  0.00     0.173 A 
ATOM     85  F   UNL A   1      41.128  35.102  27.328  1.00  0.00    -0.203 F 
ATOM     86  C   UNL A   1      42.051  37.220  27.620  1.00  0.00     0.198 A 
ATOM     87  C   UNL A   1      43.401  37.719  29.518  1.00  0.00     0.198 A 
ATOM     88  F   UNL A   1      44.011  36.056  31.024  1.00  0.00    -0.203 F 
ATOM     89  F   UNL A   1      41.421  37.616  26.505  1.00  0.00    -0.200 F 
ATOM     90  C   UNL A   1      42.766  38.136  28.367  1.00  0.00     0.200 A 
ATOM     91  F   UNL A   1      44.050  38.607  30.284  1.00  0.00    -0.200 F 
ATOM     92  F   UNL A   1      42.821  39.421  27.991  1.00  0.00    -0.200 F 
ENDBRANCH  59  82
ENDBRANCH  33  34
ENDBRANCH  25  28
ENDBRANCH  23  24
ENDBRANCH   1  23
TORSDOF 12
ENDMDL
MODEL 2
REMARK VINA RESULT:     -13.7      3.738     10.243
REMARK SMILES COc1ccc(-c2cc(F)cc(C(=O)NCCCNC(=O)c3ccc(-c4c5nc(c(-c6c(F)c(F)c(F)c(F)c6F)c6ccc([nH]6)c(-c6c(F)c(F)c(F)c(F)c6F)c6nc(c(-c7c(F)c(F)c(F)c(F)c7F)c7ccc4[nH]7)C=C6)C=C5)cc3)c2)cc1C
REMARK SMILES IDX 17 1 16 2 15 3 13 4 14 5 12 7 7 8 8 9 85 10 9 11 10 12 11 13
REMARK SMILES IDX 6 14 3 15 4 16 87 17 5 18 86 19 88 20 2 21 1 22 18 23 19 24
REMARK SMILES IDX 20 25 21 27 22 28 23 29 84 30 24 31 83 32 25 33 26 34 27 35
REMARK SMILES IDX 77 36 28 37 82 38 76 39 78 40 29 41 81 42 75 43 74 44 30 46
REMARK SMILES IDX 62 47 42 48 61 49 43 50 46 51 60 52 79 53 44 54 45 55 59 57
REMARK SMILES IDX 80 58 47 59 31 60 32 61 40 62 33 63 34 64 38 65 41 66 35 67
REMARK SMILES IDX 36 68 39 69 37 70 63 71 64 72 72 73 65 74 66 75 70 76 73 77
REMARK SMILES IDX 67 78 68 79 71 80 69 81 48 82 49 83 57 84 50 85 51 86 55 87
REMARK SMILES IDX 58 88 52 89 53 90 56 91 54 92
REMARK H PARENT 15 6 19 26 78 45 46 56
REMARK Flexibility Score: inf
ROOT
ATOM      1  C   UNL A   1      33.320  31.032  26.896  1.00  0.00     0.042 C 
ENDROOT
BRANCH   1   2
ATOM      2  C   UNL A   1      32.145  30.195  26.383  1.00  0.00     0.118 C 
BRANCH   2   3
ATOM      3  N   UNL A   1      32.289  29.867  24.973  1.00  0.00    -0.352 N 
ATOM      4  C   UNL A   1      32.177  28.699  24.256  1.00  0.00     0.251 C 
ATOM      5  O   UNL A   1      32.322  28.795  23.035  1.00  0.00    -0.269 OA
ATOM      6  H   UNL A   1      32.516  30.645  24.414  1.00  0.00     0.163 HD
BRANCH   4   7
ATOM      7  C   UNL A   1      31.903  27.346  24.840  1.00  0.00     0.043 A 
ATOM      8  C   UNL A   1      32.850  25.153  25.454  1.00  0.00    -0.015 A 
ATOM      9  C   UNL A   1      31.601  24.777  25.964  1.00  0.00     0.048 A 
ATOM     10  C   UNL A   1      32.989  26.442  24.907  1.00  0.00     0.022 A 
ATOM     11  C   UNL A   1      30.538  25.656  25.906  1.00  0.00     0.124 A 
ATOM     12  F   UNL A   1      29.348  25.290  26.399  1.00  0.00    -0.207 F 
ATOM     13  C   UNL A   1      30.679  26.920  25.347  1.00  0.00     0.053 A 
BRANCH   8  14
ATOM     14  C   UNL A   1      33.958  24.193  25.501  1.00  0.00    -0.018 A 
ATOM     15  C   UNL A   1      35.951  22.211  25.430  1.00  0.00     0.121 A 
ATOM     16  C   UNL A   1      35.111  22.327  26.540  1.00  0.00     0.047 A 
ATOM     17  C   UNL A   1      35.807  23.070  24.335  1.00  0.00    -0.008 A 
ATOM     18  C   UNL A   1      34.126  23.317  26.581  1.00  0.00     0.012 A 
ATOM     19  C   UNL A   1      34.825  24.070  24.399  1.00  0.00     0.016 A 
ATOM     20  C   UNL A   1      36.651  22.958  23.100  1.00  0.00     0.048 C 
BRANCH  15  21
ATOM     21  O   UNL A   1      36.824  21.155  25.430  1.00  0.00    -0.496 OA
ATOM     22  C   UNL A   1      36.199  19.947  25.002  1.00  0.00     0.278 C 
ENDBRANCH  15  21
ENDBRANCH   8  14
ENDBRANCH   4   7
ENDBRANCH   2   3
ENDBRANCH   1   2
BRANCH   1  23
ATOM     23  C   UNL A   1      34.178  30.326  27.934  1.00  0.00     0.118 C 
BRANCH  23  24
ATOM     24  N   UNL A   1      34.928  31.248  28.785  1.00  0.00    -0.352 N 
ATOM     25  C   UNL A   1      36.166  31.070  29.371  1.00  0.00     0.251 C 
ATOM     26  H   UNL A   1      34.493  32.113  28.964  1.00  0.00     0.163 HD
ATOM     27  O   UNL A   1      36.660  31.942  30.078  1.00  0.00    -0.269 OA
BRANCH  25  28
ATOM     28  C   UNL A   1      36.948  29.871  29.009  1.00  0.00     0.039 A 
ATOM     29  C   UNL A   1      37.206  28.949  30.027  1.00  0.00     0.014 A 
ATOM     30  C   UNL A   1      37.638  29.820  27.800  1.00  0.00     0.014 A 
ATOM     31  C   UNL A   1      38.344  28.156  29.942  1.00  0.00     0.010 A 
ATOM     32  C   UNL A   1      38.812  29.094  27.747  1.00  0.00     0.010 A 
ATOM     33  C   UNL A   1      39.204  28.340  28.859  1.00  0.00    -0.014 A 
BRANCH  33  34
ATOM     34  C   UNL A   1      40.601  27.925  28.901  1.00  0.00     0.031 A 
ATOM     35  C   UNL A   1      40.993  26.568  28.478  1.00  0.00     0.074 A 
ATOM     36  C   UNL A   1      41.531  28.816  29.310  1.00  0.00     0.049 A 
ATOM     37  N   UNL A   1      42.111  26.011  28.801  1.00  0.00    -0.248 NA
ATOM     38  C   UNL A   1      40.103  25.683  27.735  1.00  0.00     0.031 C 
ATOM     39  C   UNL A   1      42.984  28.713  29.193  1.00  0.00     0.029 A 
ATOM     40  N   UNL A   1      41.327  29.932  30.144  1.00  0.00    -0.354 N 
ATOM     41  C   UNL A   1      42.212  24.838  28.091  1.00  0.00     0.074 A 
ATOM     42  C   UNL A   1      40.890  24.614  27.569  1.00  0.00     0.031 C 
ATOM     43  C   UNL A   1      43.548  29.497  30.127  1.00  0.00     0.029 A 
ATOM     44  C   UNL A   1      42.474  29.998  30.967  1.00  0.00     0.049 A 
ATOM     45  H   UNL A   1      40.550  30.538  30.152  1.00  0.00     0.167 HD
ATOM     46  C   UNL A   1      43.446  24.285  27.925  1.00  0.00     0.037 A 
ATOM     47  C   UNL A   1      42.399  29.825  32.318  1.00  0.00     0.037 A 
ATOM     48  C   UNL A   1      44.399  24.857  28.880  1.00  0.00     0.049 A 
ATOM     49  C   UNL A   1      43.259  28.703  32.849  1.00  0.00     0.074 A 
ATOM     50  C   UNL A   1      45.445  25.756  28.770  1.00  0.00     0.029 A 
ATOM     51  N   UNL A   1      44.157  24.701  30.245  1.00  0.00    -0.354 N 
ATOM     52  N   UNL A   1      43.726  27.732  32.115  1.00  0.00    -0.248 NA
ATOM     53  C   UNL A   1      43.597  28.552  34.262  1.00  0.00     0.031 C 
ATOM     54  C   UNL A   1      45.765  26.214  30.078  1.00  0.00     0.029 A 
ATOM     55  C   UNL A   1      44.944  25.562  30.984  1.00  0.00     0.049 A 
ATOM     56  H   UNL A   1      43.513  24.063  30.629  1.00  0.00     0.167 HD
ATOM     57  C   UNL A   1      44.343  26.812  32.923  1.00  0.00     0.074 A 
ATOM     58  C   UNL A   1      44.271  27.391  34.251  1.00  0.00     0.031 C 
ATOM     59  C   UNL A   1      44.819  25.629  32.434  1.00  0.00     0.037 A 
BRANCH  46  60
ATOM     60  C   UNL A   1      43.862  23.389  26.766  1.00  0.00     0.064 A 
ATOM     61  C   UNL A   1      43.379  22.060  26.690  1.00  0.00     0.173 A 
ATOM     62  C   UNL A   1      44.828  23.704  25.785  1.00  0.00     0.173 A 
ATOM     63  F   UNL A   1      42.449  21.607  27.542  1.00  0.00    -0.203 F 
ATOM     64  C   UNL A   1      43.851  21.134  25.750  1.00  0.00     0.198 A 
ATOM     65  C   UNL A   1      45.268  22.790  24.821  1.00  0.00     0.198 A 
ATOM     66  F   UNL A   1      45.437  24.889  25.725  1.00  0.00    -0.203 F 
ATOM     67  F   UNL A   1      43.397  19.873  25.771  1.00  0.00    -0.200 F 
ATOM     68  C   UNL A   1      44.794  21.499  24.813  1.00  0.00     0.200 A 
ATOM     69  F   UNL A   1      46.185  23.173  23.919  1.00  0.00    -0.200 F 
ATOM     70  F   UNL A   1      45.254  20.615  23.918  1.00  0.00    -0.200 F 
ENDBRANCH  46  60
BRANCH  47  71
ATOM     71  C   UNL A   1      41.089  30.214  32.906  1.00  0.00     0.064 A 
ATOM     72  C   UNL A   1      40.766  31.580  33.011  1.00  0.00     0.173 A 
ATOM     73  C   UNL A   1      40.046  29.291  33.056  1.00  0.00     0.173 A 
ATOM     74  F   UNL A   1      41.726  32.509  32.871  1.00  0.00    -0.203 F 
ATOM     75  C   UNL A   1      39.448  32.006  33.155  1.00  0.00     0.198 A 
ATOM     76  C   UNL A   1      38.728  29.721  33.214  1.00  0.00     0.198 A 
ATOM     77  F   UNL A   1      40.281  27.976  32.946  1.00  0.00    -0.203 F 
ATOM     78  F   UNL A   1      39.164  33.316  33.143  1.00  0.00    -0.200 F 
ATOM     79  C   UNL A   1      38.426  31.075  33.235  1.00  0.00     0.200 A 
ATOM     80  F   UNL A   1      37.735  28.821  33.257  1.00  0.00    -0.200 F 
ATOM     81  F   UNL A   1      37.150  31.480  33.286  1.00  0.00    -0.200 F 
ENDBRANCH  47  71
BRANCH  59  82
ATOM     82  C   UNL A   1      45.256  24.456  33.277  1.00  0.00     0.064 A 
ATOM     83  C   UNL A   1      44.479  23.303  33.483  1.00  0.00     0.173 A 
ATOM     84  C   UNL A   1      46.570  24.404  33.799  1.00  0.00     0.173 A 
ATOM     85  F   UNL A   1      43.267  23.170  32.928  1.00  0.00    -0.203 F 
ATOM     86  C   UNL A   1      44.950  22.212  34.220  1.00  0.00     0.198 A 
ATOM     87  C   UNL A   1      47.057  23.290  34.484  1.00  0.00     0.198 A 
ATOM     88  F   UNL A   1      47.426  25.424  33.636  1.00  0.00    -0.203 F 
ATOM     89  F   UNL A   1      44.151  21.156  34.426  1.00  0.00    -0.200 F 
ATOM     90  C   UNL A   1      46.241  22.202  34.711  1.00  0.00     0.200 A 
ATOM     91  F   UNL A   1      48.330  23.271  34.904  1.00  0.00    -0.200 F 
ATOM     92  F   UNL A   1      46.703  21.137  35.380  1.00  0.00    -0.200 F 
ENDBRANCH  59  82
ENDBRANCH  33  34
ENDBRANCH  25  28
ENDBRANCH  23  24
ENDBRANCH   1  23
TORSDOF 12
ENDMDL
MODEL 3
REMARK VINA RESULT:     -13.4      3.664     10.175
REMARK SMILES COc1ccc(-c2cc(F)cc(C(=O)NCCCNC(=O)c3ccc(-c4c5nc(c(-c6c(F)c(F)c(F)c(F)c6F)c6ccc([nH]6)c(-c6c(F)c(F)c(F)c(F)c6F)c6nc(c(-c7c(F)c(F)c(F)c(F)c7F)c7ccc4[nH]7)C=C6)C=C5)cc3)c2)cc1C
REMARK SMILES IDX 17 1 16 2 15 3 13 4 14 5 12 7 7 8 8 9 85 10 9 11 10 12 11 13
REMARK SMILES IDX 6 14 3 15 4 16 87 17 5 18 86 19 88 20 2 21 1 22 18 23 19 24
REMARK SMILES IDX 20 25 21 27 22 28 23 29 84 30 24 31 83 32 25 33 26 34 27 35
REMARK SMILES IDX 77 36 28 37 82 38 76 39 78 40 29 41 81 42 75 43 74 44 30 46
REMARK SMILES IDX 62 47 42 48 61 49 43 50 46 51 60 52 79 53 44 54 45 55 59 57
REMARK SMILES IDX 80 58 47 59 31 60 32 61 40 62 33 63 34 64 38 65 41 66 35 67
REMARK SMILES IDX 36 68 39 69 37 70 63 71 64 72 72 73 65 74 66 75 70 76 73 77
REMARK SMILES IDX 67 78 68 79 71 80 69 81 48 82 49 83 57 84 50 85 51 86 55 87
REMARK SMILES IDX 58 88 52 89 53 90 56 91 54 92
REMARK H PARENT 15 6 19 26 78 45 46 56
REMARK Flexibility Score: inf
ROOT
ATOM      1  C   UNL A   1      33.248  31.715  27.429  1.00  0.00     0.042 C 
ENDROOT
BRANCH   1   2
ATOM      2  C   UNL A   1      32.300  30.863  26.582  1.00  0.00     0.118 C 
BRANCH   2   3
ATOM      3  N   UNL A   1      31.815  29.703  27.313  1.00  0.00    -0.352 N 
ATOM      4  C   UNL A   1      31.835  28.350  27.066  1.00  0.00     0.251 C 
ATOM      5  O   UNL A   1      31.362  27.630  27.947  1.00  0.00    -0.269 OA
ATOM      6  H   UNL A   1      31.379  29.935  28.165  1.00  0.00     0.163 HD
BRANCH   4   7
ATOM      7  C   UNL A   1      32.374  27.704  25.825  1.00  0.00     0.043 A 
ATOM      8  C   UNL A   1      33.505  25.731  24.872  1.00  0.00    -0.015 A 
ATOM      9  C   UNL A   1      33.390  26.302  23.599  1.00  0.00     0.048 A 
ATOM     10  C   UNL A   1      32.982  26.436  25.972  1.00  0.00     0.022 A 
ATOM     11  C   UNL A   1      32.792  27.537  23.448  1.00  0.00     0.124 A 
ATOM     12  F   UNL A   1      32.683  28.075  22.226  1.00  0.00    -0.207 F 
ATOM     13  C   UNL A   1      32.297  28.236  24.541  1.00  0.00     0.053 A 
BRANCH   8  14
ATOM     14  C   UNL A   1      34.167  24.429  25.013  1.00  0.00    -0.018 A 
ATOM     15  C   UNL A   1      35.561  22.033  25.482  1.00  0.00     0.121 A 
ATOM     16  C   UNL A   1      35.924  22.864  24.420  1.00  0.00     0.047 A 
ATOM     17  C   UNL A   1      34.508  22.385  26.334  1.00  0.00    -0.008 A 
ATOM     18  C   UNL A   1      35.228  24.051  24.180  1.00  0.00     0.012 A 
ATOM     19  C   UNL A   1      33.806  23.571  26.068  1.00  0.00     0.016 A 
ATOM     20  C   UNL A   1      34.108  21.553  27.516  1.00  0.00     0.048 C 
BRANCH  15  21
ATOM     21  O   UNL A   1      36.356  20.940  25.704  1.00  0.00    -0.496 OA
ATOM     22  C   UNL A   1      37.498  20.928  24.850  1.00  0.00     0.278 C 
ENDBRANCH  15  21
ENDBRANCH   8  14
ENDBRANCH   4   7
ENDBRANCH   2   3
ENDBRANCH   1   2
BRANCH   1  23
ATOM     23  C   UNL A   1      34.474  30.968  27.932  1.00  0.00     0.118 C 
BRANCH  23  24
ATOM     24  N   UNL A   1      35.333  31.782  28.790  1.00  0.00    -0.352 N 
ATOM     25  C   UNL A   1      36.527  31.438  29.393  1.00  0.00     0.251 C 
ATOM     26  H   UNL A   1      35.020  32.700  28.959  1.00  0.00     0.163 HD
ATOM     27  O   UNL A   1      37.128  32.237  30.103  1.00  0.00    -0.269 OA
BRANCH  25  28
ATOM     28  C   UNL A   1      37.139  30.139  29.046  1.00  0.00     0.039 A 
ATOM     29  C   UNL A   1      37.373  29.247  30.096  1.00  0.00     0.014 A 
ATOM     30  C   UNL A   1      37.722  29.948  27.795  1.00  0.00     0.014 A 
ATOM     31  C   UNL A   1      38.405  28.325  29.975  1.00  0.00     0.010 A 
ATOM     32  C   UNL A   1      38.799  29.090  27.701  1.00  0.00     0.010 A 
ATOM     33  C   UNL A   1      39.192  28.353  28.824  1.00  0.00    -0.014 A 
BRANCH  33  34
ATOM     34  C   UNL A   1      40.533  27.782  28.788  1.00  0.00     0.031 A 
ATOM     35  C   UNL A   1      40.729  26.341  28.547  1.00  0.00     0.074 A 
ATOM     36  C   UNL A   1      41.593  28.604  28.955  1.00  0.00     0.049 A 
ATOM     37  N   UNL A   1      41.813  25.705  28.838  1.00  0.00    -0.248 NA
ATOM     38  C   UNL A   1      39.668  25.472  28.048  1.00  0.00     0.031 C 
ATOM     39  C   UNL A   1      43.003  28.309  28.708  1.00  0.00     0.029 A 
ATOM     40  N   UNL A   1      41.608  29.846  29.618  1.00  0.00    -0.354 N 
ATOM     41  C   UNL A   1      41.706  24.438  28.316  1.00  0.00     0.074 A 
ATOM     42  C   UNL A   1      40.314  24.303  27.973  1.00  0.00     0.031 C 
ATOM     43  C   UNL A   1      43.753  29.146  29.444  1.00  0.00     0.029 A 
ATOM     44  C   UNL A   1      42.845  29.890  30.299  1.00  0.00     0.049 A 
ATOM     45  H   UNL A   1      40.905  30.536  29.609  1.00  0.00     0.167 HD
ATOM     46  C   UNL A   1      42.846  23.721  28.114  1.00  0.00     0.037 A 
ATOM     47  C   UNL A   1      42.913  29.926  31.661  1.00  0.00     0.037 A 
ATOM     48  C   UNL A   1      43.961  24.306  28.865  1.00  0.00     0.049 A 
ATOM     49  C   UNL A   1      43.709  28.797  32.272  1.00  0.00     0.074 A 
ATOM     50  C   UNL A   1      45.074  25.046  28.508  1.00  0.00     0.029 A 
ATOM     51  N   UNL A   1      43.868  24.381  30.255  1.00  0.00    -0.354 N 
ATOM     52  N   UNL A   1      43.982  27.681  31.657  1.00  0.00    -0.248 NA
ATOM     53  C   UNL A   1      44.196  28.814  33.650  1.00  0.00     0.031 C 
ATOM     54  C   UNL A   1      45.594  25.647  29.688  1.00  0.00     0.029 A 
ATOM     55  C   UNL A   1      44.823  25.238  30.764  1.00  0.00     0.049 A 
ATOM     56  H   UNL A   1      43.212  23.888  30.798  1.00  0.00     0.167 HD
ATOM     57  C   UNL A   1      44.591  26.820  32.533  1.00  0.00     0.074 A 
ATOM     58  C   UNL A   1      44.739  27.590  33.753  1.00  0.00     0.031 C 
ATOM     59  C   UNL A   1      44.879  25.530  32.191  1.00  0.00     0.037 A 
BRANCH  46  60
ATOM     60  C   UNL A   1      43.025  22.622  27.075  1.00  0.00     0.064 A 
ATOM     61  C   UNL A   1      42.344  21.390  27.223  1.00  0.00     0.173 A 
ATOM     62  C   UNL A   1      43.943  22.643  26.002  1.00  0.00     0.173 A 
ATOM     63  F   UNL A   1      41.430  21.212  28.188  1.00  0.00    -0.203 F 
ATOM     64  C   UNL A   1      42.591  20.282  26.401  1.00  0.00     0.198 A 
ATOM     65  C   UNL A   1      44.160  21.549  25.156  1.00  0.00     0.198 A 
ATOM     66  F   UNL A   1      44.716  23.696  25.733  1.00  0.00    -0.203 F 
ATOM     67  F   UNL A   1      41.956  19.125  26.634  1.00  0.00    -0.200 F 
ATOM     68  C   UNL A   1      43.498  20.362  25.365  1.00  0.00     0.200 A 
ATOM     69  F   UNL A   1      45.046  21.656  24.154  1.00  0.00    -0.200 F 
ATOM     70  F   UNL A   1      43.744  19.303  24.583  1.00  0.00    -0.200 F 
ENDBRANCH  46  60
BRANCH  47  71
ATOM     71  C   UNL A   1      41.731  30.552  32.310  1.00  0.00     0.064 A 
ATOM     72  C   UNL A   1      41.586  31.952  32.261  1.00  0.00     0.173 A 
ATOM     73  C   UNL A   1      40.609  29.800  32.679  1.00  0.00     0.173 A 
ATOM     74  F   UNL A   1      42.628  32.723  31.909  1.00  0.00    -0.203 F 
ATOM     75  C   UNL A   1      40.351  32.562  32.468  1.00  0.00     0.198 A 
ATOM     76  C   UNL A   1      39.376  30.416  32.900  1.00  0.00     0.198 A 
ATOM     77  F   UNL A   1      40.673  28.462  32.724  1.00  0.00    -0.203 F 
ATOM     78  F   UNL A   1      40.225  33.887  32.307  1.00  0.00    -0.200 F 
ATOM     79  C   UNL A   1      39.241  31.790  32.766  1.00  0.00     0.200 A 
ATOM     80  F   UNL A   1      38.294  29.666  33.154  1.00  0.00    -0.200 F 
ATOM     81  F   UNL A   1      38.035  32.362  32.881  1.00  0.00    -0.200 F 
ENDBRANCH  47  71
BRANCH  59  82
ATOM     82  C   UNL A   1      45.289  24.447  33.160  1.00  0.00     0.064 A 
ATOM     83  C   UNL A   1      44.505  23.319  33.457  1.00  0.00     0.173 A 
ATOM     84  C   UNL A   1      46.587  24.450  33.724  1.00  0.00     0.173 A 
ATOM     85  F   UNL A   1      43.309  23.130  32.881  1.00  0.00    -0.203 F 
ATOM     86  C   UNL A   1      44.951  22.309  34.313  1.00  0.00     0.198 A 
ATOM     87  C   UNL A   1      47.052  23.410  34.531  1.00  0.00     0.198 A 
ATOM     88  F   UNL A   1      47.449  25.449  33.484  1.00  0.00    -0.203 F 
ATOM     89  F   UNL A   1      44.144  21.278  34.599  1.00  0.00    -0.200 F 
ATOM     90  C   UNL A   1      46.227  22.350  34.841  1.00  0.00     0.200 A 
ATOM     91  F   UNL A   1      48.312  23.435  34.988  1.00  0.00    -0.200 F 
ATOM     92  F   UNL A   1      46.667  21.357  35.626  1.00  0.00    -0.200 F 
ENDBRANCH  59  82
ENDBRANCH  33  34
ENDBRANCH  25  28
ENDBRANCH  23  24
ENDBRANCH   1  23
TORSDOF 12
ENDMDL
