MODEL 1
REMARK VINA RESULT:     -12.4      0.000      0.000
REMARK SMILES CCOc1cc(/C=N/O)cc(Cl)c1OCc1ccc(C(=O)NCCCNC(=O)c2ccc(-c3c4nc(c(-c5c(F)c(F)c(F)c(F)c5F)c5ccc([nH]5)c(-c5c(F)c(F)c(F)c(F)c5F)c5nc(c(-c6c(F)c(F)c(F)c(F)c6F)c6ccc3[nH]6)C=C5)C=C4)cc2)cc1
REMARK SMILES IDX 20 1 21 2 22 3 19 5 16 6 17 7 93 8 18 9 92 10 15 11 14 12
REMARK SMILES IDX 13 13 4 14 5 15 6 16 11 17 10 18 12 19 3 20 2 21 1 22 7 23
REMARK SMILES IDX 8 24 9 25 23 27 24 28 25 29 26 30 27 31 28 33 29 34 30 35
REMARK SMILES IDX 91 36 31 37 90 38 32 39 33 40 34 41 84 42 35 43 89 44 83 45
REMARK SMILES IDX 85 46 36 47 88 48 82 49 81 50 37 52 69 53 49 54 68 55 50 56
REMARK SMILES IDX 53 57 67 58 86 59 51 60 52 61 66 63 87 64 54 65 38 66 39 67
REMARK SMILES IDX 47 68 40 69 41 70 45 71 48 72 42 73 43 74 46 75 44 76 70 77
REMARK SMILES IDX 71 78 79 79 72 80 73 81 77 82 80 83 74 84 75 85 78 86 76 87
REMARK SMILES IDX 55 88 56 89 64 90 57 91 58 92 62 93 65 94 59 95 60 96 63 97
REMARK SMILES IDX 61 98
REMARK H PARENT 22 4 9 26 26 32 85 51 53 62
REMARK Flexibility Score: inf
ROOT
ATOM      1  C   UNL A   1      30.720  29.658  24.055  1.00  0.00     0.251 C 
ATOM      2  O   UNL A   1      29.848  29.662  23.184  1.00  0.00    -0.269 OA
ATOM      3  N   UNL A   1      30.709  30.696  24.953  1.00  0.00    -0.352 N 
ATOM      4  H   UNL A   1      30.025  31.380  24.764  1.00  0.00     0.163 HD
ENDROOT
BRANCH   1   5
ATOM      5  C   UNL A   1      31.706  28.538  24.092  1.00  0.00     0.039 A 
ATOM      6  C   UNL A   1      33.391  26.261  24.211  1.00  0.00    -0.011 A 
ATOM      7  C   UNL A   1      32.393  26.465  25.175  1.00  0.00     0.008 A 
ATOM      8  C   UNL A   1      33.585  27.248  23.245  1.00  0.00     0.008 A 
ATOM      9  C   UNL A   1      31.565  27.593  25.119  1.00  0.00     0.014 A 
ATOM     10  C   UNL A   1      32.713  28.334  23.150  1.00  0.00     0.014 A 
BRANCH   6  11
ATOM     11  C   UNL A   1      34.189  24.970  24.223  1.00  0.00     0.265 C 
BRANCH  11  12
ATOM     12  O   UNL A   1      34.054  24.096  25.352  1.00  0.00    -0.483 OA
BRANCH  12  13
ATOM     13  C   UNL A   1      33.686  22.781  25.238  1.00  0.00     0.180 A 
ATOM     14  C   UNL A   1      34.763  21.876  25.380  1.00  0.00     0.163 A 
ATOM     15  C   UNL A   1      34.578  20.505  25.209  1.00  0.00     0.060 A 
ATOM     16  C   UNL A   1      33.330  20.013  24.842  1.00  0.00     0.001 A 
ATOM     17  C   UNL A   1      32.411  22.254  24.968  1.00  0.00     0.087 A 
ATOM     18  C   UNL A   1      32.245  20.879  24.730  1.00  0.00     0.034 A 
ATOM     19  Cl  UNL A   1      30.947  23.175  24.986  1.00  0.00    -0.080 Cl
BRANCH  14  20
ATOM     20  O   UNL A   1      35.982  22.352  25.800  1.00  0.00    -0.490 OA
BRANCH  20  21
ATOM     21  C   UNL A   1      37.061  22.151  24.878  1.00  0.00     0.226 C 
ATOM     22  C   UNL A   1      36.663  22.485  23.447  1.00  0.00     0.049 C 
ENDBRANCH  20  21
ENDBRANCH  14  20
BRANCH  16  23
ATOM     23  C   UNL A   1      33.139  18.568  24.614  1.00  0.00     0.162 C 
ATOM     24  N   UNL A   1      32.175  17.914  25.180  1.00  0.00    -0.097 NA
BRANCH  24  25
ATOM     25  O   UNL A   1      32.232  16.576  24.779  1.00  0.00    -0.411 OA
ATOM     26  H   UNL A   1      31.445  16.121  24.551  1.00  0.00     0.330 HD
ENDBRANCH  24  25
ENDBRANCH  16  23
ENDBRANCH  12  13
ENDBRANCH  11  12
ENDBRANCH   6  11
ENDBRANCH   1   5
BRANCH   3  27
ATOM     27  C   UNL A   1      31.513  30.977  26.125  1.00  0.00     0.118 C 
BRANCH  27  28
ATOM     28  C   UNL A   1      31.380  32.441  26.549  1.00  0.00     0.042 C 
BRANCH  28  29
ATOM     29  C   UNL A   1      32.641  32.983  27.210  1.00  0.00     0.118 C 
BRANCH  29  30
ATOM     30  N   UNL A   1      32.449  34.345  27.681  1.00  0.00    -0.352 N 
ATOM     31  C   UNL A   1      33.003  34.996  28.752  1.00  0.00     0.251 C 
ATOM     32  H   UNL A   1      31.823  34.885  27.147  1.00  0.00     0.163 HD
ATOM     33  O   UNL A   1      32.534  36.072  29.109  1.00  0.00    -0.269 OA
BRANCH  31  34
ATOM     34  C   UNL A   1      34.154  34.420  29.481  1.00  0.00     0.039 A 
ATOM     35  C   UNL A   1      35.428  34.550  28.918  1.00  0.00     0.014 A 
ATOM     36  C   UNL A   1      33.983  33.692  30.661  1.00  0.00     0.014 A 
ATOM     37  C   UNL A   1      36.530  33.970  29.548  1.00  0.00     0.010 A 
ATOM     38  C   UNL A   1      35.091  33.172  31.326  1.00  0.00     0.010 A 
ATOM     39  C   UNL A   1      36.371  33.287  30.763  1.00  0.00    -0.014 A 
BRANCH  39  40
ATOM     40  C   UNL A   1      37.528  32.649  31.438  1.00  0.00     0.031 A 
ATOM     41  C   UNL A   1      38.239  31.500  30.779  1.00  0.00     0.074 A 
ATOM     42  C   UNL A   1      37.903  33.072  32.660  1.00  0.00     0.049 A 
ATOM     43  N   UNL A   1      39.224  30.766  31.231  1.00  0.00    -0.248 NA
ATOM     44  C   UNL A   1      37.761  31.106  29.444  1.00  0.00     0.031 C 
ATOM     45  C   UNL A   1      37.264  34.152  33.412  1.00  0.00     0.029 A 
ATOM     46  N   UNL A   1      38.908  32.638  33.486  1.00  0.00    -0.354 N 
ATOM     47  C   UNL A   1      39.468  29.814  30.248  1.00  0.00     0.074 A 
ATOM     48  C   UNL A   1      38.498  30.033  29.198  1.00  0.00     0.031 C 
ATOM     49  C   UNL A   1      37.903  34.308  34.583  1.00  0.00     0.029 A 
ATOM     50  C   UNL A   1      38.974  33.318  34.675  1.00  0.00     0.049 A 
ATOM     51  H   UNL A   1      39.524  31.907  33.248  1.00  0.00     0.167 HD
ATOM     52  C   UNL A   1      40.428  28.860  30.216  1.00  0.00     0.037 A 
ATOM     53  C   UNL A   1      39.803  33.158  35.724  1.00  0.00     0.037 A 
ATOM     54  C   UNL A   1      41.411  28.670  31.251  1.00  0.00     0.049 A 
ATOM     55  C   UNL A   1      40.870  32.100  35.657  1.00  0.00     0.074 A 
ATOM     56  C   UNL A   1      42.459  27.767  31.293  1.00  0.00     0.029 A 
ATOM     57  N   UNL A   1      41.467  29.402  32.428  1.00  0.00    -0.354 N 
ATOM     58  N   UNL A   1      41.128  31.244  34.698  1.00  0.00    -0.248 NA
ATOM     59  C   UNL A   1      41.769  31.993  36.815  1.00  0.00     0.031 C 
ATOM     60  C   UNL A   1      43.125  27.928  32.513  1.00  0.00     0.029 A 
ATOM     61  C   UNL A   1      42.523  28.964  33.209  1.00  0.00     0.049 A 
ATOM     62  H   UNL A   1      40.846  30.127  32.672  1.00  0.00     0.167 HD
ATOM     63  C   UNL A   1      42.236  30.522  35.120  1.00  0.00     0.074 A 
ATOM     64  C   UNL A   1      42.607  31.047  36.417  1.00  0.00     0.031 C 
ATOM     65  C   UNL A   1      42.887  29.513  34.489  1.00  0.00     0.037 A 
BRANCH  52  66
ATOM     66  C   UNL A   1      40.466  27.951  29.022  1.00  0.00     0.064 A 
ATOM     67  C   UNL A   1      41.263  28.238  27.903  1.00  0.00     0.173 A 
ATOM     68  C   UNL A   1      39.720  26.762  29.008  1.00  0.00     0.173 A 
ATOM     69  F   UNL A   1      41.986  29.367  27.862  1.00  0.00    -0.203 F 
ATOM     70  C   UNL A   1      41.289  27.385  26.803  1.00  0.00     0.198 A 
ATOM     71  C   UNL A   1      39.772  25.896  27.918  1.00  0.00     0.198 A 
ATOM     72  F   UNL A   1      38.945  26.436  30.053  1.00  0.00    -0.203 F 
ATOM     73  F   UNL A   1      42.018  27.706  25.726  1.00  0.00    -0.200 F 
ATOM     74  C   UNL A   1      40.549  26.212  26.814  1.00  0.00     0.200 A 
ATOM     75  F   UNL A   1      39.067  24.757  27.935  1.00  0.00    -0.200 F 
ATOM     76  F   UNL A   1      40.580  25.389  25.756  1.00  0.00    -0.200 F 
ENDBRANCH  52  66
BRANCH  53  77
ATOM     77  C   UNL A   1      39.678  34.043  36.911  1.00  0.00     0.064 A 
ATOM     78  C   UNL A   1      38.856  33.687  37.988  1.00  0.00     0.173 A 
ATOM     79  C   UNL A   1      40.375  35.258  36.994  1.00  0.00     0.173 A 
ATOM     80  F   UNL A   1      38.156  32.544  37.947  1.00  0.00    -0.203 F 
ATOM     81  C   UNL A   1      38.717  34.522  39.095  1.00  0.00     0.198 A 
ATOM     82  C   UNL A   1      40.258  36.078  38.113  1.00  0.00     0.198 A 
ATOM     83  F   UNL A   1      41.180  35.640  35.992  1.00  0.00    -0.203 F 
ATOM     84  F   UNL A   1      37.890  34.179  40.092  1.00  0.00    -0.200 F 
ATOM     85  C   UNL A   1      39.423  35.715  39.159  1.00  0.00     0.200 A 
ATOM     86  F   UNL A   1      40.953  37.221  38.179  1.00  0.00    -0.200 F 
ATOM     87  F   UNL A   1      39.294  36.515  40.226  1.00  0.00    -0.200 F 
ENDBRANCH  53  77
BRANCH  65  88
ATOM     88  C   UNL A   1      44.097  28.946  35.171  1.00  0.00     0.064 A 
ATOM     89  C   UNL A   1      45.383  29.453  34.937  1.00  0.00     0.173 A 
ATOM     90  C   UNL A   1      43.960  27.903  36.100  1.00  0.00     0.173 A 
ATOM     91  F   UNL A   1      45.568  30.439  34.046  1.00  0.00    -0.203 F 
ATOM     92  C   UNL A   1      46.491  28.919  35.588  1.00  0.00     0.198 A 
ATOM     93  C   UNL A   1      45.066  27.391  36.772  1.00  0.00     0.198 A 
ATOM     94  F   UNL A   1      42.750  27.387  36.365  1.00  0.00    -0.203 F 
ATOM     95  F   UNL A   1      47.717  29.386  35.314  1.00  0.00    -0.200 F 
ATOM     96  C   UNL A   1      46.331  27.895  36.510  1.00  0.00     0.200 A 
ATOM     97  F   UNL A   1      44.908  26.412  37.672  1.00  0.00    -0.200 F 
ATOM     98  F   UNL A   1      47.399  27.387  37.141  1.00  0.00    -0.200 F 
ENDBRANCH  65  88
ENDBRANCH  39  40
ENDBRANCH  31  34
ENDBRANCH  29  30
ENDBRANCH  28  29
ENDBRANCH  27  28
ENDBRANCH   3  27
TORSDOF 17
ENDMDL
MODEL 2
REMARK VINA RESULT:     -12.2      1.141      7.330
REMARK SMILES CCOc1cc(/C=N/O)cc(Cl)c1OCc1ccc(C(=O)NCCCNC(=O)c2ccc(-c3c4nc(c(-c5c(F)c(F)c(F)c(F)c5F)c5ccc([nH]5)c(-c5c(F)c(F)c(F)c(F)c5F)c5nc(c(-c6c(F)c(F)c(F)c(F)c6F)c6ccc3[nH]6)C=C5)C=C4)cc2)cc1
REMARK SMILES IDX 20 1 21 2 22 3 19 5 16 6 17 7 93 8 18 9 92 10 15 11 14 12
REMARK SMILES IDX 13 13 4 14 5 15 6 16 11 17 10 18 12 19 3 20 2 21 1 22 7 23
REMARK SMILES IDX 8 24 9 25 23 27 24 28 25 29 26 30 27 31 28 33 29 34 30 35
REMARK SMILES IDX 91 36 31 37 90 38 32 39 33 40 34 41 84 42 35 43 89 44 83 45
REMARK SMILES IDX 85 46 36 47 88 48 82 49 81 50 37 52 69 53 49 54 68 55 50 56
REMARK SMILES IDX 53 57 67 58 86 59 51 60 52 61 66 63 87 64 54 65 38 66 39 67
REMARK SMILES IDX 47 68 40 69 41 70 45 71 48 72 42 73 43 74 46 75 44 76 70 77
REMARK SMILES IDX 71 78 79 79 72 80 73 81 77 82 80 83 74 84 75 85 78 86 76 87
REMARK SMILES IDX 55 88 56 89 64 90 57 91 58 92 62 93 65 94 59 95 60 96 63 97
REMARK SMILES IDX 61 98
REMARK H PARENT 22 4 9 26 26 32 85 51 53 62
REMARK Flexibility Score: inf
ROOT
ATOM      1  C   UNL A   1      31.035  29.633  24.453  1.00  0.00     0.251 C 
ATOM      2  O   UNL A   1      30.189  29.626  23.558  1.00  0.00    -0.269 OA
ATOM      3  N   UNL A   1      31.014  30.695  25.323  1.00  0.00    -0.352 N 
ATOM      4  H   UNL A   1      30.346  31.383  25.097  1.00  0.00     0.163 HD
ENDROOT
BRANCH   1   5
ATOM      5  C   UNL A   1      32.003  28.501  24.549  1.00  0.00     0.039 A 
ATOM      6  C   UNL A   1      33.651  26.205  24.784  1.00  0.00    -0.011 A 
ATOM      7  C   UNL A   1      32.651  26.470  25.731  1.00  0.00     0.008 A 
ATOM      8  C   UNL A   1      33.866  27.143  23.774  1.00  0.00     0.008 A 
ATOM      9  C   UNL A   1      31.842  27.607  25.618  1.00  0.00     0.014 A 
ATOM     10  C   UNL A   1      33.011  28.236  23.623  1.00  0.00     0.014 A 
BRANCH   6  11
ATOM     11  C   UNL A   1      34.428  24.904  24.861  1.00  0.00     0.265 C 
BRANCH  11  12
ATOM     12  O   UNL A   1      33.935  23.866  25.720  1.00  0.00    -0.483 OA
BRANCH  12  13
ATOM     13  C   UNL A   1      33.892  22.548  25.349  1.00  0.00     0.180 A 
ATOM     14  C   UNL A   1      32.592  22.088  25.038  1.00  0.00     0.163 A 
ATOM     15  C   UNL A   1      32.357  20.750  24.722  1.00  0.00     0.060 A 
ATOM     16  C   UNL A   1      33.402  19.834  24.762  1.00  0.00     0.001 A 
ATOM     17  C   UNL A   1      34.952  21.626  25.283  1.00  0.00     0.087 A 
ATOM     18  C   UNL A   1      34.698  20.267  25.032  1.00  0.00     0.034 A 
ATOM     19  Cl  UNL A   1      36.624  22.047  25.408  1.00  0.00    -0.080 Cl
BRANCH  14  20
ATOM     20  O   UNL A   1      31.569  23.001  24.939  1.00  0.00    -0.490 OA
BRANCH  20  21
ATOM     21  C   UNL A   1      31.127  23.273  23.603  1.00  0.00     0.226 C 
ATOM     22  C   UNL A   1      30.492  24.651  23.477  1.00  0.00     0.049 C 
ENDBRANCH  20  21
ENDBRANCH  14  20
BRANCH  16  23
ATOM     23  C   UNL A   1      33.152  18.410  24.475  1.00  0.00     0.162 C 
ATOM     24  N   UNL A   1      32.180  17.764  25.038  1.00  0.00    -0.097 NA
BRANCH  24  25
ATOM     25  O   UNL A   1      32.177  16.445  24.576  1.00  0.00    -0.411 OA
ATOM     26  H   UNL A   1      32.880  16.135  24.040  1.00  0.00     0.330 HD
ENDBRANCH  24  25
ENDBRANCH  16  23
ENDBRANCH  12  13
ENDBRANCH  11  12
ENDBRANCH   6  11
ENDBRANCH   1   5
BRANCH   3  27
ATOM     27  C   UNL A   1      31.788  30.995  26.510  1.00  0.00     0.118 C 
BRANCH  27  28
ATOM     28  C   UNL A   1      31.499  32.410  27.016  1.00  0.00     0.042 C 
BRANCH  28  29
ATOM     29  C   UNL A   1      32.718  33.321  26.954  1.00  0.00     0.118 C 
BRANCH  29  30
ATOM     30  N   UNL A   1      32.543  34.499  27.790  1.00  0.00    -0.352 N 
ATOM     31  C   UNL A   1      33.129  34.830  28.983  1.00  0.00     0.251 C 
ATOM     32  H   UNL A   1      31.902  35.161  27.446  1.00  0.00     0.163 HD
ATOM     33  O   UNL A   1      32.673  35.762  29.638  1.00  0.00    -0.269 OA
BRANCH  31  34
ATOM     34  C   UNL A   1      34.301  34.081  29.489  1.00  0.00     0.039 A 
ATOM     35  C   UNL A   1      34.078  33.014  30.364  1.00  0.00     0.014 A 
ATOM     36  C   UNL A   1      35.607  34.467  29.176  1.00  0.00     0.014 A 
ATOM     37  C   UNL A   1      35.161  32.321  30.907  1.00  0.00     0.010 A 
ATOM     38  C   UNL A   1      36.685  33.733  29.662  1.00  0.00     0.010 A 
ATOM     39  C   UNL A   1      36.473  32.667  30.550  1.00  0.00    -0.014 A 
BRANCH  39  40
ATOM     40  C   UNL A   1      37.637  31.954  31.131  1.00  0.00     0.031 A 
ATOM     41  C   UNL A   1      38.112  32.298  32.515  1.00  0.00     0.074 A 
ATOM     42  C   UNL A   1      38.290  31.036  30.394  1.00  0.00     0.049 A 
ATOM     43  N   UNL A   1      39.146  31.841  33.174  1.00  0.00    -0.248 NA
ATOM     44  C   UNL A   1      37.336  33.312  33.246  1.00  0.00     0.031 C 
ATOM     45  C   UNL A   1      37.944  30.649  29.027  1.00  0.00     0.029 A 
ATOM     46  N   UNL A   1      39.389  30.270  30.692  1.00  0.00    -0.354 N 
ATOM     47  C   UNL A   1      39.156  32.524  34.384  1.00  0.00     0.074 A 
ATOM     48  C   UNL A   1      38.055  33.461  34.349  1.00  0.00     0.031 C 
ATOM     49  C   UNL A   1      38.802  29.704  28.609  1.00  0.00     0.029 A 
ATOM     50  C   UNL A   1      39.776  29.445  29.666  1.00  0.00     0.049 A 
ATOM     51  H   UNL A   1      39.855  30.308  31.558  1.00  0.00     0.167 HD
ATOM     52  C   UNL A   1      39.995  32.367  35.435  1.00  0.00     0.037 A 
ATOM     53  C   UNL A   1      40.806  28.581  29.586  1.00  0.00     0.037 A 
ATOM     54  C   UNL A   1      41.068  31.409  35.475  1.00  0.00     0.049 A 
ATOM     55  C   UNL A   1      41.714  28.415  30.775  1.00  0.00     0.074 A 
ATOM     56  C   UNL A   1      41.944  31.134  36.511  1.00  0.00     0.029 A 
ATOM     57  N   UNL A   1      41.410  30.566  34.427  1.00  0.00    -0.354 N 
ATOM     58  N   UNL A   1      41.679  29.025  31.935  1.00  0.00    -0.248 NA
ATOM     59  C   UNL A   1      42.799  27.432  30.646  1.00  0.00     0.031 C 
ATOM     60  C   UNL A   1      42.839  30.150  36.076  1.00  0.00     0.029 A 
ATOM     61  C   UNL A   1      42.491  29.778  34.787  1.00  0.00     0.049 A 
ATOM     62  H   UNL A   1      40.952  30.533  33.557  1.00  0.00     0.167 HD
ATOM     63  C   UNL A   1      42.712  28.478  32.685  1.00  0.00     0.074 A 
ATOM     64  C   UNL A   1      43.348  27.480  31.851  1.00  0.00     0.031 C 
ATOM     65  C   UNL A   1      43.098  28.776  33.949  1.00  0.00     0.037 A 
BRANCH  52  66
ATOM     66  C   UNL A   1      39.781  33.248  36.632  1.00  0.00     0.064 A 
ATOM     67  C   UNL A   1      38.901  32.888  37.664  1.00  0.00     0.173 A 
ATOM     68  C   UNL A   1      40.488  34.453  36.765  1.00  0.00     0.173 A 
ATOM     69  F   UNL A   1      38.192  31.752  37.580  1.00  0.00    -0.203 F 
ATOM     70  C   UNL A   1      38.714  33.715  38.768  1.00  0.00     0.198 A 
ATOM     71  C   UNL A   1      40.322  35.263  37.886  1.00  0.00     0.198 A 
ATOM     72  F   UNL A   1      41.346  34.844  35.811  1.00  0.00    -0.203 F 
ATOM     73  F   UNL A   1      37.830  33.374  39.716  1.00  0.00    -0.200 F 
ATOM     74  C   UNL A   1      39.429  34.898  38.882  1.00  0.00     0.200 A 
ATOM     75  F   UNL A   1      41.022  36.399  38.000  1.00  0.00    -0.200 F 
ATOM     76  F   UNL A   1      39.252  35.689  39.949  1.00  0.00    -0.200 F 
ENDBRANCH  52  66
BRANCH  53  77
ATOM     77  C   UNL A   1      41.010  27.781  28.351  1.00  0.00     0.064 A 
ATOM     78  C   UNL A   1      40.380  26.541  28.186  1.00  0.00     0.173 A 
ATOM     79  C   UNL A   1      41.836  28.238  27.314  1.00  0.00     0.173 A 
ATOM     80  F   UNL A   1      39.595  26.055  29.158  1.00  0.00    -0.203 F 
ATOM     81  C   UNL A   1      40.584  25.776  27.039  1.00  0.00     0.198 A 
ATOM     82  C   UNL A   1      42.017  27.487  26.155  1.00  0.00     0.198 A 
ATOM     83  F   UNL A   1      42.457  29.423  27.420  1.00  0.00    -0.203 F 
ATOM     84  F   UNL A   1      40.004  24.574  26.926  1.00  0.00    -0.200 F 
ATOM     85  C   UNL A   1      41.399  26.252  26.022  1.00  0.00     0.200 A 
ATOM     86  F   UNL A   1      42.791  27.956  25.168  1.00  0.00    -0.200 F 
ATOM     87  F   UNL A   1      41.591  25.519  24.917  1.00  0.00    -0.200 F 
ENDBRANCH  53  77
BRANCH  65  88
ATOM     88  C   UNL A   1      44.231  27.980  34.526  1.00  0.00     0.064 A 
ATOM     89  C   UNL A   1      45.560  28.420  34.443  1.00  0.00     0.173 A 
ATOM     90  C   UNL A   1      43.976  26.777  35.203  1.00  0.00     0.173 A 
ATOM     91  F   UNL A   1      45.856  29.555  33.793  1.00  0.00    -0.203 F 
ATOM     92  C   UNL A   1      46.596  27.671  34.995  1.00  0.00     0.198 A 
ATOM     93  C   UNL A   1      45.010  26.046  35.779  1.00  0.00     0.198 A 
ATOM     94  F   UNL A   1      42.721  26.317  35.315  1.00  0.00    -0.203 F 
ATOM     95  F   UNL A   1      47.863  28.085  34.864  1.00  0.00    -0.200 F 
ATOM     96  C   UNL A   1      46.320  26.490  35.669  1.00  0.00     0.200 A 
ATOM     97  F   UNL A   1      44.741  24.913  36.441  1.00  0.00    -0.200 F 
ATOM     98  F   UNL A   1      47.318  25.774  36.205  1.00  0.00    -0.200 F 
ENDBRANCH  65  88
ENDBRANCH  39  40
ENDBRANCH  31  34
ENDBRANCH  29  30
ENDBRANCH  28  29
ENDBRANCH  27  28
ENDBRANCH   3  27
TORSDOF 17
ENDMDL
MODEL 3
REMARK VINA RESULT:     -12.2      5.400     12.709
REMARK SMILES CCOc1cc(/C=N/O)cc(Cl)c1OCc1ccc(C(=O)NCCCNC(=O)c2ccc(-c3c4nc(c(-c5c(F)c(F)c(F)c(F)c5F)c5ccc([nH]5)c(-c5c(F)c(F)c(F)c(F)c5F)c5nc(c(-c6c(F)c(F)c(F)c(F)c6F)c6ccc3[nH]6)C=C5)C=C4)cc2)cc1
REMARK SMILES IDX 20 1 21 2 22 3 19 5 16 6 17 7 93 8 18 9 92 10 15 11 14 12
REMARK SMILES IDX 13 13 4 14 5 15 6 16 11 17 10 18 12 19 3 20 2 21 1 22 7 23
REMARK SMILES IDX 8 24 9 25 23 27 24 28 25 29 26 30 27 31 28 33 29 34 30 35
REMARK SMILES IDX 91 36 31 37 90 38 32 39 33 40 34 41 84 42 35 43 89 44 83 45
REMARK SMILES IDX 85 46 36 47 88 48 82 49 81 50 37 52 69 53 49 54 68 55 50 56
REMARK SMILES IDX 53 57 67 58 86 59 51 60 52 61 66 63 87 64 54 65 38 66 39 67
REMARK SMILES IDX 47 68 40 69 41 70 45 71 48 72 42 73 43 74 46 75 44 76 70 77
REMARK SMILES IDX 71 78 79 79 72 80 73 81 77 82 80 83 74 84 75 85 78 86 76 87
REMARK SMILES IDX 55 88 56 89 64 90 57 91 58 92 62 93 65 94 59 95 60 96 63 97
REMARK SMILES IDX 61 98
REMARK H PARENT 22 4 9 26 26 32 85 51 53 62
REMARK Flexibility Score: inf
ROOT
ATOM      1  C   UNL A   1      43.953  23.200  34.094  1.00  0.00     0.251 C 
ATOM      2  O   UNL A   1      42.832  23.367  34.576  1.00  0.00    -0.269 OA
ATOM      3  N   UNL A   1      44.894  22.604  34.896  1.00  0.00    -0.352 N 
ATOM      4  H   UNL A   1      44.582  22.424  35.812  1.00  0.00     0.163 HD
ENDROOT
BRANCH   1   5
ATOM      5  C   UNL A   1      44.211  23.629  32.688  1.00  0.00     0.039 A 
ATOM      6  C   UNL A   1      44.939  24.438  30.070  1.00  0.00    -0.011 A 
ATOM      7  C   UNL A   1      45.557  25.006  31.194  1.00  0.00     0.008 A 
ATOM      8  C   UNL A   1      43.902  23.528  30.278  1.00  0.00     0.008 A 
ATOM      9  C   UNL A   1      45.192  24.611  32.486  1.00  0.00     0.014 A 
ATOM     10  C   UNL A   1      43.591  23.084  31.564  1.00  0.00     0.014 A 
BRANCH   6  11
ATOM     11  C   UNL A   1      45.440  24.793  28.682  1.00  0.00     0.265 C 
BRANCH  11  12
ATOM     12  O   UNL A   1      44.572  24.558  27.564  1.00  0.00    -0.483 OA
BRANCH  12  13
ATOM     13  C   UNL A   1      44.864  23.665  26.566  1.00  0.00     0.180 A 
ATOM     14  C   UNL A   1      43.903  22.639  26.424  1.00  0.00     0.163 A 
ATOM     15  C   UNL A   1      44.088  21.600  25.512  1.00  0.00     0.060 A 
ATOM     16  C   UNL A   1      45.257  21.534  24.763  1.00  0.00     0.001 A 
ATOM     17  C   UNL A   1      45.992  23.635  25.727  1.00  0.00     0.087 A 
ATOM     18  C   UNL A   1      46.205  22.550  24.860  1.00  0.00     0.034 A 
ATOM     19  Cl  UNL A   1      47.151  24.912  25.599  1.00  0.00    -0.080 Cl
BRANCH  14  20
ATOM     20  O   UNL A   1      42.720  22.733  27.118  1.00  0.00    -0.490 OA
BRANCH  20  21
ATOM     21  C   UNL A   1      42.222  21.494  27.637  1.00  0.00     0.226 C 
ATOM     22  C   UNL A   1      40.751  21.282  27.307  1.00  0.00     0.049 C 
ENDBRANCH  20  21
ENDBRANCH  14  20
BRANCH  16  23
ATOM     23  C   UNL A   1      45.480  20.412  23.832  1.00  0.00     0.162 C 
ATOM     24  N   UNL A   1      44.500  19.678  23.407  1.00  0.00    -0.097 NA
BRANCH  24  25
ATOM     25  O   UNL A   1      45.001  18.705  22.537  1.00  0.00    -0.411 OA
ATOM     26  H   UNL A   1      44.718  17.815  22.617  1.00  0.00     0.330 HD
ENDBRANCH  24  25
ENDBRANCH  16  23
ENDBRANCH  12  13
ENDBRANCH  11  12
ENDBRANCH   6  11
ENDBRANCH   1   5
BRANCH   3  27
ATOM     27  C   UNL A   1      46.261  22.192  34.649  1.00  0.00     0.118 C 
BRANCH  27  28
ATOM     28  C   UNL A   1      47.229  22.879  35.615  1.00  0.00     0.042 C 
BRANCH  28  29
ATOM     29  C   UNL A   1      47.448  24.350  35.286  1.00  0.00     0.118 C 
BRANCH  29  30
ATOM     30  N   UNL A   1      47.551  25.153  36.495  1.00  0.00    -0.352 N 
ATOM     31  C   UNL A   1      46.955  26.344  36.817  1.00  0.00     0.251 C 
ATOM     32  H   UNL A   1      48.141  24.783  37.190  1.00  0.00     0.163 HD
ATOM     33  O   UNL A   1      47.352  26.968  37.796  1.00  0.00    -0.269 OA
BRANCH  31  34
ATOM     34  C   UNL A   1      45.843  26.883  36.005  1.00  0.00     0.039 A 
ATOM     35  C   UNL A   1      46.077  28.027  35.235  1.00  0.00     0.014 A 
ATOM     36  C   UNL A   1      44.562  26.325  36.055  1.00  0.00     0.014 A 
ATOM     37  C   UNL A   1      45.037  28.597  34.500  1.00  0.00     0.010 A 
ATOM     38  C   UNL A   1      43.542  26.853  35.268  1.00  0.00     0.010 A 
ATOM     39  C   UNL A   1      43.764  28.008  34.501  1.00  0.00    -0.014 A 
BRANCH  39  40
ATOM     40  C   UNL A   1      42.642  28.610  33.741  1.00  0.00     0.031 A 
ATOM     41  C   UNL A   1      41.683  29.539  34.432  1.00  0.00     0.074 A 
ATOM     42  C   UNL A   1      42.462  28.282  32.448  1.00  0.00     0.049 A 
ATOM     43  N   UNL A   1      40.604  30.114  33.964  1.00  0.00    -0.248 NA
ATOM     44  C   UNL A   1      41.959  29.842  35.845  1.00  0.00     0.031 C 
ATOM     45  C   UNL A   1      43.305  27.362  31.685  1.00  0.00     0.029 A 
ATOM     46  N   UNL A   1      41.503  28.680  31.551  1.00  0.00    -0.354 N 
ATOM     47  C   UNL A   1      40.064  30.826  35.028  1.00  0.00     0.074 A 
ATOM     48  C   UNL A   1      40.906  30.574  36.177  1.00  0.00     0.031 C 
ATOM     49  C   UNL A   1      42.837  27.279  30.429  1.00  0.00     0.029 A 
ATOM     50  C   UNL A   1      41.644  28.113  30.310  1.00  0.00     0.049 A 
ATOM     51  H   UNL A   1      40.783  29.312  31.777  1.00  0.00     0.167 HD
ATOM     52  C   UNL A   1      38.978  31.635  35.039  1.00  0.00     0.037 A 
ATOM     53  C   UNL A   1      40.892  28.249  29.201  1.00  0.00     0.037 A 
ATOM     54  C   UNL A   1      38.164  31.908  33.883  1.00  0.00     0.049 A 
ATOM     55  C   UNL A   1      39.698  29.164  29.236  1.00  0.00     0.074 A 
ATOM     56  C   UNL A   1      37.072  32.751  33.773  1.00  0.00     0.029 A 
ATOM     57  N   UNL A   1      38.358  31.340  32.632  1.00  0.00    -0.354 N 
ATOM     58  N   UNL A   1      39.230  29.878  30.231  1.00  0.00    -0.248 NA
ATOM     59  C   UNL A   1      38.934  29.302  27.988  1.00  0.00     0.031 C 
ATOM     60  C   UNL A   1      36.584  32.665  32.465  1.00  0.00     0.029 A 
ATOM     61  C   UNL A   1      37.399  31.805  31.747  1.00  0.00     0.049 A 
ATOM     62  H   UNL A   1      39.072  30.700  32.406  1.00  0.00     0.167 HD
ATOM     63  C   UNL A   1      38.141  30.573  29.724  1.00  0.00     0.074 A 
ATOM     64  C   UNL A   1      38.024  30.203  28.329  1.00  0.00     0.031 C 
ATOM     65  C   UNL A   1      37.312  31.439  30.356  1.00  0.00     0.037 A 
BRANCH  52  66
ATOM     66  C   UNL A   1      38.609  32.287  36.340  1.00  0.00     0.064 A 
ATOM     67  C   UNL A   1      37.913  31.591  37.340  1.00  0.00     0.173 A 
ATOM     68  C   UNL A   1      38.983  33.613  36.604  1.00  0.00     0.173 A 
ATOM     69  F   UNL A   1      37.523  30.324  37.134  1.00  0.00    -0.203 F 
ATOM     70  C   UNL A   1      37.579  32.208  38.543  1.00  0.00     0.198 A 
ATOM     71  C   UNL A   1      38.673  34.217  37.820  1.00  0.00     0.198 A 
ATOM     72  F   UNL A   1      39.654  34.324  35.684  1.00  0.00    -0.203 F 
ATOM     73  F   UNL A   1      36.870  31.539  39.462  1.00  0.00    -0.200 F 
ATOM     74  C   UNL A   1      37.965  33.517  38.785  1.00  0.00     0.200 A 
ATOM     75  F   UNL A   1      39.058  35.479  38.057  1.00  0.00    -0.200 F 
ATOM     76  F   UNL A   1      37.647  34.107  39.945  1.00  0.00    -0.200 F 
ENDBRANCH  52  66
BRANCH  53  77
ATOM     77  C   UNL A   1      41.265  27.527  27.958  1.00  0.00     0.064 A 
ATOM     78  C   UNL A   1      40.638  26.323  27.611  1.00  0.00     0.173 A 
ATOM     79  C   UNL A   1      42.251  28.023  27.093  1.00  0.00     0.173 A 
ATOM     80  F   UNL A   1      39.701  25.800  28.416  1.00  0.00    -0.203 F 
ATOM     81  C   UNL A   1      40.998  25.629  26.458  1.00  0.00     0.198 A 
ATOM     82  C   UNL A   1      42.590  27.344  25.924  1.00  0.00     0.198 A 
ATOM     83  F   UNL A   1      42.876  29.175  27.376  1.00  0.00    -0.203 F 
ATOM     84  F   UNL A   1      40.414  24.457  26.173  1.00  0.00    -0.200 F 
ATOM     85  C   UNL A   1      41.970  26.143  25.612  1.00  0.00     0.200 A 
ATOM     86  F   UNL A   1      43.518  27.851  25.102  1.00  0.00    -0.200 F 
ATOM     87  F   UNL A   1      42.312  25.479  24.500  1.00  0.00    -0.200 F 
ENDBRANCH  53  77
BRANCH  65  88
ATOM     88  C   UNL A   1      36.236  32.084  29.534  1.00  0.00     0.064 A 
ATOM     89  C   UNL A   1      35.151  31.352  29.033  1.00  0.00     0.173 A 
ATOM     90  C   UNL A   1      36.276  33.463  29.275  1.00  0.00     0.173 A 
ATOM     91  F   UNL A   1      35.075  30.028  29.240  1.00  0.00    -0.203 F 
ATOM     92  C   UNL A   1      34.157  31.972  28.280  1.00  0.00     0.198 A 
ATOM     93  C   UNL A   1      35.266  34.085  28.548  1.00  0.00     0.198 A 
ATOM     94  F   UNL A   1      37.290  34.209  29.738  1.00  0.00    -0.203 F 
ATOM     95  F   UNL A   1      33.153  31.245  27.771  1.00  0.00    -0.200 F 
ATOM     96  C   UNL A   1      34.211  33.338  28.045  1.00  0.00     0.200 A 
ATOM     97  F   UNL A   1      35.313  35.406  28.333  1.00  0.00    -0.200 F 
ATOM     98  F   UNL A   1      33.250  33.934  27.326  1.00  0.00    -0.200 F 
ENDBRANCH  65  88
ENDBRANCH  39  40
ENDBRANCH  31  34
ENDBRANCH  29  30
ENDBRANCH  28  29
ENDBRANCH  27  28
ENDBRANCH   3  27
TORSDOF 17
ENDMDL
