MODEL 1
REMARK VINA RESULT:     -13.6      0.000      0.000
REMARK SMILES C[NH+]1CCC2(CC1)OC[C@H](C(=O)NCCCNC(=O)c1ccc(-c3c4nc(c(-c5c(F)c(F)c(F)c(F)c5F)c5ccc([nH]5)c(-c5c(F)c(F)c(F)c(F)c5F)c5nc(c(-c6c(F)c(F)c(F)c(F)c6F)c6ccc3[nH]6)C=C5)C=C4)cc1)N2C(=O)c1cc(C(F)(F)F)cc(C(F)(F)F)c1
REMARK SMILES IDX 14 1 13 2 11 3 12 4 10 6 1 7 2 8 3 9 7 10 4 12 6 13 5 14
REMARK SMILES IDX 8 15 83 16 9 17 84 18 85 19 86 20 87 21 99 22 88 23 94 24
REMARK SMILES IDX 93 25 89 26 90 27 91 28 92 29 95 30 96 31 97 32 98 33 15 34
REMARK SMILES IDX 16 35 17 36 18 37 19 39 20 40 21 41 82 42 22 43 81 44 23 45
REMARK SMILES IDX 24 46 25 47 75 48 26 49 80 50 74 51 76 52 27 53 79 54 73 55
REMARK SMILES IDX 72 56 28 58 60 59 40 60 59 61 41 62 44 63 58 64 77 65 42 66
REMARK SMILES IDX 43 67 57 69 78 70 45 71 29 72 30 73 38 74 31 75 32 76 36 77
REMARK SMILES IDX 39 78 33 79 34 80 37 81 35 82 61 83 62 84 70 85 63 86 64 87
REMARK SMILES IDX 68 88 71 89 65 90 66 91 69 92 67 93 46 94 47 95 55 96 48 97
REMARK SMILES IDX 49 98 53 99 56 100 50 101 51 102 54 103 52 104
REMARK H PARENT 13 5 2 11 17 38 76 57 44 68
REMARK Flexibility Score: inf
ROOT
ATOM      1  C   UNL A   1      36.817  20.854  24.863  1.00  0.00     0.117 C 
ENDROOT
BRANCH   1   2
ATOM      2  N   UNL A   1      35.731  20.770  25.824  1.00  0.00    -0.354 N 
ATOM      3  C   UNL A   1      34.849  21.685  26.325  1.00  0.00     0.245 C 
ATOM      4  O   UNL A   1      33.850  21.185  26.860  1.00  0.00    -0.273 OA
ATOM      5  H   UNL A   1      35.603  19.864  26.190  1.00  0.00     0.163 HD
BRANCH   3   6
ATOM      6  C   UNL A   1      34.971  23.233  26.209  1.00  0.00     0.203 C 
ATOM      7  C   UNL A   1      33.050  24.389  20.308  1.00  0.00     0.332 C 
ATOM      8  N   UNL A   1      32.623  24.455  21.698  1.00  0.00    -0.337 N 
ATOM      9  C   UNL A   1      32.752  23.173  22.365  1.00  0.00     0.267 C 
ATOM     10  C   UNL A   1      33.154  25.618  22.407  1.00  0.00     0.267 C 
ATOM     11  H   UNL A   1      31.619  24.635  21.712  1.00  0.00     0.347 HD
ATOM     12  C   UNL A   1      34.050  22.959  23.097  1.00  0.00     0.120 C 
ATOM     13  C   UNL A   1      34.358  25.434  23.321  1.00  0.00     0.120 C 
ATOM     14  C   UNL A   1      34.458  24.094  24.046  1.00  0.00     0.155 C 
ATOM     15  O   UNL A   1      35.919  23.964  24.215  1.00  0.00    -0.352 OA
ATOM     16  N   UNL A   1      33.950  23.924  25.420  1.00  0.00    -0.295 N 
ATOM     17  C   UNL A   1      36.236  23.749  25.599  1.00  0.00     0.198 C 
BRANCH  16  18
ATOM     18  C   UNL A   1      32.822  24.373  26.100  1.00  0.00     0.256 C 
ATOM     19  O   UNL A   1      32.253  23.711  26.966  1.00  0.00    -0.269 OA
BRANCH  18  20
ATOM     20  C   UNL A   1      32.264  25.717  25.882  1.00  0.00     0.041 A 
ATOM     21  C   UNL A   1      32.868  26.832  26.474  1.00  0.00     0.027 A 
ATOM     22  C   UNL A   1      31.086  25.868  25.156  1.00  0.00     0.027 A 
ATOM     23  C   UNL A   1      32.367  28.123  26.221  1.00  0.00     0.057 A 
ATOM     24  C   UNL A   1      30.652  27.147  24.773  1.00  0.00     0.057 A 
ATOM     25  C   UNL A   1      31.286  28.269  25.332  1.00  0.00     0.026 A 
BRANCH  23  26
ATOM     26  C   UNL A   1      33.004  29.332  26.868  1.00  0.00     0.416 C 
ATOM     27  F   UNL A   1      33.601  30.150  25.962  1.00  0.00    -0.166 F 
ATOM     28  F   UNL A   1      32.100  30.099  27.536  1.00  0.00    -0.166 F 
ATOM     29  F   UNL A   1      33.966  29.012  27.778  1.00  0.00    -0.166 F 
ENDBRANCH  23  26
BRANCH  24  30
ATOM     30  C   UNL A   1      29.613  27.320  23.688  1.00  0.00     0.416 C 
ATOM     31  F   UNL A   1      29.172  28.603  23.586  1.00  0.00    -0.166 F 
ATOM     32  F   UNL A   1      30.096  26.996  22.455  1.00  0.00    -0.166 F 
ATOM     33  F   UNL A   1      28.502  26.551  23.867  1.00  0.00    -0.166 F 
ENDBRANCH  24  30
ENDBRANCH  18  20
ENDBRANCH  16  18
ENDBRANCH   3   6
ENDBRANCH   1   2
BRANCH   1  34
ATOM     34  C   UNL A   1      37.871  19.778  24.988  1.00  0.00     0.042 C 
BRANCH  34  35
ATOM     35  C   UNL A   1      39.131  20.259  25.678  1.00  0.00     0.118 C 
BRANCH  35  36
ATOM     36  N   UNL A   1      40.126  19.202  25.850  1.00  0.00    -0.352 N 
ATOM     37  C   UNL A   1      41.482  19.265  26.076  1.00  0.00     0.251 C 
ATOM     38  H   UNL A   1      39.765  18.287  25.794  1.00  0.00     0.163 HD
ATOM     39  O   UNL A   1      42.160  18.250  26.002  1.00  0.00    -0.269 OA
BRANCH  37  40
ATOM     40  C   UNL A   1      42.126  20.561  26.382  1.00  0.00     0.039 A 
ATOM     41  C   UNL A   1      42.554  21.376  25.332  1.00  0.00     0.014 A 
ATOM     42  C   UNL A   1      42.304  20.975  27.701  1.00  0.00     0.014 A 
ATOM     43  C   UNL A   1      43.075  22.643  25.609  1.00  0.00     0.010 A 
ATOM     44  C   UNL A   1      42.700  22.277  27.970  1.00  0.00     0.010 A 
ATOM     45  C   UNL A   1      43.102  23.122  26.928  1.00  0.00    -0.014 A 
BRANCH  45  46
ATOM     46  C   UNL A   1      43.559  24.496  27.253  1.00  0.00     0.031 A 
ATOM     47  C   UNL A   1      42.570  25.519  27.740  1.00  0.00     0.074 A 
ATOM     48  C   UNL A   1      44.842  24.844  27.028  1.00  0.00     0.049 A 
ATOM     49  N   UNL A   1      42.745  26.793  27.981  1.00  0.00    -0.248 NA
ATOM     50  C   UNL A   1      41.188  25.056  27.951  1.00  0.00     0.031 C 
ATOM     51  C   UNL A   1      45.881  23.957  26.503  1.00  0.00     0.029 A 
ATOM     52  N   UNL A   1      45.486  26.043  27.200  1.00  0.00    -0.354 N 
ATOM     53  C   UNL A   1      41.498  27.281  28.350  1.00  0.00     0.074 A 
ATOM     54  C   UNL A   1      40.561  26.187  28.235  1.00  0.00     0.031 C 
ATOM     55  C   UNL A   1      47.038  24.632  26.425  1.00  0.00     0.029 A 
ATOM     56  C   UNL A   1      46.813  26.010  26.847  1.00  0.00     0.049 A 
ATOM     57  H   UNL A   1      45.041  26.850  27.545  1.00  0.00     0.167 HD
ATOM     58  C   UNL A   1      41.169  28.524  28.774  1.00  0.00     0.037 A 
ATOM     59  C   UNL A   1      47.741  26.987  26.852  1.00  0.00     0.037 A 
ATOM     60  C   UNL A   1      42.113  29.602  28.913  1.00  0.00     0.049 A 
ATOM     61  C   UNL A   1      47.348  28.363  27.319  1.00  0.00     0.074 A 
ATOM     62  C   UNL A   1      41.898  30.880  29.395  1.00  0.00     0.029 A 
ATOM     63  N   UNL A   1      43.453  29.524  28.564  1.00  0.00    -0.354 N 
ATOM     64  N   UNL A   1      46.182  28.794  27.737  1.00  0.00    -0.248 NA
ATOM     65  C   UNL A   1      48.401  29.387  27.320  1.00  0.00     0.031 C 
ATOM     66  C   UNL A   1      43.094  31.595  29.284  1.00  0.00     0.029 A 
ATOM     67  C   UNL A   1      44.072  30.742  28.794  1.00  0.00     0.049 A 
ATOM     68  H   UNL A   1      43.900  28.723  28.206  1.00  0.00     0.167 HD
ATOM     69  C   UNL A   1      46.368  30.127  28.080  1.00  0.00     0.074 A 
ATOM     70  C   UNL A   1      47.763  30.428  27.836  1.00  0.00     0.031 C 
ATOM     71  C   UNL A   1      45.465  31.021  28.553  1.00  0.00     0.037 A 
BRANCH  58  72
ATOM     72  C   UNL A   1      39.731  28.783  29.125  1.00  0.00     0.064 A 
ATOM     73  C   UNL A   1      39.234  28.560  30.419  1.00  0.00     0.173 A 
ATOM     74  C   UNL A   1      38.844  29.292  28.164  1.00  0.00     0.173 A 
ATOM     75  F   UNL A   1      40.036  28.061  31.373  1.00  0.00    -0.203 F 
ATOM     76  C   UNL A   1      37.899  28.804  30.728  1.00  0.00     0.198 A 
ATOM     77  C   UNL A   1      37.518  29.570  28.486  1.00  0.00     0.198 A 
ATOM     78  F   UNL A   1      39.266  29.529  26.912  1.00  0.00    -0.203 F 
ATOM     79  F   UNL A   1      37.436  28.528  31.955  1.00  0.00    -0.200 F 
ATOM     80  C   UNL A   1      37.044  29.317  29.765  1.00  0.00     0.200 A 
ATOM     81  F   UNL A   1      36.697  30.079  27.557  1.00  0.00    -0.200 F 
ATOM     82  F   UNL A   1      35.762  29.560  30.066  1.00  0.00    -0.200 F 
ENDBRANCH  58  72
BRANCH  59  83
ATOM     83  C   UNL A   1      49.135  26.695  26.423  1.00  0.00     0.064 A 
ATOM     84  C   UNL A   1      49.538  26.900  25.096  1.00  0.00     0.173 A 
ATOM     85  C   UNL A   1      50.089  26.199  27.325  1.00  0.00     0.173 A 
ATOM     86  F   UNL A   1      48.658  27.356  24.192  1.00  0.00    -0.203 F 
ATOM     87  C   UNL A   1      50.834  26.597  24.682  1.00  0.00     0.198 A 
ATOM     88  C   UNL A   1      51.393  25.927  26.916  1.00  0.00     0.198 A 
ATOM     89  F   UNL A   1      49.759  25.992  28.608  1.00  0.00    -0.203 F 
ATOM     90  F   UNL A   1      51.176  26.753  23.396  1.00  0.00    -0.200 F 
ATOM     91  C   UNL A   1      51.761  26.115  25.593  1.00  0.00     0.200 A 
ATOM     92  F   UNL A   1      52.292  25.479  27.803  1.00  0.00    -0.200 F 
ATOM     93  F   UNL A   1      53.007  25.827  25.194  1.00  0.00    -0.200 F 
ENDBRANCH  59  83
BRANCH  71  94
ATOM     94  C   UNL A   1      45.965  32.399  28.878  1.00  0.00     0.064 A 
ATOM     95  C   UNL A   1      45.930  33.440  27.939  1.00  0.00     0.173 A 
ATOM     96  C   UNL A   1      46.445  32.692  30.165  1.00  0.00     0.173 A 
ATOM     97  F   UNL A   1      45.494  33.208  26.691  1.00  0.00    -0.203 F 
ATOM     98  C   UNL A   1      46.382  34.714  28.267  1.00  0.00     0.198 A 
ATOM     99  C   UNL A   1      46.863  33.976  30.500  1.00  0.00     0.198 A 
ATOM    100  F   UNL A   1      46.492  31.734  31.104  1.00  0.00    -0.203 F 
ATOM    101  F   UNL A   1      46.388  35.680  27.338  1.00  0.00    -0.200 F 
ATOM    102  C   UNL A   1      46.839  34.985  29.549  1.00  0.00     0.200 A 
ATOM    103  F   UNL A   1      47.286  34.238  31.745  1.00  0.00    -0.200 F 
ATOM    104  F   UNL A   1      47.264  36.216  29.865  1.00  0.00    -0.200 F 
ENDBRANCH  71  94
ENDBRANCH  45  46
ENDBRANCH  37  40
ENDBRANCH  35  36
ENDBRANCH  34  35
ENDBRANCH   1  34
TORSDOF 14
ENDMDL
MODEL 2
REMARK VINA RESULT:     -13.6      5.608     10.725
REMARK SMILES C[NH+]1CCC2(CC1)OC[C@H](C(=O)NCCCNC(=O)c1ccc(-c3c4nc(c(-c5c(F)c(F)c(F)c(F)c5F)c5ccc([nH]5)c(-c5c(F)c(F)c(F)c(F)c5F)c5nc(c(-c6c(F)c(F)c(F)c(F)c6F)c6ccc3[nH]6)C=C5)C=C4)cc1)N2C(=O)c1cc(C(F)(F)F)cc(C(F)(F)F)c1
REMARK SMILES IDX 14 1 13 2 11 3 12 4 10 6 1 7 2 8 3 9 7 10 4 12 6 13 5 14
REMARK SMILES IDX 8 15 83 16 9 17 84 18 85 19 86 20 87 21 99 22 88 23 94 24
REMARK SMILES IDX 93 25 89 26 90 27 91 28 92 29 95 30 96 31 97 32 98 33 15 34
REMARK SMILES IDX 16 35 17 36 18 37 19 39 20 40 21 41 82 42 22 43 81 44 23 45
REMARK SMILES IDX 24 46 25 47 75 48 26 49 80 50 74 51 76 52 27 53 79 54 73 55
REMARK SMILES IDX 72 56 28 58 60 59 40 60 59 61 41 62 44 63 58 64 77 65 42 66
REMARK SMILES IDX 43 67 57 69 78 70 45 71 29 72 30 73 38 74 31 75 32 76 36 77
REMARK SMILES IDX 39 78 33 79 34 80 37 81 35 82 61 83 62 84 70 85 63 86 64 87
REMARK SMILES IDX 68 88 71 89 65 90 66 91 69 92 67 93 46 94 47 95 55 96 48 97
REMARK SMILES IDX 49 98 53 99 56 100 50 101 51 102 54 103 52 104
REMARK H PARENT 13 5 2 11 17 38 76 57 44 68
REMARK Flexibility Score: inf
ROOT
ATOM      1  C   UNL A   1      31.673  30.554  26.305  1.00  0.00     0.117 C 
ENDROOT
BRANCH   1   2
ATOM      2  N   UNL A   1      31.857  30.173  24.915  1.00  0.00    -0.354 N 
ATOM      3  C   UNL A   1      32.432  29.094  24.307  1.00  0.00     0.245 C 
ATOM      4  O   UNL A   1      32.100  28.944  23.123  1.00  0.00    -0.273 OA
ATOM      5  H   UNL A   1      31.491  30.830  24.279  1.00  0.00     0.163 HD
BRANCH   3   6
ATOM      6  C   UNL A   1      33.367  28.051  24.987  1.00  0.00     0.203 C 
ATOM      7  C   UNL A   1      29.343  23.660  27.083  1.00  0.00     0.332 C 
ATOM      8  N   UNL A   1      30.304  23.940  26.025  1.00  0.00    -0.337 N 
ATOM      9  C   UNL A   1      30.000  25.178  25.331  1.00  0.00     0.267 C 
ATOM     10  C   UNL A   1      31.691  23.747  26.444  1.00  0.00     0.267 C 
ATOM     11  H   UNL A   1      30.197  23.226  25.304  1.00  0.00     0.347 HD
ATOM     12  C   UNL A   1      30.700  26.399  25.865  1.00  0.00     0.120 C 
ATOM     13  C   UNL A   1      32.521  24.968  26.817  1.00  0.00     0.120 C 
ATOM     14  C   UNL A   1      32.216  26.253  26.051  1.00  0.00     0.155 C 
ATOM     15  O   UNL A   1      32.596  27.280  27.042  1.00  0.00    -0.352 OA
ATOM     16  N   UNL A   1      32.995  26.640  24.859  1.00  0.00    -0.295 N 
ATOM     17  C   UNL A   1      33.544  28.191  26.466  1.00  0.00     0.198 C 
BRANCH  16  18
ATOM     18  C   UNL A   1      33.519  25.944  23.775  1.00  0.00     0.256 C 
ATOM     19  O   UNL A   1      33.684  26.453  22.667  1.00  0.00    -0.269 OA
BRANCH  18  20
ATOM     20  C   UNL A   1      33.989  24.555  23.892  1.00  0.00     0.041 A 
ATOM     21  C   UNL A   1      35.266  24.286  24.397  1.00  0.00     0.027 A 
ATOM     22  C   UNL A   1      33.193  23.513  23.423  1.00  0.00     0.027 A 
ATOM     23  C   UNL A   1      35.694  22.955  24.561  1.00  0.00     0.057 A 
ATOM     24  C   UNL A   1      33.535  22.182  23.706  1.00  0.00     0.057 A 
ATOM     25  C   UNL A   1      34.801  21.912  24.255  1.00  0.00     0.026 A 
BRANCH  23  26
ATOM     26  C   UNL A   1      37.078  22.656  25.092  1.00  0.00     0.416 C 
ATOM     27  F   UNL A   1      37.825  23.780  25.253  1.00  0.00    -0.166 F 
ATOM     28  F   UNL A   1      37.045  22.042  26.306  1.00  0.00    -0.166 F 
ATOM     29  F   UNL A   1      37.801  21.836  24.279  1.00  0.00    -0.166 F 
ENDBRANCH  23  26
BRANCH  24  30
ATOM     30  C   UNL A   1      32.521  21.070  23.547  1.00  0.00     0.416 C 
ATOM     31  F   UNL A   1      31.816  21.168  22.388  1.00  0.00    -0.166 F 
ATOM     32  F   UNL A   1      33.106  19.839  23.522  1.00  0.00    -0.166 F 
ATOM     33  F   UNL A   1      31.598  21.024  24.548  1.00  0.00    -0.166 F 
ENDBRANCH  24  30
ENDBRANCH  18  20
ENDBRANCH  16  18
ENDBRANCH   3   6
ENDBRANCH   1   2
BRANCH   1  34
ATOM     34  C   UNL A   1      31.482  32.034  26.546  1.00  0.00     0.042 C 
BRANCH  34  35
ATOM     35  C   UNL A   1      32.645  32.671  27.280  1.00  0.00     0.118 C 
BRANCH  35  36
ATOM     36  N   UNL A   1      32.408  34.073  27.616  1.00  0.00    -0.352 N 
ATOM     37  C   UNL A   1      32.974  34.880  28.577  1.00  0.00     0.251 C 
ATOM     38  H   UNL A   1      31.727  34.517  27.061  1.00  0.00     0.163 HD
ATOM     39  O   UNL A   1      32.492  35.980  28.809  1.00  0.00    -0.269 OA
BRANCH  37  40
ATOM     40  C   UNL A   1      34.146  34.410  29.347  1.00  0.00     0.039 A 
ATOM     41  C   UNL A   1      33.949  33.808  30.592  1.00  0.00     0.014 A 
ATOM     42  C   UNL A   1      35.437  34.560  28.843  1.00  0.00     0.014 A 
ATOM     43  C   UNL A   1      35.042  33.276  31.282  1.00  0.00     0.010 A 
ATOM     44  C   UNL A   1      36.500  33.921  29.464  1.00  0.00     0.010 A 
ATOM     45  C   UNL A   1      36.318  33.282  30.697  1.00  0.00    -0.014 A 
BRANCH  45  46
ATOM     46  C   UNL A   1      37.484  32.643  31.355  1.00  0.00     0.031 A 
ATOM     47  C   UNL A   1      38.174  31.483  30.693  1.00  0.00     0.074 A 
ATOM     48  C   UNL A   1      37.865  33.051  32.581  1.00  0.00     0.049 A 
ATOM     49  N   UNL A   1      39.141  30.725  31.145  1.00  0.00    -0.248 NA
ATOM     50  C   UNL A   1      37.689  31.097  29.357  1.00  0.00     0.031 C 
ATOM     51  C   UNL A   1      37.237  34.127  33.350  1.00  0.00     0.029 A 
ATOM     52  N   UNL A   1      38.865  32.598  33.404  1.00  0.00    -0.354 N 
ATOM     53  C   UNL A   1      39.361  29.769  30.161  1.00  0.00     0.074 A 
ATOM     54  C   UNL A   1      38.385  29.996  29.120  1.00  0.00     0.031 C 
ATOM     55  C   UNL A   1      37.885  34.272  34.516  1.00  0.00     0.029 A 
ATOM     56  C   UNL A   1      38.940  33.268  34.601  1.00  0.00     0.049 A 
ATOM     57  H   UNL A   1      39.472  31.861  33.161  1.00  0.00     0.167 HD
ATOM     58  C   UNL A   1      40.312  28.806  30.117  1.00  0.00     0.037 A 
ATOM     59  C   UNL A   1      39.762  33.085  35.652  1.00  0.00     0.037 A 
ATOM     60  C   UNL A   1      41.299  28.604  31.145  1.00  0.00     0.049 A 
ATOM     61  C   UNL A   1      40.805  32.001  35.582  1.00  0.00     0.074 A 
ATOM     62  C   UNL A   1      42.346  27.701  31.169  1.00  0.00     0.029 A 
ATOM     63  N   UNL A   1      41.356  29.317  32.334  1.00  0.00    -0.354 N 
ATOM     64  N   UNL A   1      41.052  31.152  34.615  1.00  0.00    -0.248 NA
ATOM     65  C   UNL A   1      41.685  31.854  36.749  1.00  0.00     0.031 C 
ATOM     66  C   UNL A   1      43.002  27.827  32.397  1.00  0.00     0.029 A 
ATOM     67  C   UNL A   1      42.404  28.854  33.112  1.00  0.00     0.049 A 
ATOM     68  H   UNL A   1      40.743  30.044  32.587  1.00  0.00     0.167 HD
ATOM     69  C   UNL A   1      42.134  30.392  35.041  1.00  0.00     0.074 A 
ATOM     70  C   UNL A   1      42.505  30.894  36.347  1.00  0.00     0.031 C 
ATOM     71  C   UNL A   1      42.764  29.372  34.408  1.00  0.00     0.037 A 
BRANCH  58  72
ATOM     72  C   UNL A   1      40.335  27.903  28.916  1.00  0.00     0.064 A 
ATOM     73  C   UNL A   1      41.074  28.221  27.766  1.00  0.00     0.173 A 
ATOM     74  C   UNL A   1      39.633  26.688  28.927  1.00  0.00     0.173 A 
ATOM     75  F   UNL A   1      41.752  29.377  27.698  1.00  0.00    -0.203 F 
ATOM     76  C   UNL A   1      41.084  27.374  26.661  1.00  0.00     0.198 A 
ATOM     77  C   UNL A   1      39.674  25.825  27.834  1.00  0.00     0.198 A 
ATOM     78  F   UNL A   1      38.913  26.330  30.001  1.00  0.00    -0.203 F 
ATOM     79  F   UNL A   1      41.751  27.727  25.554  1.00  0.00    -0.200 F 
ATOM     80  C   UNL A   1      40.391  26.173  26.699  1.00  0.00     0.200 A 
ATOM     81  F   UNL A   1      39.016  24.659  27.878  1.00  0.00    -0.200 F 
ATOM     82  F   UNL A   1      40.409  25.354  25.639  1.00  0.00    -0.200 F 
ENDBRANCH  58  72
BRANCH  59  83
ATOM     83  C   UNL A   1      39.649  33.960  36.849  1.00  0.00     0.064 A 
ATOM     84  C   UNL A   1      38.870  33.578  37.950  1.00  0.00     0.173 A 
ATOM     85  C   UNL A   1      40.309  35.197  36.917  1.00  0.00     0.173 A 
ATOM     86  F   UNL A   1      38.205  32.413  37.927  1.00  0.00    -0.203 F 
ATOM     87  C   UNL A   1      38.733  34.409  39.060  1.00  0.00     0.198 A 
ATOM     88  C   UNL A   1      40.197  36.012  38.042  1.00  0.00     0.198 A 
ATOM     89  F   UNL A   1      41.073  35.608  35.895  1.00  0.00    -0.203 F 
ATOM     90  F   UNL A   1      37.939  34.041  40.075  1.00  0.00    -0.200 F 
ATOM     91  C   UNL A   1      39.401  35.622  39.107  1.00  0.00     0.200 A 
ATOM     92  F   UNL A   1      40.859  37.177  38.091  1.00  0.00    -0.200 F 
ATOM     93  F   UNL A   1      39.272  36.419  40.177  1.00  0.00    -0.200 F 
ENDBRANCH  59  83
BRANCH  71  94
ATOM     94  C   UNL A   1      43.945  28.755  35.100  1.00  0.00     0.064 A 
ATOM     95  C   UNL A   1      43.808  27.649  35.952  1.00  0.00     0.173 A 
ATOM     96  C   UNL A   1      45.238  29.251  34.870  1.00  0.00     0.173 A 
ATOM     97  F   UNL A   1      42.593  27.147  36.217  1.00  0.00    -0.203 F 
ATOM     98  C   UNL A   1      44.919  27.082  36.570  1.00  0.00     0.198 A 
ATOM     99  C   UNL A   1      46.349  28.659  35.462  1.00  0.00     0.198 A 
ATOM    100  F   UNL A   1      45.425  30.302  34.057  1.00  0.00    -0.203 F 
ATOM    101  F   UNL A   1      44.759  26.059  37.422  1.00  0.00    -0.200 F 
ATOM    102  C   UNL A   1      46.189  27.580  36.317  1.00  0.00     0.200 A 
ATOM    103  F   UNL A   1      47.577  29.130  35.201  1.00  0.00    -0.200 F 
ATOM    104  F   UNL A   1      47.258  27.025  36.905  1.00  0.00    -0.200 F 
ENDBRANCH  71  94
ENDBRANCH  45  46
ENDBRANCH  37  40
ENDBRANCH  35  36
ENDBRANCH  34  35
ENDBRANCH   1  34
TORSDOF 14
ENDMDL
MODEL 3
REMARK VINA RESULT:     -13.5      1.250      3.010
REMARK SMILES C[NH+]1CCC2(CC1)OC[C@H](C(=O)NCCCNC(=O)c1ccc(-c3c4nc(c(-c5c(F)c(F)c(F)c(F)c5F)c5ccc([nH]5)c(-c5c(F)c(F)c(F)c(F)c5F)c5nc(c(-c6c(F)c(F)c(F)c(F)c6F)c6ccc3[nH]6)C=C5)C=C4)cc1)N2C(=O)c1cc(C(F)(F)F)cc(C(F)(F)F)c1
REMARK SMILES IDX 14 1 13 2 11 3 12 4 10 6 1 7 2 8 3 9 7 10 4 12 6 13 5 14
REMARK SMILES IDX 8 15 83 16 9 17 84 18 85 19 86 20 87 21 99 22 88 23 94 24
REMARK SMILES IDX 93 25 89 26 90 27 91 28 92 29 95 30 96 31 97 32 98 33 15 34
REMARK SMILES IDX 16 35 17 36 18 37 19 39 20 40 21 41 82 42 22 43 81 44 23 45
REMARK SMILES IDX 24 46 25 47 75 48 26 49 80 50 74 51 76 52 27 53 79 54 73 55
REMARK SMILES IDX 72 56 28 58 60 59 40 60 59 61 41 62 44 63 58 64 77 65 42 66
REMARK SMILES IDX 43 67 57 69 78 70 45 71 29 72 30 73 38 74 31 75 32 76 36 77
REMARK SMILES IDX 39 78 33 79 34 80 37 81 35 82 61 83 62 84 70 85 63 86 64 87
REMARK SMILES IDX 68 88 71 89 65 90 66 91 69 92 67 93 46 94 47 95 55 96 48 97
REMARK SMILES IDX 49 98 53 99 56 100 50 101 51 102 54 103 52 104
REMARK H PARENT 13 5 2 11 17 38 76 57 44 68
REMARK Flexibility Score: inf
ROOT
ATOM      1  C   UNL A   1      36.939  20.841  24.903  1.00  0.00     0.117 C 
ENDROOT
BRANCH   1   2
ATOM      2  N   UNL A   1      35.614  20.407  25.311  1.00  0.00    -0.354 N 
ATOM      3  C   UNL A   1      34.352  20.749  24.915  1.00  0.00     0.245 C 
ATOM      4  O   UNL A   1      33.481  19.930  25.238  1.00  0.00    -0.273 OA
ATOM      5  H   UNL A   1      35.628  19.725  26.021  1.00  0.00     0.163 HD
BRANCH   3   6
ATOM      6  C   UNL A   1      33.966  21.994  24.063  1.00  0.00     0.203 C 
ATOM      7  C   UNL A   1      28.766  24.143  26.926  1.00  0.00     0.332 C 
ATOM      8  N   UNL A   1      30.193  24.393  26.776  1.00  0.00    -0.337 N 
ATOM      9  C   UNL A   1      30.985  23.225  27.113  1.00  0.00     0.267 C 
ATOM     10  C   UNL A   1      30.528  25.074  25.527  1.00  0.00     0.267 C 
ATOM     11  H   UNL A   1      30.468  25.082  27.476  1.00  0.00     0.347 HD
ATOM     12  C   UNL A   1      31.335  22.332  25.953  1.00  0.00     0.120 C 
ATOM     13  C   UNL A   1      31.072  24.251  24.367  1.00  0.00     0.120 C 
ATOM     14  C   UNL A   1      31.936  23.048  24.736  1.00  0.00     0.155 C 
ATOM     15  O   UNL A   1      31.694  22.153  23.588  1.00  0.00    -0.352 OA
ATOM     16  N   UNL A   1      33.408  23.143  24.777  1.00  0.00    -0.295 N 
ATOM     17  C   UNL A   1      32.943  21.767  22.994  1.00  0.00     0.198 C 
BRANCH  16  18
ATOM     18  C   UNL A   1      34.306  24.109  25.219  1.00  0.00     0.256 C 
ATOM     19  O   UNL A   1      35.392  23.834  25.726  1.00  0.00    -0.269 OA
BRANCH  18  20
ATOM     20  C   UNL A   1      34.052  25.548  25.045  1.00  0.00     0.041 A 
ATOM     21  C   UNL A   1      33.994  26.100  23.761  1.00  0.00     0.027 A 
ATOM     22  C   UNL A   1      33.953  26.374  26.162  1.00  0.00     0.027 A 
ATOM     23  C   UNL A   1      33.697  27.466  23.592  1.00  0.00     0.057 A 
ATOM     24  C   UNL A   1      33.516  27.700  26.021  1.00  0.00     0.057 A 
ATOM     25  C   UNL A   1      33.415  28.244  24.730  1.00  0.00     0.026 A 
BRANCH  23  26
ATOM     26  C   UNL A   1      33.648  28.074  22.209  1.00  0.00     0.416 C 
ATOM     27  F   UNL A   1      33.310  27.165  21.256  1.00  0.00    -0.166 F 
ATOM     28  F   UNL A   1      32.735  29.079  22.117  1.00  0.00    -0.166 F 
ATOM     29  F   UNL A   1      34.835  28.611  21.813  1.00  0.00    -0.166 F 
ENDBRANCH  23  26
BRANCH  24  30
ATOM     30  C   UNL A   1      33.042  28.491  27.221  1.00  0.00     0.416 C 
ATOM     31  F   UNL A   1      32.182  27.787  28.005  1.00  0.00    -0.166 F 
ATOM     32  F   UNL A   1      34.071  28.857  28.036  1.00  0.00    -0.166 F 
ATOM     33  F   UNL A   1      32.396  29.646  26.894  1.00  0.00    -0.166 F 
ENDBRANCH  24  30
ENDBRANCH  18  20
ENDBRANCH  16  18
ENDBRANCH   3   6
ENDBRANCH   1   2
BRANCH   1  34
ATOM     34  C   UNL A   1      38.013  19.779  24.972  1.00  0.00     0.042 C 
BRANCH  34  35
ATOM     35  C   UNL A   1      39.234  20.220  25.753  1.00  0.00     0.118 C 
BRANCH  35  36
ATOM     36  N   UNL A   1      40.237  19.166  25.886  1.00  0.00    -0.352 N 
ATOM     37  C   UNL A   1      41.598  19.234  26.082  1.00  0.00     0.251 C 
ATOM     38  H   UNL A   1      39.879  18.251  25.823  1.00  0.00     0.163 HD
ATOM     39  O   UNL A   1      42.279  18.223  25.976  1.00  0.00    -0.269 OA
BRANCH  37  40
ATOM     40  C   UNL A   1      42.242  20.528  26.393  1.00  0.00     0.039 A 
ATOM     41  C   UNL A   1      42.786  21.288  25.355  1.00  0.00     0.014 A 
ATOM     42  C   UNL A   1      42.307  20.994  27.705  1.00  0.00     0.014 A 
ATOM     43  C   UNL A   1      43.310  22.554  25.628  1.00  0.00     0.010 A 
ATOM     44  C   UNL A   1      42.708  22.298  27.956  1.00  0.00     0.010 A 
ATOM     45  C   UNL A   1      43.226  23.090  26.923  1.00  0.00    -0.014 A 
BRANCH  45  46
ATOM     46  C   UNL A   1      43.684  24.467  27.232  1.00  0.00     0.031 A 
ATOM     47  C   UNL A   1      42.701  25.488  27.736  1.00  0.00     0.074 A 
ATOM     48  C   UNL A   1      44.960  24.818  26.979  1.00  0.00     0.049 A 
ATOM     49  N   UNL A   1      42.876  26.764  27.967  1.00  0.00    -0.248 NA
ATOM     50  C   UNL A   1      41.325  25.020  27.977  1.00  0.00     0.031 C 
ATOM     51  C   UNL A   1      45.992  23.933  26.437  1.00  0.00     0.029 A 
ATOM     52  N   UNL A   1      45.604  26.021  27.133  1.00  0.00    -0.354 N 
ATOM     53  C   UNL A   1      41.634  27.249  28.360  1.00  0.00     0.074 A 
ATOM     54  C   UNL A   1      40.700  26.150  28.269  1.00  0.00     0.031 C 
ATOM     55  C   UNL A   1      47.145  24.613  26.332  1.00  0.00     0.029 A 
ATOM     56  C   UNL A   1      46.923  25.992  26.752  1.00  0.00     0.049 A 
ATOM     57  H   UNL A   1      45.162  26.828  27.483  1.00  0.00     0.167 HD
ATOM     58  C   UNL A   1      41.310  28.492  28.785  1.00  0.00     0.037 A 
ATOM     59  C   UNL A   1      47.847  26.972  26.735  1.00  0.00     0.037 A 
ATOM     60  C   UNL A   1      42.252  29.574  28.900  1.00  0.00     0.049 A 
ATOM     61  C   UNL A   1      47.458  28.349  27.204  1.00  0.00     0.074 A 
ATOM     62  C   UNL A   1      42.042  30.853  29.381  1.00  0.00     0.029 A 
ATOM     63  N   UNL A   1      43.585  29.500  28.524  1.00  0.00    -0.354 N 
ATOM     64  N   UNL A   1      46.299  28.777  27.644  1.00  0.00    -0.248 NA
ATOM     65  C   UNL A   1      48.507  29.377  27.179  1.00  0.00     0.031 C 
ATOM     66  C   UNL A   1      43.233  31.572  29.242  1.00  0.00     0.029 A 
ATOM     67  C   UNL A   1      44.204  30.722  28.736  1.00  0.00     0.049 A 
ATOM     68  H   UNL A   1      44.027  28.699  28.160  1.00  0.00     0.167 HD
ATOM     69  C   UNL A   1      46.487  30.112  27.977  1.00  0.00     0.074 A 
ATOM     70  C   UNL A   1      47.876  30.417  27.704  1.00  0.00     0.031 C 
ATOM     71  C   UNL A   1      45.591  31.005  28.465  1.00  0.00     0.037 A 
BRANCH  58  72
ATOM     72  C   UNL A   1      39.878  28.748  29.165  1.00  0.00     0.064 A 
ATOM     73  C   UNL A   1      38.937  29.207  28.231  1.00  0.00     0.173 A 
ATOM     74  C   UNL A   1      39.434  28.500  30.473  1.00  0.00     0.173 A 
ATOM     75  F   UNL A   1      39.311  29.474  26.970  1.00  0.00    -0.203 F 
ATOM     76  C   UNL A   1      37.614  29.440  28.599  1.00  0.00     0.198 A 
ATOM     77  C   UNL A   1      38.102  28.698  30.828  1.00  0.00     0.198 A 
ATOM     78  F   UNL A   1      40.290  28.055  31.406  1.00  0.00    -0.203 F 
ATOM     79  F   UNL A   1      36.749  29.934  27.703  1.00  0.00    -0.200 F 
ATOM     80  C   UNL A   1      37.196  29.178  29.894  1.00  0.00     0.200 A 
ATOM     81  F   UNL A   1      37.697  28.430  32.077  1.00  0.00    -0.200 F 
ATOM     82  F   UNL A   1      35.921  29.393  30.245  1.00  0.00    -0.200 F 
ENDBRANCH  58  72
BRANCH  59  83
ATOM     83  C   UNL A   1      49.232  26.684  26.279  1.00  0.00     0.064 A 
ATOM     84  C   UNL A   1      50.198  26.198  27.171  1.00  0.00     0.173 A 
ATOM     85  C   UNL A   1      49.623  26.893  24.947  1.00  0.00     0.173 A 
ATOM     86  F   UNL A   1      49.879  25.998  28.459  1.00  0.00    -0.203 F 
ATOM     87  C   UNL A   1      51.507  25.959  26.757  1.00  0.00     0.198 A 
ATOM     88  C   UNL A   1      50.925  26.622  24.527  1.00  0.00     0.198 A 
ATOM     89  F   UNL A   1      48.738  27.349  24.050  1.00  0.00    -0.203 F 
ATOM     90  F   UNL A   1      52.422  25.545  27.644  1.00  0.00    -0.200 F 
ATOM     91  C   UNL A   1      51.868  26.166  25.435  1.00  0.00     0.200 A 
ATOM     92  F   UNL A   1      51.264  26.806  23.244  1.00  0.00    -0.200 F 
ATOM     93  F   UNL A   1      53.126  25.932  25.037  1.00  0.00    -0.200 F 
ENDBRANCH  59  83
BRANCH  71  94
ATOM     94  C   UNL A   1      46.092  32.385  28.774  1.00  0.00     0.064 A 
ATOM     95  C   UNL A   1      46.643  32.710  30.023  1.00  0.00     0.173 A 
ATOM     96  C   UNL A   1      46.063  33.386  27.790  1.00  0.00     0.173 A 
ATOM     97  F   UNL A   1      46.681  31.795  31.003  1.00  0.00    -0.203 F 
ATOM     98  C   UNL A   1      47.119  33.992  30.282  1.00  0.00     0.198 A 
ATOM     99  C   UNL A   1      46.572  34.656  28.041  1.00  0.00     0.198 A 
ATOM    100  F   UNL A   1      45.555  33.125  26.576  1.00  0.00    -0.203 F 
ATOM    101  F   UNL A   1      47.592  34.295  31.499  1.00  0.00    -0.200 F 
ATOM    102  C   UNL A   1      47.092  34.961  29.290  1.00  0.00     0.200 A 
ATOM    103  F   UNL A   1      46.563  35.584  27.074  1.00  0.00    -0.200 F 
ATOM    104  F   UNL A   1      47.561  36.192  29.539  1.00  0.00    -0.200 F 
ENDBRANCH  71  94
ENDBRANCH  45  46
ENDBRANCH  37  40
ENDBRANCH  35  36
ENDBRANCH  34  35
ENDBRANCH   1  34
TORSDOF 14
ENDMDL
