MODEL 1
REMARK VINA RESULT:     -13.2      0.000      0.000
REMARK SMILES COc1ccccc1NC(=O)c1ccc(NC(=O)Cn2nc(C(=O)NCCCNC(=O)c3ccc(-c4c5nc(c(-c6c(F)c(F)c(F)c(F)c6F)c6ccc([nH]6)c(-c6c(F)c(F)c(F)c(F)c6F)c6nc(c(-c7c(F)c(F)c(F)c(F)c7F)c7ccc4[nH]7)C=C6)C=C5)cc3)c3ccccc3c2=O)cc1
REMARK SMILES IDX 23 1 24 2 25 3 22 5 20 6 21 7 101 8 100 9 102 10 95 11 99 12
REMARK SMILES IDX 96 13 98 14 97 15 19 16 17 17 16 18 18 20 15 21 12 22 13 23
REMARK SMILES IDX 104 24 14 25 103 26 10 27 9 28 11 30 8 31 3 32 4 33 5 34
REMARK SMILES IDX 7 35 6 36 2 37 1 38 26 39 27 40 28 41 29 42 30 43 31 45
REMARK SMILES IDX 32 46 33 47 94 48 34 49 93 50 35 51 36 52 37 53 87 54 38 55
REMARK SMILES IDX 92 56 86 57 88 58 39 59 91 60 85 61 84 62 40 64 72 65 52 66
REMARK SMILES IDX 71 67 53 68 56 69 70 70 89 71 54 72 55 73 69 75 90 76 57 77
REMARK SMILES IDX 41 78 42 79 50 80 43 81 44 82 48 83 51 84 45 85 46 86 49 87
REMARK SMILES IDX 47 88 73 89 74 90 82 91 75 92 76 93 80 94 83 95 77 96 78 97
REMARK SMILES IDX 81 98 79 99 58 100 59 101 67 102 60 103 61 104 65 105 68 106
REMARK SMILES IDX 62 107 63 108 66 109 64 110
REMARK H PARENT 25 4 16 19 9 29 29 44 88 63 56 74
REMARK Flexibility Score: inf
ROOT
ATOM      1  C   UNL A   1      41.412  21.086  26.934  1.00  0.00     0.272 C 
ATOM      2  O   UNL A   1      41.373  20.367  27.918  1.00  0.00    -0.267 OA
ATOM      3  N   UNL A   1      42.515  21.084  26.108  1.00  0.00    -0.351 N 
ATOM      4  H   UNL A   1      43.121  20.313  26.184  1.00  0.00     0.163 HD
ENDROOT
BRANCH   1   5
ATOM      5  C   UNL A   1      40.214  21.966  26.550  1.00  0.00     0.156 A 
ATOM      6  N   UNL A   1      38.097  22.115  25.620  1.00  0.00    -0.219 N 
ATOM      7  N   UNL A   1      39.290  21.443  25.794  1.00  0.00    -0.163 NA
ATOM      8  C   UNL A   1      37.817  23.345  26.214  1.00  0.00     0.275 A 
ATOM      9  C   UNL A   1      38.901  23.974  26.987  1.00  0.00     0.051 A 
ATOM     10  O   UNL A   1      36.742  23.930  26.114  1.00  0.00    -0.267 OA
ATOM     11  C   UNL A   1      40.128  23.333  27.100  1.00  0.00     0.020 A 
ATOM     12  C   UNL A   1      38.714  25.252  27.532  1.00  0.00     0.014 A 
ATOM     13  C   UNL A   1      41.203  24.013  27.692  1.00  0.00     0.011 A 
ATOM     14  C   UNL A   1      39.779  25.916  28.138  1.00  0.00     0.001 A 
ATOM     15  C   UNL A   1      41.028  25.305  28.197  1.00  0.00     0.001 A 
BRANCH   6  16
ATOM     16  C   UNL A   1      37.198  21.600  24.579  1.00  0.00     0.248 C 
BRANCH  16  17
ATOM     17  C   UNL A   1      36.594  20.214  24.855  1.00  0.00     0.246 C 
ATOM     18  N   UNL A   1      35.239  20.041  24.945  1.00  0.00    -0.324 N 
ATOM     19  H   UNL A   1      34.905  19.169  24.633  1.00  0.00     0.169 HD
ATOM     20  O   UNL A   1      37.323  19.228  25.005  1.00  0.00    -0.273 OA
BRANCH  18  21
ATOM     21  C   UNL A   1      34.259  20.919  25.417  1.00  0.00     0.041 A 
ATOM     22  C   UNL A   1      32.411  22.767  26.390  1.00  0.00     0.040 A 
ATOM     23  C   UNL A   1      32.303  22.295  25.082  1.00  0.00     0.016 A 
ATOM     24  C   UNL A   1      33.465  22.355  27.208  1.00  0.00     0.016 A 
ATOM     25  C   UNL A   1      33.218  21.360  24.601  1.00  0.00     0.027 A 
ATOM     26  C   UNL A   1      34.413  21.460  26.700  1.00  0.00     0.027 A 
BRANCH  22  27
ATOM     27  C   UNL A   1      31.341  23.630  26.896  1.00  0.00     0.255 C 
ATOM     28  N   UNL A   1      31.276  24.964  26.603  1.00  0.00    -0.319 N 
ATOM     29  H   UNL A   1      30.531  25.422  27.055  1.00  0.00     0.170 HD
ATOM     30  O   UNL A   1      30.496  23.093  27.614  1.00  0.00    -0.269 OA
BRANCH  28  31
ATOM     31  C   UNL A   1      32.045  25.824  25.795  1.00  0.00     0.084 A 
ATOM     32  C   UNL A   1      31.506  26.179  24.544  1.00  0.00     0.142 A 
ATOM     33  C   UNL A   1      32.191  27.028  23.672  1.00  0.00     0.048 A 
ATOM     34  C   UNL A   1      33.430  27.542  24.041  1.00  0.00     0.004 A 
ATOM     35  C   UNL A   1      33.305  26.321  26.129  1.00  0.00     0.030 A 
ATOM     36  C   UNL A   1      33.990  27.181  25.263  1.00  0.00     0.002 A 
BRANCH  32  37
ATOM     37  O   UNL A   1      30.331  25.624  24.098  1.00  0.00    -0.495 OA
ATOM     38  C   UNL A   1      29.331  26.613  23.856  1.00  0.00     0.278 C 
ENDBRANCH  32  37
ENDBRANCH  28  31
ENDBRANCH  22  27
ENDBRANCH  18  21
ENDBRANCH  16  17
ENDBRANCH   6  16
ENDBRANCH   1   5
BRANCH   3  39
ATOM     39  C   UNL A   1      42.874  22.101  25.138  1.00  0.00     0.118 C 
BRANCH  39  40
ATOM     40  C   UNL A   1      44.170  22.783  25.576  1.00  0.00     0.042 C 
BRANCH  40  41
ATOM     41  C   UNL A   1      44.339  24.141  24.917  1.00  0.00     0.118 C 
BRANCH  41  42
ATOM     42  N   UNL A   1      45.724  24.592  24.951  1.00  0.00    -0.352 N 
ATOM     43  C   UNL A   1      46.237  25.745  25.494  1.00  0.00     0.251 C 
ATOM     44  H   UNL A   1      46.379  23.992  24.528  1.00  0.00     0.163 HD
ATOM     45  O   UNL A   1      47.340  26.163  25.158  1.00  0.00    -0.269 OA
BRANCH  43  46
ATOM     46  C   UNL A   1      45.447  26.484  26.501  1.00  0.00     0.039 A 
ATOM     47  C   UNL A   1      45.261  27.863  26.365  1.00  0.00     0.014 A 
ATOM     48  C   UNL A   1      44.935  25.814  27.615  1.00  0.00     0.014 A 
ATOM     49  C   UNL A   1      44.542  28.563  27.335  1.00  0.00     0.010 A 
ATOM     50  C   UNL A   1      44.140  26.490  28.526  1.00  0.00     0.010 A 
ATOM     51  C   UNL A   1      43.969  27.877  28.417  1.00  0.00    -0.014 A 
BRANCH  51  52
ATOM     52  C   UNL A   1      43.269  28.579  29.519  1.00  0.00     0.031 A 
ATOM     53  C   UNL A   1      43.936  28.654  30.867  1.00  0.00     0.074 A 
ATOM     54  C   UNL A   1      42.023  29.051  29.340  1.00  0.00     0.049 A 
ATOM     55  N   UNL A   1      43.445  29.031  32.020  1.00  0.00    -0.248 NA
ATOM     56  C   UNL A   1      45.332  28.190  30.935  1.00  0.00     0.031 C 
ATOM     57  C   UNL A   1      41.262  28.991  28.092  1.00  0.00     0.029 A 
ATOM     58  N   UNL A   1      41.169  29.660  30.224  1.00  0.00    -0.354 N 
ATOM     59  C   UNL A   1      44.455  28.806  32.948  1.00  0.00     0.074 A 
ATOM     60  C   UNL A   1      45.563  28.208  32.238  1.00  0.00     0.031 C 
ATOM     61  C   UNL A   1      40.058  29.556  28.286  1.00  0.00     0.029 A 
ATOM     62  C   UNL A   1      39.953  29.984  29.676  1.00  0.00     0.049 A 
ATOM     63  H   UNL A   1      41.407  29.847  31.161  1.00  0.00     0.167 HD
ATOM     64  C   UNL A   1      44.467  29.103  34.269  1.00  0.00     0.037 A 
ATOM     65  C   UNL A   1      38.877  30.558  30.245  1.00  0.00     0.037 A 
ATOM     66  C   UNL A   1      43.381  29.754  34.951  1.00  0.00     0.049 A 
ATOM     67  C   UNL A   1      38.943  30.944  31.699  1.00  0.00     0.074 A 
ATOM     68  C   UNL A   1      43.287  30.125  36.280  1.00  0.00     0.029 A 
ATOM     69  N   UNL A   1      42.204  30.157  34.336  1.00  0.00    -0.354 N 
ATOM     70  N   UNL A   1      39.907  30.743  32.566  1.00  0.00    -0.248 NA
ATOM     71  C   UNL A   1      37.780  31.651  32.250  1.00  0.00     0.031 C 
ATOM     72  C   UNL A   1      42.050  30.751  36.471  1.00  0.00     0.029 A 
ATOM     73  C   UNL A   1      41.389  30.796  35.254  1.00  0.00     0.049 A 
ATOM     74  H   UNL A   1      41.982  30.011  33.389  1.00  0.00     0.167 HD
ATOM     75  C   UNL A   1      39.485  31.331  33.750  1.00  0.00     0.074 A 
ATOM     76  C   UNL A   1      38.181  31.906  33.487  1.00  0.00     0.031 C 
ATOM     77  C   UNL A   1      40.113  31.389  34.949  1.00  0.00     0.037 A 
BRANCH  64  78
ATOM     78  C   UNL A   1      45.702  28.750  35.047  1.00  0.00     0.064 A 
ATOM     79  C   UNL A   1      46.782  29.641  35.149  1.00  0.00     0.173 A 
ATOM     80  C   UNL A   1      45.806  27.517  35.708  1.00  0.00     0.173 A 
ATOM     81  F   UNL A   1      46.739  30.827  34.522  1.00  0.00    -0.203 F 
ATOM     82  C   UNL A   1      47.931  29.299  35.854  1.00  0.00     0.198 A 
ATOM     83  C   UNL A   1      46.947  27.190  36.440  1.00  0.00     0.198 A 
ATOM     84  F   UNL A   1      44.804  26.628  35.646  1.00  0.00    -0.203 F 
ATOM     85  F   UNL A   1      48.971  30.144  35.889  1.00  0.00    -0.200 F 
ATOM     86  C   UNL A   1      48.011  28.077  36.505  1.00  0.00     0.200 A 
ATOM     87  F   UNL A   1      47.017  26.014  37.078  1.00  0.00    -0.200 F 
ATOM     88  F   UNL A   1      49.117  27.751  37.187  1.00  0.00    -0.200 F 
ENDBRANCH  64  78
BRANCH  65  89
ATOM     89  C   UNL A   1      37.668  30.850  29.433  1.00  0.00     0.064 A 
ATOM     90  C   UNL A   1      37.398  32.155  28.998  1.00  0.00     0.173 A 
ATOM     91  C   UNL A   1      36.754  29.845  29.086  1.00  0.00     0.173 A 
ATOM     92  F   UNL A   1      38.235  33.154  29.319  1.00  0.00    -0.203 F 
ATOM     93  C   UNL A   1      36.245  32.451  28.274  1.00  0.00     0.198 A 
ATOM     94  C   UNL A   1      35.615  30.136  28.337  1.00  0.00     0.198 A 
ATOM     95  F   UNL A   1      36.971  28.578  29.469  1.00  0.00    -0.203 F 
ATOM     96  F   UNL A   1      35.987  33.716  27.917  1.00  0.00    -0.200 F 
ATOM     97  C   UNL A   1      35.356  31.440  27.942  1.00  0.00     0.200 A 
ATOM     98  F   UNL A   1      34.764  29.156  28.006  1.00  0.00    -0.200 F 
ATOM     99  F   UNL A   1      34.245  31.725  27.248  1.00  0.00    -0.200 F 
ENDBRANCH  65  89
BRANCH  77 100
ATOM    100  C   UNL A   1      39.430  32.158  36.039  1.00  0.00     0.064 A 
ATOM    101  C   UNL A   1      39.725  33.505  36.288  1.00  0.00     0.173 A 
ATOM    102  C   UNL A   1      38.445  31.539  36.824  1.00  0.00     0.173 A 
ATOM    103  F   UNL A   1      40.668  34.133  35.570  1.00  0.00    -0.203 F 
ATOM    104  C   UNL A   1      39.079  34.198  37.307  1.00  0.00     0.198 A 
ATOM    105  C   UNL A   1      37.783  32.243  37.824  1.00  0.00     0.198 A 
ATOM    106  F   UNL A   1      38.124  30.253  36.618  1.00  0.00    -0.203 F 
ATOM    107  F   UNL A   1      39.410  35.472  37.561  1.00  0.00    -0.200 F 
ATOM    108  C   UNL A   1      38.106  33.570  38.070  1.00  0.00     0.200 A 
ATOM    109  F   UNL A   1      36.836  31.638  38.554  1.00  0.00    -0.200 F 
ATOM    110  F   UNL A   1      37.485  34.241  39.050  1.00  0.00    -0.200 F 
ENDBRANCH  77 100
ENDBRANCH  51  52
ENDBRANCH  43  46
ENDBRANCH  41  42
ENDBRANCH  40  41
ENDBRANCH  39  40
ENDBRANCH   3  39
TORSDOF 16
ENDMDL
MODEL 2
REMARK VINA RESULT:     -12.9      4.777     11.131
REMARK SMILES COc1ccccc1NC(=O)c1ccc(NC(=O)Cn2nc(C(=O)NCCCNC(=O)c3ccc(-c4c5nc(c(-c6c(F)c(F)c(F)c(F)c6F)c6ccc([nH]6)c(-c6c(F)c(F)c(F)c(F)c6F)c6nc(c(-c7c(F)c(F)c(F)c(F)c7F)c7ccc4[nH]7)C=C6)C=C5)cc3)c3ccccc3c2=O)cc1
REMARK SMILES IDX 23 1 24 2 25 3 22 5 20 6 21 7 101 8 100 9 102 10 95 11 99 12
REMARK SMILES IDX 96 13 98 14 97 15 19 16 17 17 16 18 18 20 15 21 12 22 13 23
REMARK SMILES IDX 104 24 14 25 103 26 10 27 9 28 11 30 8 31 3 32 4 33 5 34
REMARK SMILES IDX 7 35 6 36 2 37 1 38 26 39 27 40 28 41 29 42 30 43 31 45
REMARK SMILES IDX 32 46 33 47 94 48 34 49 93 50 35 51 36 52 37 53 87 54 38 55
REMARK SMILES IDX 92 56 86 57 88 58 39 59 91 60 85 61 84 62 40 64 72 65 52 66
REMARK SMILES IDX 71 67 53 68 56 69 70 70 89 71 54 72 55 73 69 75 90 76 57 77
REMARK SMILES IDX 41 78 42 79 50 80 43 81 44 82 48 83 51 84 45 85 46 86 49 87
REMARK SMILES IDX 47 88 73 89 74 90 82 91 75 92 76 93 80 94 83 95 77 96 78 97
REMARK SMILES IDX 81 98 79 99 58 100 59 101 67 102 60 103 61 104 65 105 68 106
REMARK SMILES IDX 62 107 63 108 66 109 64 110
REMARK H PARENT 25 4 16 19 9 29 29 44 88 63 56 74
REMARK Flexibility Score: inf
ROOT
ATOM      1  C   UNL A   1      34.893  33.542  29.185  1.00  0.00     0.272 C 
ATOM      2  O   UNL A   1      35.158  34.503  28.483  1.00  0.00    -0.267 OA
ATOM      3  N   UNL A   1      34.577  33.710  30.515  1.00  0.00    -0.351 N 
ATOM      4  H   UNL A   1      34.313  34.616  30.794  1.00  0.00     0.163 HD
ENDROOT
BRANCH   1   5
ATOM      5  C   UNL A   1      34.842  32.124  28.596  1.00  0.00     0.156 A 
ATOM      6  N   UNL A   1      33.663  30.531  27.397  1.00  0.00    -0.219 N 
ATOM      7  N   UNL A   1      33.700  31.695  28.137  1.00  0.00    -0.163 NA
ATOM      8  C   UNL A   1      34.795  29.771  27.106  1.00  0.00     0.275 A 
ATOM      9  C   UNL A   1      36.064  30.209  27.710  1.00  0.00     0.051 A 
ATOM     10  O   UNL A   1      34.788  28.764  26.405  1.00  0.00    -0.267 OA
ATOM     11  C   UNL A   1      36.090  31.339  28.518  1.00  0.00     0.020 A 
ATOM     12  C   UNL A   1      37.221  29.437  27.533  1.00  0.00     0.014 A 
ATOM     13  C   UNL A   1      37.262  31.651  29.221  1.00  0.00     0.011 A 
ATOM     14  C   UNL A   1      38.390  29.763  28.217  1.00  0.00     0.001 A 
ATOM     15  C   UNL A   1      38.403  30.855  29.079  1.00  0.00     0.001 A 
BRANCH   6  16
ATOM     16  C   UNL A   1      32.333  29.976  27.112  1.00  0.00     0.248 C 
BRANCH  16  17
ATOM     17  C   UNL A   1      31.512  30.734  26.057  1.00  0.00     0.246 C 
ATOM     18  N   UNL A   1      31.029  30.095  24.946  1.00  0.00    -0.324 N 
ATOM     19  H   UNL A   1      30.172  30.436  24.605  1.00  0.00     0.169 HD
ATOM     20  O   UNL A   1      31.276  31.939  26.190  1.00  0.00    -0.273 OA
BRANCH  18  21
ATOM     21  C   UNL A   1      31.575  29.030  24.225  1.00  0.00     0.041 A 
ATOM     22  C   UNL A   1      32.786  26.916  22.868  1.00  0.00     0.040 A 
ATOM     23  C   UNL A   1      31.565  26.721  23.513  1.00  0.00     0.016 A 
ATOM     24  C   UNL A   1      33.433  28.151  22.929  1.00  0.00     0.016 A 
ATOM     25  C   UNL A   1      30.953  27.782  24.179  1.00  0.00     0.027 A 
ATOM     26  C   UNL A   1      32.841  29.195  23.648  1.00  0.00     0.027 A 
BRANCH  22  27
ATOM     27  C   UNL A   1      33.313  25.815  22.057  1.00  0.00     0.255 C 
ATOM     28  N   UNL A   1      33.807  24.668  22.613  1.00  0.00    -0.319 N 
ATOM     29  H   UNL A   1      34.171  24.042  21.946  1.00  0.00     0.170 HD
ATOM     30  O   UNL A   1      33.297  25.976  20.836  1.00  0.00    -0.269 OA
BRANCH  28  31
ATOM     31  C   UNL A   1      33.908  24.189  23.934  1.00  0.00     0.084 A 
ATOM     32  C   UNL A   1      32.977  23.212  24.334  1.00  0.00     0.142 A 
ATOM     33  C   UNL A   1      32.997  22.673  25.622  1.00  0.00     0.048 A 
ATOM     34  C   UNL A   1      33.957  23.101  26.534  1.00  0.00     0.004 A 
ATOM     35  C   UNL A   1      34.839  24.630  24.875  1.00  0.00     0.030 A 
ATOM     36  C   UNL A   1      34.869  24.085  26.164  1.00  0.00     0.002 A 
BRANCH  32  37
ATOM     37  O   UNL A   1      31.955  22.827  23.500  1.00  0.00    -0.495 OA
ATOM     38  C   UNL A   1      32.210  21.560  22.892  1.00  0.00     0.278 C 
ENDBRANCH  32  37
ENDBRANCH  28  31
ENDBRANCH  22  27
ENDBRANCH  18  21
ENDBRANCH  16  17
ENDBRANCH   6  16
ENDBRANCH   1   5
BRANCH   3  39
ATOM     39  C   UNL A   1      34.593  32.690  31.547  1.00  0.00     0.118 C 
BRANCH  39  40
ATOM     40  C   UNL A   1      35.820  32.890  32.436  1.00  0.00     0.042 C 
BRANCH  40  41
ATOM     41  C   UNL A   1      36.412  31.562  32.880  1.00  0.00     0.118 C 
BRANCH  41  42
ATOM     42  N   UNL A   1      36.980  31.642  34.219  1.00  0.00    -0.352 N 
ATOM     43  C   UNL A   1      38.200  31.189  34.660  1.00  0.00     0.251 C 
ATOM     44  H   UNL A   1      36.416  32.077  34.897  1.00  0.00     0.163 HD
ATOM     45  O   UNL A   1      38.409  31.008  35.856  1.00  0.00    -0.269 OA
BRANCH  43  46
ATOM     46  C   UNL A   1      39.272  30.924  33.679  1.00  0.00     0.039 A 
ATOM     47  C   UNL A   1      39.522  31.844  32.656  1.00  0.00     0.014 A 
ATOM     48  C   UNL A   1      39.997  29.731  33.742  1.00  0.00     0.014 A 
ATOM     49  C   UNL A   1      40.514  31.575  31.711  1.00  0.00     0.010 A 
ATOM     50  C   UNL A   1      41.045  29.509  32.864  1.00  0.00     0.010 A 
ATOM     51  C   UNL A   1      41.288  30.409  31.817  1.00  0.00    -0.014 A 
BRANCH  51  52
ATOM     52  C   UNL A   1      42.295  30.032  30.797  1.00  0.00     0.031 A 
ATOM     53  C   UNL A   1      42.052  28.804  29.961  1.00  0.00     0.074 A 
ATOM     54  C   UNL A   1      43.446  30.720  30.692  1.00  0.00     0.049 A 
ATOM     55  N   UNL A   1      42.867  28.166  29.159  1.00  0.00    -0.248 NA
ATOM     56  C   UNL A   1      40.726  28.175  30.088  1.00  0.00     0.031 C 
ATOM     57  C   UNL A   1      43.808  31.896  31.481  1.00  0.00     0.029 A 
ATOM     58  N   UNL A   1      44.534  30.511  29.885  1.00  0.00    -0.354 N 
ATOM     59  C   UNL A   1      42.166  27.047  28.726  1.00  0.00     0.074 A 
ATOM     60  C   UNL A   1      40.886  27.058  29.396  1.00  0.00     0.031 C 
ATOM     61  C   UNL A   1      45.029  32.316  31.108  1.00  0.00     0.029 A 
ATOM     62  C   UNL A   1      45.545  31.418  30.081  1.00  0.00     0.049 A 
ATOM     63  H   UNL A   1      44.585  29.780  29.226  1.00  0.00     0.167 HD
ATOM     64  C   UNL A   1      42.547  26.111  27.826  1.00  0.00     0.037 A 
ATOM     65  C   UNL A   1      46.754  31.503  29.494  1.00  0.00     0.037 A 
ATOM     66  C   UNL A   1      43.799  26.144  27.120  1.00  0.00     0.049 A 
ATOM     67  C   UNL A   1      47.123  30.490  28.443  1.00  0.00     0.074 A 
ATOM     68  C   UNL A   1      44.286  25.265  26.169  1.00  0.00     0.029 A 
ATOM     69  N   UNL A   1      44.756  27.139  27.274  1.00  0.00    -0.354 N 
ATOM     70  N   UNL A   1      46.449  29.444  28.028  1.00  0.00    -0.248 NA
ATOM     71  C   UNL A   1      48.413  30.680  27.766  1.00  0.00     0.031 C 
ATOM     72  C   UNL A   1      45.538  25.726  25.750  1.00  0.00     0.029 A 
ATOM     73  C   UNL A   1      45.817  26.908  26.418  1.00  0.00     0.049 A 
ATOM     74  H   UNL A   1      44.688  27.895  27.901  1.00  0.00     0.167 HD
ATOM     75  C   UNL A   1      47.212  28.875  27.019  1.00  0.00     0.074 A 
ATOM     76  C   UNL A   1      48.396  29.698  26.876  1.00  0.00     0.031 C 
ATOM     77  C   UNL A   1      46.962  27.769  26.276  1.00  0.00     0.037 A 
BRANCH  64  78
ATOM     78  C   UNL A   1      41.585  24.994  27.538  1.00  0.00     0.064 A 
ATOM     79  C   UNL A   1      41.762  23.716  28.092  1.00  0.00     0.173 A 
ATOM     80  C   UNL A   1      40.469  25.201  26.714  1.00  0.00     0.173 A 
ATOM     81  F   UNL A   1      42.822  23.461  28.874  1.00  0.00    -0.203 F 
ATOM     82  C   UNL A   1      40.878  22.680  27.805  1.00  0.00     0.198 A 
ATOM     83  C   UNL A   1      39.568  24.170  26.454  1.00  0.00     0.198 A 
ATOM     84  F   UNL A   1      40.249  26.403  26.161  1.00  0.00    -0.203 F 
ATOM     85  F   UNL A   1      41.101  21.455  28.299  1.00  0.00    -0.200 F 
ATOM     86  C   UNL A   1      39.778  22.909  26.992  1.00  0.00     0.200 A 
ATOM     87  F   UNL A   1      38.500  24.395  25.678  1.00  0.00    -0.200 F 
ATOM     88  F   UNL A   1      38.926  21.911  26.720  1.00  0.00    -0.200 F 
ENDBRANCH  64  78
BRANCH  65  89
ATOM     89  C   UNL A   1      47.679  32.609  29.846  1.00  0.00     0.064 A 
ATOM     90  C   UNL A   1      47.685  33.799  29.104  1.00  0.00     0.173 A 
ATOM     91  C   UNL A   1      48.582  32.503  30.914  1.00  0.00     0.173 A 
ATOM     92  F   UNL A   1      46.851  33.942  28.063  1.00  0.00    -0.203 F 
ATOM     93  C   UNL A   1      48.580  34.826  29.395  1.00  0.00     0.198 A 
ATOM     94  C   UNL A   1      49.457  33.543  31.223  1.00  0.00     0.198 A 
ATOM     95  F   UNL A   1      48.610  31.389  31.662  1.00  0.00    -0.203 F 
ATOM     96  F   UNL A   1      48.598  35.930  28.636  1.00  0.00    -0.200 F 
ATOM     97  C   UNL A   1      49.463  34.699  30.457  1.00  0.00     0.200 A 
ATOM     98  F   UNL A   1      50.300  33.421  32.257  1.00  0.00    -0.200 F 
ATOM     99  F   UNL A   1      50.325  35.686  30.735  1.00  0.00    -0.200 F 
ENDBRANCH  65  89
BRANCH  77 100
ATOM    100  C   UNL A   1      47.951  27.432  25.202  1.00  0.00     0.064 A 
ATOM    101  C   UNL A   1      47.719  27.754  23.858  1.00  0.00     0.173 A 
ATOM    102  C   UNL A   1      49.161  26.803  25.533  1.00  0.00     0.173 A 
ATOM    103  F   UNL A   1      46.571  28.344  23.494  1.00  0.00    -0.203 F 
ATOM    104  C   UNL A   1      48.652  27.430  22.877  1.00  0.00     0.198 A 
ATOM    105  C   UNL A   1      50.102  26.504  24.553  1.00  0.00     0.198 A 
ATOM    106  F   UNL A   1      49.431  26.482  26.807  1.00  0.00    -0.203 F 
ATOM    107  F   UNL A   1      48.389  27.702  21.591  1.00  0.00    -0.200 F 
ATOM    108  C   UNL A   1      49.843  26.811  23.226  1.00  0.00     0.200 A 
ATOM    109  F   UNL A   1      51.257  25.916  24.892  1.00  0.00    -0.200 F 
ATOM    110  F   UNL A   1      50.739  26.501  22.278  1.00  0.00    -0.200 F 
ENDBRANCH  77 100
ENDBRANCH  51  52
ENDBRANCH  43  46
ENDBRANCH  41  42
ENDBRANCH  40  41
ENDBRANCH  39  40
ENDBRANCH   3  39
TORSDOF 16
ENDMDL
MODEL 3
REMARK VINA RESULT:     -12.8      4.787     10.168
REMARK SMILES COc1ccccc1NC(=O)c1ccc(NC(=O)Cn2nc(C(=O)NCCCNC(=O)c3ccc(-c4c5nc(c(-c6c(F)c(F)c(F)c(F)c6F)c6ccc([nH]6)c(-c6c(F)c(F)c(F)c(F)c6F)c6nc(c(-c7c(F)c(F)c(F)c(F)c7F)c7ccc4[nH]7)C=C6)C=C5)cc3)c3ccccc3c2=O)cc1
REMARK SMILES IDX 23 1 24 2 25 3 22 5 20 6 21 7 101 8 100 9 102 10 95 11 99 12
REMARK SMILES IDX 96 13 98 14 97 15 19 16 17 17 16 18 18 20 15 21 12 22 13 23
REMARK SMILES IDX 104 24 14 25 103 26 10 27 9 28 11 30 8 31 3 32 4 33 5 34
REMARK SMILES IDX 7 35 6 36 2 37 1 38 26 39 27 40 28 41 29 42 30 43 31 45
REMARK SMILES IDX 32 46 33 47 94 48 34 49 93 50 35 51 36 52 37 53 87 54 38 55
REMARK SMILES IDX 92 56 86 57 88 58 39 59 91 60 85 61 84 62 40 64 72 65 52 66
REMARK SMILES IDX 71 67 53 68 56 69 70 70 89 71 54 72 55 73 69 75 90 76 57 77
REMARK SMILES IDX 41 78 42 79 50 80 43 81 44 82 48 83 51 84 45 85 46 86 49 87
REMARK SMILES IDX 47 88 73 89 74 90 82 91 75 92 76 93 80 94 83 95 77 96 78 97
REMARK SMILES IDX 81 98 79 99 58 100 59 101 67 102 60 103 61 104 65 105 68 106
REMARK SMILES IDX 62 107 63 108 66 109 64 110
REMARK H PARENT 25 4 16 19 9 29 29 44 88 63 56 74
REMARK Flexibility Score: inf
ROOT
ATOM      1  C   UNL A   1      34.724  33.711  28.486  1.00  0.00     0.272 C 
ATOM      2  O   UNL A   1      35.063  34.538  27.657  1.00  0.00    -0.267 OA
ATOM      3  N   UNL A   1      34.361  34.099  29.757  1.00  0.00    -0.351 N 
ATOM      4  H   UNL A   1      34.129  35.048  29.879  1.00  0.00     0.163 HD
ENDROOT
BRANCH   1   5
ATOM      5  C   UNL A   1      34.630  32.222  28.123  1.00  0.00     0.156 A 
ATOM      6  N   UNL A   1      33.430  30.510  27.123  1.00  0.00    -0.219 N 
ATOM      7  N   UNL A   1      33.491  31.774  27.674  1.00  0.00    -0.163 NA
ATOM      8  C   UNL A   1      34.534  29.667  27.017  1.00  0.00     0.275 A 
ATOM      9  C   UNL A   1      35.794  30.141  27.614  1.00  0.00     0.051 A 
ATOM     10  O   UNL A   1      34.510  28.562  26.482  1.00  0.00    -0.267 OA
ATOM     11  C   UNL A   1      35.838  31.382  28.236  1.00  0.00     0.020 A 
ATOM     12  C   UNL A   1      36.918  29.302  27.623  1.00  0.00     0.014 A 
ATOM     13  C   UNL A   1      36.990  31.752  28.945  1.00  0.00     0.011 A 
ATOM     14  C   UNL A   1      38.068  29.682  28.311  1.00  0.00     0.001 A 
ATOM     15  C   UNL A   1      38.095  30.896  28.992  1.00  0.00     0.001 A 
BRANCH   6  16
ATOM     16  C   UNL A   1      32.089  29.973  26.856  1.00  0.00     0.248 C 
BRANCH  16  17
ATOM     17  C   UNL A   1      31.292  30.700  25.761  1.00  0.00     0.246 C 
ATOM     18  N   UNL A   1      30.849  30.032  24.651  1.00  0.00    -0.324 N 
ATOM     19  H   UNL A   1      29.998  30.357  24.277  1.00  0.00     0.169 HD
ATOM     20  O   UNL A   1      31.040  31.905  25.861  1.00  0.00    -0.273 OA
BRANCH  18  21
ATOM     21  C   UNL A   1      31.426  28.957  23.970  1.00  0.00     0.041 A 
ATOM     22  C   UNL A   1      32.683  26.808  22.713  1.00  0.00     0.040 A 
ATOM     23  C   UNL A   1      31.350  26.701  23.110  1.00  0.00     0.016 A 
ATOM     24  C   UNL A   1      33.411  27.969  22.977  1.00  0.00     0.016 A 
ATOM     25  C   UNL A   1      30.718  27.781  23.725  1.00  0.00     0.027 A 
ATOM     26  C   UNL A   1      32.788  29.028  23.646  1.00  0.00     0.027 A 
BRANCH  22  27
ATOM     27  C   UNL A   1      33.255  25.705  21.938  1.00  0.00     0.255 C 
ATOM     28  N   UNL A   1      33.754  24.577  22.529  1.00  0.00    -0.319 N 
ATOM     29  H   UNL A   1      34.151  23.947  21.885  1.00  0.00     0.170 HD
ATOM     30  O   UNL A   1      33.275  25.845  20.714  1.00  0.00    -0.269 OA
BRANCH  28  31
ATOM     31  C   UNL A   1      33.823  24.122  23.860  1.00  0.00     0.084 A 
ATOM     32  C   UNL A   1      32.904  23.127  24.245  1.00  0.00     0.142 A 
ATOM     33  C   UNL A   1      32.895  22.610  25.543  1.00  0.00     0.048 A 
ATOM     34  C   UNL A   1      33.812  23.077  26.479  1.00  0.00     0.004 A 
ATOM     35  C   UNL A   1      34.710  24.602  24.824  1.00  0.00     0.030 A 
ATOM     36  C   UNL A   1      34.711  24.079  26.122  1.00  0.00     0.002 A 
BRANCH  32  37
ATOM     37  O   UNL A   1      31.921  22.702  23.385  1.00  0.00    -0.495 OA
ATOM     38  C   UNL A   1      32.154  21.371  22.923  1.00  0.00     0.278 C 
ENDBRANCH  32  37
ENDBRANCH  28  31
ENDBRANCH  22  27
ENDBRANCH  18  21
ENDBRANCH  16  17
ENDBRANCH   6  16
ENDBRANCH   1   5
BRANCH   3  39
ATOM     39  C   UNL A   1      34.285  33.255  30.935  1.00  0.00     0.118 C 
BRANCH  39  40
ATOM     40  C   UNL A   1      35.468  33.561  31.853  1.00  0.00     0.042 C 
BRANCH  40  41
ATOM     41  C   UNL A   1      35.677  32.462  32.882  1.00  0.00     0.118 C 
BRANCH  41  42
ATOM     42  N   UNL A   1      36.357  32.955  34.072  1.00  0.00    -0.352 N 
ATOM     43  C   UNL A   1      37.596  32.612  34.555  1.00  0.00     0.251 C 
ATOM     44  H   UNL A   1      35.863  33.622  34.600  1.00  0.00     0.163 HD
ATOM     45  O   UNL A   1      37.899  32.831  35.724  1.00  0.00    -0.269 OA
BRANCH  43  46
ATOM     46  C   UNL A   1      38.575  31.976  33.650  1.00  0.00     0.039 A 
ATOM     47  C   UNL A   1      39.208  30.789  34.031  1.00  0.00     0.014 A 
ATOM     48  C   UNL A   1      38.907  32.590  32.439  1.00  0.00     0.014 A 
ATOM     49  C   UNL A   1      40.157  30.209  33.187  1.00  0.00     0.010 A 
ATOM     50  C   UNL A   1      39.775  31.964  31.559  1.00  0.00     0.010 A 
ATOM     51  C   UNL A   1      40.438  30.790  31.941  1.00  0.00    -0.014 A 
BRANCH  51  52
ATOM     52  C   UNL A   1      41.494  30.265  31.044  1.00  0.00     0.031 A 
ATOM     53  C   UNL A   1      42.707  31.117  30.780  1.00  0.00     0.074 A 
ATOM     54  C   UNL A   1      41.323  29.095  30.403  1.00  0.00     0.049 A 
ATOM     55  N   UNL A   1      43.654  30.967  29.888  1.00  0.00    -0.248 NA
ATOM     56  C   UNL A   1      42.844  32.335  31.597  1.00  0.00     0.031 C 
ATOM     57  C   UNL A   1      40.167  28.210  30.546  1.00  0.00     0.029 A 
ATOM     58  N   UNL A   1      42.119  28.460  29.485  1.00  0.00    -0.354 N 
ATOM     59  C   UNL A   1      44.465  32.089  30.011  1.00  0.00     0.074 A 
ATOM     60  C   UNL A   1      43.871  32.938  31.019  1.00  0.00     0.031 C 
ATOM     61  C   UNL A   1      40.337  27.137  29.755  1.00  0.00     0.029 A 
ATOM     62  C   UNL A   1      41.593  27.278  29.027  1.00  0.00     0.049 A 
ATOM     63  H   UNL A   1      42.986  28.818  29.185  1.00  0.00     0.167 HD
ATOM     64  C   UNL A   1      45.620  32.369  29.363  1.00  0.00     0.037 A 
ATOM     65  C   UNL A   1      42.078  26.414  28.116  1.00  0.00     0.037 A 
ATOM     66  C   UNL A   1      46.233  31.487  28.407  1.00  0.00     0.049 A 
ATOM     67  C   UNL A   1      43.401  26.715  27.463  1.00  0.00     0.074 A 
ATOM     68  C   UNL A   1      47.412  31.652  27.703  1.00  0.00     0.029 A 
ATOM     69  N   UNL A   1      45.718  30.250  28.044  1.00  0.00    -0.354 N 
ATOM     70  N   UNL A   1      44.170  27.770  27.596  1.00  0.00    -0.248 NA
ATOM     71  C   UNL A   1      43.932  25.698  26.546  1.00  0.00     0.031 C 
ATOM     72  C   UNL A   1      47.609  30.516  26.911  1.00  0.00     0.029 A 
ATOM     73  C   UNL A   1      46.569  29.631  27.146  1.00  0.00     0.049 A 
ATOM     74  H   UNL A   1      44.873  29.870  28.377  1.00  0.00     0.167 HD
ATOM     75  C   UNL A   1      45.289  27.527  26.813  1.00  0.00     0.074 A 
ATOM     76  C   UNL A   1      45.105  26.220  26.216  1.00  0.00     0.031 C 
ATOM     77  C   UNL A   1      46.372  28.313  26.601  1.00  0.00     0.037 A 
BRANCH  64  78
ATOM     78  C   UNL A   1      46.301  33.666  29.691  1.00  0.00     0.064 A 
ATOM     79  C   UNL A   1      46.029  34.839  28.967  1.00  0.00     0.173 A 
ATOM     80  C   UNL A   1      47.225  33.747  30.743  1.00  0.00     0.173 A 
ATOM     81  F   UNL A   1      45.166  34.811  27.939  1.00  0.00    -0.203 F 
ATOM     82  C   UNL A   1      46.680  36.032  29.262  1.00  0.00     0.198 A 
ATOM     83  C   UNL A   1      47.851  34.952  31.057  1.00  0.00     0.198 A 
ATOM     84  F   UNL A   1      47.521  32.660  31.470  1.00  0.00    -0.203 F 
ATOM     85  F   UNL A   1      46.445  37.123  28.519  1.00  0.00    -0.200 F 
ATOM     86  C   UNL A   1      47.585  36.091  30.311  1.00  0.00     0.200 A 
ATOM     87  F   UNL A   1      48.716  35.010  32.078  1.00  0.00    -0.200 F 
ATOM     88  F   UNL A   1      48.208  37.242  30.597  1.00  0.00    -0.200 F 
ENDBRANCH  64  78
BRANCH  65  89
ATOM     89  C   UNL A   1      41.340  25.163  27.805  1.00  0.00     0.064 A 
ATOM     90  C   UNL A   1      41.784  23.930  28.302  1.00  0.00     0.173 A 
ATOM     91  C   UNL A   1      40.192  25.167  27.001  1.00  0.00     0.173 A 
ATOM     92  F   UNL A   1      42.888  23.874  29.063  1.00  0.00    -0.203 F 
ATOM     93  C   UNL A   1      41.128  22.744  27.981  1.00  0.00     0.198 A 
ATOM     94  C   UNL A   1      39.519  23.983  26.703  1.00  0.00     0.198 A 
ATOM     95  F   UNL A   1      39.720  26.322  26.508  1.00  0.00    -0.203 F 
ATOM     96  F   UNL A   1      41.606  21.575  28.427  1.00  0.00    -0.200 F 
ATOM     97  C   UNL A   1      39.994  22.772  27.184  1.00  0.00     0.200 A 
ATOM     98  F   UNL A   1      38.416  24.015  25.943  1.00  0.00    -0.200 F 
ATOM     99  F   UNL A   1      39.364  21.630  26.873  1.00  0.00    -0.200 F 
ENDBRANCH  65  89
BRANCH  77 100
ATOM    100  C   UNL A   1      47.466  27.749  25.746  1.00  0.00     0.064 A 
ATOM    101  C   UNL A   1      47.432  27.843  24.348  1.00  0.00     0.173 A 
ATOM    102  C   UNL A   1      48.576  27.130  26.342  1.00  0.00     0.173 A 
ATOM    103  F   UNL A   1      46.385  28.414  23.735  1.00  0.00    -0.203 F 
ATOM    104  C   UNL A   1      48.459  27.310  23.574  1.00  0.00     0.198 A 
ATOM    105  C   UNL A   1      49.612  26.622  25.566  1.00  0.00     0.198 A 
ATOM    106  F   UNL A   1      48.656  27.023  27.676  1.00  0.00    -0.203 F 
ATOM    107  F   UNL A   1      48.384  27.366  22.237  1.00  0.00    -0.200 F 
ATOM    108  C   UNL A   1      49.549  26.706  24.183  1.00  0.00     0.200 A 
ATOM    109  F   UNL A   1      50.670  26.048  26.154  1.00  0.00    -0.200 F 
ATOM    110  F   UNL A   1      50.536  26.194  23.434  1.00  0.00    -0.200 F 
ENDBRANCH  77 100
ENDBRANCH  51  52
ENDBRANCH  43  46
ENDBRANCH  41  42
ENDBRANCH  40  41
ENDBRANCH  39  40
ENDBRANCH   3  39
TORSDOF 16
ENDMDL
