MODEL 1
REMARK VINA RESULT:     -12.3      0.000      0.000
REMARK SMILES O=C(NCCCNC(=O)c1ccc(S(=O)(=O)NCCCn2cccn2)cc1)c1ccc(-c2c3nc(c(-c4c(F)c(F)c(F)c(F)c4F)c4ccc([nH]4)c(-c4c(F)c(F)c(F)c(F)c4F)c4nc(c(-c5c(F)c(F)c(F)c(F)c5F)c5ccc2[nH]5)C=C4)C=C3)cc1
REMARK SMILES IDX 7 1 8 2 9 3 6 5 5 6 4 7 3 8 1 9 2 10 28 12 29 13 90 14 30 15
REMARK SMILES IDX 89 16 31 17 32 18 33 19 83 20 34 21 88 22 82 23 84 24 35 25
REMARK SMILES IDX 87 26 81 27 80 28 36 30 68 31 48 32 67 33 49 34 52 35 66 36
REMARK SMILES IDX 85 37 50 38 51 39 65 41 86 42 53 43 37 44 38 45 46 46 39 47
REMARK SMILES IDX 40 48 44 49 47 50 41 51 42 52 45 53 43 54 69 55 70 56 78 57
REMARK SMILES IDX 71 58 72 59 76 60 79 61 73 62 74 63 77 64 75 65 54 66 55 67
REMARK SMILES IDX 63 68 56 69 57 70 61 71 64 72 58 73 59 74 62 75 60 76 10 77
REMARK SMILES IDX 11 78 27 79 12 80 26 81 13 82 14 83 15 84 16 85 17 86 18 88
REMARK SMILES IDX 19 89 20 90 21 91 22 92 25 93 23 94 24 95
REMARK H PARENT 7 4 3 11 84 29 52 40 17 87
REMARK Flexibility Score: inf
ROOT
ATOM      1  N   UNL A   1      36.424  21.615  26.118  1.00  0.00    -0.352 N 
ATOM      2  C   UNL A   1      35.134  22.092  26.097  1.00  0.00     0.251 C 
ATOM      3  O   UNL A   1      34.331  21.741  26.957  1.00  0.00    -0.269 OA
ATOM      4  H   UNL A   1      36.595  20.918  26.792  1.00  0.00     0.163 HD
ENDROOT
BRANCH   1   5
ATOM      5  C   UNL A   1      37.580  21.977  25.304  1.00  0.00     0.118 C 
BRANCH   5   6
ATOM      6  C   UNL A   1      38.570  22.890  26.017  1.00  0.00     0.042 C 
BRANCH   6   7
ATOM      7  C   UNL A   1      39.783  22.168  26.585  1.00  0.00     0.118 C 
BRANCH   7   8
ATOM      8  N   UNL A   1      41.010  22.406  25.853  1.00  0.00    -0.352 N 
ATOM      9  O   UNL A   1      42.970  23.135  25.168  1.00  0.00    -0.269 OA
ATOM     10  C   UNL A   1      41.984  23.363  25.872  1.00  0.00     0.251 C 
ATOM     11  H   UNL A   1      41.184  21.710  25.179  1.00  0.00     0.163 HD
BRANCH  10  12
ATOM     12  C   UNL A   1      41.920  24.659  26.604  1.00  0.00     0.039 A 
ATOM     13  C   UNL A   1      42.543  24.960  27.816  1.00  0.00     0.014 A 
ATOM     14  C   UNL A   1      41.120  25.650  25.999  1.00  0.00     0.014 A 
ATOM     15  C   UNL A   1      42.312  26.188  28.440  1.00  0.00     0.010 A 
ATOM     16  C   UNL A   1      40.893  26.877  26.611  1.00  0.00     0.010 A 
ATOM     17  C   UNL A   1      41.463  27.134  27.852  1.00  0.00    -0.014 A 
BRANCH  17  18
ATOM     18  C   UNL A   1      41.327  28.450  28.478  1.00  0.00     0.031 A 
ATOM     19  C   UNL A   1      42.384  29.436  28.088  1.00  0.00     0.074 A 
ATOM     20  C   UNL A   1      40.256  28.826  29.209  1.00  0.00     0.049 A 
ATOM     21  N   UNL A   1      43.187  30.101  28.855  1.00  0.00    -0.248 NA
ATOM     22  C   UNL A   1      42.629  29.641  26.651  1.00  0.00     0.031 C 
ATOM     23  C   UNL A   1      39.008  28.092  29.434  1.00  0.00     0.029 A 
ATOM     24  N   UNL A   1      40.027  30.010  29.848  1.00  0.00    -0.354 N 
ATOM     25  C   UNL A   1      43.944  30.917  28.012  1.00  0.00     0.074 A 
ATOM     26  C   UNL A   1      43.635  30.515  26.666  1.00  0.00     0.031 C 
ATOM     27  C   UNL A   1      38.084  28.924  29.970  1.00  0.00     0.029 A 
ATOM     28  C   UNL A   1      38.710  30.206  30.252  1.00  0.00     0.049 A 
ATOM     29  H   UNL A   1      40.736  30.673  30.010  1.00  0.00     0.167 HD
ATOM     30  C   UNL A   1      44.642  31.989  28.480  1.00  0.00     0.037 A 
ATOM     31  C   UNL A   1      38.168  31.352  30.738  1.00  0.00     0.037 A 
ATOM     32  C   UNL A   1      44.888  31.883  29.891  1.00  0.00     0.049 A 
ATOM     33  C   UNL A   1      39.282  32.213  31.204  1.00  0.00     0.074 A 
ATOM     34  C   UNL A   1      45.598  31.002  30.684  1.00  0.00     0.029 A 
ATOM     35  N   UNL A   1      44.075  32.575  30.753  1.00  0.00    -0.354 N 
ATOM     36  N   UNL A   1      40.030  31.939  32.234  1.00  0.00    -0.248 NA
ATOM     37  C   UNL A   1      39.843  33.155  30.250  1.00  0.00     0.031 C 
ATOM     38  C   UNL A   1      44.809  30.853  31.862  1.00  0.00     0.029 A 
ATOM     39  C   UNL A   1      43.709  31.701  31.744  1.00  0.00     0.049 A 
ATOM     40  H   UNL A   1      43.806  33.519  30.674  1.00  0.00     0.167 HD
ATOM     41  C   UNL A   1      41.306  32.315  31.846  1.00  0.00     0.074 A 
ATOM     42  C   UNL A   1      41.117  33.127  30.646  1.00  0.00     0.031 C 
ATOM     43  C   UNL A   1      42.408  31.704  32.368  1.00  0.00     0.037 A 
BRANCH  30  44
ATOM     44  C   UNL A   1      44.838  33.276  27.717  1.00  0.00     0.064 A 
ATOM     45  C   UNL A   1      46.118  33.622  27.240  1.00  0.00     0.173 A 
ATOM     46  C   UNL A   1      43.880  34.314  27.694  1.00  0.00     0.173 A 
ATOM     47  F   UNL A   1      47.113  32.723  27.240  1.00  0.00    -0.203 F 
ATOM     48  C   UNL A   1      46.428  34.922  26.831  1.00  0.00     0.198 A 
ATOM     49  C   UNL A   1      44.179  35.597  27.240  1.00  0.00     0.198 A 
ATOM     50  F   UNL A   1      42.656  34.159  28.214  1.00  0.00    -0.203 F 
ATOM     51  F   UNL A   1      47.688  35.233  26.494  1.00  0.00    -0.200 F 
ATOM     52  C   UNL A   1      45.460  35.910  26.835  1.00  0.00     0.200 A 
ATOM     53  F   UNL A   1      43.233  36.545  27.273  1.00  0.00    -0.200 F 
ATOM     54  F   UNL A   1      45.769  37.170  26.500  1.00  0.00    -0.200 F 
ENDBRANCH  30  44
BRANCH  31  55
ATOM     55  C   UNL A   1      36.802  31.897  30.530  1.00  0.00     0.064 A 
ATOM     56  C   UNL A   1      35.933  32.130  31.611  1.00  0.00     0.173 A 
ATOM     57  C   UNL A   1      36.439  32.479  29.301  1.00  0.00     0.173 A 
ATOM     58  F   UNL A   1      36.231  31.656  32.830  1.00  0.00    -0.203 F 
ATOM     59  C   UNL A   1      34.783  32.918  31.474  1.00  0.00     0.198 A 
ATOM     60  C   UNL A   1      35.290  33.261  29.165  1.00  0.00     0.198 A 
ATOM     61  F   UNL A   1      37.244  32.385  28.234  1.00  0.00    -0.203 F 
ATOM     62  F   UNL A   1      34.012  33.169  32.541  1.00  0.00    -0.200 F 
ATOM     63  C   UNL A   1      34.469  33.491  30.253  1.00  0.00     0.200 A 
ATOM     64  F   UNL A   1      35.021  33.845  27.988  1.00  0.00    -0.200 F 
ATOM     65  F   UNL A   1      33.405  34.297  30.135  1.00  0.00    -0.200 F 
ENDBRANCH  31  55
BRANCH  43  66
ATOM     66  C   UNL A   1      42.207  30.781  33.539  1.00  0.00     0.064 A 
ATOM     67  C   UNL A   1      42.204  31.200  34.882  1.00  0.00     0.173 A 
ATOM     68  C   UNL A   1      41.869  29.445  33.284  1.00  0.00     0.173 A 
ATOM     69  F   UNL A   1      42.412  32.481  35.207  1.00  0.00    -0.203 F 
ATOM     70  C   UNL A   1      41.924  30.312  35.919  1.00  0.00     0.198 A 
ATOM     71  C   UNL A   1      41.551  28.569  34.319  1.00  0.00     0.198 A 
ATOM     72  F   UNL A   1      41.798  29.001  32.020  1.00  0.00    -0.203 F 
ATOM     73  F   UNL A   1      41.940  30.736  37.192  1.00  0.00    -0.200 F 
ATOM     74  C   UNL A   1      41.591  28.999  35.635  1.00  0.00     0.200 A 
ATOM     75  F   UNL A   1      41.179  27.314  34.036  1.00  0.00    -0.200 F 
ATOM     76  F   UNL A   1      41.280  28.153  36.629  1.00  0.00    -0.200 F 
ENDBRANCH  43  66
ENDBRANCH  17  18
ENDBRANCH  10  12
ENDBRANCH   7   8
ENDBRANCH   6   7
ENDBRANCH   5   6
ENDBRANCH   1   5
BRANCH   2  77
ATOM     77  C   UNL A   1      34.717  23.044  25.047  1.00  0.00     0.039 A 
ATOM     78  C   UNL A   1      34.380  22.570  23.772  1.00  0.00     0.015 A 
ATOM     79  C   UNL A   1      34.644  24.408  25.332  1.00  0.00     0.015 A 
ATOM     80  C   UNL A   1      33.894  23.458  22.811  1.00  0.00     0.022 A 
ATOM     81  C   UNL A   1      34.066  25.273  24.416  1.00  0.00     0.022 A 
ATOM     82  C   UNL A   1      33.715  24.804  23.149  1.00  0.00     0.082 A 
BRANCH  82  83
ATOM     83  S   UNL A   1      33.126  25.927  21.910  1.00  0.00     0.240 S 
ATOM     84  O   UNL A   1      33.691  27.225  22.183  1.00  0.00    -0.207 OA
ATOM     85  O   UNL A   1      33.277  25.267  20.632  1.00  0.00    -0.207 OA
BRANCH  83  86
ATOM     86  N   UNL A   1      31.478  26.027  22.181  1.00  0.00    -0.211 NA
ATOM     87  H   UNL A   1      31.235  25.214  22.747  1.00  0.00     0.141 HD
BRANCH  86  88
ATOM     88  C   UNL A   1      30.853  27.175  22.833  1.00  0.00     0.101 C 
BRANCH  88  89
ATOM     89  C   UNL A   1      30.908  27.102  24.347  1.00  0.00     0.040 C 
BRANCH  89  90
ATOM     90  C   UNL A   1      29.918  26.136  24.986  1.00  0.00     0.145 C 
BRANCH  90  91
ATOM     91  N   UNL A   1      30.508  24.901  25.468  1.00  0.00    -0.273 N 
ATOM     92  C   UNL A   1      30.648  23.717  24.802  1.00  0.00     0.108 A 
ATOM     93  N   UNL A   1      30.934  24.837  26.743  1.00  0.00    -0.182 NA
ATOM     94  C   UNL A   1      31.236  22.846  25.689  1.00  0.00     0.042 A 
ATOM     95  C   UNL A   1      31.365  23.582  26.876  1.00  0.00     0.135 A 
ENDBRANCH  90  91
ENDBRANCH  89  90
ENDBRANCH  88  89
ENDBRANCH  86  88
ENDBRANCH  83  86
ENDBRANCH  82  83
ENDBRANCH   2  77
TORSDOF 16
ENDMDL
MODEL 2
REMARK VINA RESULT:     -12.2      3.781      9.048
REMARK SMILES O=C(NCCCNC(=O)c1ccc(S(=O)(=O)NCCCn2cccn2)cc1)c1ccc(-c2c3nc(c(-c4c(F)c(F)c(F)c(F)c4F)c4ccc([nH]4)c(-c4c(F)c(F)c(F)c(F)c4F)c4nc(c(-c5c(F)c(F)c(F)c(F)c5F)c5ccc2[nH]5)C=C4)C=C3)cc1
REMARK SMILES IDX 7 1 8 2 9 3 6 5 5 6 4 7 3 8 1 9 2 10 28 12 29 13 90 14 30 15
REMARK SMILES IDX 89 16 31 17 32 18 33 19 83 20 34 21 88 22 82 23 84 24 35 25
REMARK SMILES IDX 87 26 81 27 80 28 36 30 68 31 48 32 67 33 49 34 52 35 66 36
REMARK SMILES IDX 85 37 50 38 51 39 65 41 86 42 53 43 37 44 38 45 46 46 39 47
REMARK SMILES IDX 40 48 44 49 47 50 41 51 42 52 45 53 43 54 69 55 70 56 78 57
REMARK SMILES IDX 71 58 72 59 76 60 79 61 73 62 74 63 77 64 75 65 54 66 55 67
REMARK SMILES IDX 63 68 56 69 57 70 61 71 64 72 58 73 59 74 62 75 60 76 10 77
REMARK SMILES IDX 11 78 27 79 12 80 26 81 13 82 14 83 15 84 16 85 17 86 18 88
REMARK SMILES IDX 19 89 20 90 21 91 22 92 25 93 23 94 24 95
REMARK H PARENT 7 4 3 11 84 29 52 40 17 87
REMARK Flexibility Score: inf
ROOT
ATOM      1  N   UNL A   1      33.780  29.222  25.331  1.00  0.00    -0.352 N 
ATOM      2  C   UNL A   1      33.440  28.109  24.597  1.00  0.00     0.251 C 
ATOM      3  O   UNL A   1      33.518  28.128  23.372  1.00  0.00    -0.269 OA
ATOM      4  H   UNL A   1      33.975  30.024  24.795  1.00  0.00     0.163 HD
ENDROOT
BRANCH   1   5
ATOM      5  C   UNL A   1      33.899  29.404  26.774  1.00  0.00     0.118 C 
BRANCH   5   6
ATOM      6  C   UNL A   1      33.411  30.761  27.263  1.00  0.00     0.042 C 
BRANCH   6   7
ATOM      7  C   UNL A   1      34.517  31.674  27.770  1.00  0.00     0.118 C 
BRANCH   7   8
ATOM      8  N   UNL A   1      34.426  31.987  29.182  1.00  0.00    -0.352 N 
ATOM      9  O   UNL A   1      34.856  32.403  31.300  1.00  0.00    -0.269 OA
ATOM     10  C   UNL A   1      35.266  31.892  30.255  1.00  0.00     0.251 C 
ATOM     11  H   UNL A   1      33.547  32.355  29.428  1.00  0.00     0.163 HD
BRANCH  10  12
ATOM     12  C   UNL A   1      36.573  31.178  30.280  1.00  0.00     0.039 A 
ATOM     13  C   UNL A   1      37.838  31.765  30.346  1.00  0.00     0.014 A 
ATOM     14  C   UNL A   1      36.491  29.773  30.201  1.00  0.00     0.014 A 
ATOM     15  C   UNL A   1      38.985  30.974  30.259  1.00  0.00     0.010 A 
ATOM     16  C   UNL A   1      37.629  28.980  30.123  1.00  0.00     0.010 A 
ATOM     17  C   UNL A   1      38.880  29.584  30.118  1.00  0.00    -0.014 A 
BRANCH  17  18
ATOM     18  C   UNL A   1      40.100  28.776  30.137  1.00  0.00     0.031 A 
ATOM     19  C   UNL A   1      40.687  28.569  31.498  1.00  0.00     0.074 A 
ATOM     20  C   UNL A   1      40.580  28.115  29.061  1.00  0.00     0.049 A 
ATOM     21  N   UNL A   1      41.883  28.843  31.910  1.00  0.00    -0.248 NA
ATOM     22  C   UNL A   1      39.794  28.069  32.557  1.00  0.00     0.031 C 
ATOM     23  C   UNL A   1      39.966  27.968  27.739  1.00  0.00     0.029 A 
ATOM     24  N   UNL A   1      41.705  27.349  28.957  1.00  0.00    -0.354 N 
ATOM     25  C   UNL A   1      41.945  28.419  33.239  1.00  0.00     0.074 A 
ATOM     26  C   UNL A   1      40.606  28.053  33.615  1.00  0.00     0.031 C 
ATOM     27  C   UNL A   1      40.612  27.000  27.046  1.00  0.00     0.029 A 
ATOM     28  C   UNL A   1      41.763  26.556  27.816  1.00  0.00     0.049 A 
ATOM     29  H   UNL A   1      42.418  27.357  29.635  1.00  0.00     0.167 HD
ATOM     30  C   UNL A   1      43.130  28.234  33.884  1.00  0.00     0.037 A 
ATOM     31  C   UNL A   1      42.664  25.576  27.548  1.00  0.00     0.037 A 
ATOM     32  C   UNL A   1      44.197  28.950  33.243  1.00  0.00     0.049 A 
ATOM     33  C   UNL A   1      43.836  25.792  28.430  1.00  0.00     0.074 A 
ATOM     34  C   UNL A   1      44.464  30.286  33.016  1.00  0.00     0.029 A 
ATOM     35  N   UNL A   1      45.035  28.263  32.401  1.00  0.00    -0.354 N 
ATOM     36  N   UNL A   1      44.655  26.798  28.318  1.00  0.00    -0.248 NA
ATOM     37  C   UNL A   1      43.834  25.121  29.720  1.00  0.00     0.031 C 
ATOM     38  C   UNL A   1      45.045  30.329  31.715  1.00  0.00     0.029 A 
ATOM     39  C   UNL A   1      45.158  29.015  31.261  1.00  0.00     0.049 A 
ATOM     40  H   UNL A   1      45.466  27.396  32.581  1.00  0.00     0.167 HD
ATOM     41  C   UNL A   1      44.939  27.162  29.624  1.00  0.00     0.074 A 
ATOM     42  C   UNL A   1      44.468  26.047  30.443  1.00  0.00     0.031 C 
ATOM     43  C   UNL A   1      45.271  28.447  29.939  1.00  0.00     0.037 A 
BRANCH  30  44
ATOM     44  C   UNL A   1      43.378  27.162  34.916  1.00  0.00     0.064 A 
ATOM     45  C   UNL A   1      43.658  27.523  36.250  1.00  0.00     0.173 A 
ATOM     46  C   UNL A   1      43.641  25.815  34.584  1.00  0.00     0.173 A 
ATOM     47  F   UNL A   1      43.472  28.783  36.670  1.00  0.00    -0.203 F 
ATOM     48  C   UNL A   1      44.214  26.619  37.160  1.00  0.00     0.198 A 
ATOM     49  C   UNL A   1      44.150  24.903  35.507  1.00  0.00     0.198 A 
ATOM     50  F   UNL A   1      43.522  25.359  33.331  1.00  0.00    -0.203 F 
ATOM     51  F   UNL A   1      44.571  27.037  38.382  1.00  0.00    -0.200 F 
ATOM     52  C   UNL A   1      44.464  25.311  36.786  1.00  0.00     0.200 A 
ATOM     53  F   UNL A   1      44.405  23.645  35.119  1.00  0.00    -0.200 F 
ATOM     54  F   UNL A   1      45.052  24.458  37.637  1.00  0.00    -0.200 F 
ENDBRANCH  30  44
BRANCH  31  55
ATOM     55  C   UNL A   1      42.455  24.289  26.837  1.00  0.00     0.064 A 
ATOM     56  C   UNL A   1      43.270  23.909  25.756  1.00  0.00     0.173 A 
ATOM     57  C   UNL A   1      41.650  23.279  27.396  1.00  0.00     0.173 A 
ATOM     58  F   UNL A   1      44.107  24.795  25.198  1.00  0.00    -0.203 F 
ATOM     59  C   UNL A   1      43.294  22.591  25.281  1.00  0.00     0.198 A 
ATOM     60  C   UNL A   1      41.672  21.967  26.919  1.00  0.00     0.198 A 
ATOM     61  F   UNL A   1      40.902  23.522  28.482  1.00  0.00    -0.203 F 
ATOM     62  F   UNL A   1      44.130  22.252  24.289  1.00  0.00    -0.200 F 
ATOM     63  C   UNL A   1      42.503  21.620  25.870  1.00  0.00     0.200 A 
ATOM     64  F   UNL A   1      40.932  21.028  27.526  1.00  0.00    -0.200 F 
ATOM     65  F   UNL A   1      42.572  20.346  25.459  1.00  0.00    -0.200 F 
ENDBRANCH  31  55
BRANCH  43  66
ATOM     66  C   UNL A   1      45.546  29.396  28.805  1.00  0.00     0.064 A 
ATOM     67  C   UNL A   1      44.556  30.152  28.153  1.00  0.00     0.173 A 
ATOM     68  C   UNL A   1      46.880  29.650  28.457  1.00  0.00     0.173 A 
ATOM     69  F   UNL A   1      43.268  30.048  28.497  1.00  0.00    -0.203 F 
ATOM     70  C   UNL A   1      44.884  31.081  27.166  1.00  0.00     0.198 A 
ATOM     71  C   UNL A   1      47.208  30.606  27.499  1.00  0.00     0.198 A 
ATOM     72  F   UNL A   1      47.872  29.001  29.085  1.00  0.00    -0.203 F 
ATOM     73  F   UNL A   1      43.918  31.781  26.552  1.00  0.00    -0.200 F 
ATOM     74  C   UNL A   1      46.211  31.312  26.846  1.00  0.00     0.200 A 
ATOM     75  F   UNL A   1      48.495  30.863  27.230  1.00  0.00    -0.200 F 
ATOM     76  F   UNL A   1      46.531  32.236  25.928  1.00  0.00    -0.200 F 
ENDBRANCH  43  66
ENDBRANCH  17  18
ENDBRANCH  10  12
ENDBRANCH   7   8
ENDBRANCH   6   7
ENDBRANCH   5   6
ENDBRANCH   1   5
BRANCH   2  77
ATOM     77  C   UNL A   1      32.997  26.878  25.286  1.00  0.00     0.039 A 
ATOM     78  C   UNL A   1      31.636  26.680  25.548  1.00  0.00     0.015 A 
ATOM     79  C   UNL A   1      33.934  25.913  25.659  1.00  0.00     0.015 A 
ATOM     80  C   UNL A   1      31.209  25.476  26.111  1.00  0.00     0.022 A 
ATOM     81  C   UNL A   1      33.504  24.679  26.121  1.00  0.00     0.022 A 
ATOM     82  C   UNL A   1      32.146  24.469  26.370  1.00  0.00     0.082 A 
BRANCH  82  83
ATOM     83  S   UNL A   1      31.596  22.957  27.113  1.00  0.00     0.240 S 
ATOM     84  O   UNL A   1      32.579  22.559  28.090  1.00  0.00    -0.207 OA
ATOM     85  O   UNL A   1      30.198  23.130  27.442  1.00  0.00    -0.207 OA
BRANCH  83  86
ATOM     86  N   UNL A   1      31.638  21.837  25.870  1.00  0.00    -0.211 NA
ATOM     87  H   UNL A   1      30.731  21.369  25.882  1.00  0.00     0.141 HD
BRANCH  86  88
ATOM     88  C   UNL A   1      31.883  22.210  24.479  1.00  0.00     0.101 C 
BRANCH  88  89
ATOM     89  C   UNL A   1      32.872  21.294  23.783  1.00  0.00     0.040 C 
BRANCH  89  90
ATOM     90  C   UNL A   1      32.266  20.048  23.149  1.00  0.00     0.145 C 
BRANCH  90  91
ATOM     91  N   UNL A   1      32.565  18.812  23.846  1.00  0.00    -0.273 N 
ATOM     92  C   UNL A   1      33.129  17.674  23.343  1.00  0.00     0.108 A 
ATOM     93  N   UNL A   1      32.211  18.690  25.139  1.00  0.00    -0.182 NA
ATOM     94  C   UNL A   1      33.177  16.776  24.384  1.00  0.00     0.042 A 
ATOM     95  C   UNL A   1      32.575  17.448  25.459  1.00  0.00     0.135 A 
ENDBRANCH  90  91
ENDBRANCH  89  90
ENDBRANCH  88  89
ENDBRANCH  86  88
ENDBRANCH  83  86
ENDBRANCH  82  83
ENDBRANCH   2  77
TORSDOF 16
ENDMDL
MODEL 3
REMARK VINA RESULT:     -12.2      3.554      8.965
REMARK SMILES O=C(NCCCNC(=O)c1ccc(S(=O)(=O)NCCCn2cccn2)cc1)c1ccc(-c2c3nc(c(-c4c(F)c(F)c(F)c(F)c4F)c4ccc([nH]4)c(-c4c(F)c(F)c(F)c(F)c4F)c4nc(c(-c5c(F)c(F)c(F)c(F)c5F)c5ccc2[nH]5)C=C4)C=C3)cc1
REMARK SMILES IDX 7 1 8 2 9 3 6 5 5 6 4 7 3 8 1 9 2 10 28 12 29 13 90 14 30 15
REMARK SMILES IDX 89 16 31 17 32 18 33 19 83 20 34 21 88 22 82 23 84 24 35 25
REMARK SMILES IDX 87 26 81 27 80 28 36 30 68 31 48 32 67 33 49 34 52 35 66 36
REMARK SMILES IDX 85 37 50 38 51 39 65 41 86 42 53 43 37 44 38 45 46 46 39 47
REMARK SMILES IDX 40 48 44 49 47 50 41 51 42 52 45 53 43 54 69 55 70 56 78 57
REMARK SMILES IDX 71 58 72 59 76 60 79 61 73 62 74 63 77 64 75 65 54 66 55 67
REMARK SMILES IDX 63 68 56 69 57 70 61 71 64 72 58 73 59 74 62 75 60 76 10 77
REMARK SMILES IDX 11 78 27 79 12 80 26 81 13 82 14 83 15 84 16 85 17 86 18 88
REMARK SMILES IDX 19 89 20 90 21 91 22 92 25 93 23 94 24 95
REMARK H PARENT 7 4 3 11 84 29 52 40 17 87
REMARK Flexibility Score: inf
ROOT
ATOM      1  N   UNL A   1      32.789  30.086  25.339  1.00  0.00    -0.352 N 
ATOM      2  C   UNL A   1      32.710  28.949  24.568  1.00  0.00     0.251 C 
ATOM      3  O   UNL A   1      32.958  28.998  23.366  1.00  0.00    -0.269 OA
ATOM      4  H   UNL A   1      32.947  30.916  24.834  1.00  0.00     0.163 HD
ENDROOT
BRANCH   1   5
ATOM      5  C   UNL A   1      32.677  30.258  26.784  1.00  0.00     0.118 C 
BRANCH   5   6
ATOM      6  C   UNL A   1      34.021  30.337  27.498  1.00  0.00     0.042 C 
BRANCH   6   7
ATOM      7  C   UNL A   1      34.447  31.750  27.868  1.00  0.00     0.118 C 
BRANCH   7   8
ATOM      8  N   UNL A   1      34.371  32.039  29.286  1.00  0.00    -0.352 N 
ATOM      9  O   UNL A   1      34.825  32.431  31.403  1.00  0.00    -0.269 OA
ATOM     10  C   UNL A   1      35.228  31.943  30.345  1.00  0.00     0.251 C 
ATOM     11  H   UNL A   1      33.489  32.387  29.550  1.00  0.00     0.163 HD
BRANCH  10  12
ATOM     12  C   UNL A   1      36.548  31.253  30.340  1.00  0.00     0.039 A 
ATOM     13  C   UNL A   1      37.803  31.863  30.299  1.00  0.00     0.014 A 
ATOM     14  C   UNL A   1      36.489  29.845  30.352  1.00  0.00     0.014 A 
ATOM     15  C   UNL A   1      38.959  31.086  30.196  1.00  0.00     0.010 A 
ATOM     16  C   UNL A   1      37.637  29.067  30.258  1.00  0.00     0.010 A 
ATOM     17  C   UNL A   1      38.874  29.689  30.145  1.00  0.00    -0.014 A 
BRANCH  17  18
ATOM     18  C   UNL A   1      40.108  28.903  30.145  1.00  0.00     0.031 A 
ATOM     19  C   UNL A   1      40.726  28.717  31.496  1.00  0.00     0.074 A 
ATOM     20  C   UNL A   1      40.577  28.243  29.065  1.00  0.00     0.049 A 
ATOM     21  N   UNL A   1      41.925  29.015  31.881  1.00  0.00    -0.248 NA
ATOM     22  C   UNL A   1      39.865  28.208  32.576  1.00  0.00     0.031 C 
ATOM     23  C   UNL A   1      39.940  28.075  27.756  1.00  0.00     0.029 A 
ATOM     24  N   UNL A   1      41.714  27.497  28.943  1.00  0.00    -0.354 N 
ATOM     25  C   UNL A   1      42.022  28.602  33.211  1.00  0.00     0.074 A 
ATOM     26  C   UNL A   1      40.697  28.214  33.617  1.00  0.00     0.031 C 
ATOM     27  C   UNL A   1      40.589  27.114  27.057  1.00  0.00     0.029 A 
ATOM     28  C   UNL A   1      41.763  26.697  27.806  1.00  0.00     0.049 A 
ATOM     29  H   UNL A   1      42.441  27.522  29.606  1.00  0.00     0.167 HD
ATOM     30  C   UNL A   1      43.223  28.443  33.833  1.00  0.00     0.037 A 
ATOM     31  C   UNL A   1      42.676  25.730  27.527  1.00  0.00     0.037 A 
ATOM     32  C   UNL A   1      44.264  29.173  33.165  1.00  0.00     0.049 A 
ATOM     33  C   UNL A   1      43.862  25.974  28.383  1.00  0.00     0.074 A 
ATOM     34  C   UNL A   1      44.501  30.513  32.924  1.00  0.00     0.029 A 
ATOM     35  N   UNL A   1      45.097  28.496  32.311  1.00  0.00    -0.354 N 
ATOM     36  N   UNL A   1      44.660  26.994  28.247  1.00  0.00    -0.248 NA
ATOM     37  C   UNL A   1      43.899  25.313  29.677  1.00  0.00     0.031 C 
ATOM     38  C   UNL A   1      45.055  30.556  31.611  1.00  0.00     0.029 A 
ATOM     39  C   UNL A   1      45.183  29.241  31.163  1.00  0.00     0.049 A 
ATOM     40  H   UNL A   1      45.546  27.638  32.488  1.00  0.00     0.167 HD
ATOM     41  C   UNL A   1      44.964  27.373  29.545  1.00  0.00     0.074 A 
ATOM     42  C   UNL A   1      44.530  26.255  30.381  1.00  0.00     0.031 C 
ATOM     43  C   UNL A   1      45.279  28.666  29.844  1.00  0.00     0.037 A 
BRANCH  30  44
ATOM     44  C   UNL A   1      43.512  27.383  34.868  1.00  0.00     0.064 A 
ATOM     45  C   UNL A   1      43.869  27.760  36.178  1.00  0.00     0.173 A 
ATOM     46  C   UNL A   1      43.735  26.028  34.543  1.00  0.00     0.173 A 
ATOM     47  F   UNL A   1      43.725  29.029  36.587  1.00  0.00    -0.203 F 
ATOM     48  C   UNL A   1      44.461  26.862  37.070  1.00  0.00     0.198 A 
ATOM     49  C   UNL A   1      44.281  25.122  35.452  1.00  0.00     0.198 A 
ATOM     50  F   UNL A   1      43.542  25.554  33.306  1.00  0.00    -0.203 F 
ATOM     51  F   UNL A   1      44.890  27.293  38.265  1.00  0.00    -0.200 F 
ATOM     52  C   UNL A   1      44.671  25.544  36.705  1.00  0.00     0.200 A 
ATOM     53  F   UNL A   1      44.496  23.855  35.071  1.00  0.00    -0.200 F 
ATOM     54  F   UNL A   1      45.291  24.696  37.536  1.00  0.00    -0.200 F 
ENDBRANCH  30  44
BRANCH  31  55
ATOM     55  C   UNL A   1      42.477  24.436  26.829  1.00  0.00     0.064 A 
ATOM     56  C   UNL A   1      43.136  24.144  25.622  1.00  0.00     0.173 A 
ATOM     57  C   UNL A   1      41.873  23.347  27.488  1.00  0.00     0.173 A 
ATOM     58  F   UNL A   1      43.782  25.112  24.956  1.00  0.00    -0.203 F 
ATOM     59  C   UNL A   1      43.206  22.839  25.118  1.00  0.00     0.198 A 
ATOM     60  C   UNL A   1      41.941  22.048  26.982  1.00  0.00     0.198 A 
ATOM     61  F   UNL A   1      41.294  23.509  28.686  1.00  0.00    -0.203 F 
ATOM     62  F   UNL A   1      43.896  22.590  23.996  1.00  0.00    -0.200 F 
ATOM     63  C   UNL A   1      42.618  21.791  25.805  1.00  0.00     0.200 A 
ATOM     64  F   UNL A   1      41.402  21.036  27.680  1.00  0.00    -0.200 F 
ATOM     65  F   UNL A   1      42.738  20.533  25.358  1.00  0.00    -0.200 F 
ENDBRANCH  31  55
BRANCH  43  66
ATOM     66  C   UNL A   1      45.514  29.611  28.698  1.00  0.00     0.064 A 
ATOM     67  C   UNL A   1      44.495  30.334  28.052  1.00  0.00     0.173 A 
ATOM     68  C   UNL A   1      46.835  29.898  28.330  1.00  0.00     0.173 A 
ATOM     69  F   UNL A   1      43.215  30.199  28.414  1.00  0.00    -0.203 F 
ATOM     70  C   UNL A   1      44.785  31.263  27.053  1.00  0.00     0.198 A 
ATOM     71  C   UNL A   1      47.125  30.854  27.360  1.00  0.00     0.198 A 
ATOM     72  F   UNL A   1      47.853  29.282  28.951  1.00  0.00    -0.203 F 
ATOM     73  F   UNL A   1      43.793  31.930  26.444  1.00  0.00    -0.200 F 
ATOM     74  C   UNL A   1      46.101  31.526  26.713  1.00  0.00     0.200 A 
ATOM     75  F   UNL A   1      48.401  31.143  27.072  1.00  0.00    -0.200 F 
ATOM     76  F   UNL A   1      46.384  32.450  25.783  1.00  0.00    -0.200 F 
ENDBRANCH  43  66
ENDBRANCH  17  18
ENDBRANCH  10  12
ENDBRANCH   7   8
ENDBRANCH   6   7
ENDBRANCH   5   6
ENDBRANCH   1   5
BRANCH   2  77
ATOM     77  C   UNL A   1      32.345  27.660  25.190  1.00  0.00     0.039 A 
ATOM     78  C   UNL A   1      30.995  27.324  25.353  1.00  0.00     0.015 A 
ATOM     79  C   UNL A   1      33.344  26.776  25.599  1.00  0.00     0.015 A 
ATOM     80  C   UNL A   1      30.651  26.065  25.852  1.00  0.00     0.022 A 
ATOM     81  C   UNL A   1      33.007  25.491  25.996  1.00  0.00     0.022 A 
ATOM     82  C   UNL A   1      31.663  25.145  26.147  1.00  0.00     0.082 A 
BRANCH  82  83
ATOM     83  S   UNL A   1      31.215  23.563  26.807  1.00  0.00     0.240 S 
ATOM     84  O   UNL A   1      32.281  23.126  27.676  1.00  0.00    -0.207 OA
ATOM     85  O   UNL A   1      29.841  23.661  27.252  1.00  0.00    -0.207 OA
BRANCH  83  86
ATOM     86  N   UNL A   1      31.195  22.542  25.482  1.00  0.00    -0.211 NA
ATOM     87  H   UNL A   1      31.122  23.145  24.662  1.00  0.00     0.141 HD
BRANCH  86  88
ATOM     88  C   UNL A   1      32.271  21.598  25.195  1.00  0.00     0.101 C 
BRANCH  88  89
ATOM     89  C   UNL A   1      33.499  22.259  24.598  1.00  0.00     0.040 C 
BRANCH  89  90
ATOM     90  C   UNL A   1      33.437  22.502  23.095  1.00  0.00     0.145 C 
BRANCH  90  91
ATOM     91  N   UNL A   1      33.028  23.842  22.718  1.00  0.00    -0.273 N 
ATOM     92  C   UNL A   1      31.760  24.338  22.611  1.00  0.00     0.108 A 
ATOM     93  N   UNL A   1      33.970  24.735  22.361  1.00  0.00    -0.182 NA
ATOM     94  C   UNL A   1      31.892  25.643  22.196  1.00  0.00     0.042 A 
ATOM     95  C   UNL A   1      33.274  25.825  22.033  1.00  0.00     0.135 A 
ENDBRANCH  90  91
ENDBRANCH  89  90
ENDBRANCH  88  89
ENDBRANCH  86  88
ENDBRANCH  83  86
ENDBRANCH  82  83
ENDBRANCH   2  77
TORSDOF 16
ENDMDL
