MODEL 1
REMARK VINA RESULT:     -14.1      0.000      0.000
REMARK SMILES Cc1ccccc1OC1(C(=O)NCCCNC(=O)c2ccc(-c3c4nc(c(-c5c(F)c(F)c(F)c(F)c5F)c5ccc([nH]5)c(-c5c(F)c(F)c(F)c(F)c5F)c5nc(c(-c6c(F)c(F)c(F)c(F)c6F)c6ccc3[nH]6)C=C5)C=C4)cc2)CCN(c2ncc(C#N)c(N)n2)CC1
REMARK SMILES IDX 14 1 13 2 12 3 10 4 11 5 9 7 82 8 95 9 83 10 94 11 84 12
REMARK SMILES IDX 8 13 7 14 1 15 2 16 3 17 4 18 6 19 5 20 85 21 86 22 93 23
REMARK SMILES IDX 87 24 91 25 88 26 92 27 89 30 90 31 15 32 16 33 17 34 18 36
REMARK SMILES IDX 19 37 20 38 81 39 21 40 80 41 22 42 23 43 24 44 74 45 25 46
REMARK SMILES IDX 79 47 73 48 75 49 26 50 78 51 72 52 71 53 27 55 59 56 39 57
REMARK SMILES IDX 58 58 40 59 43 60 57 61 76 62 41 63 42 64 56 66 77 67 44 68
REMARK SMILES IDX 28 69 29 70 37 71 30 72 31 73 35 74 38 75 32 76 33 77 36 78
REMARK SMILES IDX 34 79 60 80 61 81 69 82 62 83 63 84 67 85 70 86 64 87 65 88
REMARK SMILES IDX 68 89 66 90 45 91 46 92 54 93 47 94 48 95 52 96 55 97 49 98
REMARK SMILES IDX 50 99 53 100 51 101
REMARK H PARENT 12 6 92 28 92 29 16 35 75 54 43 65
REMARK Flexibility Score: inf
ROOT
ATOM      1  C   UNL A   1      32.114  30.965  26.515  1.00  0.00     0.042 C 
ENDROOT
BRANCH   1   2
ATOM      2  C   UNL A   1      31.824  30.002  25.368  1.00  0.00     0.118 C 
BRANCH   2   3
ATOM      3  N   UNL A   1      32.983  29.703  24.515  1.00  0.00    -0.353 N 
ATOM      4  C   UNL A   1      33.189  28.815  23.470  1.00  0.00     0.264 C 
ATOM      5  O   UNL A   1      34.260  28.943  22.866  1.00  0.00    -0.270 OA
ATOM      6  H   UNL A   1      33.778  30.244  24.729  1.00  0.00     0.163 HD
BRANCH   4   7
ATOM      7  C   UNL A   1      32.137  27.678  23.094  1.00  0.00     0.190 C 
ATOM      8  C   UNL A   1      32.965  26.713  22.248  1.00  0.00     0.080 C 
ATOM      9  C   UNL A   1      31.516  27.290  24.436  1.00  0.00     0.080 C 
ATOM     10  C   UNL A   1      33.130  25.307  22.776  1.00  0.00     0.124 C 
ATOM     11  C   UNL A   1      31.606  25.828  24.814  1.00  0.00     0.124 C 
ATOM     12  N   UNL A   1      32.676  25.095  24.148  1.00  0.00    -0.340 N 
BRANCH   7  13
ATOM     13  O   UNL A   1      31.099  28.264  22.253  1.00  0.00    -0.477 OA
BRANCH  13  14
ATOM     14  C   UNL A   1      29.888  28.841  22.557  1.00  0.00     0.123 A 
ATOM     15  C   UNL A   1      28.313  26.987  23.510  1.00  0.00     0.048 C 
ATOM     16  C   UNL A   1      28.674  28.362  23.088  1.00  0.00    -0.009 A 
ATOM     17  C   UNL A   1      27.574  29.237  23.289  1.00  0.00     0.007 A 
ATOM     18  C   UNL A   1      27.640  30.579  22.973  1.00  0.00     0.001 A 
ATOM     19  C   UNL A   1      29.918  30.217  22.248  1.00  0.00     0.047 A 
ATOM     20  C   UNL A   1      28.820  31.071  22.448  1.00  0.00     0.004 A 
ENDBRANCH  13  14
ENDBRANCH   7  13
BRANCH  12  21
ATOM     21  C   UNL A   1      32.658  23.728  24.420  1.00  0.00     0.227 A 
ATOM     22  N   UNL A   1      32.326  22.908  23.418  1.00  0.00    -0.220 NA
ATOM     23  N   UNL A   1      32.879  23.307  25.679  1.00  0.00    -0.195 NA
ATOM     24  C   UNL A   1      32.295  21.594  23.697  1.00  0.00     0.138 A 
ATOM     25  C   UNL A   1      32.802  21.994  25.941  1.00  0.00     0.147 A 
ATOM     26  C   UNL A   1      32.534  21.077  24.947  1.00  0.00     0.113 A 
BRANCH  25  27
ATOM     27  N   UNL A   1      32.905  21.654  27.277  1.00  0.00    -0.382 N 
ATOM     28  H   UNL A   1      33.181  22.331  27.938  1.00  0.00     0.158 HD
ATOM     29  H   UNL A   1      32.702  20.736  27.569  1.00  0.00     0.158 HD
ENDBRANCH  25  27
BRANCH  26  30
ATOM     30  C   UNL A   1      32.528  19.667  25.163  1.00  0.00     0.105 C 
ATOM     31  N   UNL A   1      32.529  18.536  25.376  1.00  0.00    -0.192 NA
ENDBRANCH  26  30
ENDBRANCH  12  21
ENDBRANCH   4   7
ENDBRANCH   2   3
ENDBRANCH   1   2
BRANCH   1  32
ATOM     32  C   UNL A   1      33.133  30.460  27.515  1.00  0.00     0.118 C 
BRANCH  32  33
ATOM     33  N   UNL A   1      34.041  31.464  28.069  1.00  0.00    -0.352 N 
ATOM     34  C   UNL A   1      35.296  31.304  28.651  1.00  0.00     0.251 C 
ATOM     35  H   UNL A   1      33.716  32.392  28.024  1.00  0.00     0.163 HD
ATOM     36  O   UNL A   1      35.925  32.286  29.036  1.00  0.00    -0.269 OA
BRANCH  34  37
ATOM     37  C   UNL A   1      35.962  29.971  28.628  1.00  0.00     0.039 A 
ATOM     38  C   UNL A   1      36.310  29.440  29.877  1.00  0.00     0.014 A 
ATOM     39  C   UNL A   1      36.683  29.608  27.505  1.00  0.00     0.014 A 
ATOM     40  C   UNL A   1      37.595  28.953  30.056  1.00  0.00     0.010 A 
ATOM     41  C   UNL A   1      38.010  29.332  27.698  1.00  0.00     0.010 A 
ATOM     42  C   UNL A   1      38.473  29.083  28.990  1.00  0.00    -0.014 A 
BRANCH  42  43
ATOM     43  C   UNL A   1      39.882  28.782  29.058  1.00  0.00     0.031 A 
ATOM     44  C   UNL A   1      40.211  27.391  28.708  1.00  0.00     0.074 A 
ATOM     45  C   UNL A   1      40.766  29.783  29.273  1.00  0.00     0.049 A 
ATOM     46  N   UNL A   1      41.280  26.786  29.061  1.00  0.00    -0.248 NA
ATOM     47  C   UNL A   1      39.279  26.517  27.988  1.00  0.00     0.031 C 
ATOM     48  C   UNL A   1      42.212  29.783  29.080  1.00  0.00     0.029 A 
ATOM     49  N   UNL A   1      40.511  31.029  29.876  1.00  0.00    -0.354 N 
ATOM     50  C   UNL A   1      41.329  25.592  28.368  1.00  0.00     0.074 A 
ATOM     51  C   UNL A   1      40.010  25.413  27.828  1.00  0.00     0.031 C 
ATOM     52  C   UNL A   1      42.752  30.773  29.815  1.00  0.00     0.029 A 
ATOM     53  C   UNL A   1      41.683  31.363  30.600  1.00  0.00     0.049 A 
ATOM     54  H   UNL A   1      39.685  31.562  29.809  1.00  0.00     0.167 HD
ATOM     55  C   UNL A   1      42.550  25.007  28.221  1.00  0.00     0.037 A 
ATOM     56  C   UNL A   1      41.667  31.432  31.968  1.00  0.00     0.037 A 
ATOM     57  C   UNL A   1      43.526  25.771  29.002  1.00  0.00     0.049 A 
ATOM     58  C   UNL A   1      42.443  30.302  32.579  1.00  0.00     0.074 A 
ATOM     59  C   UNL A   1      44.364  26.818  28.653  1.00  0.00     0.029 A 
ATOM     60  N   UNL A   1      43.382  25.822  30.386  1.00  0.00    -0.354 N 
ATOM     61  N   UNL A   1      42.688  29.179  31.962  1.00  0.00    -0.248 NA
ATOM     62  C   UNL A   1      43.050  30.382  33.899  1.00  0.00     0.031 C 
ATOM     63  C   UNL A   1      44.646  27.556  29.836  1.00  0.00     0.029 A 
ATOM     64  C   UNL A   1      44.009  26.942  30.903  1.00  0.00     0.049 A 
ATOM     65  H   UNL A   1      42.898  25.155  30.922  1.00  0.00     0.167 HD
ATOM     66  C   UNL A   1      43.518  28.419  32.735  1.00  0.00     0.074 A 
ATOM     67  C   UNL A   1      43.722  29.220  33.931  1.00  0.00     0.031 C 
ATOM     68  C   UNL A   1      43.996  27.203  32.337  1.00  0.00     0.037 A 
BRANCH  55  69
ATOM     69  C   UNL A   1      42.930  23.969  27.185  1.00  0.00     0.064 A 
ATOM     70  C   UNL A   1      42.585  22.615  27.401  1.00  0.00     0.173 A 
ATOM     71  C   UNL A   1      43.668  24.196  26.005  1.00  0.00     0.173 A 
ATOM     72  F   UNL A   1      41.842  22.243  28.453  1.00  0.00    -0.203 F 
ATOM     73  C   UNL A   1      42.990  21.582  26.550  1.00  0.00     0.198 A 
ATOM     74  C   UNL A   1      44.090  23.159  25.163  1.00  0.00     0.198 A 
ATOM     75  F   UNL A   1      43.982  25.423  25.587  1.00  0.00    -0.203 F 
ATOM     76  F   UNL A   1      42.638  20.318  26.826  1.00  0.00    -0.200 F 
ATOM     77  C   UNL A   1      43.756  21.852  25.437  1.00  0.00     0.200 A 
ATOM     78  F   UNL A   1      44.823  23.445  24.076  1.00  0.00    -0.200 F 
ATOM     79  F   UNL A   1      44.153  20.863  24.626  1.00  0.00    -0.200 F 
ENDBRANCH  55  69
BRANCH  56  80
ATOM     80  C   UNL A   1      40.414  32.042  32.513  1.00  0.00     0.064 A 
ATOM     81  C   UNL A   1      39.607  31.115  33.200  1.00  0.00     0.173 A 
ATOM     82  C   UNL A   1      40.458  33.353  32.996  1.00  0.00     0.173 A 
ATOM     83  F   UNL A   1      39.414  29.888  32.689  1.00  0.00    -0.203 F 
ATOM     84  C   UNL A   1      39.299  31.342  34.532  1.00  0.00     0.198 A 
ATOM     85  C   UNL A   1      40.033  33.614  34.294  1.00  0.00     0.198 A 
ATOM     86  F   UNL A   1      41.069  34.320  32.297  1.00  0.00    -0.203 F 
ATOM     87  F   UNL A   1      38.889  30.325  35.305  1.00  0.00    -0.200 F 
ATOM     88  C   UNL A   1      39.582  32.573  35.095  1.00  0.00     0.200 A 
ATOM     89  F   UNL A   1      40.173  34.844  34.803  1.00  0.00    -0.200 F 
ATOM     90  F   UNL A   1      39.494  32.717  36.420  1.00  0.00    -0.200 F 
ENDBRANCH  56  80
BRANCH  68  91
ATOM     91  C   UNL A   1      44.618  26.194  33.270  1.00  0.00     0.064 A 
ATOM     92  C   UNL A   1      43.899  25.498  34.256  1.00  0.00     0.173 A 
ATOM     93  C   UNL A   1      45.967  25.794  33.112  1.00  0.00     0.173 A 
ATOM     94  F   UNL A   1      42.571  25.622  34.379  1.00  0.00    -0.203 F 
ATOM     95  C   UNL A   1      44.514  24.591  35.115  1.00  0.00     0.198 A 
ATOM     96  C   UNL A   1      46.549  24.808  33.901  1.00  0.00     0.198 A 
ATOM     97  F   UNL A   1      46.762  26.321  32.170  1.00  0.00    -0.203 F 
ATOM     98  F   UNL A   1      43.803  24.040  36.108  1.00  0.00    -0.200 F 
ATOM     99  C   UNL A   1      45.835  24.237  34.932  1.00  0.00     0.200 A 
ATOM    100  F   UNL A   1      47.801  24.406  33.644  1.00  0.00    -0.200 F 
ATOM    101  F   UNL A   1      46.409  23.328  35.729  1.00  0.00    -0.200 F 
ENDBRANCH  68  91
ENDBRANCH  42  43
ENDBRANCH  34  37
ENDBRANCH  32  33
ENDBRANCH   1  32
TORSDOF 15
ENDMDL
MODEL 2
REMARK VINA RESULT:     -13.9      3.426      9.520
REMARK SMILES Cc1ccccc1OC1(C(=O)NCCCNC(=O)c2ccc(-c3c4nc(c(-c5c(F)c(F)c(F)c(F)c5F)c5ccc([nH]5)c(-c5c(F)c(F)c(F)c(F)c5F)c5nc(c(-c6c(F)c(F)c(F)c(F)c6F)c6ccc3[nH]6)C=C5)C=C4)cc2)CCN(c2ncc(C#N)c(N)n2)CC1
REMARK SMILES IDX 14 1 13 2 12 3 10 4 11 5 9 7 82 8 95 9 83 10 94 11 84 12
REMARK SMILES IDX 8 13 7 14 1 15 2 16 3 17 4 18 6 19 5 20 85 21 86 22 93 23
REMARK SMILES IDX 87 24 91 25 88 26 92 27 89 30 90 31 15 32 16 33 17 34 18 36
REMARK SMILES IDX 19 37 20 38 81 39 21 40 80 41 22 42 23 43 24 44 74 45 25 46
REMARK SMILES IDX 79 47 73 48 75 49 26 50 78 51 72 52 71 53 27 55 59 56 39 57
REMARK SMILES IDX 58 58 40 59 43 60 57 61 76 62 41 63 42 64 56 66 77 67 44 68
REMARK SMILES IDX 28 69 29 70 37 71 30 72 31 73 35 74 38 75 32 76 33 77 36 78
REMARK SMILES IDX 34 79 60 80 61 81 69 82 62 83 63 84 67 85 70 86 64 87 65 88
REMARK SMILES IDX 68 89 66 90 45 91 46 92 54 93 47 94 48 95 52 96 55 97 49 98
REMARK SMILES IDX 50 99 53 100 51 101
REMARK H PARENT 12 6 92 28 92 29 16 35 75 54 43 65
REMARK Flexibility Score: inf
ROOT
ATOM      1  C   UNL A   1      37.501  21.237  25.737  1.00  0.00     0.042 C 
ENDROOT
BRANCH   1   2
ATOM      2  C   UNL A   1      36.052  21.671  25.543  1.00  0.00     0.118 C 
BRANCH   2   3
ATOM      3  N   UNL A   1      35.716  22.081  24.171  1.00  0.00    -0.353 N 
ATOM      4  C   UNL A   1      34.713  22.875  23.637  1.00  0.00     0.264 C 
ATOM      5  O   UNL A   1      34.828  23.138  22.434  1.00  0.00    -0.270 OA
ATOM      6  H   UNL A   1      36.328  21.715  23.492  1.00  0.00     0.163 HD
BRANCH   4   7
ATOM      7  C   UNL A   1      33.475  23.385  24.500  1.00  0.00     0.190 C 
ATOM      8  C   UNL A   1      34.145  24.043  25.704  1.00  0.00     0.080 C 
ATOM      9  C   UNL A   1      32.617  24.157  23.497  1.00  0.00     0.080 C 
ATOM     10  C   UNL A   1      33.902  25.521  25.901  1.00  0.00     0.124 C 
ATOM     11  C   UNL A   1      32.306  25.594  23.853  1.00  0.00     0.124 C 
ATOM     12  N   UNL A   1      33.244  26.202  24.790  1.00  0.00    -0.340 N 
BRANCH   7  13
ATOM     13  O   UNL A   1      32.720  22.226  24.962  1.00  0.00    -0.477 OA
BRANCH  13  14
ATOM     14  C   UNL A   1      32.613  20.945  24.471  1.00  0.00     0.123 A 
ATOM     15  C   UNL A   1      31.922  21.087  21.955  1.00  0.00     0.048 C 
ATOM     16  C   UNL A   1      32.281  20.395  23.216  1.00  0.00    -0.009 A 
ATOM     17  C   UNL A   1      32.258  18.989  23.023  1.00  0.00     0.007 A 
ATOM     18  C   UNL A   1      32.550  18.106  24.042  1.00  0.00     0.001 A 
ATOM     19  C   UNL A   1      32.906  20.012  25.487  1.00  0.00     0.047 A 
ATOM     20  C   UNL A   1      32.875  18.622  25.283  1.00  0.00     0.004 A 
ENDBRANCH  13  14
ENDBRANCH   7  13
BRANCH  12  21
ATOM     21  C   UNL A   1      32.865  27.482  25.194  1.00  0.00     0.227 A 
ATOM     22  N   UNL A   1      31.665  27.919  24.797  1.00  0.00    -0.220 NA
ATOM     23  N   UNL A   1      33.743  28.242  25.873  1.00  0.00    -0.195 NA
ATOM     24  C   UNL A   1      31.318  29.160  25.178  1.00  0.00     0.138 A 
ATOM     25  C   UNL A   1      33.388  29.492  26.207  1.00  0.00     0.147 A 
ATOM     26  C   UNL A   1      32.142  29.992  25.896  1.00  0.00     0.113 A 
BRANCH  25  27
ATOM     27  N   UNL A   1      34.389  30.253  26.780  1.00  0.00    -0.382 N 
ATOM     28  H   UNL A   1      34.159  30.989  27.393  1.00  0.00     0.158 HD
ATOM     29  H   UNL A   1      35.333  30.061  26.575  1.00  0.00     0.158 HD
ENDBRANCH  25  27
BRANCH  26  30
ATOM     30  C   UNL A   1      31.692  31.283  26.305  1.00  0.00     0.105 C 
ATOM     31  N   UNL A   1      31.291  32.311  26.632  1.00  0.00    -0.192 NA
ENDBRANCH  26  30
ENDBRANCH  12  21
ENDBRANCH   4   7
ENDBRANCH   2   3
ENDBRANCH   1   2
BRANCH   1  32
ATOM     32  C   UNL A   1      38.526  22.276  25.334  1.00  0.00     0.118 C 
BRANCH  32  33
ATOM     33  N   UNL A   1      39.771  22.282  26.102  1.00  0.00    -0.352 N 
ATOM     34  C   UNL A   1      40.434  23.343  26.715  1.00  0.00     0.251 C 
ATOM     35  H   UNL A   1      40.206  21.405  26.200  1.00  0.00     0.163 HD
ATOM     36  O   UNL A   1      41.467  23.140  27.348  1.00  0.00    -0.269 OA
BRANCH  34  37
ATOM     37  C   UNL A   1      39.791  24.687  26.774  1.00  0.00     0.039 A 
ATOM     38  C   UNL A   1      40.507  25.733  26.180  1.00  0.00     0.014 A 
ATOM     39  C   UNL A   1      38.914  24.957  27.808  1.00  0.00     0.014 A 
ATOM     40  C   UNL A   1      40.688  26.905  26.898  1.00  0.00     0.010 A 
ATOM     41  C   UNL A   1      39.241  26.007  28.624  1.00  0.00     0.010 A 
ATOM     42  C   UNL A   1      40.190  26.935  28.192  1.00  0.00    -0.014 A 
BRANCH  42  43
ATOM     43  C   UNL A   1      40.430  28.004  29.130  1.00  0.00     0.031 A 
ATOM     44  C   UNL A   1      39.422  29.074  29.083  1.00  0.00     0.074 A 
ATOM     45  C   UNL A   1      41.421  27.878  30.042  1.00  0.00     0.049 A 
ATOM     46  N   UNL A   1      39.609  30.268  29.499  1.00  0.00    -0.248 NA
ATOM     47  C   UNL A   1      38.111  28.897  28.450  1.00  0.00     0.031 C 
ATOM     48  C   UNL A   1      41.652  28.657  31.254  1.00  0.00     0.029 A 
ATOM     49  N   UNL A   1      42.555  27.048  29.959  1.00  0.00    -0.354 N 
ATOM     50  C   UNL A   1      38.384  30.907  29.492  1.00  0.00     0.074 A 
ATOM     51  C   UNL A   1      37.523  30.065  28.709  1.00  0.00     0.031 C 
ATOM     52  C   UNL A   1      42.942  28.526  31.619  1.00  0.00     0.029 A 
ATOM     53  C   UNL A   1      43.610  27.759  30.584  1.00  0.00     0.049 A 
ATOM     54  H   UNL A   1      42.606  26.153  29.549  1.00  0.00     0.167 HD
ATOM     55  C   UNL A   1      38.243  31.993  30.301  1.00  0.00     0.037 A 
ATOM     56  C   UNL A   1      44.686  28.199  29.859  1.00  0.00     0.037 A 
ATOM     57  C   UNL A   1      39.546  32.299  30.896  1.00  0.00     0.049 A 
ATOM     58  C   UNL A   1      44.680  29.694  29.729  1.00  0.00     0.074 A 
ATOM     59  C   UNL A   1      40.124  31.907  32.093  1.00  0.00     0.029 A 
ATOM     60  N   UNL A   1      40.590  32.682  30.058  1.00  0.00    -0.354 N 
ATOM     61  N   UNL A   1      43.606  30.425  29.855  1.00  0.00    -0.248 NA
ATOM     62  C   UNL A   1      45.888  30.474  29.511  1.00  0.00     0.031 C 
ATOM     63  C   UNL A   1      41.536  31.971  31.931  1.00  0.00     0.029 A 
ATOM     64  C   UNL A   1      41.814  32.430  30.653  1.00  0.00     0.049 A 
ATOM     65  H   UNL A   1      40.474  33.076  29.165  1.00  0.00     0.167 HD
ATOM     66  C   UNL A   1      43.957  31.743  29.808  1.00  0.00     0.074 A 
ATOM     67  C   UNL A   1      45.396  31.720  29.601  1.00  0.00     0.031 C 
ATOM     68  C   UNL A   1      43.055  32.758  29.962  1.00  0.00     0.037 A 
BRANCH  55  69
ATOM     69  C   UNL A   1      36.937  32.588  30.786  1.00  0.00     0.064 A 
ATOM     70  C   UNL A   1      36.225  33.476  29.947  1.00  0.00     0.173 A 
ATOM     71  C   UNL A   1      36.350  32.395  32.054  1.00  0.00     0.173 A 
ATOM     72  F   UNL A   1      36.628  33.725  28.693  1.00  0.00    -0.203 F 
ATOM     73  C   UNL A   1      35.071  34.150  30.358  1.00  0.00     0.198 A 
ATOM     74  C   UNL A   1      35.205  33.085  32.472  1.00  0.00     0.198 A 
ATOM     75  F   UNL A   1      36.824  31.509  32.931  1.00  0.00    -0.203 F 
ATOM     76  F   UNL A   1      34.457  34.989  29.512  1.00  0.00    -0.200 F 
ATOM     77  C   UNL A   1      34.568  33.966  31.627  1.00  0.00     0.200 A 
ATOM     78  F   UNL A   1      34.723  32.881  33.708  1.00  0.00    -0.200 F 
ATOM     79  F   UNL A   1      33.468  34.619  32.026  1.00  0.00    -0.200 F 
ENDBRANCH  55  69
BRANCH  56  80
ATOM     80  C   UNL A   1      45.136  27.221  28.819  1.00  0.00     0.064 A 
ATOM     81  C   UNL A   1      44.888  27.665  27.506  1.00  0.00     0.173 A 
ATOM     82  C   UNL A   1      46.300  26.482  29.049  1.00  0.00     0.173 A 
ATOM     83  F   UNL A   1      43.715  28.246  27.207  1.00  0.00    -0.203 F 
ATOM     84  C   UNL A   1      45.949  27.809  26.628  1.00  0.00     0.198 A 
ATOM     85  C   UNL A   1      47.325  26.520  28.112  1.00  0.00     0.198 A 
ATOM     86  F   UNL A   1      46.511  25.890  30.233  1.00  0.00    -0.203 F 
ATOM     87  F   UNL A   1      45.817  28.582  25.540  1.00  0.00    -0.200 F 
ATOM     88  C   UNL A   1      47.188  27.297  26.969  1.00  0.00     0.200 A 
ATOM     89  F   UNL A   1      48.486  25.904  28.373  1.00  0.00    -0.200 F 
ATOM     90  F   UNL A   1      48.254  27.627  26.234  1.00  0.00    -0.200 F 
ENDBRANCH  56  80
BRANCH  68  91
ATOM     91  C   UNL A   1      43.325  34.192  29.583  1.00  0.00     0.064 A 
ATOM     92  C   UNL A   1      43.463  35.232  30.517  1.00  0.00     0.173 A 
ATOM     93  C   UNL A   1      43.585  34.550  28.238  1.00  0.00     0.173 A 
ATOM     94  F   UNL A   1      43.449  35.001  31.836  1.00  0.00    -0.203 F 
ATOM     95  C   UNL A   1      43.687  36.549  30.126  1.00  0.00     0.198 A 
ATOM     96  C   UNL A   1      43.918  35.848  27.864  1.00  0.00     0.198 A 
ATOM     97  F   UNL A   1      43.557  33.654  27.242  1.00  0.00    -0.203 F 
ATOM     98  F   UNL A   1      43.699  37.518  31.053  1.00  0.00    -0.200 F 
ATOM     99  C   UNL A   1      43.926  36.856  28.802  1.00  0.00     0.200 A 
ATOM    100  F   UNL A   1      44.245  36.108  26.591  1.00  0.00    -0.200 F 
ATOM    101  F   UNL A   1      44.191  38.116  28.437  1.00  0.00    -0.200 F 
ENDBRANCH  68  91
ENDBRANCH  42  43
ENDBRANCH  34  37
ENDBRANCH  32  33
ENDBRANCH   1  32
TORSDOF 15
ENDMDL
MODEL 3
REMARK VINA RESULT:     -13.9      3.547      9.667
REMARK SMILES Cc1ccccc1OC1(C(=O)NCCCNC(=O)c2ccc(-c3c4nc(c(-c5c(F)c(F)c(F)c(F)c5F)c5ccc([nH]5)c(-c5c(F)c(F)c(F)c(F)c5F)c5nc(c(-c6c(F)c(F)c(F)c(F)c6F)c6ccc3[nH]6)C=C5)C=C4)cc2)CCN(c2ncc(C#N)c(N)n2)CC1
REMARK SMILES IDX 14 1 13 2 12 3 10 4 11 5 9 7 82 8 95 9 83 10 94 11 84 12
REMARK SMILES IDX 8 13 7 14 1 15 2 16 3 17 4 18 6 19 5 20 85 21 86 22 93 23
REMARK SMILES IDX 87 24 91 25 88 26 92 27 89 30 90 31 15 32 16 33 17 34 18 36
REMARK SMILES IDX 19 37 20 38 81 39 21 40 80 41 22 42 23 43 24 44 74 45 25 46
REMARK SMILES IDX 79 47 73 48 75 49 26 50 78 51 72 52 71 53 27 55 59 56 39 57
REMARK SMILES IDX 58 58 40 59 43 60 57 61 76 62 41 63 42 64 56 66 77 67 44 68
REMARK SMILES IDX 28 69 29 70 37 71 30 72 31 73 35 74 38 75 32 76 33 77 36 78
REMARK SMILES IDX 34 79 60 80 61 81 69 82 62 83 63 84 67 85 70 86 64 87 65 88
REMARK SMILES IDX 68 89 66 90 45 91 46 92 54 93 47 94 48 95 52 96 55 97 49 98
REMARK SMILES IDX 50 99 53 100 51 101
REMARK H PARENT 12 6 92 28 92 29 16 35 75 54 43 65
REMARK Flexibility Score: inf
ROOT
ATOM      1  C   UNL A   1      37.195  20.751  24.770  1.00  0.00     0.042 C 
ENDROOT
BRANCH   1   2
ATOM      2  C   UNL A   1      35.679  20.635  24.886  1.00  0.00     0.118 C 
BRANCH   2   3
ATOM      3  N   UNL A   1      35.129  21.076  26.176  1.00  0.00    -0.353 N 
ATOM      4  C   UNL A   1      33.846  21.372  26.609  1.00  0.00     0.264 C 
ATOM      5  O   UNL A   1      33.727  21.565  27.825  1.00  0.00    -0.270 OA
ATOM      6  H   UNL A   1      35.813  21.185  26.877  1.00  0.00     0.163 HD
BRANCH   4   7
ATOM      7  C   UNL A   1      32.612  21.496  25.609  1.00  0.00     0.190 C 
ATOM      8  C   UNL A   1      31.604  22.318  26.409  1.00  0.00     0.080 C 
ATOM      9  C   UNL A   1      33.241  21.988  24.305  1.00  0.00     0.080 C 
ATOM     10  C   UNL A   1      31.208  23.660  25.840  1.00  0.00     0.124 C 
ATOM     11  C   UNL A   1      32.677  23.270  23.735  1.00  0.00     0.124 C 
ATOM     12  N   UNL A   1      32.007  24.122  24.710  1.00  0.00    -0.340 N 
BRANCH   7  13
ATOM     13  O   UNL A   1      32.058  20.166  25.386  1.00  0.00    -0.477 OA
BRANCH  13  14
ATOM     14  C   UNL A   1      32.531  19.079  24.686  1.00  0.00     0.123 A 
ATOM     15  C   UNL A   1      32.153  19.518  22.138  1.00  0.00     0.048 C 
ATOM     16  C   UNL A   1      32.602  18.742  23.320  1.00  0.00    -0.009 A 
ATOM     17  C   UNL A   1      33.164  17.506  22.905  1.00  0.00     0.007 A 
ATOM     18  C   UNL A   1      33.657  16.588  23.809  1.00  0.00     0.001 A 
ATOM     19  C   UNL A   1      33.045  18.116  25.579  1.00  0.00     0.047 A 
ATOM     20  C   UNL A   1      33.595  16.895  25.156  1.00  0.00     0.004 A 
ENDBRANCH  13  14
ENDBRANCH   7  13
BRANCH  12  21
ATOM     21  C   UNL A   1      31.392  25.235  24.136  1.00  0.00     0.227 A 
ATOM     22  N   UNL A   1      32.188  26.193  23.652  1.00  0.00    -0.220 NA
ATOM     23  N   UNL A   1      30.050  25.336  24.177  1.00  0.00    -0.195 NA
ATOM     24  C   UNL A   1      31.583  27.267  23.117  1.00  0.00     0.138 A 
ATOM     25  C   UNL A   1      29.473  26.437  23.673  1.00  0.00     0.147 A 
ATOM     26  C   UNL A   1      30.220  27.439  23.093  1.00  0.00     0.113 A 
BRANCH  25  27
ATOM     27  N   UNL A   1      28.109  26.529  23.875  1.00  0.00    -0.382 N 
ATOM     28  H   UNL A   1      27.575  25.714  24.019  1.00  0.00     0.158 HD
ATOM     29  H   UNL A   1      27.669  27.411  23.875  1.00  0.00     0.158 HD
ENDBRANCH  25  27
BRANCH  26  30
ATOM     30  C   UNL A   1      29.644  28.585  22.469  1.00  0.00     0.105 C 
ATOM     31  N   UNL A   1      29.145  29.489  21.961  1.00  0.00    -0.192 NA
ENDBRANCH  26  30
ENDBRANCH  12  21
ENDBRANCH   4   7
ENDBRANCH   2   3
ENDBRANCH   1   2
BRANCH   1  32
ATOM     32  C   UNL A   1      37.778  21.999  25.397  1.00  0.00     0.118 C 
BRANCH  32  33
ATOM     33  N   UNL A   1      39.027  21.823  26.137  1.00  0.00    -0.352 N 
ATOM     34  C   UNL A   1      39.861  22.777  26.717  1.00  0.00     0.251 C 
ATOM     35  H   UNL A   1      39.324  20.890  26.241  1.00  0.00     0.163 HD
ATOM     36  O   UNL A   1      40.865  22.426  27.330  1.00  0.00    -0.269 OA
BRANCH  34  37
ATOM     37  C   UNL A   1      39.435  24.205  26.766  1.00  0.00     0.039 A 
ATOM     38  C   UNL A   1      40.236  25.106  26.053  1.00  0.00     0.014 A 
ATOM     39  C   UNL A   1      38.717  24.645  27.863  1.00  0.00     0.014 A 
ATOM     40  C   UNL A   1      40.660  26.262  26.689  1.00  0.00     0.010 A 
ATOM     41  C   UNL A   1      39.278  25.662  28.588  1.00  0.00     0.010 A 
ATOM     42  C   UNL A   1      40.306  26.416  28.021  1.00  0.00    -0.014 A 
BRANCH  42  43
ATOM     43  C   UNL A   1      40.797  27.470  28.875  1.00  0.00     0.031 A 
ATOM     44  C   UNL A   1      39.890  28.624  28.976  1.00  0.00     0.074 A 
ATOM     45  C   UNL A   1      41.918  27.267  29.604  1.00  0.00     0.049 A 
ATOM     46  N   UNL A   1      40.247  29.802  29.323  1.00  0.00    -0.248 NA
ATOM     47  C   UNL A   1      38.478  28.555  28.586  1.00  0.00     0.031 C 
ATOM     48  C   UNL A   1      42.423  28.036  30.736  1.00  0.00     0.029 A 
ATOM     49  N   UNL A   1      42.946  26.340  29.346  1.00  0.00    -0.354 N 
ATOM     50  C   UNL A   1      39.098  30.545  29.513  1.00  0.00     0.074 A 
ATOM     51  C   UNL A   1      38.045  29.773  28.914  1.00  0.00     0.031 C 
ATOM     52  C   UNL A   1      43.741  27.797  30.874  1.00  0.00     0.029 A 
ATOM     53  C   UNL A   1      44.150  26.963  29.759  1.00  0.00     0.049 A 
ATOM     54  H   UNL A   1      42.848  25.441  28.956  1.00  0.00     0.167 HD
ATOM     55  C   UNL A   1      39.193  31.647  30.307  1.00  0.00     0.037 A 
ATOM     56  C   UNL A   1      45.115  27.299  28.847  1.00  0.00     0.037 A 
ATOM     57  C   UNL A   1      40.602  31.844  30.658  1.00  0.00     0.049 A 
ATOM     58  C   UNL A   1      45.212  28.788  28.681  1.00  0.00     0.074 A 
ATOM     59  C   UNL A   1      41.346  31.415  31.745  1.00  0.00     0.029 A 
ATOM     60  N   UNL A   1      41.511  32.125  29.641  1.00  0.00    -0.354 N 
ATOM     61  N   UNL A   1      44.243  29.611  28.974  1.00  0.00    -0.248 NA
ATOM     62  C   UNL A   1      46.425  29.457  28.236  1.00  0.00     0.031 C 
ATOM     63  C   UNL A   1      42.708  31.354  31.338  1.00  0.00     0.029 A 
ATOM     64  C   UNL A   1      42.795  31.774  30.020  1.00  0.00     0.049 A 
ATOM     65  H   UNL A   1      41.273  32.519  28.772  1.00  0.00     0.167 HD
ATOM     66  C   UNL A   1      44.691  30.893  28.832  1.00  0.00     0.074 A 
ATOM     67  C   UNL A   1      46.063  30.742  28.379  1.00  0.00     0.031 C 
ATOM     68  C   UNL A   1      43.918  31.984  29.115  1.00  0.00     0.037 A 
BRANCH  55  69
ATOM     69  C   UNL A   1      38.048  32.359  30.996  1.00  0.00     0.064 A 
ATOM     70  C   UNL A   1      37.791  32.099  32.362  1.00  0.00     0.173 A 
ATOM     71  C   UNL A   1      37.134  33.249  30.396  1.00  0.00     0.173 A 
ATOM     72  F   UNL A   1      38.599  31.312  33.087  1.00  0.00    -0.203 F 
ATOM     73  C   UNL A   1      36.692  32.631  33.044  1.00  0.00     0.198 A 
ATOM     74  C   UNL A   1      36.022  33.767  31.073  1.00  0.00     0.198 A 
ATOM     75  F   UNL A   1      37.288  33.693  29.147  1.00  0.00    -0.203 F 
ATOM     76  F   UNL A   1      36.503  32.328  34.336  1.00  0.00    -0.200 F 
ATOM     77  C   UNL A   1      35.798  33.454  32.395  1.00  0.00     0.200 A 
ATOM     78  F   UNL A   1      35.171  34.578  30.427  1.00  0.00    -0.200 F 
ATOM     79  F   UNL A   1      34.739  33.957  33.044  1.00  0.00    -0.200 F 
ENDBRANCH  55  69
BRANCH  56  80
ATOM     80  C   UNL A   1      45.292  26.275  27.770  1.00  0.00     0.064 A 
ATOM     81  C   UNL A   1      44.888  26.738  26.503  1.00  0.00     0.173 A 
ATOM     82  C   UNL A   1      46.393  25.417  27.831  1.00  0.00     0.173 A 
ATOM     83  F   UNL A   1      43.749  27.439  26.378  1.00  0.00    -0.203 F 
ATOM     84  C   UNL A   1      45.807  26.764  25.467  1.00  0.00     0.198 A 
ATOM     85  C   UNL A   1      47.257  25.342  26.744  1.00  0.00     0.198 A 
ATOM     86  F   UNL A   1      46.726  24.811  28.979  1.00  0.00    -0.203 F 
ATOM     87  F   UNL A   1      45.586  27.543  24.398  1.00  0.00    -0.200 F 
ATOM     88  C   UNL A   1      47.023  26.125  25.621  1.00  0.00     0.200 A 
ATOM     89  F   UNL A   1      48.373  24.608  26.833  1.00  0.00    -0.200 F 
ATOM     90  F   UNL A   1      47.988  26.337  24.722  1.00  0.00    -0.200 F 
ENDBRANCH  56  80
BRANCH  68  91
ATOM     91  C   UNL A   1      44.237  33.385  28.658  1.00  0.00     0.064 A 
ATOM     92  C   UNL A   1      44.195  33.795  27.315  1.00  0.00     0.173 A 
ATOM     93  C   UNL A   1      44.479  34.417  29.596  1.00  0.00     0.173 A 
ATOM     94  F   UNL A   1      43.777  32.975  26.341  1.00  0.00    -0.203 F 
ATOM     95  C   UNL A   1      44.520  35.092  26.929  1.00  0.00     0.198 A 
ATOM     96  C   UNL A   1      44.695  35.737  29.212  1.00  0.00     0.198 A 
ATOM     97  F   UNL A   1      44.485  34.194  30.918  1.00  0.00    -0.203 F 
ATOM     98  F   UNL A   1      44.571  35.398  25.625  1.00  0.00    -0.200 F 
ATOM     99  C   UNL A   1      44.759  36.066  27.876  1.00  0.00     0.200 A 
ATOM    100  F   UNL A   1      44.826  36.687  30.148  1.00  0.00    -0.200 F 
ATOM    101  F   UNL A   1      45.023  37.324  27.503  1.00  0.00    -0.200 F 
ENDBRANCH  68  91
ENDBRANCH  42  43
ENDBRANCH  34  37
ENDBRANCH  32  33
ENDBRANCH   1  32
TORSDOF 15
ENDMDL
