MODEL 1
REMARK VINA RESULT:     -13.4      0.000      0.000
REMARK SMILES C[NH+]1CCC([NH+]2CCC(Oc3ccc4ccccc4c3)(C(=O)NCCCNC(=O)c3ccc(-c4c5nc(c(-c6c(F)c(F)c(F)c(F)c6F)c6ccc([nH]6)c(-c6c(F)c(F)c(F)c(F)c6F)c6nc(c(-c7c(F)c(F)c(F)c(F)c7F)c7ccc4[nH]7)C=C6)C=C5)cc3)CC2)CC1
REMARK SMILES IDX 25 1 24 2 23 3 21 4 22 5 9 7 6 8 7 9 94 10 8 12 93 13 5 14
REMARK SMILES IDX 1 15 2 16 3 17 96 18 4 20 95 21 10 22 11 23 12 24 20 25
REMARK SMILES IDX 13 26 19 27 14 28 18 29 15 30 17 31 16 32 26 33 27 34 28 35
REMARK SMILES IDX 29 37 30 38 31 39 92 40 32 41 91 42 33 43 34 44 35 45 85 46
REMARK SMILES IDX 36 47 90 48 84 49 86 50 37 51 89 52 83 53 82 54 38 56 70 57
REMARK SMILES IDX 50 58 69 59 51 60 54 61 68 62 87 63 52 64 53 65 67 67 88 68
REMARK SMILES IDX 55 69 39 70 40 71 48 72 41 73 42 74 46 75 49 76 43 77 44 78
REMARK SMILES IDX 47 79 45 80 71 81 72 82 80 83 73 84 74 85 78 86 81 87 75 88
REMARK SMILES IDX 76 89 79 90 77 91 56 92 57 93 65 94 58 95 59 96 63 97 66 98
REMARK SMILES IDX 60 99 61 100 64 101 62 102
REMARK H PARENT 23 6 6 11 2 19 27 36 86 55 54 66
REMARK Flexibility Score: inf
ROOT
ATOM      1  C   UNL A   1      33.915  31.500  27.126  1.00  0.00     0.042 C 
ENDROOT
BRANCH   1   2
ATOM      2  C   UNL A   1      34.071  29.994  27.317  1.00  0.00     0.118 C 
BRANCH   2   3
ATOM      3  N   UNL A   1      32.834  29.362  27.744  1.00  0.00    -0.353 N 
ATOM      4  C   UNL A   1      32.151  28.292  27.235  1.00  0.00     0.264 C 
ATOM      5  O   UNL A   1      31.180  27.916  27.902  1.00  0.00    -0.270 OA
ATOM      6  H   UNL A   1      32.417  29.774  28.535  1.00  0.00     0.163 HD
BRANCH   4   7
ATOM      7  C   UNL A   1      32.561  27.611  25.894  1.00  0.00     0.197 C 
ATOM      8  N   UNL A   1      30.792  28.823  23.869  1.00  0.00    -0.332 N 
ATOM      9  C   UNL A   1      31.859  29.599  24.508  1.00  0.00     0.267 C 
ATOM     10  C   UNL A   1      30.258  27.794  24.779  1.00  0.00     0.267 C 
ATOM     11  H   UNL A   1      31.226  28.344  23.080  1.00  0.00     0.348 HD
ATOM     12  C   UNL A   1      33.004  28.663  24.872  1.00  0.00     0.120 C 
ATOM     13  C   UNL A   1      31.354  26.849  25.306  1.00  0.00     0.120 C 
BRANCH   8  14
ATOM     14  C   UNL A   1      29.722  29.655  23.263  1.00  0.00     0.195 C 
ATOM     15  C   UNL A   1      27.800  32.836  21.070  1.00  0.00     0.332 C 
ATOM     16  N   UNL A   1      28.766  31.976  21.752  1.00  0.00    -0.337 N 
ATOM     17  C   UNL A   1      28.838  30.660  21.103  1.00  0.00     0.268 C 
ATOM     18  C   UNL A   1      28.426  31.832  23.172  1.00  0.00     0.268 C 
ATOM     19  H   UNL A   1      29.683  32.416  21.687  1.00  0.00     0.347 HD
ATOM     20  C   UNL A   1      29.935  29.809  21.742  1.00  0.00     0.126 C 
ATOM     21  C   UNL A   1      29.507  31.037  23.907  1.00  0.00     0.126 C 
ENDBRANCH   8  14
BRANCH   7  22
ATOM     22  O   UNL A   1      33.602  26.714  26.353  1.00  0.00    -0.477 OA
BRANCH  22  23
ATOM     23  C   UNL A   1      33.771  25.507  25.745  1.00  0.00     0.121 A 
ATOM     24  C   UNL A   1      34.461  25.364  24.548  1.00  0.00     0.047 A 
ATOM     25  C   UNL A   1      33.385  24.376  26.463  1.00  0.00     0.055 A 
ATOM     26  C   UNL A   1      34.670  24.094  24.007  1.00  0.00     0.012 A 
ATOM     27  C   UNL A   1      33.620  23.088  25.953  1.00  0.00    -0.015 A 
ATOM     28  C   UNL A   1      34.251  22.947  24.696  1.00  0.00    -0.018 A 
ATOM     29  C   UNL A   1      33.254  21.936  26.667  1.00  0.00     0.009 A 
ATOM     30  C   UNL A   1      34.470  21.664  24.173  1.00  0.00     0.009 A 
ATOM     31  C   UNL A   1      33.491  20.666  26.140  1.00  0.00     0.001 A 
ATOM     32  C   UNL A   1      34.091  20.530  24.891  1.00  0.00     0.001 A 
ENDBRANCH  22  23
ENDBRANCH   7  22
ENDBRANCH   4   7
ENDBRANCH   2   3
ENDBRANCH   1   2
BRANCH   1  33
ATOM     33  C   UNL A   1      32.504  32.025  27.365  1.00  0.00     0.118 C 
BRANCH  33  34
ATOM     34  N   UNL A   1      32.464  33.467  27.546  1.00  0.00    -0.352 N 
ATOM     35  C   UNL A   1      33.203  34.285  28.363  1.00  0.00     0.251 C 
ATOM     36  H   UNL A   1      31.798  33.934  26.992  1.00  0.00     0.163 HD
ATOM     37  O   UNL A   1      32.877  35.464  28.488  1.00  0.00    -0.269 OA
BRANCH  35  38
ATOM     38  C   UNL A   1      34.373  33.772  29.112  1.00  0.00     0.039 A 
ATOM     39  C   UNL A   1      34.148  32.919  30.196  1.00  0.00     0.014 A 
ATOM     40  C   UNL A   1      35.677  34.162  28.796  1.00  0.00     0.014 A 
ATOM     41  C   UNL A   1      35.228  32.411  30.925  1.00  0.00     0.010 A 
ATOM     42  C   UNL A   1      36.758  33.601  29.476  1.00  0.00     0.010 A 
ATOM     43  C   UNL A   1      36.544  32.725  30.550  1.00  0.00    -0.014 A 
BRANCH  43  44
ATOM     44  C   UNL A   1      37.704  32.144  31.274  1.00  0.00     0.031 A 
ATOM     45  C   UNL A   1      38.481  31.005  30.679  1.00  0.00     0.074 A 
ATOM     46  C   UNL A   1      38.019  32.604  32.501  1.00  0.00     0.049 A 
ATOM     47  N   UNL A   1      39.483  30.330  31.185  1.00  0.00    -0.248 NA
ATOM     48  C   UNL A   1      38.063  30.545  29.345  1.00  0.00     0.031 C 
ATOM     49  C   UNL A   1      37.311  33.670  33.211  1.00  0.00     0.029 A 
ATOM     50  N   UNL A   1      39.009  32.225  33.372  1.00  0.00    -0.354 N 
ATOM     51  C   UNL A   1      39.799  29.357  30.246  1.00  0.00     0.074 A 
ATOM     52  C   UNL A   1      38.858  29.501  29.157  1.00  0.00     0.031 C 
ATOM     53  C   UNL A   1      37.898  33.871  34.400  1.00  0.00     0.029 A 
ATOM     54  C   UNL A   1      39.004  32.929  34.550  1.00  0.00     0.049 A 
ATOM     55  H   UNL A   1      39.662  31.516  33.170  1.00  0.00     0.167 HD
ATOM     56  C   UNL A   1      40.796  28.440  30.281  1.00  0.00     0.037 A 
ATOM     57  C   UNL A   1      39.797  32.824  35.634  1.00  0.00     0.037 A 
ATOM     58  C   UNL A   1      41.753  28.320  31.349  1.00  0.00     0.049 A 
ATOM     59  C   UNL A   1      40.910  31.812  35.637  1.00  0.00     0.074 A 
ATOM     60  C   UNL A   1      42.844  27.473  31.439  1.00  0.00     0.029 A 
ATOM     61  N   UNL A   1      41.733  29.072  32.515  1.00  0.00    -0.354 N 
ATOM     62  N   UNL A   1      41.242  30.946  34.713  1.00  0.00    -0.248 NA
ATOM     63  C   UNL A   1      41.762  31.770  36.834  1.00  0.00     0.031 C 
ATOM     64  C   UNL A   1      43.463  27.685  32.677  1.00  0.00     0.029 A 
ATOM     65  C   UNL A   1      42.781  28.693  33.339  1.00  0.00     0.049 A 
ATOM     66  H   UNL A   1      41.072  29.770  32.726  1.00  0.00     0.167 HD
ATOM     67  C   UNL A   1      42.352  30.271  35.202  1.00  0.00     0.074 A 
ATOM     68  C   UNL A   1      42.646  30.840  36.502  1.00  0.00     0.031 C 
ATOM     69  C   UNL A   1      43.061  29.269  34.629  1.00  0.00     0.037 A 
BRANCH  56  70
ATOM     70  C   UNL A   1      40.906  27.493  29.122  1.00  0.00     0.064 A 
ATOM     71  C   UNL A   1      41.895  27.645  28.139  1.00  0.00     0.173 A 
ATOM     72  C   UNL A   1      40.035  26.398  29.014  1.00  0.00     0.173 A 
ATOM     73  F   UNL A   1      42.745  28.682  28.192  1.00  0.00    -0.203 F 
ATOM     74  C   UNL A   1      41.991  26.752  27.076  1.00  0.00     0.198 A 
ATOM     75  C   UNL A   1      40.151  25.492  27.962  1.00  0.00     0.198 A 
ATOM     76  F   UNL A   1      39.075  26.203  29.930  1.00  0.00    -0.203 F 
ATOM     77  F   UNL A   1      42.915  26.943  26.124  1.00  0.00    -0.200 F 
ATOM     78  C   UNL A   1      41.123  25.673  26.991  1.00  0.00     0.200 A 
ATOM     79  F   UNL A   1      39.320  24.443  27.889  1.00  0.00    -0.200 F 
ATOM     80  F   UNL A   1      41.220  24.812  25.969  1.00  0.00    -0.200 F 
ENDBRANCH  56  70
BRANCH  57  81
ATOM     81  C   UNL A   1      39.581  33.722  36.795  1.00  0.00     0.064 A 
ATOM     82  C   UNL A   1      38.786  33.318  37.878  1.00  0.00     0.173 A 
ATOM     83  C   UNL A   1      40.167  34.995  36.853  1.00  0.00     0.173 A 
ATOM     84  F   UNL A   1      38.190  32.117  37.857  1.00  0.00    -0.203 F 
ATOM     85  C   UNL A   1      38.571  34.160  38.966  1.00  0.00     0.198 A 
ATOM     86  C   UNL A   1      39.971  35.826  37.953  1.00  0.00     0.198 A 
ATOM     87  F   UNL A   1      40.939  35.424  35.844  1.00  0.00    -0.203 F 
ATOM     88  F   UNL A   1      37.776  33.765  39.969  1.00  0.00    -0.200 F 
ATOM     89  C   UNL A   1      39.168  35.411  39.006  1.00  0.00     0.200 A 
ATOM     90  F   UNL A   1      40.560  37.029  37.994  1.00  0.00    -0.200 F 
ATOM     91  F   UNL A   1      38.966  36.219  40.054  1.00  0.00    -0.200 F 
ENDBRANCH  57  81
BRANCH  69  92
ATOM     92  C   UNL A   1      44.239  28.741  35.392  1.00  0.00     0.064 A 
ATOM     93  C   UNL A   1      44.113  27.662  36.278  1.00  0.00     0.173 A 
ATOM     94  C   UNL A   1      45.512  29.302  35.213  1.00  0.00     0.173 A 
ATOM     95  F   UNL A   1      42.913  27.103  36.496  1.00  0.00    -0.203 F 
ATOM     96  C   UNL A   1      45.217  27.178  36.975  1.00  0.00     0.198 A 
ATOM     97  C   UNL A   1      46.618  28.798  35.892  1.00  0.00     0.198 A 
ATOM     98  F   UNL A   1      45.685  30.334  34.374  1.00  0.00    -0.203 F 
ATOM     99  F   UNL A   1      45.067  26.174  37.851  1.00  0.00    -0.200 F 
ATOM    100  C   UNL A   1      46.469  27.742  36.777  1.00  0.00     0.200 A 
ATOM    101  F   UNL A   1      47.829  29.338  35.693  1.00  0.00    -0.200 F 
ATOM    102  F   UNL A   1      47.530  27.272  37.447  1.00  0.00    -0.200 F 
ENDBRANCH  69  92
ENDBRANCH  43  44
ENDBRANCH  35  38
ENDBRANCH  33  34
ENDBRANCH   1  33
TORSDOF 13
ENDMDL
MODEL 2
REMARK VINA RESULT:     -13.3      5.496     11.269
REMARK SMILES C[NH+]1CCC([NH+]2CCC(Oc3ccc4ccccc4c3)(C(=O)NCCCNC(=O)c3ccc(-c4c5nc(c(-c6c(F)c(F)c(F)c(F)c6F)c6ccc([nH]6)c(-c6c(F)c(F)c(F)c(F)c6F)c6nc(c(-c7c(F)c(F)c(F)c(F)c7F)c7ccc4[nH]7)C=C6)C=C5)cc3)CC2)CC1
REMARK SMILES IDX 25 1 24 2 23 3 21 4 22 5 9 7 6 8 7 9 94 10 8 12 93 13 5 14
REMARK SMILES IDX 1 15 2 16 3 17 96 18 4 20 95 21 10 22 11 23 12 24 20 25
REMARK SMILES IDX 13 26 19 27 14 28 18 29 15 30 17 31 16 32 26 33 27 34 28 35
REMARK SMILES IDX 29 37 30 38 31 39 92 40 32 41 91 42 33 43 34 44 35 45 85 46
REMARK SMILES IDX 36 47 90 48 84 49 86 50 37 51 89 52 83 53 82 54 38 56 70 57
REMARK SMILES IDX 50 58 69 59 51 60 54 61 68 62 87 63 52 64 53 65 67 67 88 68
REMARK SMILES IDX 55 69 39 70 40 71 48 72 41 73 42 74 46 75 49 76 43 77 44 78
REMARK SMILES IDX 47 79 45 80 71 81 72 82 80 83 73 84 74 85 78 86 81 87 75 88
REMARK SMILES IDX 76 89 79 90 77 91 56 92 57 93 65 94 58 95 59 96 63 97 66 98
REMARK SMILES IDX 60 99 61 100 64 101 62 102
REMARK H PARENT 23 6 6 11 2 19 27 36 86 55 54 66
REMARK Flexibility Score: inf
ROOT
ATOM      1  C   UNL A   1      38.850  21.613  26.421  1.00  0.00     0.042 C 
ENDROOT
BRANCH   1   2
ATOM      2  C   UNL A   1      38.106  22.859  25.947  1.00  0.00     0.118 C 
BRANCH   2   3
ATOM      3  N   UNL A   1      37.705  22.765  24.554  1.00  0.00    -0.353 N 
ATOM      4  C   UNL A   1      36.492  22.960  23.953  1.00  0.00     0.264 C 
ATOM      5  O   UNL A   1      36.500  22.923  22.717  1.00  0.00    -0.270 OA
ATOM      6  H   UNL A   1      38.432  22.519  23.936  1.00  0.00     0.163 HD
BRANCH   4   7
ATOM      7  C   UNL A   1      35.189  23.193  24.777  1.00  0.00     0.197 C 
ATOM      8  N   UNL A   1      33.877  20.553  24.860  1.00  0.00    -0.332 N 
ATOM      9  C   UNL A   1      35.117  20.809  25.599  1.00  0.00     0.267 C 
ATOM     10  C   UNL A   1      33.810  21.360  23.629  1.00  0.00     0.267 C 
ATOM     11  H   UNL A   1      33.118  20.855  25.471  1.00  0.00     0.348 HD
ATOM     12  C   UNL A   1      35.160  22.276  26.004  1.00  0.00     0.120 C 
ATOM     13  C   UNL A   1      33.957  22.868  23.905  1.00  0.00     0.120 C 
BRANCH   8  14
ATOM     14  C   UNL A   1      33.610  19.114  24.611  1.00  0.00     0.195 C 
ATOM     15  C   UNL A   1      33.252  14.869  25.300  1.00  0.00     0.332 C 
ATOM     16  N   UNL A   1      33.534  16.299  25.419  1.00  0.00    -0.337 N 
ATOM     17  C   UNL A   1      32.291  17.079  25.370  1.00  0.00     0.268 C 
ATOM     18  C   UNL A   1      34.460  16.738  24.369  1.00  0.00     0.268 C 
ATOM     19  H   UNL A   1      33.978  16.460  26.322  1.00  0.00     0.347 HD
ATOM     20  C   UNL A   1      32.579  18.560  25.617  1.00  0.00     0.126 C 
ATOM     21  C   UNL A   1      34.851  18.203  24.572  1.00  0.00     0.126 C 
ENDBRANCH   8  14
BRANCH   7  22
ATOM     22  O   UNL A   1      35.299  24.609  25.061  1.00  0.00    -0.477 OA
BRANCH  22  23
ATOM     23  C   UNL A   1      34.183  25.390  25.044  1.00  0.00     0.121 A 
ATOM     24  C   UNL A   1      33.329  25.499  26.135  1.00  0.00     0.047 A 
ATOM     25  C   UNL A   1      34.018  26.236  23.947  1.00  0.00     0.055 A 
ATOM     26  C   UNL A   1      32.242  26.372  26.089  1.00  0.00     0.012 A 
ATOM     27  C   UNL A   1      32.951  27.148  23.899  1.00  0.00    -0.015 A 
ATOM     28  C   UNL A   1      32.037  27.199  24.977  1.00  0.00    -0.018 A 
ATOM     29  C   UNL A   1      32.776  28.019  22.812  1.00  0.00     0.009 A 
ATOM     30  C   UNL A   1      30.957  28.094  24.925  1.00  0.00     0.009 A 
ATOM     31  C   UNL A   1      31.706  28.914  22.781  1.00  0.00     0.001 A 
ATOM     32  C   UNL A   1      30.793  28.946  23.832  1.00  0.00     0.001 A 
ENDBRANCH  22  23
ENDBRANCH   7  22
ENDBRANCH   4   7
ENDBRANCH   2   3
ENDBRANCH   1   2
BRANCH   1  33
ATOM     33  C   UNL A   1      38.915  20.488  25.396  1.00  0.00     0.118 C 
BRANCH  33  34
ATOM     34  N   UNL A   1      39.905  19.477  25.732  1.00  0.00    -0.352 N 
ATOM     35  C   UNL A   1      41.215  19.605  26.119  1.00  0.00     0.251 C 
ATOM     36  H   UNL A   1      39.583  18.549  25.672  1.00  0.00     0.163 HD
ATOM     37  O   UNL A   1      41.925  18.603  26.181  1.00  0.00    -0.269 OA
BRANCH  35  38
ATOM     38  C   UNL A   1      41.797  20.927  26.445  1.00  0.00     0.039 A 
ATOM     39  C   UNL A   1      42.107  21.796  25.394  1.00  0.00     0.014 A 
ATOM     40  C   UNL A   1      42.090  21.298  27.760  1.00  0.00     0.014 A 
ATOM     41  C   UNL A   1      42.653  23.054  25.663  1.00  0.00     0.010 A 
ATOM     42  C   UNL A   1      42.568  22.579  28.035  1.00  0.00     0.010 A 
ATOM     43  C   UNL A   1      42.860  23.467  26.989  1.00  0.00    -0.014 A 
BRANCH  43  44
ATOM     44  C   UNL A   1      43.381  24.825  27.294  1.00  0.00     0.031 A 
ATOM     45  C   UNL A   1      42.473  25.880  27.860  1.00  0.00     0.074 A 
ATOM     46  C   UNL A   1      44.662  25.125  27.003  1.00  0.00     0.049 A 
ATOM     47  N   UNL A   1      42.730  27.135  28.134  1.00  0.00    -0.248 NA
ATOM     48  C   UNL A   1      41.084  25.480  28.131  1.00  0.00     0.031 C 
ATOM     49  C   UNL A   1      45.630  24.206  26.404  1.00  0.00     0.029 A 
ATOM     50  N   UNL A   1      45.365  26.293  27.161  1.00  0.00    -0.354 N 
ATOM     51  C   UNL A   1      41.536  27.676  28.588  1.00  0.00     0.074 A 
ATOM     52  C   UNL A   1      40.542  26.627  28.515  1.00  0.00     0.031 C 
ATOM     53  C   UNL A   1      46.805  24.837  26.260  1.00  0.00     0.029 A 
ATOM     54  C   UNL A   1      46.666  26.214  26.727  1.00  0.00     0.049 A 
ATOM     55  H   UNL A   1      44.975  27.109  27.549  1.00  0.00     0.167 HD
ATOM     56  C   UNL A   1      41.294  28.930  29.043  1.00  0.00     0.037 A 
ATOM     57  C   UNL A   1      47.635  27.148  26.703  1.00  0.00     0.037 A 
ATOM     58  C   UNL A   1      42.291  29.962  29.149  1.00  0.00     0.049 A 
ATOM     59  C   UNL A   1      47.347  28.524  27.234  1.00  0.00     0.074 A 
ATOM     60  C   UNL A   1      42.160  31.239  29.667  1.00  0.00     0.029 A 
ATOM     61  N   UNL A   1      43.606  29.836  28.726  1.00  0.00    -0.354 N 
ATOM     62  N   UNL A   1      46.232  29.004  27.726  1.00  0.00    -0.248 NA
ATOM     63  C   UNL A   1      48.456  29.488  27.212  1.00  0.00     0.031 C 
ATOM     64  C   UNL A   1      43.386  31.899  29.524  1.00  0.00     0.029 A 
ATOM     65  C   UNL A   1      44.292  31.019  28.954  1.00  0.00     0.049 A 
ATOM     66  H   UNL A   1      43.995  29.026  28.323  1.00  0.00     0.167 HD
ATOM     67  C   UNL A   1      46.507  30.313  28.093  1.00  0.00     0.074 A 
ATOM     68  C   UNL A   1      47.902  30.550  27.780  1.00  0.00     0.031 C 
ATOM     69  C   UNL A   1      45.680  31.238  28.638  1.00  0.00     0.037 A 
BRANCH  56  70
ATOM     70  C   UNL A   1      39.892  29.253  29.469  1.00  0.00     0.064 A 
ATOM     71  C   UNL A   1      38.901  29.594  28.537  1.00  0.00     0.173 A 
ATOM     72  C   UNL A   1      39.526  29.184  30.822  1.00  0.00     0.173 A 
ATOM     73  F   UNL A   1      39.203  29.683  27.233  1.00  0.00    -0.203 F 
ATOM     74  C   UNL A   1      37.601  29.880  28.946  1.00  0.00     0.198 A 
ATOM     75  C   UNL A   1      38.218  29.446  31.224  1.00  0.00     0.198 A 
ATOM     76  F   UNL A   1      40.434  28.857  31.753  1.00  0.00    -0.203 F 
ATOM     77  F   UNL A   1      36.682  30.248  28.042  1.00  0.00    -0.200 F 
ATOM     78  C   UNL A   1      37.260  29.801  30.288  1.00  0.00     0.200 A 
ATOM     79  F   UNL A   1      37.887  29.356  32.520  1.00  0.00    -0.200 F 
ATOM     80  F   UNL A   1      36.007  30.073  30.679  1.00  0.00    -0.200 F 
ENDBRANCH  56  70
BRANCH  57  81
ATOM     81  C   UNL A   1      48.980  26.800  26.179  1.00  0.00     0.064 A 
ATOM     82  C   UNL A   1      49.333  27.096  24.854  1.00  0.00     0.173 A 
ATOM     83  C   UNL A   1      49.939  26.175  26.987  1.00  0.00     0.173 A 
ATOM     84  F   UNL A   1      48.440  27.676  24.038  1.00  0.00    -0.203 F 
ATOM     85  C   UNL A   1      50.589  26.764  24.353  1.00  0.00     0.198 A 
ATOM     86  C   UNL A   1      51.204  25.866  26.492  1.00  0.00     0.198 A 
ATOM     87  F   UNL A   1      49.651  25.877  28.262  1.00  0.00    -0.203 F 
ATOM     88  F   UNL A   1      50.887  27.022  23.073  1.00  0.00    -0.200 F 
ATOM     89  C   UNL A   1      51.526  26.154  25.173  1.00  0.00     0.200 A 
ATOM     90  F   UNL A   1      52.111  25.288  27.291  1.00  0.00    -0.200 F 
ATOM     91  F   UNL A   1      52.735  25.838  24.694  1.00  0.00    -0.200 F 
ENDBRANCH  57  81
BRANCH  69  92
ATOM     92  C   UNL A   1      46.267  32.581  28.951  1.00  0.00     0.064 A 
ATOM     93  C   UNL A   1      46.214  33.637  28.031  1.00  0.00     0.173 A 
ATOM     94  C   UNL A   1      46.862  32.823  30.199  1.00  0.00     0.173 A 
ATOM     95  F   UNL A   1      45.669  33.450  26.819  1.00  0.00    -0.203 F 
ATOM     96  C   UNL A   1      46.757  34.881  28.339  1.00  0.00     0.198 A 
ATOM     97  C   UNL A   1      47.381  34.077  30.513  1.00  0.00     0.198 A 
ATOM     98  F   UNL A   1      46.934  31.847  31.115  1.00  0.00    -0.203 F 
ATOM     99  F   UNL A   1      46.736  35.864  27.427  1.00  0.00    -0.200 F 
ATOM    100  C   UNL A   1      47.334  35.102  29.581  1.00  0.00     0.200 A 
ATOM    101  F   UNL A   1      47.931  34.291  31.716  1.00  0.00    -0.200 F 
ATOM    102  F   UNL A   1      47.854  36.301  29.876  1.00  0.00    -0.200 F 
ENDBRANCH  69  92
ENDBRANCH  43  44
ENDBRANCH  35  38
ENDBRANCH  33  34
ENDBRANCH   1  33
TORSDOF 13
ENDMDL
MODEL 3
REMARK VINA RESULT:     -13.2      2.212      8.750
REMARK SMILES C[NH+]1CCC([NH+]2CCC(Oc3ccc4ccccc4c3)(C(=O)NCCCNC(=O)c3ccc(-c4c5nc(c(-c6c(F)c(F)c(F)c(F)c6F)c6ccc([nH]6)c(-c6c(F)c(F)c(F)c(F)c6F)c6nc(c(-c7c(F)c(F)c(F)c(F)c7F)c7ccc4[nH]7)C=C6)C=C5)cc3)CC2)CC1
REMARK SMILES IDX 25 1 24 2 23 3 21 4 22 5 9 7 6 8 7 9 94 10 8 12 93 13 5 14
REMARK SMILES IDX 1 15 2 16 3 17 96 18 4 20 95 21 10 22 11 23 12 24 20 25
REMARK SMILES IDX 13 26 19 27 14 28 18 29 15 30 17 31 16 32 26 33 27 34 28 35
REMARK SMILES IDX 29 37 30 38 31 39 92 40 32 41 91 42 33 43 34 44 35 45 85 46
REMARK SMILES IDX 36 47 90 48 84 49 86 50 37 51 89 52 83 53 82 54 38 56 70 57
REMARK SMILES IDX 50 58 69 59 51 60 54 61 68 62 87 63 52 64 53 65 67 67 88 68
REMARK SMILES IDX 55 69 39 70 40 71 48 72 41 73 42 74 46 75 49 76 43 77 44 78
REMARK SMILES IDX 47 79 45 80 71 81 72 82 80 83 73 84 74 85 78 86 81 87 75 88
REMARK SMILES IDX 76 89 79 90 77 91 56 92 57 93 65 94 58 95 59 96 63 97 66 98
REMARK SMILES IDX 60 99 61 100 64 101 62 102
REMARK H PARENT 23 6 6 11 2 19 27 36 86 55 54 66
REMARK Flexibility Score: inf
ROOT
ATOM      1  C   UNL A   1      31.953  28.353  26.071  1.00  0.00     0.042 C 
ENDROOT
BRANCH   1   2
ATOM      2  C   UNL A   1      32.541  26.956  26.249  1.00  0.00     0.118 C 
BRANCH   2   3
ATOM      3  N   UNL A   1      31.556  26.001  26.728  1.00  0.00    -0.353 N 
ATOM      4  C   UNL A   1      31.056  24.864  26.155  1.00  0.00     0.264 C 
ATOM      5  O   UNL A   1      30.309  24.191  26.875  1.00  0.00    -0.270 OA
ATOM      6  H   UNL A   1      31.187  26.207  27.617  1.00  0.00     0.163 HD
BRANCH   4   7
ATOM      7  C   UNL A   1      31.392  24.460  24.688  1.00  0.00     0.197 C 
ATOM      8  N   UNL A   1      34.022  23.135  24.862  1.00  0.00    -0.332 N 
ATOM      9  C   UNL A   1      32.815  22.504  25.405  1.00  0.00     0.267 C 
ATOM     10  C   UNL A   1      33.941  24.605  24.942  1.00  0.00     0.267 C 
ATOM     11  H   UNL A   1      34.053  22.880  23.875  1.00  0.00     0.348 HD
ATOM     12  C   UNL A   1      31.611  22.947  24.585  1.00  0.00     0.120 C 
ATOM     13  C   UNL A   1      32.690  25.165  24.238  1.00  0.00     0.120 C 
BRANCH   8  14
ATOM     14  C   UNL A   1      35.287  22.605  25.429  1.00  0.00     0.195 C 
ATOM     15  C   UNL A   1      39.489  21.732  25.874  1.00  0.00     0.332 C 
ATOM     16  N   UNL A   1      38.182  22.161  25.379  1.00  0.00    -0.337 N 
ATOM     17  C   UNL A   1      37.618  23.207  26.241  1.00  0.00     0.268 C 
ATOM     18  C   UNL A   1      37.262  21.023  25.279  1.00  0.00     0.268 C 
ATOM     19  H   UNL A   1      38.310  22.550  24.445  1.00  0.00     0.347 HD
ATOM     20  C   UNL A   1      36.311  23.738  25.653  1.00  0.00     0.126 C 
ATOM     21  C   UNL A   1      35.938  21.453  24.643  1.00  0.00     0.126 C 
ENDBRANCH   8  14
BRANCH   7  22
ATOM     22  O   UNL A   1      30.227  24.968  23.993  1.00  0.00    -0.477 OA
BRANCH  22  23
ATOM     23  C   UNL A   1      30.224  26.246  23.522  1.00  0.00     0.121 A 
ATOM     24  C   UNL A   1      31.264  26.764  22.759  1.00  0.00     0.047 A 
ATOM     25  C   UNL A   1      29.045  26.975  23.674  1.00  0.00     0.055 A 
ATOM     26  C   UNL A   1      31.175  28.056  22.239  1.00  0.00     0.012 A 
ATOM     27  C   UNL A   1      28.923  28.263  23.126  1.00  0.00    -0.015 A 
ATOM     28  C   UNL A   1      30.013  28.819  22.418  1.00  0.00    -0.018 A 
ATOM     29  C   UNL A   1      27.739  29.007  23.253  1.00  0.00     0.009 A 
ATOM     30  C   UNL A   1      29.903  30.112  21.886  1.00  0.00     0.009 A 
ATOM     31  C   UNL A   1      27.639  30.286  22.706  1.00  0.00     0.001 A 
ATOM     32  C   UNL A   1      28.723  30.842  22.030  1.00  0.00     0.001 A 
ENDBRANCH  22  23
ENDBRANCH   7  22
ENDBRANCH   4   7
ENDBRANCH   2   3
ENDBRANCH   1   2
BRANCH   1  33
ATOM     33  C   UNL A   1      32.936  29.390  25.541  1.00  0.00     0.118 C 
BRANCH  33  34
ATOM     34  N   UNL A   1      32.633  30.737  25.996  1.00  0.00    -0.352 N 
ATOM     35  C   UNL A   1      33.190  31.486  27.001  1.00  0.00     0.251 C 
ATOM     36  H   UNL A   1      31.911  31.186  25.501  1.00  0.00     0.163 HD
ATOM     37  O   UNL A   1      32.655  32.543  27.332  1.00  0.00    -0.269 OA
BRANCH  35  38
ATOM     38  C   UNL A   1      34.411  31.039  27.709  1.00  0.00     0.039 A 
ATOM     39  C   UNL A   1      35.400  31.986  27.995  1.00  0.00     0.014 A 
ATOM     40  C   UNL A   1      34.618  29.698  28.046  1.00  0.00     0.014 A 
ATOM     41  C   UNL A   1      36.564  31.602  28.666  1.00  0.00     0.010 A 
ATOM     42  C   UNL A   1      35.745  29.328  28.778  1.00  0.00     0.010 A 
ATOM     43  C   UNL A   1      36.733  30.275  29.091  1.00  0.00    -0.014 A 
BRANCH  43  44
ATOM     44  C   UNL A   1      37.935  29.865  29.861  1.00  0.00     0.031 A 
ATOM     45  C   UNL A   1      38.158  30.376  31.255  1.00  0.00     0.074 A 
ATOM     46  C   UNL A   1      38.860  29.076  29.277  1.00  0.00     0.049 A 
ATOM     47  N   UNL A   1      39.173  30.178  32.058  1.00  0.00    -0.248 NA
ATOM     48  C   UNL A   1      37.113  31.248  31.814  1.00  0.00     0.031 C 
ATOM     49  C   UNL A   1      38.786  28.556  27.912  1.00  0.00     0.029 A 
ATOM     50  N   UNL A   1      40.048  28.587  29.756  1.00  0.00    -0.354 N 
ATOM     51  C   UNL A   1      38.900  30.913  33.204  1.00  0.00     0.074 A 
ATOM     52  C   UNL A   1      37.645  31.595  32.978  1.00  0.00     0.031 C 
ATOM     53  C   UNL A   1      39.872  27.806  27.668  1.00  0.00     0.029 A 
ATOM     54  C   UNL A   1      40.733  27.819  28.847  1.00  0.00     0.049 A 
ATOM     55  H   UNL A   1      40.379  28.768  30.666  1.00  0.00     0.167 HD
ATOM     56  C   UNL A   1      39.622  30.996  34.348  1.00  0.00     0.037 A 
ATOM     57  C   UNL A   1      41.924  27.199  28.949  1.00  0.00     0.037 A 
ATOM     58  C   UNL A   1      40.853  30.289  34.585  1.00  0.00     0.049 A 
ATOM     59  C   UNL A   1      42.694  27.289  30.238  1.00  0.00     0.074 A 
ATOM     60  C   UNL A   1      41.617  30.250  35.739  1.00  0.00     0.029 A 
ATOM     61  N   UNL A   1      41.501  29.496  33.650  1.00  0.00    -0.354 N 
ATOM     62  N   UNL A   1      42.390  27.930  31.339  1.00  0.00    -0.248 NA
ATOM     63  C   UNL A   1      43.970  26.562  30.298  1.00  0.00     0.031 C 
ATOM     64  C   UNL A   1      42.748  29.464  35.490  1.00  0.00     0.029 A 
ATOM     65  C   UNL A   1      42.667  28.980  34.194  1.00  0.00     0.049 A 
ATOM     66  H   UNL A   1      41.181  29.327  32.735  1.00  0.00     0.167 HD
ATOM     67  C   UNL A   1      43.421  27.669  32.230  1.00  0.00     0.074 A 
ATOM     68  C   UNL A   1      44.353  26.796  31.546  1.00  0.00     0.031 C 
ATOM     69  C   UNL A   1      43.583  28.113  33.500  1.00  0.00     0.037 A 
BRANCH  56  70
ATOM     70  C   UNL A   1      39.092  31.882  35.438  1.00  0.00     0.064 A 
ATOM     71  C   UNL A   1      38.298  31.375  36.476  1.00  0.00     0.173 A 
ATOM     72  C   UNL A   1      39.414  33.247  35.463  1.00  0.00     0.173 A 
ATOM     73  F   UNL A   1      37.953  30.078  36.491  1.00  0.00    -0.203 F 
ATOM     74  C   UNL A   1      37.822  32.207  37.486  1.00  0.00     0.198 A 
ATOM     75  C   UNL A   1      38.959  34.071  36.490  1.00  0.00     0.198 A 
ATOM     76  F   UNL A   1      40.176  33.781  34.498  1.00  0.00    -0.203 F 
ATOM     77  F   UNL A   1      37.027  31.709  38.444  1.00  0.00    -0.200 F 
ATOM     78  C   UNL A   1      38.158  33.553  37.495  1.00  0.00     0.200 A 
ATOM     79  F   UNL A   1      39.295  35.368  36.504  1.00  0.00    -0.200 F 
ATOM     80  F   UNL A   1      37.704  34.351  38.471  1.00  0.00    -0.200 F 
ENDBRANCH  56  70
BRANCH  57  81
ATOM     81  C   UNL A   1      42.448  26.415  27.803  1.00  0.00     0.064 A 
ATOM     82  C   UNL A   1      43.237  27.024  26.817  1.00  0.00     0.173 A 
ATOM     83  C   UNL A   1      42.178  25.046  27.671  1.00  0.00     0.173 A 
ATOM     84  F   UNL A   1      43.505  28.336  26.891  1.00  0.00    -0.203 F 
ATOM     85  C   UNL A   1      43.723  26.297  25.734  1.00  0.00     0.198 A 
ATOM     86  C   UNL A   1      42.685  24.314  26.600  1.00  0.00     0.198 A 
ATOM     87  F   UNL A   1      41.432  24.417  28.591  1.00  0.00    -0.203 F 
ATOM     88  F   UNL A   1      44.443  26.911  24.785  1.00  0.00    -0.200 F 
ATOM     89  C   UNL A   1      43.452  24.941  25.628  1.00  0.00     0.200 A 
ATOM     90  F   UNL A   1      42.431  23.001  26.508  1.00  0.00    -0.200 F 
ATOM     91  F   UNL A   1      43.923  24.240  24.589  1.00  0.00    -0.200 F 
ENDBRANCH  57  81
BRANCH  69  92
ATOM     92  C   UNL A   1      44.800  27.644  34.239  1.00  0.00     0.064 A 
ATOM     93  C   UNL A   1      45.994  28.380  34.228  1.00  0.00     0.173 A 
ATOM     94  C   UNL A   1      44.764  26.459  34.990  1.00  0.00     0.173 A 
ATOM     95  F   UNL A   1      46.083  29.510  33.511  1.00  0.00    -0.203 F 
ATOM     96  C   UNL A   1      47.114  27.935  34.925  1.00  0.00     0.198 A 
ATOM     97  C   UNL A   1      45.878  26.031  35.707  1.00  0.00     0.198 A 
ATOM     98  F   UNL A   1      43.645  25.721  35.036  1.00  0.00    -0.203 F 
ATOM     99  F   UNL A   1      48.258  28.631  34.865  1.00  0.00    -0.200 F 
ATOM    100  C   UNL A   1      47.053  26.765  35.668  1.00  0.00     0.200 A 
ATOM    101  F   UNL A   1      45.816  24.906  36.432  1.00  0.00    -0.200 F 
ATOM    102  F   UNL A   1      48.132  26.341  36.340  1.00  0.00    -0.200 F 
ENDBRANCH  69  92
ENDBRANCH  43  44
ENDBRANCH  35  38
ENDBRANCH  33  34
ENDBRANCH   1  33
TORSDOF 13
ENDMDL
