MODEL 1
REMARK VINA RESULT:     -13.3      0.000      0.000
REMARK SMILES Cc1ccc(S(=O)(=O)Nc2cc(C(=O)NCCCNC(=O)c3ccc(-c4c5nc(c(-c6c(F)c(F)c(F)c(F)c6F)c6ccc([nH]6)c(-c6c(F)c(F)c(F)c(F)c6F)c6nc(c(-c7c(F)c(F)c(F)c(F)c7F)c7ccc4[nH]7)C=C6)C=C5)cc3)cnc2N2CCCC2)c(C)c1
REMARK SMILES IDX 16 1 15 2 13 3 14 4 12 6 10 7 11 8 87 9 86 10 85 11 9 12
REMARK SMILES IDX 6 14 7 15 8 16 5 17 1 18 2 19 3 20 95 21 4 22 93 23 94 24
REMARK SMILES IDX 88 25 89 26 92 27 90 28 91 29 17 30 18 31 19 32 20 33 21 35
REMARK SMILES IDX 22 36 23 37 84 38 24 39 83 40 25 41 26 42 27 43 77 44 28 45
REMARK SMILES IDX 82 46 76 47 78 48 29 49 81 50 75 51 74 52 30 54 62 55 42 56
REMARK SMILES IDX 61 57 43 58 46 59 60 60 79 61 44 62 45 63 59 65 80 66 47 67
REMARK SMILES IDX 31 68 32 69 40 70 33 71 34 72 38 73 41 74 35 75 36 76 39 77
REMARK SMILES IDX 37 78 63 79 64 80 72 81 65 82 66 83 70 84 73 85 67 86 68 87
REMARK SMILES IDX 71 88 69 89 48 90 49 91 57 92 50 93 51 94 55 95 58 96 52 97
REMARK SMILES IDX 53 98 56 99 54 100
REMARK H PARENT 15 5 9 13 19 34 78 53 46 64
REMARK Flexibility Score: inf
ROOT
ATOM      1  C   UNL A   1      37.133  20.574  24.965  1.00  0.00     0.118 C 
ENDROOT
BRANCH   1   2
ATOM      2  N   UNL A   1      35.840  19.913  24.995  1.00  0.00    -0.352 N 
ATOM      3  C   UNL A   1      34.562  20.398  25.104  1.00  0.00     0.252 C 
ATOM      4  O   UNL A   1      33.635  19.595  25.011  1.00  0.00    -0.269 OA
ATOM      5  H   UNL A   1      35.891  18.932  24.923  1.00  0.00     0.163 HD
BRANCH   3   6
ATOM      6  C   UNL A   1      34.244  21.837  25.268  1.00  0.00     0.060 A 
ATOM      7  C   UNL A   1      33.929  24.096  24.528  1.00  0.00     0.092 A 
ATOM      8  C   UNL A   1      34.425  22.817  24.301  1.00  0.00     0.046 A 
ATOM      9  C   UNL A   1      33.440  24.444  25.808  1.00  0.00     0.153 A 
ATOM     10  N   UNL A   1      33.356  23.525  26.789  1.00  0.00    -0.236 NA
ATOM     11  C   UNL A   1      33.718  22.248  26.491  1.00  0.00     0.127 A 
BRANCH   7  12
ATOM     12  N   UNL A   1      33.902  25.087  23.508  1.00  0.00    -0.276 N 
ATOM     13  H   UNL A   1      34.693  25.664  23.420  1.00  0.00     0.180 HD
BRANCH  12  14
ATOM     14  S   UNL A   1      32.643  25.353  22.448  1.00  0.00     0.262 S 
ATOM     15  O   UNL A   1      31.757  24.210  22.587  1.00  0.00    -0.201 OA
ATOM     16  O   UNL A   1      33.278  25.666  21.189  1.00  0.00    -0.201 OA
BRANCH  14  17
ATOM     17  C   UNL A   1      31.662  26.787  22.902  1.00  0.00     0.090 A 
ATOM     18  C   UNL A   1      29.141  30.272  22.594  1.00  0.00     0.044 C 
ATOM     19  C   UNL A   1      30.018  29.071  22.793  1.00  0.00    -0.051 A 
ATOM     20  C   UNL A   1      29.478  27.827  23.128  1.00  0.00     0.005 A 
ATOM     21  C   UNL A   1      31.405  29.191  22.679  1.00  0.00     0.008 A 
ATOM     22  C   UNL A   1      30.299  26.693  23.202  1.00  0.00     0.023 A 
ATOM     23  C   UNL A   1      32.244  28.064  22.748  1.00  0.00    -0.030 A 
ATOM     24  C   UNL A   1      33.727  28.310  22.667  1.00  0.00     0.046 C 
ENDBRANCH  14  17
ENDBRANCH  12  14
ENDBRANCH   7  12
BRANCH   9  25
ATOM     25  N   UNL A   1      33.110  25.743  26.090  1.00  0.00    -0.355 N 
ATOM     26  C   UNL A   1      33.938  26.917  25.907  1.00  0.00     0.118 C 
ATOM     27  C   UNL A   1      31.725  26.090  26.368  1.00  0.00     0.118 C 
ATOM     28  C   UNL A   1      33.272  27.888  26.877  1.00  0.00     0.023 C 
ATOM     29  C   UNL A   1      31.786  27.591  26.684  1.00  0.00     0.023 C 
ENDBRANCH   9  25
ENDBRANCH   3   6
ENDBRANCH   1   2
BRANCH   1  30
ATOM     30  C   UNL A   1      38.281  19.569  25.002  1.00  0.00     0.042 C 
BRANCH  30  31
ATOM     31  C   UNL A   1      39.285  19.860  26.108  1.00  0.00     0.118 C 
BRANCH  31  32
ATOM     32  N   UNL A   1      40.423  18.953  26.060  1.00  0.00    -0.352 N 
ATOM     33  C   UNL A   1      41.766  19.234  26.050  1.00  0.00     0.251 C 
ATOM     34  H   UNL A   1      40.195  17.997  26.029  1.00  0.00     0.163 HD
ATOM     35  O   UNL A   1      42.569  18.335  25.816  1.00  0.00    -0.269 OA
BRANCH  33  36
ATOM     36  C   UNL A   1      42.254  20.607  26.305  1.00  0.00     0.039 A 
ATOM     37  C   UNL A   1      42.298  21.065  27.626  1.00  0.00     0.014 A 
ATOM     38  C   UNL A   1      42.616  21.461  25.259  1.00  0.00     0.014 A 
ATOM     39  C   UNL A   1      42.733  22.363  27.900  1.00  0.00     0.010 A 
ATOM     40  C   UNL A   1      43.115  22.732  25.538  1.00  0.00     0.010 A 
ATOM     41  C   UNL A   1      43.161  23.201  26.859  1.00  0.00    -0.014 A 
BRANCH  41  42
ATOM     42  C   UNL A   1      43.615  24.587  27.131  1.00  0.00     0.031 A 
ATOM     43  C   UNL A   1      42.643  25.604  27.663  1.00  0.00     0.074 A 
ATOM     44  C   UNL A   1      44.883  24.942  26.852  1.00  0.00     0.049 A 
ATOM     45  N   UNL A   1      42.828  26.875  27.911  1.00  0.00    -0.248 NA
ATOM     46  C   UNL A   1      41.273  25.135  27.923  1.00  0.00     0.031 C 
ATOM     47  C   UNL A   1      45.903  24.059  26.286  1.00  0.00     0.029 A 
ATOM     48  N   UNL A   1      45.527  26.143  27.002  1.00  0.00    -0.354 N 
ATOM     49  C   UNL A   1      41.597  27.362  28.328  1.00  0.00     0.074 A 
ATOM     50  C   UNL A   1      40.661  26.260  28.263  1.00  0.00     0.031 C 
ATOM     51  C   UNL A   1      47.050  24.743  26.156  1.00  0.00     0.029 A 
ATOM     52  C   UNL A   1      46.840  26.116  26.605  1.00  0.00     0.049 A 
ATOM     53  H   UNL A   1      45.088  26.949  27.360  1.00  0.00     0.167 HD
ATOM     54  C   UNL A   1      41.279  28.609  28.750  1.00  0.00     0.037 A 
ATOM     55  C   UNL A   1      47.769  27.090  26.607  1.00  0.00     0.037 A 
ATOM     56  C   UNL A   1      42.220  29.691  28.859  1.00  0.00     0.049 A 
ATOM     57  C   UNL A   1      47.404  28.453  27.126  1.00  0.00     0.074 A 
ATOM     58  C   UNL A   1      42.013  30.973  29.335  1.00  0.00     0.029 A 
ATOM     59  N   UNL A   1      43.555  29.611  28.491  1.00  0.00    -0.354 N 
ATOM     60  N   UNL A   1      46.251  28.885  27.575  1.00  0.00    -0.248 NA
ATOM     61  C   UNL A   1      48.473  29.461  27.150  1.00  0.00     0.031 C 
ATOM     62  C   UNL A   1      43.218  31.678  29.232  1.00  0.00     0.029 A 
ATOM     63  C   UNL A   1      44.182  30.824  28.723  1.00  0.00     0.049 A 
ATOM     64  H   UNL A   1      43.992  28.810  28.119  1.00  0.00     0.167 HD
ATOM     65  C   UNL A   1      46.459  30.204  27.954  1.00  0.00     0.074 A 
ATOM     66  C   UNL A   1      47.854  30.497  27.696  1.00  0.00     0.031 C 
ATOM     67  C   UNL A   1      45.575  31.092  28.469  1.00  0.00     0.037 A 
BRANCH  54  68
ATOM     68  C   UNL A   1      39.851  28.866  29.132  1.00  0.00     0.064 A 
ATOM     69  C   UNL A   1      39.410  28.730  30.456  1.00  0.00     0.173 A 
ATOM     70  C   UNL A   1      38.918  29.275  28.167  1.00  0.00     0.173 A 
ATOM     71  F   UNL A   1      40.261  28.327  31.413  1.00  0.00    -0.203 F 
ATOM     72  C   UNL A   1      38.080  28.966  30.796  1.00  0.00     0.198 A 
ATOM     73  C   UNL A   1      37.595  29.535  28.515  1.00  0.00     0.198 A 
ATOM     74  F   UNL A   1      39.291  29.424  26.886  1.00  0.00    -0.203 F 
ATOM     75  F   UNL A   1      37.671  28.783  32.059  1.00  0.00    -0.200 F 
ATOM     76  C   UNL A   1      37.176  29.374  29.827  1.00  0.00     0.200 A 
ATOM     77  F   UNL A   1      36.725  29.938  27.580  1.00  0.00    -0.200 F 
ATOM     78  F   UNL A   1      35.898  29.602  30.157  1.00  0.00    -0.200 F 
ENDBRANCH  54  68
BRANCH  55  79
ATOM     79  C   UNL A   1      49.147  26.796  26.143  1.00  0.00     0.064 A 
ATOM     80  C   UNL A   1      50.109  26.296  27.030  1.00  0.00     0.173 A 
ATOM     81  C   UNL A   1      49.527  26.997  24.808  1.00  0.00     0.173 A 
ATOM     82  F   UNL A   1      49.796  26.106  28.320  1.00  0.00    -0.203 F 
ATOM     83  C   UNL A   1      51.407  26.022  26.604  1.00  0.00     0.198 A 
ATOM     84  C   UNL A   1      50.818  26.703  24.378  1.00  0.00     0.198 A 
ATOM     85  F   UNL A   1      48.639  27.470  23.922  1.00  0.00    -0.203 F 
ATOM     86  F   UNL A   1      52.319  25.579  27.480  1.00  0.00    -0.200 F 
ATOM     87  C   UNL A   1      51.759  26.220  25.277  1.00  0.00     0.200 A 
ATOM     88  F   UNL A   1      51.153  26.886  23.094  1.00  0.00    -0.200 F 
ATOM     89  F   UNL A   1      53.006  25.954  24.866  1.00  0.00    -0.200 F 
ENDBRANCH  55  79
BRANCH  67  90
ATOM     90  C   UNL A   1      46.096  32.453  28.815  1.00  0.00     0.064 A 
ATOM     91  C   UNL A   1      46.661  32.723  30.070  1.00  0.00     0.173 A 
ATOM     92  C   UNL A   1      46.061  33.488  27.869  1.00  0.00     0.173 A 
ATOM     93  F   UNL A   1      46.702  31.768  31.012  1.00  0.00    -0.203 F 
ATOM     94  C   UNL A   1      47.156  33.989  30.371  1.00  0.00     0.198 A 
ATOM     95  C   UNL A   1      46.577  34.745  28.167  1.00  0.00     0.198 A 
ATOM     96  F   UNL A   1      45.534  33.275  26.654  1.00  0.00    -0.203 F 
ATOM     97  F   UNL A   1      47.657  34.237  31.589  1.00  0.00    -0.200 F 
ATOM     98  C   UNL A   1      47.119  34.996  29.418  1.00  0.00     0.200 A 
ATOM     99  F   UNL A   1      46.549  35.715  27.242  1.00  0.00    -0.200 F 
ATOM    100  F   UNL A   1      47.598  36.213  29.710  1.00  0.00    -0.200 F 
ENDBRANCH  67  90
ENDBRANCH  41  42
ENDBRANCH  33  36
ENDBRANCH  31  32
ENDBRANCH  30  31
ENDBRANCH   1  30
TORSDOF 14
ENDMDL
MODEL 2
REMARK VINA RESULT:     -13.2      5.226      9.637
REMARK SMILES Cc1ccc(S(=O)(=O)Nc2cc(C(=O)NCCCNC(=O)c3ccc(-c4c5nc(c(-c6c(F)c(F)c(F)c(F)c6F)c6ccc([nH]6)c(-c6c(F)c(F)c(F)c(F)c6F)c6nc(c(-c7c(F)c(F)c(F)c(F)c7F)c7ccc4[nH]7)C=C6)C=C5)cc3)cnc2N2CCCC2)c(C)c1
REMARK SMILES IDX 16 1 15 2 13 3 14 4 12 6 10 7 11 8 87 9 86 10 85 11 9 12
REMARK SMILES IDX 6 14 7 15 8 16 5 17 1 18 2 19 3 20 95 21 4 22 93 23 94 24
REMARK SMILES IDX 88 25 89 26 92 27 90 28 91 29 17 30 18 31 19 32 20 33 21 35
REMARK SMILES IDX 22 36 23 37 84 38 24 39 83 40 25 41 26 42 27 43 77 44 28 45
REMARK SMILES IDX 82 46 76 47 78 48 29 49 81 50 75 51 74 52 30 54 62 55 42 56
REMARK SMILES IDX 61 57 43 58 46 59 60 60 79 61 44 62 45 63 59 65 80 66 47 67
REMARK SMILES IDX 31 68 32 69 40 70 33 71 34 72 38 73 41 74 35 75 36 76 39 77
REMARK SMILES IDX 37 78 63 79 64 80 72 81 65 82 66 83 70 84 73 85 67 86 68 87
REMARK SMILES IDX 71 88 69 89 48 90 49 91 57 92 50 93 51 94 55 95 58 96 52 97
REMARK SMILES IDX 53 98 56 99 54 100
REMARK H PARENT 15 5 9 13 19 34 78 53 46 64
REMARK Flexibility Score: inf
ROOT
ATOM      1  C   UNL A   1      31.284  30.713  25.481  1.00  0.00     0.118 C 
ENDROOT
BRANCH   1   2
ATOM      2  N   UNL A   1      30.280  30.785  24.434  1.00  0.00    -0.352 N 
ATOM      3  C   UNL A   1      29.808  29.851  23.547  1.00  0.00     0.252 C 
ATOM      4  O   UNL A   1      28.873  30.177  22.816  1.00  0.00    -0.269 OA
ATOM      5  H   UNL A   1      29.858  31.671  24.344  1.00  0.00     0.163 HD
BRANCH   3   6
ATOM      6  C   UNL A   1      30.325  28.464  23.467  1.00  0.00     0.060 A 
ATOM      7  C   UNL A   1      30.674  26.222  24.241  1.00  0.00     0.092 A 
ATOM      8  C   UNL A   1      30.310  27.538  24.502  1.00  0.00     0.046 A 
ATOM      9  C   UNL A   1      31.251  25.885  22.996  1.00  0.00     0.153 A 
ATOM     10  N   UNL A   1      31.367  26.802  22.016  1.00  0.00    -0.236 NA
ATOM     11  C   UNL A   1      30.872  28.047  22.255  1.00  0.00     0.127 A 
BRANCH   7  12
ATOM     12  N   UNL A   1      30.492  25.185  25.198  1.00  0.00    -0.276 N 
ATOM     13  H   UNL A   1      29.773  24.535  25.026  1.00  0.00     0.180 HD
BRANCH  12  14
ATOM     14  S   UNL A   1      31.391  24.976  26.585  1.00  0.00     0.262 S 
ATOM     15  O   UNL A   1      30.830  23.812  27.251  1.00  0.00    -0.201 OA
ATOM     16  O   UNL A   1      31.403  26.273  27.220  1.00  0.00    -0.201 OA
BRANCH  14  17
ATOM     17  C   UNL A   1      33.101  24.558  26.233  1.00  0.00     0.090 A 
ATOM     18  C   UNL A   1      36.583  22.875  24.324  1.00  0.00     0.044 C 
ATOM     19  C   UNL A   1      35.428  23.499  25.051  1.00  0.00    -0.051 A 
ATOM     20  C   UNL A   1      35.061  24.828  24.823  1.00  0.00     0.005 A 
ATOM     21  C   UNL A   1      34.718  22.761  26.001  1.00  0.00     0.008 A 
ATOM     22  C   UNL A   1      33.914  25.362  25.426  1.00  0.00     0.023 A 
ATOM     23  C   UNL A   1      33.563  23.280  26.615  1.00  0.00    -0.030 A 
ATOM     24  C   UNL A   1      32.905  22.424  27.664  1.00  0.00     0.046 C 
ENDBRANCH  14  17
ENDBRANCH  12  14
ENDBRANCH   7  12
BRANCH   9  25
ATOM     25  N   UNL A   1      31.768  24.633  22.791  1.00  0.00    -0.355 N 
ATOM     26  C   UNL A   1      31.148  23.365  23.114  1.00  0.00     0.118 C 
ATOM     27  C   UNL A   1      32.940  24.467  21.945  1.00  0.00     0.118 C 
ATOM     28  C   UNL A   1      32.373  22.458  23.180  1.00  0.00     0.023 C 
ATOM     29  C   UNL A   1      33.228  22.961  22.020  1.00  0.00     0.023 C 
ENDBRANCH   9  25
ENDBRANCH   3   6
ENDBRANCH   1   2
BRANCH   1  30
ATOM     30  C   UNL A   1      31.168  31.882  26.454  1.00  0.00     0.042 C 
BRANCH  30  31
ATOM     31  C   UNL A   1      32.520  32.437  26.876  1.00  0.00     0.118 C 
BRANCH  31  32
ATOM     32  N   UNL A   1      32.420  33.809  27.354  1.00  0.00    -0.352 N 
ATOM     33  C   UNL A   1      33.090  34.431  28.376  1.00  0.00     0.251 C 
ATOM     34  H   UNL A   1      31.774  34.373  26.872  1.00  0.00     0.163 HD
ATOM     35  O   UNL A   1      32.728  35.544  28.746  1.00  0.00    -0.269 OA
BRANCH  33  36
ATOM     36  C   UNL A   1      34.235  33.771  29.043  1.00  0.00     0.039 A 
ATOM     37  C   UNL A   1      35.528  34.203  28.731  1.00  0.00     0.014 A 
ATOM     38  C   UNL A   1      34.051  32.703  29.926  1.00  0.00     0.014 A 
ATOM     39  C   UNL A   1      36.631  33.587  29.325  1.00  0.00     0.010 A 
ATOM     40  C   UNL A   1      35.147  32.135  30.571  1.00  0.00     0.010 A 
ATOM     41  C   UNL A   1      36.448  32.559  30.263  1.00  0.00    -0.014 A 
BRANCH  41  42
ATOM     42  C   UNL A   1      37.609  31.887  30.896  1.00  0.00     0.031 A 
ATOM     43  C   UNL A   1      38.036  32.275  32.284  1.00  0.00     0.074 A 
ATOM     44  C   UNL A   1      38.307  30.967  30.205  1.00  0.00     0.049 A 
ATOM     45  N   UNL A   1      39.054  31.849  32.988  1.00  0.00    -0.248 NA
ATOM     46  C   UNL A   1      37.227  33.301  32.962  1.00  0.00     0.031 C 
ATOM     47  C   UNL A   1      38.022  30.544  28.833  1.00  0.00     0.029 A 
ATOM     48  N   UNL A   1      39.406  30.227  30.560  1.00  0.00    -0.354 N 
ATOM     49  C   UNL A   1      39.024  32.571  34.173  1.00  0.00     0.074 A 
ATOM     50  C   UNL A   1      37.911  33.491  34.080  1.00  0.00     0.031 C 
ATOM     51  C   UNL A   1      38.910  29.605  28.471  1.00  0.00     0.029 A 
ATOM     52  C   UNL A   1      39.839  29.378  29.573  1.00  0.00     0.049 A 
ATOM     53  H   UNL A   1      39.843  30.300  31.440  1.00  0.00     0.167 HD
ATOM     54  C   UNL A   1      39.836  32.461  35.251  1.00  0.00     0.037 A 
ATOM     55  C   UNL A   1      40.870  28.512  29.563  1.00  0.00     0.037 A 
ATOM     56  C   UNL A   1      40.912  31.514  35.360  1.00  0.00     0.049 A 
ATOM     57  C   UNL A   1      41.727  28.374  30.791  1.00  0.00     0.074 A 
ATOM     58  C   UNL A   1      41.752  31.279  36.435  1.00  0.00     0.029 A 
ATOM     59  N   UNL A   1      41.291  30.635  34.356  1.00  0.00    -0.354 N 
ATOM     60  N   UNL A   1      41.651  29.020  31.929  1.00  0.00    -0.248 NA
ATOM     61  C   UNL A   1      42.805  27.378  30.737  1.00  0.00     0.031 C 
ATOM     62  C   UNL A   1      42.656  30.275  36.071  1.00  0.00     0.029 A 
ATOM     63  C   UNL A   1      42.358  29.862  34.783  1.00  0.00     0.049 A 
ATOM     64  H   UNL A   1      40.865  30.572  33.470  1.00  0.00     0.167 HD
ATOM     65  C   UNL A   1      42.654  28.496  32.732  1.00  0.00     0.074 A 
ATOM     66  C   UNL A   1      43.316  27.467  31.957  1.00  0.00     0.031 C 
ATOM     67  C   UNL A   1      42.995  28.836  33.998  1.00  0.00     0.037 A 
BRANCH  54  68
ATOM     68  C   UNL A   1      39.583  33.389  36.403  1.00  0.00     0.064 A 
ATOM     69  C   UNL A   1      38.759  33.019  37.476  1.00  0.00     0.173 A 
ATOM     70  C   UNL A   1      40.190  34.652  36.446  1.00  0.00     0.173 A 
ATOM     71  F   UNL A   1      38.143  31.826  37.474  1.00  0.00    -0.203 F 
ATOM     72  C   UNL A   1      38.528  33.892  38.536  1.00  0.00     0.198 A 
ATOM     73  C   UNL A   1      39.979  35.513  37.520  1.00  0.00     0.198 A 
ATOM     74  F   UNL A   1      40.992  35.053  35.446  1.00  0.00    -0.203 F 
ATOM     75  F   UNL A   1      37.698  33.536  39.525  1.00  0.00    -0.200 F 
ATOM     76  C   UNL A   1      39.142  35.135  38.560  1.00  0.00     0.200 A 
ATOM     77  F   UNL A   1      40.580  36.710  37.548  1.00  0.00    -0.200 F 
ATOM     78  F   UNL A   1      38.921  35.972  39.582  1.00  0.00    -0.200 F 
ENDBRANCH  54  68
BRANCH  55  79
ATOM     79  C   UNL A   1      41.118  27.676  28.363  1.00  0.00     0.064 A 
ATOM     80  C   UNL A   1      42.002  28.103  27.363  1.00  0.00     0.173 A 
ATOM     81  C   UNL A   1      40.489  26.434  28.194  1.00  0.00     0.173 A 
ATOM     82  F   UNL A   1      42.612  29.293  27.473  1.00  0.00    -0.203 F 
ATOM     83  C   UNL A   1      42.237  27.328  26.231  1.00  0.00     0.198 A 
ATOM     84  C   UNL A   1      40.740  25.649  27.072  1.00  0.00     0.198 A 
ATOM     85  F   UNL A   1      39.638  25.982  29.126  1.00  0.00    -0.203 F 
ATOM     86  F   UNL A   1      43.059  27.775  25.272  1.00  0.00    -0.200 F 
ATOM     87  C   UNL A   1      41.610  26.098  26.088  1.00  0.00     0.200 A 
ATOM     88  F   UNL A   1      40.141  24.458  26.941  1.00  0.00    -0.200 F 
ATOM     89  F   UNL A   1      41.838  25.350  25.000  1.00  0.00    -0.200 F 
ENDBRANCH  55  79
BRANCH  67  90
ATOM     90  C   UNL A   1      44.115  28.069  34.634  1.00  0.00     0.064 A 
ATOM     91  C   UNL A   1      45.441  28.521  34.567  1.00  0.00     0.173 A 
ATOM     92  C   UNL A   1      43.853  26.890  35.345  1.00  0.00     0.173 A 
ATOM     93  F   UNL A   1      45.741  29.637  33.884  1.00  0.00    -0.203 F 
ATOM     94  C   UNL A   1      46.469  27.806  35.176  1.00  0.00     0.198 A 
ATOM     95  C   UNL A   1      44.880  26.191  35.972  1.00  0.00     0.198 A 
ATOM     96  F   UNL A   1      42.600  26.422  35.440  1.00  0.00    -0.203 F 
ATOM     97  F   UNL A   1      47.734  28.234  35.068  1.00  0.00    -0.200 F 
ATOM     98  C   UNL A   1      46.187  26.646  35.882  1.00  0.00     0.200 A 
ATOM     99  F   UNL A   1      44.606  25.074  36.661  1.00  0.00    -0.200 F 
ATOM    100  F   UNL A   1      47.178  25.961  36.469  1.00  0.00    -0.200 F 
ENDBRANCH  67  90
ENDBRANCH  41  42
ENDBRANCH  33  36
ENDBRANCH  31  32
ENDBRANCH  30  31
ENDBRANCH   1  30
TORSDOF 14
ENDMDL
MODEL 3
REMARK VINA RESULT:     -13.1      5.297     10.825
REMARK SMILES Cc1ccc(S(=O)(=O)Nc2cc(C(=O)NCCCNC(=O)c3ccc(-c4c5nc(c(-c6c(F)c(F)c(F)c(F)c6F)c6ccc([nH]6)c(-c6c(F)c(F)c(F)c(F)c6F)c6nc(c(-c7c(F)c(F)c(F)c(F)c7F)c7ccc4[nH]7)C=C6)C=C5)cc3)cnc2N2CCCC2)c(C)c1
REMARK SMILES IDX 16 1 15 2 13 3 14 4 12 6 10 7 11 8 87 9 86 10 85 11 9 12
REMARK SMILES IDX 6 14 7 15 8 16 5 17 1 18 2 19 3 20 95 21 4 22 93 23 94 24
REMARK SMILES IDX 88 25 89 26 92 27 90 28 91 29 17 30 18 31 19 32 20 33 21 35
REMARK SMILES IDX 22 36 23 37 84 38 24 39 83 40 25 41 26 42 27 43 77 44 28 45
REMARK SMILES IDX 82 46 76 47 78 48 29 49 81 50 75 51 74 52 30 54 62 55 42 56
REMARK SMILES IDX 61 57 43 58 46 59 60 60 79 61 44 62 45 63 59 65 80 66 47 67
REMARK SMILES IDX 31 68 32 69 40 70 33 71 34 72 38 73 41 74 35 75 36 76 39 77
REMARK SMILES IDX 37 78 63 79 64 80 72 81 65 82 66 83 70 84 73 85 67 86 68 87
REMARK SMILES IDX 71 88 69 89 48 90 49 91 57 92 50 93 51 94 55 95 58 96 52 97
REMARK SMILES IDX 53 98 56 99 54 100
REMARK H PARENT 15 5 9 13 19 34 78 53 46 64
REMARK Flexibility Score: inf
ROOT
ATOM      1  C   UNL A   1      31.410  30.692  25.540  1.00  0.00     0.118 C 
ENDROOT
BRANCH   1   2
ATOM      2  N   UNL A   1      30.396  30.785  24.505  1.00  0.00    -0.352 N 
ATOM      3  C   UNL A   1      29.904  29.864  23.615  1.00  0.00     0.252 C 
ATOM      4  O   UNL A   1      28.965  30.207  22.897  1.00  0.00    -0.269 OA
ATOM      5  H   UNL A   1      29.983  31.676  24.428  1.00  0.00     0.163 HD
BRANCH   3   6
ATOM      6  C   UNL A   1      30.405  28.472  23.517  1.00  0.00     0.060 A 
ATOM      7  C   UNL A   1      30.752  26.224  24.275  1.00  0.00     0.092 A 
ATOM      8  C   UNL A   1      30.409  27.543  24.549  1.00  0.00     0.046 A 
ATOM      9  C   UNL A   1      31.291  25.885  23.013  1.00  0.00     0.153 A 
ATOM     10  N   UNL A   1      31.390  26.804  22.033  1.00  0.00    -0.236 NA
ATOM     11  C   UNL A   1      30.914  28.053  22.290  1.00  0.00     0.127 A 
BRANCH   7  12
ATOM     12  N   UNL A   1      30.585  25.186  25.233  1.00  0.00    -0.276 N 
ATOM     13  H   UNL A   1      29.869  24.532  25.068  1.00  0.00     0.180 HD
BRANCH  12  14
ATOM     14  S   UNL A   1      31.500  24.982  26.612  1.00  0.00     0.262 S 
ATOM     15  O   UNL A   1      30.925  23.841  27.305  1.00  0.00    -0.201 OA
ATOM     16  O   UNL A   1      31.547  26.290  27.223  1.00  0.00    -0.201 OA
BRANCH  14  17
ATOM     17  C   UNL A   1      33.196  24.523  26.243  1.00  0.00     0.090 A 
ATOM     18  C   UNL A   1      36.615  22.729  24.323  1.00  0.00     0.044 C 
ATOM     19  C   UNL A   1      35.483  23.392  25.051  1.00  0.00    -0.051 A 
ATOM     20  C   UNL A   1      35.138  24.722  24.797  1.00  0.00     0.005 A 
ATOM     21  C   UNL A   1      34.775  22.691  26.030  1.00  0.00     0.008 A 
ATOM     22  C   UNL A   1      34.011  25.293  25.405  1.00  0.00     0.023 A 
ATOM     23  C   UNL A   1      33.640  23.247  26.649  1.00  0.00    -0.030 A 
ATOM     24  C   UNL A   1      32.983  22.429  27.728  1.00  0.00     0.046 C 
ENDBRANCH  14  17
ENDBRANCH  12  14
ENDBRANCH   7  12
BRANCH   9  25
ATOM     25  N   UNL A   1      31.790  24.629  22.791  1.00  0.00    -0.355 N 
ATOM     26  C   UNL A   1      31.148  23.365  23.091  1.00  0.00     0.118 C 
ATOM     27  C   UNL A   1      32.963  24.458  21.948  1.00  0.00     0.118 C 
ATOM     28  C   UNL A   1      32.359  22.439  23.148  1.00  0.00     0.023 C 
ATOM     29  C   UNL A   1      33.227  22.947  22.000  1.00  0.00     0.023 C 
ENDBRANCH   9  25
ENDBRANCH   3   6
ENDBRANCH   1   2
BRANCH   1  30
ATOM     30  C   UNL A   1      31.256  31.797  26.581  1.00  0.00     0.042 C 
BRANCH  30  31
ATOM     31  C   UNL A   1      32.582  32.437  26.964  1.00  0.00     0.118 C 
BRANCH  31  32
ATOM     32  N   UNL A   1      32.416  33.817  27.397  1.00  0.00    -0.352 N 
ATOM     33  C   UNL A   1      33.037  34.497  28.414  1.00  0.00     0.251 C 
ATOM     34  H   UNL A   1      31.758  34.339  26.885  1.00  0.00     0.163 HD
ATOM     35  O   UNL A   1      32.621  35.604  28.741  1.00  0.00    -0.269 OA
BRANCH  33  36
ATOM     36  C   UNL A   1      34.192  33.906  29.125  1.00  0.00     0.039 A 
ATOM     37  C   UNL A   1      35.478  34.321  28.769  1.00  0.00     0.014 A 
ATOM     38  C   UNL A   1      34.024  32.913  30.095  1.00  0.00     0.014 A 
ATOM     39  C   UNL A   1      36.591  33.768  29.405  1.00  0.00     0.010 A 
ATOM     40  C   UNL A   1      35.130  32.412  30.778  1.00  0.00     0.010 A 
ATOM     41  C   UNL A   1      36.424  32.820  30.426  1.00  0.00    -0.014 A 
BRANCH  41  42
ATOM     42  C   UNL A   1      37.595  32.213  31.105  1.00  0.00     0.031 A 
ATOM     43  C   UNL A   1      38.397  31.149  30.408  1.00  0.00     0.074 A 
ATOM     44  C   UNL A   1      37.905  32.581  32.361  1.00  0.00     0.049 A 
ATOM     45  N   UNL A   1      39.417  30.457  30.850  1.00  0.00    -0.248 NA
ATOM     46  C   UNL A   1      37.980  30.794  29.043  1.00  0.00     0.031 C 
ATOM     47  C   UNL A   1      37.173  33.565  33.160  1.00  0.00     0.029 A 
ATOM     48  N   UNL A   1      38.916  32.165  33.191  1.00  0.00    -0.354 N 
ATOM     49  C   UNL A   1      39.743  29.571  29.832  1.00  0.00     0.074 A 
ATOM     50  C   UNL A   1      38.789  29.783  28.765  1.00  0.00     0.031 C 
ATOM     51  C   UNL A   1      37.770  33.691  34.355  1.00  0.00     0.029 A 
ATOM     52  C   UNL A   1      38.910  32.782  34.417  1.00  0.00     0.049 A 
ATOM     53  H   UNL A   1      39.581  31.487  32.931  1.00  0.00     0.167 HD
ATOM     54  C   UNL A   1      40.759  28.677  29.782  1.00  0.00     0.037 A 
ATOM     55  C   UNL A   1      39.735  32.630  35.469  1.00  0.00     0.037 A 
ATOM     56  C   UNL A   1      41.733  28.500  30.824  1.00  0.00     0.049 A 
ATOM     57  C   UNL A   1      40.884  31.666  35.370  1.00  0.00     0.074 A 
ATOM     58  C   UNL A   1      42.838  27.668  30.843  1.00  0.00     0.029 A 
ATOM     59  N   UNL A   1      41.722  29.179  32.034  1.00  0.00    -0.354 N 
ATOM     60  N   UNL A   1      41.218  30.877  34.378  1.00  0.00    -0.248 NA
ATOM     61  C   UNL A   1      41.779  31.581  36.532  1.00  0.00     0.031 C 
ATOM     62  C   UNL A   1      43.482  27.824  32.076  1.00  0.00     0.029 A 
ATOM     63  C   UNL A   1      42.797  28.778  32.810  1.00  0.00     0.049 A 
ATOM     64  H   UNL A   1      41.049  29.846  32.301  1.00  0.00     0.167 HD
ATOM     65  C   UNL A   1      42.370  30.219  34.785  1.00  0.00     0.074 A 
ATOM     66  C   UNL A   1      42.687  30.713  36.110  1.00  0.00     0.031 C 
ATOM     67  C   UNL A   1      43.100  29.290  34.122  1.00  0.00     0.037 A 
BRANCH  54  68
ATOM     68  C   UNL A   1      40.869  27.826  28.551  1.00  0.00     0.064 A 
ATOM     69  C   UNL A   1      40.202  26.596  28.448  1.00  0.00     0.173 A 
ATOM     70  C   UNL A   1      41.631  28.255  27.455  1.00  0.00     0.173 A 
ATOM     71  F   UNL A   1      39.473  26.135  29.476  1.00  0.00    -0.203 F 
ATOM     72  C   UNL A   1      40.317  25.813  27.302  1.00  0.00     0.198 A 
ATOM     73  C   UNL A   1      41.723  27.482  26.300  1.00  0.00     0.198 A 
ATOM     74  F   UNL A   1      42.285  29.426  27.501  1.00  0.00    -0.203 F 
ATOM     75  F   UNL A   1      39.711  24.620  27.246  1.00  0.00    -0.200 F 
ATOM     76  C   UNL A   1      41.073  26.259  26.228  1.00  0.00     0.200 A 
ATOM     77  F   UNL A   1      42.445  27.917  25.259  1.00  0.00    -0.200 F 
ATOM     78  F   UNL A   1      41.180  25.504  25.126  1.00  0.00    -0.200 F 
ENDBRANCH  54  68
BRANCH  55  79
ATOM     79  C   UNL A   1      39.528  33.446  36.691  1.00  0.00     0.064 A 
ATOM     80  C   UNL A   1      40.179  34.676  36.849  1.00  0.00     0.173 A 
ATOM     81  C   UNL A   1      38.672  33.021  37.717  1.00  0.00     0.173 A 
ATOM     82  F   UNL A   1      41.023  35.113  35.902  1.00  0.00    -0.203 F 
ATOM     83  C   UNL A   1      39.995  35.445  37.995  1.00  0.00     0.198 A 
ATOM     84  C   UNL A   1      38.471  33.800  38.853  1.00  0.00     0.198 A 
ATOM     85  F   UNL A   1      38.023  31.852  37.609  1.00  0.00    -0.203 F 
ATOM     86  F   UNL A   1      40.658  36.601  38.138  1.00  0.00    -0.200 F 
ATOM     87  C   UNL A   1      39.137  35.010  38.994  1.00  0.00     0.200 A 
ATOM     88  F   UNL A   1      37.635  33.382  39.812  1.00  0.00    -0.200 F 
ATOM     89  F   UNL A   1      38.957  35.751  40.096  1.00  0.00    -0.200 F 
ENDBRANCH  55  79
BRANCH  67  90
ATOM     90  C   UNL A   1      44.327  28.769  34.806  1.00  0.00     0.064 A 
ATOM     91  C   UNL A   1      44.286  27.618  35.607  1.00  0.00     0.173 A 
ATOM     92  C   UNL A   1      45.563  29.408  34.628  1.00  0.00     0.173 A 
ATOM     93  F   UNL A   1      43.122  26.984  35.817  1.00  0.00    -0.203 F 
ATOM     94  C   UNL A   1      45.438  27.137  36.223  1.00  0.00     0.198 A 
ATOM     95  C   UNL A   1      46.716  28.910  35.227  1.00  0.00     0.198 A 
ATOM     96  F   UNL A   1      45.652  30.508  33.867  1.00  0.00    -0.203 F 
ATOM     97  F   UNL A   1      45.370  26.060  37.016  1.00  0.00    -0.200 F 
ATOM     98  C   UNL A   1      46.652  27.780  36.028  1.00  0.00     0.200 A 
ATOM     99  F   UNL A   1      47.890  29.526  35.032  1.00  0.00    -0.200 F 
ATOM    100  F   UNL A   1      47.760  27.312  36.620  1.00  0.00    -0.200 F 
ENDBRANCH  67  90
ENDBRANCH  41  42
ENDBRANCH  33  36
ENDBRANCH  31  32
ENDBRANCH  30  31
ENDBRANCH   1  30
TORSDOF 14
ENDMDL
