MODEL 1
REMARK VINA RESULT:     -11.3      0.000      0.000
REMARK SMILES C[C@H]([NH2+]C[C@]1(C)CCCO1)[C@H](C)C(=O)NCCCNC(=O)c1ccc(-c2c3nc(c(-c4c(F)c(F)c(F)c(F)c4F)c4ccc([nH]4)c(-c4c(F)c(F)c(F)c(F)c4F)c4nc(c(-c5c(F)c(F)c(F)c(F)c5F)c5ccc2[nH]5)C=C4)C=C3)cc1
REMARK SMILES IDX 16 1 15 2 13 3 14 4 11 6 12 7 2 8 1 9 3 10 4 13 5 14 7 15
REMARK SMILES IDX 10 16 6 17 8 18 9 19 17 20 18 21 19 22 20 23 21 25 22 26
REMARK SMILES IDX 23 27 84 28 24 29 83 30 25 31 26 32 27 33 77 34 28 35 82 36
REMARK SMILES IDX 76 37 78 38 29 39 81 40 75 41 74 42 30 44 62 45 42 46 61 47
REMARK SMILES IDX 43 48 46 49 60 50 79 51 44 52 45 53 59 55 80 56 47 57 31 58
REMARK SMILES IDX 32 59 40 60 33 61 34 62 38 63 41 64 35 65 36 66 39 67 37 68
REMARK SMILES IDX 63 69 64 70 72 71 65 72 66 73 70 74 73 75 67 76 68 77 71 78
REMARK SMILES IDX 69 79 48 80 49 81 57 82 50 83 51 84 55 85 58 86 52 87 53 88
REMARK SMILES IDX 56 89 54 90
REMARK H PARENT 15 5 3 11 3 12 19 24 78 43 46 54
REMARK Flexibility Score: inf
ROOT
ATOM      1  C   UNL A   1      31.923  30.377  26.610  1.00  0.00     0.117 C 
ENDROOT
BRANCH   1   2
ATOM      2  N   UNL A   1      32.617  30.063  25.377  1.00  0.00    -0.356 N 
ATOM      3  C   UNL A   1      32.225  29.360  24.288  1.00  0.00     0.228 C 
ATOM      4  O   UNL A   1      33.077  29.163  23.416  1.00  0.00    -0.275 OA
ATOM      5  H   UNL A   1      33.531  30.424  25.321  1.00  0.00     0.163 HD
BRANCH   3   6
ATOM      6  C   UNL A   1      30.816  28.815  24.127  1.00  0.00     0.133 C 
ATOM      7  C   UNL A   1      29.917  29.890  23.506  1.00  0.00     0.024 C 
BRANCH   6   8
ATOM      8  C   UNL A   1      30.669  27.433  23.428  1.00  0.00     0.191 C 
ATOM      9  C   UNL A   1      29.357  26.754  23.847  1.00  0.00     0.076 C 
BRANCH   8  10
ATOM     10  N   UNL A   1      31.777  26.469  23.522  1.00  0.00    -0.341 N 
ATOM     11  H   UNL A   1      32.622  26.994  23.742  1.00  0.00     0.346 HD
ATOM     12  H   UNL A   1      31.787  25.992  22.621  1.00  0.00     0.346 HD
BRANCH  10  13
ATOM     13  C   UNL A   1      31.648  25.402  24.515  1.00  0.00     0.296 C 
BRANCH  13  14
ATOM     14  C   UNL A   1      32.496  25.670  25.804  1.00  0.00     0.114 C 
ATOM     15  C   UNL A   1      33.915  26.157  25.508  1.00  0.00     0.043 C 
ATOM     16  O   UNL A   1      32.686  24.403  26.471  1.00  0.00    -0.369 OA
ATOM     17  C   UNL A   1      31.784  26.617  26.774  1.00  0.00     0.048 C 
ATOM     18  C   UNL A   1      34.623  24.875  25.156  1.00  0.00     0.032 C 
ATOM     19  C   UNL A   1      33.961  23.868  26.076  1.00  0.00     0.161 C 
ENDBRANCH  13  14
ENDBRANCH  10  13
ENDBRANCH   8  10
ENDBRANCH   6   8
ENDBRANCH   3   6
ENDBRANCH   1   2
BRANCH   1  20
ATOM     20  C   UNL A   1      31.642  31.861  26.722  1.00  0.00     0.042 C 
BRANCH  20  21
ATOM     21  C   UNL A   1      32.787  32.634  27.363  1.00  0.00     0.118 C 
BRANCH  21  22
ATOM     22  N   UNL A   1      32.465  34.036  27.600  1.00  0.00    -0.352 N 
ATOM     23  C   UNL A   1      32.991  34.895  28.535  1.00  0.00     0.251 C 
ATOM     24  H   UNL A   1      31.778  34.421  27.010  1.00  0.00     0.163 HD
ATOM     25  O   UNL A   1      32.489  36.000  28.720  1.00  0.00    -0.269 OA
BRANCH  23  26
ATOM     26  C   UNL A   1      34.148  34.458  29.337  1.00  0.00     0.039 A 
ATOM     27  C   UNL A   1      33.931  33.850  30.573  1.00  0.00     0.014 A 
ATOM     28  C   UNL A   1      35.443  34.598  28.831  1.00  0.00     0.014 A 
ATOM     29  C   UNL A   1      35.012  33.307  31.268  1.00  0.00     0.010 A 
ATOM     30  C   UNL A   1      36.500  33.968  29.472  1.00  0.00     0.010 A 
ATOM     31  C   UNL A   1      36.297  33.322  30.700  1.00  0.00    -0.014 A 
BRANCH  31  32
ATOM     32  C   UNL A   1      37.451  32.681  31.376  1.00  0.00     0.031 A 
ATOM     33  C   UNL A   1      38.168  31.542  30.707  1.00  0.00     0.074 A 
ATOM     34  C   UNL A   1      37.799  33.069  32.618  1.00  0.00     0.049 A 
ATOM     35  N   UNL A   1      39.138  30.790  31.164  1.00  0.00    -0.248 NA
ATOM     36  C   UNL A   1      37.711  31.174  29.357  1.00  0.00     0.031 C 
ATOM     37  C   UNL A   1      37.141  34.123  33.393  1.00  0.00     0.029 A 
ATOM     38  N   UNL A   1      38.789  32.614  33.453  1.00  0.00    -0.354 N 
ATOM     39  C   UNL A   1      39.389  29.855  30.168  1.00  0.00     0.074 A 
ATOM     40  C   UNL A   1      38.431  30.090  29.112  1.00  0.00     0.031 C 
ATOM     41  C   UNL A   1      37.763  34.253  34.575  1.00  0.00     0.029 A 
ATOM     42  C   UNL A   1      38.835  33.267  34.660  1.00  0.00     0.049 A 
ATOM     43  H   UNL A   1      39.407  31.887  33.208  1.00  0.00     0.167 HD
ATOM     44  C   UNL A   1      40.352  28.905  30.126  1.00  0.00     0.037 A 
ATOM     45  C   UNL A   1      39.650  33.085  35.717  1.00  0.00     0.037 A 
ATOM     46  C   UNL A   1      41.324  28.698  31.166  1.00  0.00     0.049 A 
ATOM     47  C   UNL A   1      40.716  32.024  35.642  1.00  0.00     0.074 A 
ATOM     48  C   UNL A   1      42.380  27.806  31.194  1.00  0.00     0.029 A 
ATOM     49  N   UNL A   1      41.357  29.398  32.364  1.00  0.00    -0.354 N 
ATOM     50  N   UNL A   1      40.990  31.193  34.667  1.00  0.00    -0.248 NA
ATOM     51  C   UNL A   1      41.589  31.881  36.815  1.00  0.00     0.031 C 
ATOM     52  C   UNL A   1      43.027  27.935  32.429  1.00  0.00     0.029 A 
ATOM     53  C   UNL A   1      42.404  28.944  33.148  1.00  0.00     0.049 A 
ATOM     54  H   UNL A   1      40.728  30.112  32.619  1.00  0.00     0.167 HD
ATOM     55  C   UNL A   1      42.083  30.451  35.093  1.00  0.00     0.074 A 
ATOM     56  C   UNL A   1      42.432  30.941  36.411  1.00  0.00     0.031 C 
ATOM     57  C   UNL A   1      42.741  29.454  34.452  1.00  0.00     0.037 A 
BRANCH  44  58
ATOM     58  C   UNL A   1      40.406  28.027  28.910  1.00  0.00     0.064 A 
ATOM     59  C   UNL A   1      39.698  26.816  28.845  1.00  0.00     0.173 A 
ATOM     60  C   UNL A   1      41.150  28.412  27.785  1.00  0.00     0.173 A 
ATOM     61  F   UNL A   1      38.982  26.395  29.899  1.00  0.00    -0.203 F 
ATOM     62  C   UNL A   1      39.760  26.008  27.713  1.00  0.00     0.198 A 
ATOM     63  C   UNL A   1      41.184  27.617  26.641  1.00  0.00     0.198 A 
ATOM     64  F   UNL A   1      41.842  29.560  27.792  1.00  0.00    -0.203 F 
ATOM     65  F   UNL A   1      39.121  24.831  27.697  1.00  0.00    -0.200 F 
ATOM     66  C   UNL A   1      40.497  26.413  26.609  1.00  0.00     0.200 A 
ATOM     67  F   UNL A   1      41.885  28.015  25.571  1.00  0.00    -0.200 F 
ATOM     68  F   UNL A   1      40.550  25.638  25.518  1.00  0.00    -0.200 F 
ENDBRANCH  44  58
BRANCH  45  69
ATOM     69  C   UNL A   1      39.513  33.946  36.920  1.00  0.00     0.064 A 
ATOM     70  C   UNL A   1      38.764  33.518  38.026  1.00  0.00     0.173 A 
ATOM     71  C   UNL A   1      40.117  35.209  36.991  1.00  0.00     0.173 A 
ATOM     72  F   UNL A   1      38.152  32.325  37.998  1.00  0.00    -0.203 F 
ATOM     73  C   UNL A   1      38.608  34.330  39.147  1.00  0.00     0.198 A 
ATOM     74  C   UNL A   1      39.983  36.008  38.124  1.00  0.00     0.198 A 
ATOM     75  F   UNL A   1      40.849  35.662  35.962  1.00  0.00    -0.203 F 
ATOM     76  F   UNL A   1      37.849  33.916  40.171  1.00  0.00    -0.200 F 
ATOM     77  C   UNL A   1      39.221  35.572  39.198  1.00  0.00     0.200 A 
ATOM     78  F   UNL A   1      40.591  37.201  38.176  1.00  0.00    -0.200 F 
ATOM     79  F   UNL A   1      39.074  36.352  40.278  1.00  0.00    -0.200 F 
ENDBRANCH  45  69
BRANCH  57  80
ATOM     80  C   UNL A   1      43.927  28.853  35.148  1.00  0.00     0.064 A 
ATOM     81  C   UNL A   1      43.801  27.742  35.994  1.00  0.00     0.173 A 
ATOM     82  C   UNL A   1      45.212  29.372  34.930  1.00  0.00     0.173 A 
ATOM     83  F   UNL A   1      42.590  27.219  36.245  1.00  0.00    -0.203 F 
ATOM     84  C   UNL A   1      44.915  27.187  36.616  1.00  0.00     0.198 A 
ATOM     85  C   UNL A   1      46.328  28.796  35.529  1.00  0.00     0.198 A 
ATOM     86  F   UNL A   1      45.388  30.429  34.124  1.00  0.00    -0.203 F 
ATOM     87  F   UNL A   1      44.766  26.155  37.457  1.00  0.00    -0.200 F 
ATOM     88  C   UNL A   1      46.178  27.708  36.376  1.00  0.00     0.200 A 
ATOM     89  F   UNL A   1      47.549  29.291  35.285  1.00  0.00    -0.200 F 
ATOM     90  F   UNL A   1      47.251  27.168  36.970  1.00  0.00    -0.200 F 
ENDBRANCH  57  80
ENDBRANCH  31  32
ENDBRANCH  23  26
ENDBRANCH  21  22
ENDBRANCH  20  21
ENDBRANCH   1  20
TORSDOF 14
ENDMDL
MODEL 2
REMARK VINA RESULT:     -11.3      1.068      1.793
REMARK SMILES C[C@H]([NH2+]C[C@]1(C)CCCO1)[C@H](C)C(=O)NCCCNC(=O)c1ccc(-c2c3nc(c(-c4c(F)c(F)c(F)c(F)c4F)c4ccc([nH]4)c(-c4c(F)c(F)c(F)c(F)c4F)c4nc(c(-c5c(F)c(F)c(F)c(F)c5F)c5ccc2[nH]5)C=C4)C=C3)cc1
REMARK SMILES IDX 16 1 15 2 13 3 14 4 11 6 12 7 2 8 1 9 3 10 4 13 5 14 7 15
REMARK SMILES IDX 10 16 6 17 8 18 9 19 17 20 18 21 19 22 20 23 21 25 22 26
REMARK SMILES IDX 23 27 84 28 24 29 83 30 25 31 26 32 27 33 77 34 28 35 82 36
REMARK SMILES IDX 76 37 78 38 29 39 81 40 75 41 74 42 30 44 62 45 42 46 61 47
REMARK SMILES IDX 43 48 46 49 60 50 79 51 44 52 45 53 59 55 80 56 47 57 31 58
REMARK SMILES IDX 32 59 40 60 33 61 34 62 38 63 41 64 35 65 36 66 39 67 37 68
REMARK SMILES IDX 63 69 64 70 72 71 65 72 66 73 70 74 73 75 67 76 68 77 71 78
REMARK SMILES IDX 69 79 48 80 49 81 57 82 50 83 51 84 55 85 58 86 52 87 53 88
REMARK SMILES IDX 56 89 54 90
REMARK H PARENT 15 5 3 11 3 12 19 24 78 43 46 54
REMARK Flexibility Score: inf
ROOT
ATOM      1  C   UNL A   1      32.069  30.638  26.281  1.00  0.00     0.117 C 
ENDROOT
BRANCH   1   2
ATOM      2  N   UNL A   1      31.752  29.626  27.269  1.00  0.00    -0.356 N 
ATOM      3  C   UNL A   1      31.758  28.273  27.193  1.00  0.00     0.228 C 
ATOM      4  O   UNL A   1      31.335  27.658  28.177  1.00  0.00    -0.275 OA
ATOM      5  H   UNL A   1      31.487  29.982  28.148  1.00  0.00     0.163 HD
BRANCH   3   6
ATOM      6  C   UNL A   1      32.242  27.523  25.964  1.00  0.00     0.133 C 
ATOM      7  C   UNL A   1      33.775  27.505  25.942  1.00  0.00     0.024 C 
BRANCH   6   8
ATOM      8  C   UNL A   1      31.623  26.119  25.703  1.00  0.00     0.191 C 
ATOM      9  C   UNL A   1      30.191  26.254  25.166  1.00  0.00     0.076 C 
BRANCH   8  10
ATOM     10  N   UNL A   1      31.655  25.119  26.781  1.00  0.00    -0.341 N 
ATOM     11  H   UNL A   1      30.869  25.310  27.401  1.00  0.00     0.346 HD
ATOM     12  H   UNL A   1      32.576  25.222  27.208  1.00  0.00     0.346 HD
BRANCH  10  13
ATOM     13  C   UNL A   1      31.575  23.712  26.386  1.00  0.00     0.296 C 
BRANCH  13  14
ATOM     14  C   UNL A   1      32.936  22.956  26.562  1.00  0.00     0.114 C 
ATOM     15  C   UNL A   1      34.155  23.812  26.219  1.00  0.00     0.043 C 
ATOM     16  O   UNL A   1      32.967  21.886  25.593  1.00  0.00    -0.369 OA
ATOM     17  C   UNL A   1      33.075  22.340  27.957  1.00  0.00     0.048 C 
ATOM     18  C   UNL A   1      34.171  23.751  24.714  1.00  0.00     0.032 C 
ATOM     19  C   UNL A   1      33.685  22.342  24.434  1.00  0.00     0.161 C 
ENDBRANCH  13  14
ENDBRANCH  10  13
ENDBRANCH   8  10
ENDBRANCH   6   8
ENDBRANCH   3   6
ENDBRANCH   1   2
BRANCH   1  20
ATOM     20  C   UNL A   1      31.663  32.017  26.757  1.00  0.00     0.042 C 
BRANCH  20  21
ATOM     21  C   UNL A   1      32.817  32.794  27.375  1.00  0.00     0.118 C 
BRANCH  21  22
ATOM     22  N   UNL A   1      32.483  34.188  27.648  1.00  0.00    -0.352 N 
ATOM     23  C   UNL A   1      32.993  35.023  28.613  1.00  0.00     0.251 C 
ATOM     24  H   UNL A   1      31.801  34.584  27.061  1.00  0.00     0.163 HD
ATOM     25  O   UNL A   1      32.483  36.118  28.824  1.00  0.00    -0.269 OA
BRANCH  23  26
ATOM     26  C   UNL A   1      34.144  34.569  29.415  1.00  0.00     0.039 A 
ATOM     27  C   UNL A   1      33.921  34.005  30.672  1.00  0.00     0.014 A 
ATOM     28  C   UNL A   1      35.437  34.650  28.892  1.00  0.00     0.014 A 
ATOM     29  C   UNL A   1      34.991  33.446  31.371  1.00  0.00     0.010 A 
ATOM     30  C   UNL A   1      36.479  34.003  29.540  1.00  0.00     0.010 A 
ATOM     31  C   UNL A   1      36.269  33.400  30.788  1.00  0.00    -0.014 A 
BRANCH  31  32
ATOM     32  C   UNL A   1      37.408  32.739  31.471  1.00  0.00     0.031 A 
ATOM     33  C   UNL A   1      38.105  31.584  30.809  1.00  0.00     0.074 A 
ATOM     34  C   UNL A   1      37.761  33.127  32.712  1.00  0.00     0.049 A 
ATOM     35  N   UNL A   1      39.059  30.815  31.273  1.00  0.00    -0.248 NA
ATOM     36  C   UNL A   1      37.644  31.219  29.460  1.00  0.00     0.031 C 
ATOM     37  C   UNL A   1      37.121  34.197  33.480  1.00  0.00     0.029 A 
ATOM     38  N   UNL A   1      38.739  32.656  33.552  1.00  0.00    -0.354 N 
ATOM     39  C   UNL A   1      39.294  29.871  30.282  1.00  0.00     0.074 A 
ATOM     40  C   UNL A   1      38.344  30.120  29.222  1.00  0.00     0.031 C 
ATOM     41  C   UNL A   1      37.741  34.320  34.664  1.00  0.00     0.029 A 
ATOM     42  C   UNL A   1      38.794  33.313  34.757  1.00  0.00     0.049 A 
ATOM     43  H   UNL A   1      39.343  31.916  33.313  1.00  0.00     0.167 HD
ATOM     44  C   UNL A   1      40.238  28.903  30.247  1.00  0.00     0.037 A 
ATOM     45  C   UNL A   1      39.602  33.120  35.817  1.00  0.00     0.037 A 
ATOM     46  C   UNL A   1      41.203  28.681  31.290  1.00  0.00     0.049 A 
ATOM     47  C   UNL A   1      40.647  32.039  35.750  1.00  0.00     0.074 A 
ATOM     48  C   UNL A   1      42.242  27.769  31.326  1.00  0.00     0.029 A 
ATOM     49  N   UNL A   1      41.246  29.386  32.485  1.00  0.00    -0.354 N 
ATOM     50  N   UNL A   1      40.908  31.198  34.779  1.00  0.00    -0.248 NA
ATOM     51  C   UNL A   1      41.514  31.884  36.926  1.00  0.00     0.031 C 
ATOM     52  C   UNL A   1      42.887  27.891  32.562  1.00  0.00     0.029 A 
ATOM     53  C   UNL A   1      42.282  28.915  33.274  1.00  0.00     0.049 A 
ATOM     54  H   UNL A   1      40.631  30.113  32.735  1.00  0.00     0.167 HD
ATOM     55  C   UNL A   1      41.985  30.437  35.212  1.00  0.00     0.074 A 
ATOM     56  C   UNL A   1      42.339  30.926  36.528  1.00  0.00     0.031 C 
ATOM     57  C   UNL A   1      42.625  29.424  34.577  1.00  0.00     0.037 A 
BRANCH  44  58
ATOM     58  C   UNL A   1      40.278  28.018  29.034  1.00  0.00     0.064 A 
ATOM     59  C   UNL A   1      39.572  26.805  28.985  1.00  0.00     0.173 A 
ATOM     60  C   UNL A   1      41.008  28.398  27.899  1.00  0.00     0.173 A 
ATOM     61  F   UNL A   1      38.870  26.389  30.050  1.00  0.00    -0.203 F 
ATOM     62  C   UNL A   1      39.622  25.991  27.857  1.00  0.00     0.198 A 
ATOM     63  C   UNL A   1      41.029  27.596  26.759  1.00  0.00     0.198 A 
ATOM     64  F   UNL A   1      41.698  29.548  27.891  1.00  0.00    -0.203 F 
ATOM     65  F   UNL A   1      38.984  24.813  27.855  1.00  0.00    -0.200 F 
ATOM     66  C   UNL A   1      40.344  26.391  26.742  1.00  0.00     0.200 A 
ATOM     67  F   UNL A   1      41.717  27.991  25.678  1.00  0.00    -0.200 F 
ATOM     68  F   UNL A   1      40.385  25.610  25.654  1.00  0.00    -0.200 F 
ENDBRANCH  44  58
BRANCH  45  69
ATOM     69  C   UNL A   1      39.478  33.989  37.016  1.00  0.00     0.064 A 
ATOM     70  C   UNL A   1      38.746  33.567  38.135  1.00  0.00     0.173 A 
ATOM     71  C   UNL A   1      40.078  35.255  37.069  1.00  0.00     0.173 A 
ATOM     72  F   UNL A   1      38.138  32.372  38.124  1.00  0.00    -0.203 F 
ATOM     73  C   UNL A   1      38.602  34.387  39.252  1.00  0.00     0.198 A 
ATOM     74  C   UNL A   1      39.957  36.062  38.198  1.00  0.00     0.198 A 
ATOM     75  F   UNL A   1      40.795  35.703  36.028  1.00  0.00    -0.203 F 
ATOM     76  F   UNL A   1      37.858  33.976  40.289  1.00  0.00    -0.200 F 
ATOM     77  C   UNL A   1      39.212  35.631  39.286  1.00  0.00     0.200 A 
ATOM     78  F   UNL A   1      40.562  37.258  38.233  1.00  0.00    -0.200 F 
ATOM     79  F   UNL A   1      39.076  36.418  40.362  1.00  0.00    -0.200 F 
ENDBRANCH  45  69
BRANCH  57  80
ATOM     80  C   UNL A   1      43.797  28.804  35.280  1.00  0.00     0.064 A 
ATOM     81  C   UNL A   1      45.105  29.267  35.082  1.00  0.00     0.173 A 
ATOM     82  C   UNL A   1      43.599  27.760  36.197  1.00  0.00     0.173 A 
ATOM     83  F   UNL A   1      45.347  30.253  34.204  1.00  0.00    -0.203 F 
ATOM     84  C   UNL A   1      46.177  28.691  35.758  1.00  0.00     0.198 A 
ATOM     85  C   UNL A   1      44.669  27.207  36.894  1.00  0.00     0.198 A 
ATOM     86  F   UNL A   1      42.366  27.286  36.428  1.00  0.00    -0.203 F 
ATOM     87  F   UNL A   1      47.425  29.117  35.518  1.00  0.00    -0.200 F 
ATOM     88  C   UNL A   1      45.958  27.668  36.669  1.00  0.00     0.200 A 
ATOM     89  F   UNL A   1      44.454  26.229  37.784  1.00  0.00    -0.200 F 
ATOM     90  F   UNL A   1      46.990  27.120  37.325  1.00  0.00    -0.200 F 
ENDBRANCH  57  80
ENDBRANCH  31  32
ENDBRANCH  23  26
ENDBRANCH  21  22
ENDBRANCH  20  21
ENDBRANCH   1  20
TORSDOF 14
ENDMDL
MODEL 3
REMARK VINA RESULT:     -11.3      0.055      1.641
REMARK SMILES C[C@H]([NH2+]C[C@]1(C)CCCO1)[C@H](C)C(=O)NCCCNC(=O)c1ccc(-c2c3nc(c(-c4c(F)c(F)c(F)c(F)c4F)c4ccc([nH]4)c(-c4c(F)c(F)c(F)c(F)c4F)c4nc(c(-c5c(F)c(F)c(F)c(F)c5F)c5ccc2[nH]5)C=C4)C=C3)cc1
REMARK SMILES IDX 16 1 15 2 13 3 14 4 11 6 12 7 2 8 1 9 3 10 4 13 5 14 7 15
REMARK SMILES IDX 10 16 6 17 8 18 9 19 17 20 18 21 19 22 20 23 21 25 22 26
REMARK SMILES IDX 23 27 84 28 24 29 83 30 25 31 26 32 27 33 77 34 28 35 82 36
REMARK SMILES IDX 76 37 78 38 29 39 81 40 75 41 74 42 30 44 62 45 42 46 61 47
REMARK SMILES IDX 43 48 46 49 60 50 79 51 44 52 45 53 59 55 80 56 47 57 31 58
REMARK SMILES IDX 32 59 40 60 33 61 34 62 38 63 41 64 35 65 36 66 39 67 37 68
REMARK SMILES IDX 63 69 64 70 72 71 65 72 66 73 70 74 73 75 67 76 68 77 71 78
REMARK SMILES IDX 69 79 48 80 49 81 57 82 50 83 51 84 55 85 58 86 52 87 53 88
REMARK SMILES IDX 56 89 54 90
REMARK H PARENT 15 5 3 11 3 12 19 24 78 43 46 54
REMARK Flexibility Score: inf
ROOT
ATOM      1  C   UNL A   1      31.920  30.363  26.676  1.00  0.00     0.117 C 
ENDROOT
BRANCH   1   2
ATOM      2  N   UNL A   1      32.626  30.066  25.446  1.00  0.00    -0.356 N 
ATOM      3  C   UNL A   1      32.245  29.376  24.343  1.00  0.00     0.228 C 
ATOM      4  O   UNL A   1      33.107  29.191  23.478  1.00  0.00    -0.275 OA
ATOM      5  H   UNL A   1      33.541  30.428  25.403  1.00  0.00     0.163 HD
BRANCH   3   6
ATOM      6  C   UNL A   1      30.839  28.833  24.161  1.00  0.00     0.133 C 
ATOM      7  C   UNL A   1      29.942  29.920  23.558  1.00  0.00     0.024 C 
BRANCH   6   8
ATOM      8  C   UNL A   1      30.699  27.466  23.430  1.00  0.00     0.191 C 
ATOM      9  C   UNL A   1      29.373  26.788  23.805  1.00  0.00     0.076 C 
BRANCH   8  10
ATOM     10  N   UNL A   1      31.798  26.493  23.529  1.00  0.00    -0.341 N 
ATOM     11  H   UNL A   1      32.645  27.010  23.765  1.00  0.00     0.346 HD
ATOM     12  H   UNL A   1      31.816  26.024  22.624  1.00  0.00     0.346 HD
BRANCH  10  13
ATOM     13  C   UNL A   1      31.648  25.417  24.511  1.00  0.00     0.296 C 
BRANCH  13  14
ATOM     14  C   UNL A   1      32.477  25.670  25.815  1.00  0.00     0.114 C 
ATOM     15  C   UNL A   1      33.902  26.152  25.546  1.00  0.00     0.043 C 
ATOM     16  O   UNL A   1      32.649  24.397  26.474  1.00  0.00    -0.369 OA
ATOM     17  C   UNL A   1      31.754  26.613  26.782  1.00  0.00     0.048 C 
ATOM     18  C   UNL A   1      34.609  24.869  25.195  1.00  0.00     0.032 C 
ATOM     19  C   UNL A   1      33.927  23.858  26.096  1.00  0.00     0.161 C 
ENDBRANCH  13  14
ENDBRANCH  10  13
ENDBRANCH   8  10
ENDBRANCH   6   8
ENDBRANCH   3   6
ENDBRANCH   1   2
BRANCH   1  20
ATOM     20  C   UNL A   1      31.618  31.842  26.794  1.00  0.00     0.042 C 
BRANCH  20  21
ATOM     21  C   UNL A   1      32.789  32.644  27.344  1.00  0.00     0.118 C 
BRANCH  21  22
ATOM     22  N   UNL A   1      32.454  34.040  27.601  1.00  0.00    -0.352 N 
ATOM     23  C   UNL A   1      32.968  34.889  28.552  1.00  0.00     0.251 C 
ATOM     24  H   UNL A   1      31.766  34.427  27.014  1.00  0.00     0.163 HD
ATOM     25  O   UNL A   1      32.456  35.986  28.752  1.00  0.00    -0.269 OA
BRANCH  23  26
ATOM     26  C   UNL A   1      34.126  34.449  29.352  1.00  0.00     0.039 A 
ATOM     27  C   UNL A   1      33.909  33.817  30.576  1.00  0.00     0.014 A 
ATOM     28  C   UNL A   1      35.422  34.612  28.856  1.00  0.00     0.014 A 
ATOM     29  C   UNL A   1      34.992  33.273  31.267  1.00  0.00     0.010 A 
ATOM     30  C   UNL A   1      36.482  33.982  29.491  1.00  0.00     0.010 A 
ATOM     31  C   UNL A   1      36.280  33.312  30.706  1.00  0.00    -0.014 A 
BRANCH  31  32
ATOM     32  C   UNL A   1      37.437  32.670  31.377  1.00  0.00     0.031 A 
ATOM     33  C   UNL A   1      38.156  31.536  30.701  1.00  0.00     0.074 A 
ATOM     34  C   UNL A   1      37.788  33.055  32.619  1.00  0.00     0.049 A 
ATOM     35  N   UNL A   1      39.129  30.785  31.153  1.00  0.00    -0.248 NA
ATOM     36  C   UNL A   1      37.696  31.173  29.351  1.00  0.00     0.031 C 
ATOM     37  C   UNL A   1      37.128  34.103  33.400  1.00  0.00     0.029 A 
ATOM     38  N   UNL A   1      38.780  32.598  33.450  1.00  0.00    -0.354 N 
ATOM     39  C   UNL A   1      39.380  29.855  30.152  1.00  0.00     0.074 A 
ATOM     40  C   UNL A   1      38.418  30.092  29.099  1.00  0.00     0.031 C 
ATOM     41  C   UNL A   1      37.753  34.230  34.582  1.00  0.00     0.029 A 
ATOM     42  C   UNL A   1      38.827  33.246  34.660  1.00  0.00     0.049 A 
ATOM     43  H   UNL A   1      39.400  31.874  33.201  1.00  0.00     0.167 HD
ATOM     44  C   UNL A   1      40.345  28.908  30.104  1.00  0.00     0.037 A 
ATOM     45  C   UNL A   1      39.646  33.062  35.714  1.00  0.00     0.037 A 
ATOM     46  C   UNL A   1      41.320  28.699  31.140  1.00  0.00     0.049 A 
ATOM     47  C   UNL A   1      40.714  32.004  35.632  1.00  0.00     0.074 A 
ATOM     48  C   UNL A   1      42.379  27.809  31.163  1.00  0.00     0.029 A 
ATOM     49  N   UNL A   1      41.354  29.394  32.341  1.00  0.00    -0.354 N 
ATOM     50  N   UNL A   1      40.988  31.178  34.653  1.00  0.00    -0.248 NA
ATOM     51  C   UNL A   1      41.591  31.859  36.802  1.00  0.00     0.031 C 
ATOM     52  C   UNL A   1      43.027  27.935  32.396  1.00  0.00     0.029 A 
ATOM     53  C   UNL A   1      42.404  28.939  33.121  1.00  0.00     0.049 A 
ATOM     54  H   UNL A   1      40.724  30.105  32.601  1.00  0.00     0.167 HD
ATOM     55  C   UNL A   1      42.084  30.438  35.073  1.00  0.00     0.074 A 
ATOM     56  C   UNL A   1      42.434  30.923  36.392  1.00  0.00     0.031 C 
ATOM     57  C   UNL A   1      42.743  29.445  34.426  1.00  0.00     0.037 A 
BRANCH  44  58
ATOM     58  C   UNL A   1      40.398  28.034  28.884  1.00  0.00     0.064 A 
ATOM     59  C   UNL A   1      41.151  28.394  27.754  1.00  0.00     0.173 A 
ATOM     60  C   UNL A   1      39.711  26.812  28.852  1.00  0.00     0.173 A 
ATOM     61  F   UNL A   1      41.814  29.559  27.728  1.00  0.00    -0.203 F 
ATOM     62  C   UNL A   1      41.187  27.578  26.627  1.00  0.00     0.198 A 
ATOM     63  C   UNL A   1      39.776  25.982  27.735  1.00  0.00     0.198 A 
ATOM     64  F   UNL A   1      38.980  26.418  29.905  1.00  0.00    -0.203 F 
ATOM     65  F   UNL A   1      41.867  27.968  25.541  1.00  0.00    -0.200 F 
ATOM     66  C   UNL A   1      40.506  26.369  26.622  1.00  0.00     0.200 A 
ATOM     67  F   UNL A   1      39.129  24.808  27.736  1.00  0.00    -0.200 F 
ATOM     68  F   UNL A   1      40.548  25.581  25.539  1.00  0.00    -0.200 F 
ENDBRANCH  44  58
BRANCH  45  69
ATOM     69  C   UNL A   1      39.509  33.917  36.921  1.00  0.00     0.064 A 
ATOM     70  C   UNL A   1      38.797  33.467  38.042  1.00  0.00     0.173 A 
ATOM     71  C   UNL A   1      40.077  35.198  36.980  1.00  0.00     0.173 A 
ATOM     72  F   UNL A   1      38.219  32.257  38.026  1.00  0.00    -0.203 F 
ATOM     73  C   UNL A   1      38.641  34.274  39.168  1.00  0.00     0.198 A 
ATOM     74  C   UNL A   1      39.944  35.992  38.117  1.00  0.00     0.198 A 
ATOM     75  F   UNL A   1      40.774  35.673  35.937  1.00  0.00    -0.203 F 
ATOM     76  F   UNL A   1      37.916  33.836  40.207  1.00  0.00    -0.200 F 
ATOM     77  C   UNL A   1      39.219  35.533  39.207  1.00  0.00     0.200 A 
ATOM     78  F   UNL A   1      40.519  37.202  38.158  1.00  0.00    -0.200 F 
ATOM     79  F   UNL A   1      39.072  36.307  40.291  1.00  0.00    -0.200 F 
ENDBRANCH  45  69
BRANCH  57  80
ATOM     80  C   UNL A   1      43.932  28.844  35.117  1.00  0.00     0.064 A 
ATOM     81  C   UNL A   1      45.220  29.377  34.966  1.00  0.00     0.173 A 
ATOM     82  C   UNL A   1      43.770  27.747  35.977  1.00  0.00     0.173 A 
ATOM     83  F   UNL A   1      45.428  30.417  34.144  1.00  0.00    -0.203 F 
ATOM     84  C   UNL A   1      46.307  28.818  35.631  1.00  0.00     0.198 A 
ATOM     85  C   UNL A   1      44.854  27.209  36.664  1.00  0.00     0.198 A 
ATOM     86  F   UNL A   1      42.557  27.205  36.162  1.00  0.00    -0.203 F 
ATOM     87  F   UNL A   1      47.536  29.313  35.435  1.00  0.00    -0.200 F 
ATOM     88  C   UNL A   1      46.122  27.741  36.485  1.00  0.00     0.200 A 
ATOM     89  F   UNL A   1      44.672  26.178  37.500  1.00  0.00    -0.200 F 
ATOM     90  F   UNL A   1      47.170  27.208  37.131  1.00  0.00    -0.200 F 
ENDBRANCH  57  80
ENDBRANCH  31  32
ENDBRANCH  23  26
ENDBRANCH  21  22
ENDBRANCH  20  21
ENDBRANCH   1  20
TORSDOF 14
ENDMDL
