MODEL 1
REMARK VINA RESULT:     -11.1      0.000      0.000
REMARK SMILES O=C(CCSc1ccccc1F)N[C@H](CO)C(=O)NCCCNC(=O)c1ccc(-c2c3nc(c(-c4c(F)c(F)c(F)c(F)c4F)c4ccc([nH]4)c(-c4c(F)c(F)c(F)c(F)c4F)c4nc(c(-c5c(F)c(F)c(F)c(F)c5F)c5ccc2[nH]5)C=C4)C=C3)cc1
REMARK SMILES IDX 17 1 18 2 19 3 14 5 13 6 1 7 2 8 3 10 4 11 5 12 6 13 7 14
REMARK SMILES IDX 11 15 8 16 10 17 12 18 9 19 15 20 16 21 20 23 21 24 22 25
REMARK SMILES IDX 23 26 24 27 25 29 26 30 27 31 88 32 28 33 87 34 29 35 30 36
REMARK SMILES IDX 31 37 81 38 32 39 86 40 80 41 82 42 33 43 85 44 79 45 78 46
REMARK SMILES IDX 34 48 66 49 46 50 65 51 47 52 50 53 64 54 83 55 48 56 49 57
REMARK SMILES IDX 63 59 84 60 51 61 35 62 36 63 44 64 37 65 38 66 42 67 45 68
REMARK SMILES IDX 39 69 40 70 43 71 41 72 67 73 68 74 76 75 69 76 70 77 74 78
REMARK SMILES IDX 77 79 71 80 72 81 75 82 73 83 52 84 53 85 61 86 54 87 55 88
REMARK SMILES IDX 59 89 62 90 56 91 57 92 60 93 58 94
REMARK H PARENT 19 4 13 9 16 22 23 28 82 47 50 58
REMARK Flexibility Score: inf
ROOT
ATOM      1  C   UNL A   1      34.932  21.400  25.827  1.00  0.00     0.244 C 
ATOM      2  O   UNL A   1      34.447  22.022  26.776  1.00  0.00    -0.273 OA
ATOM      3  N   UNL A   1      36.286  21.247  25.779  1.00  0.00    -0.354 N 
ATOM      4  H   UNL A   1      36.758  21.392  26.630  1.00  0.00     0.163 HD
ENDROOT
BRANCH   1   5
ATOM      5  C   UNL A   1      34.060  20.968  24.641  1.00  0.00     0.197 C 
BRANCH   5   6
ATOM      6  N   UNL A   1      33.265  22.094  24.144  1.00  0.00    -0.342 N 
ATOM      7  O   UNL A   1      34.872  22.959  22.748  1.00  0.00    -0.275 OA
ATOM      8  C   UNL A   1      33.775  23.040  23.286  1.00  0.00     0.221 C 
ATOM      9  H   UNL A   1      32.328  22.176  24.435  1.00  0.00     0.164 HD
BRANCH   8  10
ATOM     10  C   UNL A   1      32.882  24.249  23.131  1.00  0.00     0.111 C 
BRANCH  10  11
ATOM     11  C   UNL A   1      33.550  25.526  23.609  1.00  0.00     0.085 C 
BRANCH  11  12
ATOM     12  S   UNL A   1      34.185  25.423  25.328  1.00  0.00    -0.123 SA
BRANCH  12  13
ATOM     13  C   UNL A   1      33.412  26.826  26.124  1.00  0.00     0.043 A 
ATOM     14  C   UNL A   1      34.096  28.024  26.354  1.00  0.00     0.018 A 
ATOM     15  C   UNL A   1      32.063  26.752  26.500  1.00  0.00     0.136 A 
ATOM     16  C   UNL A   1      33.433  29.129  26.897  1.00  0.00     0.001 A 
ATOM     17  C   UNL A   1      31.404  27.843  27.066  1.00  0.00     0.040 A 
ATOM     18  F   UNL A   1      31.341  25.652  26.232  1.00  0.00    -0.206 F 
ATOM     19  C   UNL A   1      32.087  29.041  27.251  1.00  0.00     0.003 A 
ENDBRANCH  12  13
ENDBRANCH  11  12
ENDBRANCH  10  11
ENDBRANCH   8  10
ENDBRANCH   5   6
BRANCH   5  20
ATOM     20  C   UNL A   1      33.154  19.802  25.089  1.00  0.00     0.191 C 
BRANCH  20  21
ATOM     21  O   UNL A   1      33.182  19.503  26.480  1.00  0.00    -0.394 OA
ATOM     22  H   UNL A   1      33.271  18.545  26.602  1.00  0.00     0.210 HD
ENDBRANCH  20  21
ENDBRANCH   5  20
ENDBRANCH   1   5
BRANCH   3  23
ATOM     23  C   UNL A   1      37.130  20.901  24.649  1.00  0.00     0.117 C 
BRANCH  23  24
ATOM     24  C   UNL A   1      38.063  19.764  25.001  1.00  0.00     0.042 C 
BRANCH  24  25
ATOM     25  C   UNL A   1      39.253  20.239  25.807  1.00  0.00     0.118 C 
BRANCH  25  26
ATOM     26  N   UNL A   1      40.243  19.181  25.981  1.00  0.00    -0.352 N 
ATOM     27  C   UNL A   1      41.604  19.282  26.102  1.00  0.00     0.251 C 
ATOM     28  H   UNL A   1      39.883  18.266  26.017  1.00  0.00     0.163 HD
ATOM     29  O   UNL A   1      42.319  18.303  25.941  1.00  0.00    -0.269 OA
BRANCH  27  30
ATOM     30  C   UNL A   1      42.187  20.598  26.418  1.00  0.00     0.039 A 
ATOM     31  C   UNL A   1      42.609  21.425  25.380  1.00  0.00     0.014 A 
ATOM     32  C   UNL A   1      42.281  21.017  27.749  1.00  0.00     0.014 A 
ATOM     33  C   UNL A   1      43.071  22.704  25.681  1.00  0.00     0.010 A 
ATOM     34  C   UNL A   1      42.613  22.329  28.033  1.00  0.00     0.010 A 
ATOM     35  C   UNL A   1      43.035  23.178  27.004  1.00  0.00    -0.014 A 
BRANCH  35  36
ATOM     36  C   UNL A   1      43.449  24.560  27.330  1.00  0.00     0.031 A 
ATOM     37  C   UNL A   1      42.415  25.587  27.698  1.00  0.00     0.074 A 
ATOM     38  C   UNL A   1      44.753  24.888  27.256  1.00  0.00     0.049 A 
ATOM     39  N   UNL A   1      42.583  26.845  28.014  1.00  0.00    -0.248 NA
ATOM     40  C   UNL A   1      41.007  25.158  27.680  1.00  0.00     0.031 C 
ATOM     41  C   UNL A   1      45.828  23.984  26.840  1.00  0.00     0.029 A 
ATOM     42  N   UNL A   1      45.398  26.064  27.535  1.00  0.00    -0.354 N 
ATOM     43  C   UNL A   1      41.309  27.350  28.229  1.00  0.00     0.074 A 
ATOM     44  C   UNL A   1      40.372  26.292  27.935  1.00  0.00     0.031 C 
ATOM     45  C   UNL A   1      47.003  24.622  26.943  1.00  0.00     0.029 A 
ATOM     46  C   UNL A   1      46.761  25.991  27.388  1.00  0.00     0.049 A 
ATOM     47  H   UNL A   1      44.928  26.883  27.814  1.00  0.00     0.167 HD
ATOM     48  C   UNL A   1      40.958  28.578  28.673  1.00  0.00     0.037 A 
ATOM     49  C   UNL A   1      47.709  26.924  27.597  1.00  0.00     0.037 A 
ATOM     50  C   UNL A   1      41.903  29.614  28.989  1.00  0.00     0.049 A 
ATOM     51  C   UNL A   1      47.289  28.282  28.087  1.00  0.00     0.074 A 
ATOM     52  C   UNL A   1      41.657  30.875  29.501  1.00  0.00     0.029 A 
ATOM     53  N   UNL A   1      43.277  29.505  28.825  1.00  0.00    -0.354 N 
ATOM     54  N   UNL A   1      46.086  28.727  28.360  1.00  0.00    -0.248 NA
ATOM     55  C   UNL A   1      48.357  29.267  28.303  1.00  0.00     0.031 C 
ATOM     56  C   UNL A   1      42.876  31.551  29.593  1.00  0.00     0.029 A 
ATOM     57  C   UNL A   1      43.889  30.690  29.200  1.00  0.00     0.049 A 
ATOM     58  H   UNL A   1      43.746  28.706  28.493  1.00  0.00     0.167 HD
ATOM     59  C   UNL A   1      46.250  30.034  28.794  1.00  0.00     0.074 A 
ATOM     60  C   UNL A   1      47.674  30.302  28.775  1.00  0.00     0.031 C 
ATOM     61  C   UNL A   1      45.309  30.935  29.168  1.00  0.00     0.037 A 
BRANCH  48  62
ATOM     62  C   UNL A   1      39.498  28.866  28.868  1.00  0.00     0.064 A 
ATOM     63  C   UNL A   1      38.712  29.326  27.802  1.00  0.00     0.173 A 
ATOM     64  C   UNL A   1      38.895  28.764  30.132  1.00  0.00     0.173 A 
ATOM     65  F   UNL A   1      39.239  29.441  26.575  1.00  0.00    -0.203 F 
ATOM     66  C   UNL A   1      37.384  29.695  27.998  1.00  0.00     0.198 A 
ATOM     67  C   UNL A   1      37.558  29.104  30.317  1.00  0.00     0.198 A 
ATOM     68  F   UNL A   1      39.599  28.313  31.182  1.00  0.00    -0.203 F 
ATOM     69  F   UNL A   1      36.664  30.170  26.973  1.00  0.00    -0.200 F 
ATOM     70  C   UNL A   1      36.807  29.582  29.255  1.00  0.00     0.200 A 
ATOM     71  F   UNL A   1      36.996  28.969  31.527  1.00  0.00    -0.200 F 
ATOM     72  F   UNL A   1      35.528  29.933  29.440  1.00  0.00    -0.200 F 
ENDBRANCH  48  62
BRANCH  49  73
ATOM     73  C   UNL A   1      49.139  26.583  27.377  1.00  0.00     0.064 A 
ATOM     74  C   UNL A   1      49.684  26.517  26.086  1.00  0.00     0.173 A 
ATOM     75  C   UNL A   1      49.982  26.284  28.456  1.00  0.00     0.173 A 
ATOM     76  F   UNL A   1      48.918  26.786  25.018  1.00  0.00    -0.203 F 
ATOM     77  C   UNL A   1      51.011  26.146  25.882  1.00  0.00     0.198 A 
ATOM     78  C   UNL A   1      51.318  25.943  28.253  1.00  0.00     0.198 A 
ATOM     79  F   UNL A   1      49.513  26.347  29.710  1.00  0.00    -0.203 F 
ATOM     80  F   UNL A   1      51.494  26.051  24.637  1.00  0.00    -0.200 F 
ATOM     81  C   UNL A   1      51.828  25.865  26.966  1.00  0.00     0.200 A 
ATOM     82  F   UNL A   1      52.111  25.695  29.304  1.00  0.00    -0.200 F 
ATOM     83  F   UNL A   1      53.109  25.520  26.771  1.00  0.00    -0.200 F 
ENDBRANCH  49  73
BRANCH  61  84
ATOM     84  C   UNL A   1      45.784  32.295  29.590  1.00  0.00     0.064 A 
ATOM     85  C   UNL A   1      45.934  33.322  28.646  1.00  0.00     0.173 A 
ATOM     86  C   UNL A   1      46.158  32.559  30.916  1.00  0.00     0.173 A 
ATOM     87  F   UNL A   1      45.601  33.116  27.362  1.00  0.00    -0.203 F 
ATOM     88  C   UNL A   1      46.454  34.559  29.012  1.00  0.00     0.198 A 
ATOM     89  C   UNL A   1      46.644  33.809  31.285  1.00  0.00     0.198 A 
ATOM     90  F   UNL A   1      46.024  31.612  31.857  1.00  0.00    -0.203 F 
ATOM     91  F   UNL A   1      46.625  35.513  28.086  1.00  0.00    -0.200 F 
ATOM     92  C   UNL A   1      46.802  34.804  30.332  1.00  0.00     0.200 A 
ATOM     93  F   UNL A   1      46.954  34.054  32.566  1.00  0.00    -0.200 F 
ATOM     94  F   UNL A   1      47.287  36.002  30.686  1.00  0.00    -0.200 F 
ENDBRANCH  61  84
ENDBRANCH  35  36
ENDBRANCH  27  30
ENDBRANCH  25  26
ENDBRANCH  24  25
ENDBRANCH  23  24
ENDBRANCH   3  23
TORSDOF 17
ENDMDL
MODEL 2
REMARK VINA RESULT:     -11.0      5.678     10.015
REMARK SMILES O=C(CCSc1ccccc1F)N[C@H](CO)C(=O)NCCCNC(=O)c1ccc(-c2c3nc(c(-c4c(F)c(F)c(F)c(F)c4F)c4ccc([nH]4)c(-c4c(F)c(F)c(F)c(F)c4F)c4nc(c(-c5c(F)c(F)c(F)c(F)c5F)c5ccc2[nH]5)C=C4)C=C3)cc1
REMARK SMILES IDX 17 1 18 2 19 3 14 5 13 6 1 7 2 8 3 10 4 11 5 12 6 13 7 14
REMARK SMILES IDX 11 15 8 16 10 17 12 18 9 19 15 20 16 21 20 23 21 24 22 25
REMARK SMILES IDX 23 26 24 27 25 29 26 30 27 31 88 32 28 33 87 34 29 35 30 36
REMARK SMILES IDX 31 37 81 38 32 39 86 40 80 41 82 42 33 43 85 44 79 45 78 46
REMARK SMILES IDX 34 48 66 49 46 50 65 51 47 52 50 53 64 54 83 55 48 56 49 57
REMARK SMILES IDX 63 59 84 60 51 61 35 62 36 63 44 64 37 65 38 66 42 67 45 68
REMARK SMILES IDX 39 69 40 70 43 71 41 72 67 73 68 74 76 75 69 76 70 77 74 78
REMARK SMILES IDX 77 79 71 80 72 81 75 82 73 83 52 84 53 85 61 86 54 87 55 88
REMARK SMILES IDX 59 89 62 90 56 91 57 92 60 93 58 94
REMARK H PARENT 19 4 13 9 16 22 23 28 82 47 50 58
REMARK Flexibility Score: inf
ROOT
ATOM      1  C   UNL A   1      33.306  29.220  25.968  1.00  0.00     0.244 C 
ATOM      2  O   UNL A   1      34.406  28.840  26.379  1.00  0.00    -0.273 OA
ATOM      3  N   UNL A   1      32.804  30.391  26.455  1.00  0.00    -0.354 N 
ATOM      4  H   UNL A   1      33.462  30.989  26.878  1.00  0.00     0.163 HD
ENDROOT
BRANCH   1   5
ATOM      5  C   UNL A   1      32.443  28.318  25.077  1.00  0.00     0.197 C 
BRANCH   5   6
ATOM      6  N   UNL A   1      32.896  26.926  25.153  1.00  0.00    -0.342 N 
ATOM      7  O   UNL A   1      31.325  26.217  26.673  1.00  0.00    -0.275 OA
ATOM      8  C   UNL A   1      32.334  26.010  26.010  1.00  0.00     0.221 C 
ATOM      9  H   UNL A   1      33.632  26.636  24.568  1.00  0.00     0.164 HD
BRANCH   8  10
ATOM     10  C   UNL A   1      33.132  24.731  26.126  1.00  0.00     0.111 C 
BRANCH  10  11
ATOM     11  C   UNL A   1      32.253  23.495  26.083  1.00  0.00     0.085 C 
BRANCH  11  12
ATOM     12  S   UNL A   1      32.481  22.483  24.568  1.00  0.00    -0.123 SA
BRANCH  12  13
ATOM     13  C   UNL A   1      34.253  22.250  24.507  1.00  0.00     0.043 A 
ATOM     14  C   UNL A   1      34.909  21.310  25.307  1.00  0.00     0.018 A 
ATOM     15  C   UNL A   1      35.019  22.999  23.601  1.00  0.00     0.136 A 
ATOM     16  C   UNL A   1      36.284  21.093  25.167  1.00  0.00     0.001 A 
ATOM     17  C   UNL A   1      36.394  22.804  23.476  1.00  0.00     0.040 A 
ATOM     18  F   UNL A   1      34.427  23.860  22.758  1.00  0.00    -0.206 F 
ATOM     19  C   UNL A   1      37.027  21.837  24.251  1.00  0.00     0.003 A 
ENDBRANCH  12  13
ENDBRANCH  11  12
ENDBRANCH  10  11
ENDBRANCH   8  10
ENDBRANCH   5   6
BRANCH   5  20
ATOM     20  C   UNL A   1      32.505  28.844  23.628  1.00  0.00     0.191 C 
BRANCH  20  21
ATOM     21  O   UNL A   1      33.655  29.617  23.305  1.00  0.00    -0.394 OA
ATOM     22  H   UNL A   1      33.380  30.509  23.039  1.00  0.00     0.210 HD
ENDBRANCH  20  21
ENDBRANCH   5  20
ENDBRANCH   1   5
BRANCH   3  23
ATOM     23  C   UNL A   1      31.438  30.881  26.438  1.00  0.00     0.117 C 
BRANCH  23  24
ATOM     24  C   UNL A   1      31.403  32.389  26.538  1.00  0.00     0.042 C 
BRANCH  24  25
ATOM     25  C   UNL A   1      32.602  32.933  27.285  1.00  0.00     0.118 C 
BRANCH  25  26
ATOM     26  N   UNL A   1      32.431  34.341  27.626  1.00  0.00    -0.352 N 
ATOM     27  C   UNL A   1      32.993  35.057  28.651  1.00  0.00     0.251 C 
ATOM     28  H   UNL A   1      31.829  34.850  27.037  1.00  0.00     0.163 HD
ATOM     29  O   UNL A   1      32.528  36.138  28.985  1.00  0.00    -0.269 OA
BRANCH  27  30
ATOM     30  C   UNL A   1      34.159  34.489  29.350  1.00  0.00     0.039 A 
ATOM     31  C   UNL A   1      33.981  33.865  30.582  1.00  0.00     0.014 A 
ATOM     32  C   UNL A   1      35.424  34.553  28.758  1.00  0.00     0.014 A 
ATOM     33  C   UNL A   1      35.070  33.249  31.191  1.00  0.00     0.010 A 
ATOM     34  C   UNL A   1      36.471  33.828  29.297  1.00  0.00     0.010 A 
ATOM     35  C   UNL A   1      36.312  33.189  30.532  1.00  0.00    -0.014 A 
BRANCH  35  36
ATOM     36  C   UNL A   1      37.459  32.473  31.130  1.00  0.00     0.031 A 
ATOM     37  C   UNL A   1      37.936  32.838  32.507  1.00  0.00     0.074 A 
ATOM     38  C   UNL A   1      38.084  31.522  30.411  1.00  0.00     0.049 A 
ATOM     39  N   UNL A   1      38.922  32.326  33.197  1.00  0.00    -0.248 NA
ATOM     40  C   UNL A   1      37.239  33.942  33.190  1.00  0.00     0.031 C 
ATOM     41  C   UNL A   1      37.745  31.141  29.038  1.00  0.00     0.029 A 
ATOM     42  N   UNL A   1      39.129  30.698  30.735  1.00  0.00    -0.354 N 
ATOM     43  C   UNL A   1      38.960  33.044  34.385  1.00  0.00     0.074 A 
ATOM     44  C   UNL A   1      37.954  34.075  34.296  1.00  0.00     0.031 C 
ATOM     45  C   UNL A   1      38.529  30.122  28.658  1.00  0.00     0.029 A 
ATOM     46  C   UNL A   1      39.455  29.809  29.740  1.00  0.00     0.049 A 
ATOM     47  H   UNL A   1      39.602  30.739  31.598  1.00  0.00     0.167 HD
ATOM     48  C   UNL A   1      39.741  32.830  35.468  1.00  0.00     0.037 A 
ATOM     49  C   UNL A   1      40.395  28.844  29.711  1.00  0.00     0.037 A 
ATOM     50  C   UNL A   1      40.719  31.781  35.554  1.00  0.00     0.049 A 
ATOM     51  C   UNL A   1      41.250  28.631  30.929  1.00  0.00     0.074 A 
ATOM     52  C   UNL A   1      41.523  31.441  36.628  1.00  0.00     0.029 A 
ATOM     53  N   UNL A   1      41.025  30.900  34.526  1.00  0.00    -0.354 N 
ATOM     54  N   UNL A   1      41.227  29.266  32.076  1.00  0.00    -0.248 NA
ATOM     55  C   UNL A   1      42.258  27.567  30.852  1.00  0.00     0.031 C 
ATOM     56  C   UNL A   1      42.355  30.392  36.230  1.00  0.00     0.029 A 
ATOM     57  C   UNL A   1      42.028  30.035  34.932  1.00  0.00     0.049 A 
ATOM     58  H   UNL A   1      40.594  30.892  33.641  1.00  0.00     0.167 HD
ATOM     59  C   UNL A   1      42.202  28.671  32.863  1.00  0.00     0.074 A 
ATOM     60  C   UNL A   1      42.780  27.605  32.071  1.00  0.00     0.031 C 
ATOM     61  C   UNL A   1      42.591  28.983  34.124  1.00  0.00     0.037 A 
BRANCH  48  62
ATOM     62  C   UNL A   1      39.555  33.727  36.658  1.00  0.00     0.064 A 
ATOM     63  C   UNL A   1      40.278  34.923  36.769  1.00  0.00     0.173 A 
ATOM     64  C   UNL A   1      38.722  33.362  37.727  1.00  0.00     0.173 A 
ATOM     65  F   UNL A   1      41.087  35.319  35.776  1.00  0.00    -0.203 F 
ATOM     66  C   UNL A   1      40.191  35.709  37.915  1.00  0.00     0.198 A 
ATOM     67  C   UNL A   1      38.614  34.165  38.858  1.00  0.00     0.198 A 
ATOM     68  F   UNL A   1      37.996  32.235  37.663  1.00  0.00    -0.203 F 
ATOM     69  F   UNL A   1      40.922  36.827  38.016  1.00  0.00    -0.200 F 
ATOM     70  C   UNL A   1      39.358  35.331  38.958  1.00  0.00     0.200 A 
ATOM     71  F   UNL A   1      37.788  33.811  39.852  1.00  0.00    -0.200 F 
ATOM     72  F   UNL A   1      39.273  36.090  40.058  1.00  0.00    -0.200 F 
ENDBRANCH  48  62
BRANCH  49  73
ATOM     73  C   UNL A   1      40.538  27.993  28.501  1.00  0.00     0.064 A 
ATOM     74  C   UNL A   1      39.888  26.754  28.398  1.00  0.00     0.173 A 
ATOM     75  C   UNL A   1      41.357  28.389  27.434  1.00  0.00     0.173 A 
ATOM     76  F   UNL A   1      39.100  26.323  29.394  1.00  0.00    -0.203 F 
ATOM     77  C   UNL A   1      40.068  25.936  27.284  1.00  0.00     0.198 A 
ATOM     78  C   UNL A   1      41.511  27.585  26.306  1.00  0.00     0.198 A 
ATOM     79  F   UNL A   1      41.988  29.572  27.477  1.00  0.00    -0.203 F 
ATOM     80  F   UNL A   1      39.468  24.740  27.231  1.00  0.00    -0.200 F 
ATOM     81  C   UNL A   1      40.874  26.355  26.237  1.00  0.00     0.200 A 
ATOM     82  F   UNL A   1      42.271  28.004  25.286  1.00  0.00    -0.200 F 
ATOM     83  F   UNL A   1      41.036  25.575  25.160  1.00  0.00    -0.200 F 
ENDBRANCH  49  73
BRANCH  61  84
ATOM     84  C   UNL A   1      43.690  28.161  34.730  1.00  0.00     0.064 A 
ATOM     85  C   UNL A   1      45.026  28.581  34.641  1.00  0.00     0.173 A 
ATOM     86  C   UNL A   1      43.428  26.924  35.337  1.00  0.00     0.173 A 
ATOM     87  F   UNL A   1      45.331  29.752  34.059  1.00  0.00    -0.203 F 
ATOM     88  C   UNL A   1      46.060  27.786  35.123  1.00  0.00     0.198 A 
ATOM     89  C   UNL A   1      44.462  26.148  35.851  1.00  0.00     0.198 A 
ATOM     90  F   UNL A   1      42.167  26.483  35.456  1.00  0.00    -0.203 F 
ATOM     91  F   UNL A   1      47.332  28.189  34.992  1.00  0.00    -0.200 F 
ATOM     92  C   UNL A   1      45.777  26.574  35.735  1.00  0.00     0.200 A 
ATOM     93  F   UNL A   1      44.186  24.989  36.466  1.00  0.00    -0.200 F 
ATOM     94  F   UNL A   1      46.773  25.817  36.215  1.00  0.00    -0.200 F 
ENDBRANCH  61  84
ENDBRANCH  35  36
ENDBRANCH  27  30
ENDBRANCH  25  26
ENDBRANCH  24  25
ENDBRANCH  23  24
ENDBRANCH   3  23
TORSDOF 17
ENDMDL
MODEL 3
REMARK VINA RESULT:     -11.0      1.062      7.470
REMARK SMILES O=C(CCSc1ccccc1F)N[C@H](CO)C(=O)NCCCNC(=O)c1ccc(-c2c3nc(c(-c4c(F)c(F)c(F)c(F)c4F)c4ccc([nH]4)c(-c4c(F)c(F)c(F)c(F)c4F)c4nc(c(-c5c(F)c(F)c(F)c(F)c5F)c5ccc2[nH]5)C=C4)C=C3)cc1
REMARK SMILES IDX 17 1 18 2 19 3 14 5 13 6 1 7 2 8 3 10 4 11 5 12 6 13 7 14
REMARK SMILES IDX 11 15 8 16 10 17 12 18 9 19 15 20 16 21 20 23 21 24 22 25
REMARK SMILES IDX 23 26 24 27 25 29 26 30 27 31 88 32 28 33 87 34 29 35 30 36
REMARK SMILES IDX 31 37 81 38 32 39 86 40 80 41 82 42 33 43 85 44 79 45 78 46
REMARK SMILES IDX 34 48 66 49 46 50 65 51 47 52 50 53 64 54 83 55 48 56 49 57
REMARK SMILES IDX 63 59 84 60 51 61 35 62 36 63 44 64 37 65 38 66 42 67 45 68
REMARK SMILES IDX 39 69 40 70 43 71 41 72 67 73 68 74 76 75 69 76 70 77 74 78
REMARK SMILES IDX 77 79 71 80 72 81 75 82 73 83 52 84 53 85 61 86 54 87 55 88
REMARK SMILES IDX 59 89 62 90 56 91 57 92 60 93 58 94
REMARK H PARENT 19 4 13 9 16 22 23 28 82 47 50 58
REMARK Flexibility Score: inf
ROOT
ATOM      1  C   UNL A   1      36.113  22.928  25.733  1.00  0.00     0.244 C 
ATOM      2  O   UNL A   1      36.562  24.050  25.984  1.00  0.00    -0.273 OA
ATOM      3  N   UNL A   1      36.990  21.886  25.649  1.00  0.00    -0.354 N 
ATOM      4  H   UNL A   1      37.868  22.038  26.066  1.00  0.00     0.163 HD
ENDROOT
BRANCH   1   5
ATOM      5  C   UNL A   1      34.642  22.737  25.344  1.00  0.00     0.197 C 
BRANCH   5   6
ATOM      6  N   UNL A   1      34.007  24.029  25.065  1.00  0.00    -0.342 N 
ATOM      7  O   UNL A   1      34.433  24.054  22.808  1.00  0.00    -0.275 OA
ATOM      8  C   UNL A   1      34.025  24.610  23.819  1.00  0.00     0.221 C 
ATOM      9  H   UNL A   1      33.549  24.498  25.799  1.00  0.00     0.164 HD
BRANCH   8  10
ATOM     10  C   UNL A   1      33.565  26.050  23.825  1.00  0.00     0.111 C 
BRANCH  10  11
ATOM     11  C   UNL A   1      32.365  26.276  22.923  1.00  0.00     0.085 C 
BRANCH  11  12
ATOM     12  S   UNL A   1      30.782  26.446  23.836  1.00  0.00    -0.123 SA
BRANCH  12  13
ATOM     13  C   UNL A   1      31.201  27.577  25.156  1.00  0.00     0.043 A 
ATOM     14  C   UNL A   1      31.365  27.152  26.478  1.00  0.00     0.018 A 
ATOM     15  C   UNL A   1      31.416  28.932  24.865  1.00  0.00     0.136 A 
ATOM     16  C   UNL A   1      31.782  28.049  27.468  1.00  0.00     0.001 A 
ATOM     17  C   UNL A   1      31.806  29.836  25.853  1.00  0.00     0.040 A 
ATOM     18  F   UNL A   1      31.346  29.377  23.600  1.00  0.00    -0.206 F 
ATOM     19  C   UNL A   1      32.004  29.390  27.156  1.00  0.00     0.003 A 
ENDBRANCH  12  13
ENDBRANCH  11  12
ENDBRANCH  10  11
ENDBRANCH   8  10
ENDBRANCH   5   6
BRANCH   5  20
ATOM     20  C   UNL A   1      33.918  21.996  26.486  1.00  0.00     0.191 C 
BRANCH  20  21
ATOM     21  O   UNL A   1      34.705  21.732  27.642  1.00  0.00    -0.394 OA
ATOM     22  H   UNL A   1      34.122  21.545  28.394  1.00  0.00     0.210 HD
ENDBRANCH  20  21
ENDBRANCH   5  20
ENDBRANCH   1   5
BRANCH   3  23
ATOM     23  C   UNL A   1      36.809  20.584  25.032  1.00  0.00     0.117 C 
BRANCH  23  24
ATOM     24  C   UNL A   1      38.144  19.927  24.759  1.00  0.00     0.042 C 
BRANCH  24  25
ATOM     25  C   UNL A   1      39.164  20.256  25.828  1.00  0.00     0.118 C 
BRANCH  25  26
ATOM     26  N   UNL A   1      40.184  19.218  25.937  1.00  0.00    -0.352 N 
ATOM     27  C   UNL A   1      41.542  19.351  26.064  1.00  0.00     0.251 C 
ATOM     28  H   UNL A   1      39.850  18.293  25.918  1.00  0.00     0.163 HD
ATOM     29  O   UNL A   1      42.284  18.404  25.844  1.00  0.00    -0.269 OA
BRANCH  27  30
ATOM     30  C   UNL A   1      42.088  20.662  26.458  1.00  0.00     0.039 A 
ATOM     31  C   UNL A   1      42.431  21.584  25.473  1.00  0.00     0.014 A 
ATOM     32  C   UNL A   1      42.225  20.980  27.813  1.00  0.00     0.014 A 
ATOM     33  C   UNL A   1      42.856  22.853  25.854  1.00  0.00     0.010 A 
ATOM     34  C   UNL A   1      42.518  22.279  28.187  1.00  0.00     0.010 A 
ATOM     35  C   UNL A   1      42.861  23.222  27.211  1.00  0.00    -0.014 A 
BRANCH  35  36
ATOM     36  C   UNL A   1      43.237  24.590  27.628  1.00  0.00     0.031 A 
ATOM     37  C   UNL A   1      44.685  24.988  27.679  1.00  0.00     0.074 A 
ATOM     38  C   UNL A   1      42.270  25.453  27.994  1.00  0.00     0.049 A 
ATOM     39  N   UNL A   1      45.209  26.137  28.019  1.00  0.00    -0.248 NA
ATOM     40  C   UNL A   1      45.678  23.957  27.335  1.00  0.00     0.031 C 
ATOM     41  C   UNL A   1      40.839  25.143  28.048  1.00  0.00     0.029 A 
ATOM     42  N   UNL A   1      42.340  26.765  28.380  1.00  0.00    -0.354 N 
ATOM     43  C   UNL A   1      46.583  25.963  27.928  1.00  0.00     0.074 A 
ATOM     44  C   UNL A   1      46.819  24.582  27.579  1.00  0.00     0.031 C 
ATOM     45  C   UNL A   1      40.163  26.250  28.392  1.00  0.00     0.029 A 
ATOM     46  C   UNL A   1      41.113  27.332  28.625  1.00  0.00     0.049 A 
ATOM     47  H   UNL A   1      43.189  27.256  28.472  1.00  0.00     0.167 HD
ATOM     48  C   UNL A   1      47.557  26.887  28.084  1.00  0.00     0.037 A 
ATOM     49  C   UNL A   1      40.793  28.588  28.992  1.00  0.00     0.037 A 
ATOM     50  C   UNL A   1      47.307  28.266  28.404  1.00  0.00     0.049 A 
ATOM     51  C   UNL A   1      41.898  29.594  29.161  1.00  0.00     0.074 A 
ATOM     52  C   UNL A   1      48.219  29.299  28.529  1.00  0.00     0.029 A 
ATOM     53  N   UNL A   1      46.052  28.804  28.649  1.00  0.00    -0.354 N 
ATOM     54  N   UNL A   1      43.190  29.438  28.999  1.00  0.00    -0.248 NA
ATOM     55  C   UNL A   1      41.502  30.951  29.558  1.00  0.00     0.031 C 
ATOM     56  C   UNL A   1      47.522  30.449  28.904  1.00  0.00     0.029 A 
ATOM     57  C   UNL A   1      46.169  30.151  28.953  1.00  0.00     0.049 A 
ATOM     58  H   UNL A   1      45.205  28.304  28.613  1.00  0.00     0.167 HD
ATOM     59  C   UNL A   1      43.760  30.675  29.259  1.00  0.00     0.074 A 
ATOM     60  C   UNL A   1      42.670  31.579  29.561  1.00  0.00     0.031 C 
ATOM     61  C   UNL A   1      45.069  31.030  29.255  1.00  0.00     0.037 A 
BRANCH  48  62
ATOM     62  C   UNL A   1      48.980  26.451  27.887  1.00  0.00     0.064 A 
ATOM     63  C   UNL A   1      49.816  26.223  28.990  1.00  0.00     0.173 A 
ATOM     64  C   UNL A   1      49.540  26.339  26.605  1.00  0.00     0.173 A 
ATOM     65  F   UNL A   1      49.331  26.316  30.237  1.00  0.00    -0.203 F 
ATOM     66  C   UNL A   1      51.164  25.920  28.817  1.00  0.00     0.198 A 
ATOM     67  C   UNL A   1      50.881  26.006  26.436  1.00  0.00     0.198 A 
ATOM     68  F   UNL A   1      48.780  26.531  25.516  1.00  0.00    -0.203 F 
ATOM     69  F   UNL A   1      51.952  25.746  29.886  1.00  0.00    -0.200 F 
ATOM     70  C   UNL A   1      51.695  25.810  27.540  1.00  0.00     0.200 A 
ATOM     71  F   UNL A   1      51.386  25.873  25.201  1.00  0.00    -0.200 F 
ATOM     72  F   UNL A   1      52.992  25.514  27.376  1.00  0.00    -0.200 F 
ENDBRANCH  48  62
BRANCH  49  73
ATOM     73  C   UNL A   1      39.367  28.958  29.181  1.00  0.00     0.064 A 
ATOM     74  C   UNL A   1      38.589  29.439  28.117  1.00  0.00     0.173 A 
ATOM     75  C   UNL A   1      38.761  28.870  30.442  1.00  0.00     0.173 A 
ATOM     76  F   UNL A   1      39.123  29.551  26.892  1.00  0.00    -0.203 F 
ATOM     77  C   UNL A   1      37.268  29.835  28.312  1.00  0.00     0.198 A 
ATOM     78  C   UNL A   1      37.429  29.236  30.629  1.00  0.00     0.198 A 
ATOM     79  F   UNL A   1      39.457  28.402  31.489  1.00  0.00    -0.203 F 
ATOM     80  F   UNL A   1      36.561  30.328  27.286  1.00  0.00    -0.200 F 
ATOM     81  C   UNL A   1      36.687  29.727  29.566  1.00  0.00     0.200 A 
ATOM     82  F   UNL A   1      36.865  29.109  31.837  1.00  0.00    -0.200 F 
ATOM     83  F   UNL A   1      35.412  30.096  29.750  1.00  0.00    -0.200 F 
ENDBRANCH  49  73
BRANCH  61  84
ATOM     84  C   UNL A   1      45.397  32.457  29.584  1.00  0.00     0.064 A 
ATOM     85  C   UNL A   1      45.477  33.422  28.569  1.00  0.00     0.173 A 
ATOM     86  C   UNL A   1      45.702  32.854  30.895  1.00  0.00     0.173 A 
ATOM     87  F   UNL A   1      45.207  33.091  27.296  1.00  0.00    -0.203 F 
ATOM     88  C   UNL A   1      45.864  34.728  28.852  1.00  0.00     0.198 A 
ATOM     89  C   UNL A   1      46.054  34.169  31.179  1.00  0.00     0.198 A 
ATOM     90  F   UNL A   1      45.630  31.970  31.902  1.00  0.00    -0.203 F 
ATOM     91  F   UNL A   1      45.972  35.624  27.860  1.00  0.00    -0.200 F 
ATOM     92  C   UNL A   1      46.145  35.103  30.157  1.00  0.00     0.200 A 
ATOM     93  F   UNL A   1      46.298  34.537  32.445  1.00  0.00    -0.200 F 
ATOM     94  F   UNL A   1      46.500  36.365  30.430  1.00  0.00    -0.200 F 
ENDBRANCH  61  84
ENDBRANCH  35  36
ENDBRANCH  27  30
ENDBRANCH  25  26
ENDBRANCH  24  25
ENDBRANCH  23  24
ENDBRANCH   3  23
TORSDOF 17
ENDMDL
