MODEL 1
REMARK VINA RESULT:     -13.5      0.000      0.000
REMARK SMILES CC1=C(C)C[C@H](C(=O)Nc2sc3c(c2C(=O)NC2CCCC2)CCCC3)[C@@H](C(=O)NCCCNC(=O)c2ccc(-c3c4nc(c(-c5c(F)c(F)c(F)c(F)c5F)c5ccc([nH]5)c(-c5c(F)c(F)c(F)c(F)c5F)c5nc(c(-c6c(F)c(F)c(F)c(F)c6F)c6ccc3[nH]6)C=C5)C=C4)cc2)C1
REMARK SMILES IDX 31 1 30 2 28 3 29 4 27 6 1 7 2 8 3 9 100 10 4 11 5 12 6 13
REMARK SMILES IDX 7 14 8 15 9 16 10 18 11 19 14 20 12 21 13 22 26 23 23 24
REMARK SMILES IDX 25 25 24 26 15 27 16 28 17 29 18 31 19 32 22 33 20 34 21 35
REMARK SMILES IDX 32 36 33 37 34 38 35 39 36 41 37 42 38 43 99 44 39 45 98 46
REMARK SMILES IDX 40 47 41 48 42 49 92 50 43 51 97 52 91 53 93 54 44 55 96 56
REMARK SMILES IDX 90 57 89 58 45 60 77 61 57 62 76 63 58 64 61 65 75 66 94 67
REMARK SMILES IDX 59 68 60 69 74 71 95 72 62 73 46 74 47 75 55 76 48 77 49 78
REMARK SMILES IDX 53 79 56 80 50 81 51 82 54 83 52 84 78 85 79 86 87 87 80 88
REMARK SMILES IDX 81 89 85 90 88 91 82 92 83 93 86 94 84 95 63 96 64 97 72 98
REMARK SMILES IDX 65 99 66 100 70 101 73 102 67 103 68 104 71 105 69 106
REMARK H PARENT 30 5 9 17 17 30 34 40 93 59 61 70
REMARK Flexibility Score: inf
ROOT
ATOM      1  C   UNL A   1      33.997  26.618  25.599  1.00  0.00     0.117 C 
ENDROOT
BRANCH   1   2
ATOM      2  N   UNL A   1      33.124  25.829  26.452  1.00  0.00    -0.356 N 
ATOM      3  C   UNL A   1      31.837  25.407  26.312  1.00  0.00     0.224 C 
ATOM      4  O   UNL A   1      31.442  24.584  27.146  1.00  0.00    -0.275 OA
ATOM      5  H   UNL A   1      33.545  25.545  27.295  1.00  0.00     0.163 HD
BRANCH   3   6
ATOM      6  C   UNL A   1      30.915  25.900  25.189  1.00  0.00     0.095 C 
ATOM      7  C   UNL A   1      30.818  29.844  24.851  1.00  0.00     0.039 C 
ATOM      8  C   UNL A   1      30.959  28.418  24.373  1.00  0.00    -0.074 C 
ATOM      9  C   UNL A   1      31.279  28.058  23.115  1.00  0.00    -0.074 C 
ATOM     10  C   UNL A   1      30.672  27.404  25.461  1.00  0.00     0.045 C 
ATOM     11  C   UNL A   1      31.528  28.998  21.962  1.00  0.00     0.039 C 
ATOM     12  C   UNL A   1      31.350  26.612  22.708  1.00  0.00     0.045 C 
ATOM     13  C   UNL A   1      31.563  25.568  23.822  1.00  0.00     0.095 C 
BRANCH  13  14
ATOM     14  C   UNL A   1      30.970  24.258  23.292  1.00  0.00     0.229 C 
ATOM     15  O   UNL A   1      29.744  24.191  23.104  1.00  0.00    -0.274 OA
ATOM     16  N   UNL A   1      31.639  23.100  23.062  1.00  0.00    -0.317 N 
ATOM     17  H   UNL A   1      31.082  22.428  22.608  1.00  0.00     0.170 HD
BRANCH  16  18
ATOM     18  C   UNL A   1      32.917  22.640  23.316  1.00  0.00     0.108 A 
ATOM     19  S   UNL A   1      34.252  23.208  22.464  1.00  0.00    -0.122 S 
ATOM     20  C   UNL A   1      33.273  21.640  24.236  1.00  0.00     0.078 A 
ATOM     21  C   UNL A   1      35.296  22.706  23.678  1.00  0.00     0.011 A 
ATOM     22  C   UNL A   1      34.690  21.828  24.563  1.00  0.00    -0.019 A 
ATOM     23  C   UNL A   1      36.693  23.240  23.747  1.00  0.00     0.047 C 
ATOM     24  C   UNL A   1      35.516  21.270  25.688  1.00  0.00     0.037 C 
ATOM     25  C   UNL A   1      37.555  22.352  24.642  1.00  0.00     0.006 C 
ATOM     26  C   UNL A   1      36.808  22.055  25.939  1.00  0.00     0.005 C 
BRANCH  20  27
ATOM     27  C   UNL A   1      32.203  20.771  24.783  1.00  0.00     0.254 C 
ATOM     28  O   UNL A   1      31.197  21.272  25.299  1.00  0.00    -0.269 OA
ATOM     29  N   UNL A   1      32.182  19.403  24.663  1.00  0.00    -0.349 N 
ATOM     30  H   UNL A   1      31.318  18.984  24.881  1.00  0.00     0.164 HD
BRANCH  29  31
ATOM     31  C   UNL A   1      33.208  18.486  24.272  1.00  0.00     0.082 C 
ATOM     32  C   UNL A   1      33.514  17.362  25.256  1.00  0.00     0.025 C 
ATOM     33  C   UNL A   1      32.953  17.708  22.987  1.00  0.00     0.025 C 
ATOM     34  C   UNL A   1      34.531  16.551  24.452  1.00  0.00     0.002 C 
ATOM     35  C   UNL A   1      34.055  16.645  22.996  1.00  0.00     0.002 C 
ENDBRANCH  29  31
ENDBRANCH  20  27
ENDBRANCH  16  18
ENDBRANCH  13  14
ENDBRANCH   3   6
ENDBRANCH   1   2
BRANCH   1  36
ATOM     36  C   UNL A   1      34.089  28.092  26.011  1.00  0.00     0.042 C 
BRANCH  36  37
ATOM     37  C   UNL A   1      33.542  28.447  27.401  1.00  0.00     0.118 C 
BRANCH  37  38
ATOM     38  N   UNL A   1      33.548  29.877  27.695  1.00  0.00    -0.352 N 
ATOM     39  C   UNL A   1      34.560  30.688  28.167  1.00  0.00     0.251 C 
ATOM     40  H   UNL A   1      32.694  30.336  27.530  1.00  0.00     0.163 HD
ATOM     41  O   UNL A   1      34.330  31.865  28.423  1.00  0.00    -0.269 OA
BRANCH  39  42
ATOM     42  C   UNL A   1      35.928  30.160  28.388  1.00  0.00     0.039 A 
ATOM     43  C   UNL A   1      36.873  30.228  27.365  1.00  0.00     0.014 A 
ATOM     44  C   UNL A   1      36.273  29.536  29.583  1.00  0.00     0.014 A 
ATOM     45  C   UNL A   1      38.180  29.765  27.584  1.00  0.00     0.010 A 
ATOM     46  C   UNL A   1      37.598  29.151  29.833  1.00  0.00     0.010 A 
ATOM     47  C   UNL A   1      38.582  29.277  28.843  1.00  0.00    -0.014 A 
BRANCH  47  48
ATOM     48  C   UNL A   1      40.020  28.957  29.123  1.00  0.00     0.031 A 
ATOM     49  C   UNL A   1      40.903  29.856  29.959  1.00  0.00     0.074 A 
ATOM     50  C   UNL A   1      40.571  27.849  28.580  1.00  0.00     0.049 A 
ATOM     51  N   UNL A   1      42.167  29.703  30.286  1.00  0.00    -0.248 NA
ATOM     52  C   UNL A   1      40.311  31.102  30.465  1.00  0.00     0.031 C 
ATOM     53  C   UNL A   1      39.892  26.923  27.673  1.00  0.00     0.029 A 
ATOM     54  N   UNL A   1      41.827  27.303  28.723  1.00  0.00    -0.354 N 
ATOM     55  C   UNL A   1      42.519  30.833  31.016  1.00  0.00     0.074 A 
ATOM     56  C   UNL A   1      41.353  31.692  31.036  1.00  0.00     0.031 C 
ATOM     57  C   UNL A   1      40.706  25.892  27.399  1.00  0.00     0.029 A 
ATOM     58  C   UNL A   1      41.982  26.098  28.077  1.00  0.00     0.049 A 
ATOM     59  H   UNL A   1      42.546  27.733  29.239  1.00  0.00     0.167 HD
ATOM     60  C   UNL A   1      43.689  31.121  31.641  1.00  0.00     0.037 A 
ATOM     61  C   UNL A   1      43.022  25.242  28.042  1.00  0.00     0.037 A 
ATOM     62  C   UNL A   1      44.841  30.257  31.686  1.00  0.00     0.049 A 
ATOM     63  C   UNL A   1      44.284  25.556  28.798  1.00  0.00     0.074 A 
ATOM     64  C   UNL A   1      46.041  30.452  32.352  1.00  0.00     0.029 A 
ATOM     65  N   UNL A   1      44.934  29.026  31.057  1.00  0.00    -0.354 N 
ATOM     66  N   UNL A   1      44.568  26.596  29.539  1.00  0.00    -0.248 NA
ATOM     67  C   UNL A   1      45.369  24.565  28.716  1.00  0.00     0.031 C 
ATOM     68  C   UNL A   1      46.869  29.351  32.107  1.00  0.00     0.029 A 
ATOM     69  C   UNL A   1      46.172  28.454  31.319  1.00  0.00     0.049 A 
ATOM     70  H   UNL A   1      44.229  28.617  30.506  1.00  0.00     0.167 HD
ATOM     71  C   UNL A   1      45.846  26.372  30.033  1.00  0.00     0.074 A 
ATOM     72  C   UNL A   1      46.279  25.091  29.523  1.00  0.00     0.031 C 
ATOM     73  C   UNL A   1      46.593  27.167  30.835  1.00  0.00     0.037 A 
BRANCH  60  74
ATOM     74  C   UNL A   1      43.783  32.425  32.382  1.00  0.00     0.064 A 
ATOM     75  C   UNL A   1      43.461  32.513  33.745  1.00  0.00     0.173 A 
ATOM     76  C   UNL A   1      44.281  33.575  31.749  1.00  0.00     0.173 A 
ATOM     77  F   UNL A   1      42.979  31.442  34.393  1.00  0.00    -0.203 F 
ATOM     78  C   UNL A   1      43.614  33.709  34.441  1.00  0.00     0.198 A 
ATOM     79  C   UNL A   1      44.460  34.762  32.457  1.00  0.00     0.198 A 
ATOM     80  F   UNL A   1      44.619  33.541  30.452  1.00  0.00    -0.203 F 
ATOM     81  F   UNL A   1      43.267  33.777  35.734  1.00  0.00    -0.200 F 
ATOM     82  C   UNL A   1      44.122  34.828  33.800  1.00  0.00     0.200 A 
ATOM     83  F   UNL A   1      44.966  35.838  31.840  1.00  0.00    -0.200 F 
ATOM     84  F   UNL A   1      44.282  35.974  34.477  1.00  0.00    -0.200 F 
ENDBRANCH  60  74
BRANCH  61  85
ATOM     85  C   UNL A   1      42.906  23.961  27.296  1.00  0.00     0.064 A 
ATOM     86  C   UNL A   1      42.431  22.806  27.932  1.00  0.00     0.173 A 
ATOM     87  C   UNL A   1      43.300  23.857  25.956  1.00  0.00     0.173 A 
ATOM     88  F   UNL A   1      42.065  22.853  29.222  1.00  0.00    -0.203 F 
ATOM     89  C   UNL A   1      42.383  21.585  27.263  1.00  0.00     0.198 A 
ATOM     90  C   UNL A   1      43.225  22.641  25.279  1.00  0.00     0.198 A 
ATOM     91  F   UNL A   1      43.757  24.937  25.304  1.00  0.00    -0.203 F 
ATOM     92  F   UNL A   1      41.980  20.484  27.912  1.00  0.00    -0.200 F 
ATOM     93  C   UNL A   1      42.778  21.504  25.936  1.00  0.00     0.200 A 
ATOM     94  F   UNL A   1      43.599  22.569  23.995  1.00  0.00    -0.200 F 
ATOM     95  F   UNL A   1      42.740  20.329  25.295  1.00  0.00    -0.200 F 
ENDBRANCH  61  85
BRANCH  73  96
ATOM     96  C   UNL A   1      47.943  26.658  31.252  1.00  0.00     0.064 A 
ATOM     97  C   UNL A   1      49.098  26.941  30.509  1.00  0.00     0.173 A 
ATOM     98  C   UNL A   1      48.084  25.904  32.426  1.00  0.00     0.173 A 
ATOM     99  F   UNL A   1      49.012  27.647  29.371  1.00  0.00    -0.203 F 
ATOM    100  C   UNL A   1      50.343  26.465  30.912  1.00  0.00     0.198 A 
ATOM    101  C   UNL A   1      49.335  25.449  32.839  1.00  0.00     0.198 A 
ATOM    102  F   UNL A   1      47.012  25.609  33.175  1.00  0.00    -0.203 F 
ATOM    103  F   UNL A   1      51.426  26.710  30.163  1.00  0.00    -0.200 F 
ATOM    104  C   UNL A   1      50.461  25.725  32.080  1.00  0.00     0.200 A 
ATOM    105  F   UNL A   1      49.449  24.742  33.972  1.00  0.00    -0.200 F 
ATOM    106  F   UNL A   1      51.660  25.270  32.468  1.00  0.00    -0.200 F 
ENDBRANCH  73  96
ENDBRANCH  47  48
ENDBRANCH  39  42
ENDBRANCH  37  38
ENDBRANCH  36  37
ENDBRANCH   1  36
TORSDOF 14
ENDMDL
MODEL 2
REMARK VINA RESULT:     -13.5      3.199      9.010
REMARK SMILES CC1=C(C)C[C@H](C(=O)Nc2sc3c(c2C(=O)NC2CCCC2)CCCC3)[C@@H](C(=O)NCCCNC(=O)c2ccc(-c3c4nc(c(-c5c(F)c(F)c(F)c(F)c5F)c5ccc([nH]5)c(-c5c(F)c(F)c(F)c(F)c5F)c5nc(c(-c6c(F)c(F)c(F)c(F)c6F)c6ccc3[nH]6)C=C5)C=C4)cc2)C1
REMARK SMILES IDX 31 1 30 2 28 3 29 4 27 6 1 7 2 8 3 9 100 10 4 11 5 12 6 13
REMARK SMILES IDX 7 14 8 15 9 16 10 18 11 19 14 20 12 21 13 22 26 23 23 24
REMARK SMILES IDX 25 25 24 26 15 27 16 28 17 29 18 31 19 32 22 33 20 34 21 35
REMARK SMILES IDX 32 36 33 37 34 38 35 39 36 41 37 42 38 43 99 44 39 45 98 46
REMARK SMILES IDX 40 47 41 48 42 49 92 50 43 51 97 52 91 53 93 54 44 55 96 56
REMARK SMILES IDX 90 57 89 58 45 60 77 61 57 62 76 63 58 64 61 65 75 66 94 67
REMARK SMILES IDX 59 68 60 69 74 71 95 72 62 73 46 74 47 75 55 76 48 77 49 78
REMARK SMILES IDX 53 79 56 80 50 81 51 82 54 83 52 84 78 85 79 86 87 87 80 88
REMARK SMILES IDX 81 89 85 90 88 91 82 92 83 93 86 94 84 95 63 96 64 97 72 98
REMARK SMILES IDX 65 99 66 100 70 101 73 102 67 103 68 104 71 105 69 106
REMARK H PARENT 30 5 9 17 17 30 34 40 93 59 61 70
REMARK Flexibility Score: inf
ROOT
ATOM      1  C   UNL A   1      34.774  24.676  25.766  1.00  0.00     0.117 C 
ENDROOT
BRANCH   1   2
ATOM      2  N   UNL A   1      34.745  25.125  24.384  1.00  0.00    -0.356 N 
ATOM      3  C   UNL A   1      34.061  24.692  23.289  1.00  0.00     0.224 C 
ATOM      4  O   UNL A   1      34.122  25.418  22.290  1.00  0.00    -0.275 OA
ATOM      5  H   UNL A   1      35.336  25.892  24.205  1.00  0.00     0.163 HD
BRANCH   3   6
ATOM      6  C   UNL A   1      33.249  23.390  23.274  1.00  0.00     0.095 C 
ATOM      7  C   UNL A   1      35.259  20.267  24.645  1.00  0.00     0.039 C 
ATOM      8  C   UNL A   1      34.094  21.222  24.536  1.00  0.00    -0.074 C 
ATOM      9  C   UNL A   1      32.991  21.179  25.307  1.00  0.00    -0.074 C 
ATOM     10  C   UNL A   1      34.275  22.242  23.431  1.00  0.00     0.045 C 
ATOM     11  C   UNL A   1      32.708  20.168  26.391  1.00  0.00     0.039 C 
ATOM     12  C   UNL A   1      31.852  22.139  25.099  1.00  0.00     0.045 C 
ATOM     13  C   UNL A   1      32.160  23.462  24.371  1.00  0.00     0.095 C 
BRANCH  13  14
ATOM     14  C   UNL A   1      30.839  23.913  23.737  1.00  0.00     0.229 C 
ATOM     15  O   UNL A   1      30.303  23.179  22.891  1.00  0.00    -0.274 OA
ATOM     16  N   UNL A   1      30.200  25.092  23.947  1.00  0.00    -0.317 N 
ATOM     17  H   UNL A   1      29.308  25.115  23.531  1.00  0.00     0.170 HD
BRANCH  16  18
ATOM     18  C   UNL A   1      30.504  26.267  24.605  1.00  0.00     0.108 A 
ATOM     19  S   UNL A   1      30.462  26.384  26.283  1.00  0.00    -0.122 S 
ATOM     20  C   UNL A   1      30.823  27.497  24.006  1.00  0.00     0.078 A 
ATOM     21  C   UNL A   1      31.461  27.731  26.259  1.00  0.00     0.011 A 
ATOM     22  C   UNL A   1      31.561  28.290  24.994  1.00  0.00    -0.019 A 
ATOM     23  C   UNL A   1      32.165  28.177  27.503  1.00  0.00     0.047 C 
ATOM     24  C   UNL A   1      32.401  29.525  24.826  1.00  0.00     0.037 C 
ATOM     25  C   UNL A   1      32.656  29.615  27.346  1.00  0.00     0.006 C 
ATOM     26  C   UNL A   1      33.357  29.772  26.000  1.00  0.00     0.005 C 
BRANCH  20  27
ATOM     27  C   UNL A   1      30.531  27.675  22.562  1.00  0.00     0.254 C 
ATOM     28  O   UNL A   1      30.927  26.843  21.739  1.00  0.00    -0.269 OA
ATOM     29  N   UNL A   1      29.732  28.670  22.053  1.00  0.00    -0.349 N 
ATOM     30  H   UNL A   1      29.458  28.538  21.117  1.00  0.00     0.164 HD
BRANCH  29  31
ATOM     31  C   UNL A   1      29.232  29.865  22.658  1.00  0.00     0.082 C 
ATOM     32  C   UNL A   1      29.023  31.054  21.727  1.00  0.00     0.025 C 
ATOM     33  C   UNL A   1      27.867  29.754  23.325  1.00  0.00     0.025 C 
ATOM     34  C   UNL A   1      28.382  32.056  22.686  1.00  0.00     0.002 C 
ATOM     35  C   UNL A   1      27.497  31.212  23.613  1.00  0.00     0.002 C 
ENDBRANCH  29  31
ENDBRANCH  20  27
ENDBRANCH  16  18
ENDBRANCH  13  14
ENDBRANCH   3   6
ENDBRANCH   1   2
BRANCH   1  36
ATOM     36  C   UNL A   1      35.991  23.806  26.103  1.00  0.00     0.042 C 
BRANCH  36  37
ATOM     37  C   UNL A   1      37.116  23.773  25.059  1.00  0.00     0.118 C 
BRANCH  37  38
ATOM     38  N   UNL A   1      38.204  22.857  25.386  1.00  0.00    -0.352 N 
ATOM     39  C   UNL A   1      39.334  23.050  26.156  1.00  0.00     0.251 C 
ATOM     40  H   UNL A   1      38.119  21.958  24.997  1.00  0.00     0.163 HD
ATOM     41  O   UNL A   1      40.174  22.160  26.241  1.00  0.00    -0.269 OA
BRANCH  39  42
ATOM     42  C   UNL A   1      39.564  24.326  26.876  1.00  0.00     0.039 A 
ATOM     43  C   UNL A   1      39.079  24.490  28.173  1.00  0.00     0.014 A 
ATOM     44  C   UNL A   1      40.206  25.394  26.256  1.00  0.00     0.014 A 
ATOM     45  C   UNL A   1      39.329  25.681  28.871  1.00  0.00     0.010 A 
ATOM     46  C   UNL A   1      40.531  26.550  26.980  1.00  0.00     0.010 A 
ATOM     47  C   UNL A   1      40.115  26.707  28.310  1.00  0.00    -0.014 A 
BRANCH  47  48
ATOM     48  C   UNL A   1      40.532  27.894  29.126  1.00  0.00     0.031 A 
ATOM     49  C   UNL A   1      41.937  28.059  29.659  1.00  0.00     0.074 A 
ATOM     50  C   UNL A   1      39.617  28.839  29.438  1.00  0.00     0.049 A 
ATOM     51  N   UNL A   1      42.439  29.037  30.378  1.00  0.00    -0.248 NA
ATOM     52  C   UNL A   1      42.894  26.978  29.386  1.00  0.00     0.031 C 
ATOM     53  C   UNL A   1      38.197  28.791  29.087  1.00  0.00     0.029 A 
ATOM     54  N   UNL A   1      39.746  30.033  30.110  1.00  0.00    -0.354 N 
ATOM     55  C   UNL A   1      43.756  28.681  30.653  1.00  0.00     0.074 A 
ATOM     56  C   UNL A   1      43.958  27.370  30.073  1.00  0.00     0.031 C 
ATOM     57  C   UNL A   1      37.604  29.929  29.479  1.00  0.00     0.029 A 
ATOM     58  C   UNL A   1      38.588  30.775  30.145  1.00  0.00     0.049 A 
ATOM     59  H   UNL A   1      40.588  30.329  30.526  1.00  0.00     0.167 HD
ATOM     60  C   UNL A   1      44.719  29.387  31.297  1.00  0.00     0.037 A 
ATOM     61  C   UNL A   1      38.342  32.005  30.639  1.00  0.00     0.037 A 
ATOM     62  C   UNL A   1      44.559  30.716  31.830  1.00  0.00     0.049 A 
ATOM     63  C   UNL A   1      39.446  32.792  31.291  1.00  0.00     0.074 A 
ATOM     64  C   UNL A   1      45.508  31.521  32.442  1.00  0.00     0.029 A 
ATOM     65  N   UNL A   1      43.382  31.446  31.800  1.00  0.00    -0.354 N 
ATOM     66  N   UNL A   1      40.699  32.463  31.476  1.00  0.00    -0.248 NA
ATOM     67  C   UNL A   1      39.096  34.129  31.797  1.00  0.00     0.031 C 
ATOM     68  C   UNL A   1      44.900  32.729  32.802  1.00  0.00     0.029 A 
ATOM     69  C   UNL A   1      43.582  32.690  32.383  1.00  0.00     0.049 A 
ATOM     70  H   UNL A   1      42.531  31.131  31.421  1.00  0.00     0.167 HD
ATOM     71  C   UNL A   1      41.291  33.559  32.089  1.00  0.00     0.074 A 
ATOM     72  C   UNL A   1      40.267  34.570  32.232  1.00  0.00     0.031 C 
ATOM     73  C   UNL A   1      42.573  33.706  32.501  1.00  0.00     0.037 A 
BRANCH  60  74
ATOM     74  C   UNL A   1      46.076  28.753  31.434  1.00  0.00     0.064 A 
ATOM     75  C   UNL A   1      46.393  27.945  32.537  1.00  0.00     0.173 A 
ATOM     76  C   UNL A   1      47.033  28.881  30.417  1.00  0.00     0.173 A 
ATOM     77  F   UNL A   1      45.512  27.794  33.537  1.00  0.00    -0.203 F 
ATOM     78  C   UNL A   1      47.627  27.307  32.625  1.00  0.00     0.198 A 
ATOM     79  C   UNL A   1      48.256  28.217  30.495  1.00  0.00     0.198 A 
ATOM     80  F   UNL A   1      46.774  29.628  29.333  1.00  0.00    -0.203 F 
ATOM     81  F   UNL A   1      47.921  26.569  33.705  1.00  0.00    -0.200 F 
ATOM     82  C   UNL A   1      48.553  27.436  31.601  1.00  0.00     0.200 A 
ATOM     83  F   UNL A   1      49.143  28.330  29.497  1.00  0.00    -0.200 F 
ATOM     84  F   UNL A   1      49.734  26.808  31.682  1.00  0.00    -0.200 F 
ENDBRANCH  60  74
BRANCH  61  85
ATOM     85  C   UNL A   1      36.989  32.606  30.498  1.00  0.00     0.064 A 
ATOM     86  C   UNL A   1      36.652  33.342  29.353  1.00  0.00     0.173 A 
ATOM     87  C   UNL A   1      36.028  32.491  31.510  1.00  0.00     0.173 A 
ATOM     88  F   UNL A   1      37.550  33.499  28.369  1.00  0.00    -0.203 F 
ATOM     89  C   UNL A   1      35.413  33.967  29.239  1.00  0.00     0.198 A 
ATOM     90  C   UNL A   1      34.778  33.093  31.383  1.00  0.00     0.198 A 
ATOM     91  F   UNL A   1      36.303  31.793  32.622  1.00  0.00    -0.203 F 
ATOM     92  F   UNL A   1      35.138  34.713  28.161  1.00  0.00    -0.200 F 
ATOM     93  C   UNL A   1      34.476  33.840  30.253  1.00  0.00     0.200 A 
ATOM     94  F   UNL A   1      33.872  32.961  32.360  1.00  0.00    -0.200 F 
ATOM     95  F   UNL A   1      33.287  34.448  30.148  1.00  0.00    -0.200 F 
ENDBRANCH  61  85
BRANCH  73  96
ATOM     96  C   UNL A   1      42.959  35.024  33.107  1.00  0.00     0.064 A 
ATOM     97  C   UNL A   1      43.440  36.083  32.322  1.00  0.00     0.173 A 
ATOM     98  C   UNL A   1      42.817  35.240  34.486  1.00  0.00     0.173 A 
ATOM     99  F   UNL A   1      43.607  35.920  31.001  1.00  0.00    -0.203 F 
ATOM    100  C   UNL A   1      43.790  37.301  32.899  1.00  0.00     0.198 A 
ATOM    101  C   UNL A   1      43.146  36.468  35.056  1.00  0.00     0.198 A 
ATOM    102  F   UNL A   1      42.357  34.262  35.280  1.00  0.00    -0.203 F 
ATOM    103  F   UNL A   1      44.290  38.282  32.137  1.00  0.00    -0.200 F 
ATOM    104  C   UNL A   1      43.637  37.494  34.265  1.00  0.00     0.200 A 
ATOM    105  F   UNL A   1      42.989  36.657  36.374  1.00  0.00    -0.200 F 
ATOM    106  F   UNL A   1      43.971  38.668  34.818  1.00  0.00    -0.200 F 
ENDBRANCH  73  96
ENDBRANCH  47  48
ENDBRANCH  39  42
ENDBRANCH  37  38
ENDBRANCH  36  37
ENDBRANCH   1  36
TORSDOF 14
ENDMDL
MODEL 3
REMARK VINA RESULT:     -13.2      3.211      8.453
REMARK SMILES CC1=C(C)C[C@H](C(=O)Nc2sc3c(c2C(=O)NC2CCCC2)CCCC3)[C@@H](C(=O)NCCCNC(=O)c2ccc(-c3c4nc(c(-c5c(F)c(F)c(F)c(F)c5F)c5ccc([nH]5)c(-c5c(F)c(F)c(F)c(F)c5F)c5nc(c(-c6c(F)c(F)c(F)c(F)c6F)c6ccc3[nH]6)C=C5)C=C4)cc2)C1
REMARK SMILES IDX 31 1 30 2 28 3 29 4 27 6 1 7 2 8 3 9 100 10 4 11 5 12 6 13
REMARK SMILES IDX 7 14 8 15 9 16 10 18 11 19 14 20 12 21 13 22 26 23 23 24
REMARK SMILES IDX 25 25 24 26 15 27 16 28 17 29 18 31 19 32 22 33 20 34 21 35
REMARK SMILES IDX 32 36 33 37 34 38 35 39 36 41 37 42 38 43 99 44 39 45 98 46
REMARK SMILES IDX 40 47 41 48 42 49 92 50 43 51 97 52 91 53 93 54 44 55 96 56
REMARK SMILES IDX 90 57 89 58 45 60 77 61 57 62 76 63 58 64 61 65 75 66 94 67
REMARK SMILES IDX 59 68 60 69 74 71 95 72 62 73 46 74 47 75 55 76 48 77 49 78
REMARK SMILES IDX 53 79 56 80 50 81 51 82 54 83 52 84 78 85 79 86 87 87 80 88
REMARK SMILES IDX 81 89 85 90 88 91 82 92 83 93 86 94 84 95 63 96 64 97 72 98
REMARK SMILES IDX 65 99 66 100 70 101 73 102 67 103 68 104 71 105 69 106
REMARK H PARENT 30 5 9 17 17 30 34 40 93 59 61 70
REMARK Flexibility Score: inf
ROOT
ATOM      1  C   UNL A   1      34.820  24.511  25.933  1.00  0.00     0.117 C 
ENDROOT
BRANCH   1   2
ATOM      2  N   UNL A   1      34.803  25.029  24.576  1.00  0.00    -0.356 N 
ATOM      3  C   UNL A   1      34.155  24.631  23.446  1.00  0.00     0.224 C 
ATOM      4  O   UNL A   1      34.210  25.408  22.486  1.00  0.00    -0.275 OA
ATOM      5  H   UNL A   1      35.370  25.824  24.448  1.00  0.00     0.163 HD
BRANCH   3   6
ATOM      6  C   UNL A   1      33.389  23.305  23.348  1.00  0.00     0.095 C 
ATOM      7  C   UNL A   1      35.422  20.207  24.743  1.00  0.00     0.039 C 
ATOM      8  C   UNL A   1      34.234  21.128  24.594  1.00  0.00    -0.074 C 
ATOM      9  C   UNL A   1      33.091  21.027  25.300  1.00  0.00    -0.074 C 
ATOM     10  C   UNL A   1      34.442  22.185  23.531  1.00  0.00     0.045 C 
ATOM     11  C   UNL A   1      32.782  19.975  26.337  1.00  0.00     0.039 C 
ATOM     12  C   UNL A   1      31.935  21.955  25.055  1.00  0.00     0.045 C 
ATOM     13  C   UNL A   1      32.238  23.309  24.384  1.00  0.00     0.095 C 
BRANCH  13  14
ATOM     14  C   UNL A   1      30.941  23.737  23.688  1.00  0.00     0.229 C 
ATOM     15  O   UNL A   1      30.450  22.988  22.828  1.00  0.00    -0.274 OA
ATOM     16  N   UNL A   1      30.279  24.910  23.857  1.00  0.00    -0.317 N 
ATOM     17  H   UNL A   1      29.406  24.917  23.403  1.00  0.00     0.170 HD
BRANCH  16  18
ATOM     18  C   UNL A   1      30.540  26.096  24.515  1.00  0.00     0.108 A 
ATOM     19  S   UNL A   1      30.381  26.241  26.183  1.00  0.00    -0.122 S 
ATOM     20  C   UNL A   1      30.905  27.314  23.918  1.00  0.00     0.078 A 
ATOM     21  C   UNL A   1      31.384  27.586  26.207  1.00  0.00     0.011 A 
ATOM     22  C   UNL A   1      31.575  28.122  24.943  1.00  0.00    -0.019 A 
ATOM     23  C   UNL A   1      32.001  28.052  27.489  1.00  0.00     0.047 C 
ATOM     24  C   UNL A   1      32.429  29.352  24.813  1.00  0.00     0.037 C 
ATOM     25  C   UNL A   1      32.508  29.485  27.342  1.00  0.00     0.006 C 
ATOM     26  C   UNL A   1      33.301  29.617  26.046  1.00  0.00     0.005 C 
BRANCH  20  27
ATOM     27  C   UNL A   1      30.716  27.468  22.456  1.00  0.00     0.254 C 
ATOM     28  O   UNL A   1      31.160  26.617  21.677  1.00  0.00    -0.269 OA
ATOM     29  N   UNL A   1      29.964  28.460  21.874  1.00  0.00    -0.349 N 
ATOM     30  H   UNL A   1      29.754  28.313  20.924  1.00  0.00     0.164 HD
BRANCH  29  31
ATOM     31  C   UNL A   1      29.434  29.670  22.422  1.00  0.00     0.082 C 
ATOM     32  C   UNL A   1      29.047  30.749  21.417  1.00  0.00     0.025 C 
ATOM     33  C   UNL A   1      28.151  29.531  23.232  1.00  0.00     0.025 C 
ATOM     34  C   UNL A   1      28.426  31.792  22.346  1.00  0.00     0.002 C 
ATOM     35  C   UNL A   1      27.701  30.981  23.428  1.00  0.00     0.002 C 
ENDBRANCH  29  31
ENDBRANCH  20  27
ENDBRANCH  16  18
ENDBRANCH  13  14
ENDBRANCH   3   6
ENDBRANCH   1   2
BRANCH   1  36
ATOM     36  C   UNL A   1      36.082  23.706  26.266  1.00  0.00     0.042 C 
BRANCH  36  37
ATOM     37  C   UNL A   1      37.200  23.723  25.214  1.00  0.00     0.118 C 
BRANCH  37  38
ATOM     38  N   UNL A   1      38.325  22.847  25.527  1.00  0.00    -0.352 N 
ATOM     39  C   UNL A   1      39.481  23.097  26.239  1.00  0.00     0.251 C 
ATOM     40  H   UNL A   1      38.247  21.933  25.175  1.00  0.00     0.163 HD
ATOM     41  O   UNL A   1      40.347  22.233  26.320  1.00  0.00    -0.269 OA
BRANCH  39  42
ATOM     42  C   UNL A   1      39.707  24.405  26.902  1.00  0.00     0.039 A 
ATOM     43  C   UNL A   1      39.284  24.601  28.215  1.00  0.00     0.014 A 
ATOM     44  C   UNL A   1      40.283  25.468  26.212  1.00  0.00     0.014 A 
ATOM     45  C   UNL A   1      39.532  25.824  28.858  1.00  0.00     0.010 A 
ATOM     46  C   UNL A   1      40.608  26.659  26.878  1.00  0.00     0.010 A 
ATOM     47  C   UNL A   1      40.255  26.852  28.221  1.00  0.00    -0.014 A 
BRANCH  47  48
ATOM     48  C   UNL A   1      40.676  28.080  28.972  1.00  0.00     0.031 A 
ATOM     49  C   UNL A   1      39.713  29.196  29.307  1.00  0.00     0.074 A 
ATOM     50  C   UNL A   1      41.971  28.225  29.332  1.00  0.00     0.049 A 
ATOM     51  N   UNL A   1      39.939  30.317  29.954  1.00  0.00    -0.248 NA
ATOM     52  C   UNL A   1      38.331  29.061  28.828  1.00  0.00     0.031 C 
ATOM     53  C   UNL A   1      43.051  27.292  29.007  1.00  0.00     0.029 A 
ATOM     54  N   UNL A   1      42.599  29.207  30.065  1.00  0.00    -0.354 N 
ATOM     55  C   UNL A   1      38.739  31.020  29.944  1.00  0.00     0.074 A 
ATOM     56  C   UNL A   1      37.802  30.226  29.176  1.00  0.00     0.031 C 
ATOM     57  C   UNL A   1      44.185  27.704  29.594  1.00  0.00     0.029 A 
ATOM     58  C   UNL A   1      43.928  28.951  30.306  1.00  0.00     0.049 A 
ATOM     59  H   UNL A   1      42.140  30.016  30.387  1.00  0.00     0.167 HD
ATOM     60  C   UNL A   1      38.429  32.198  30.542  1.00  0.00     0.037 A 
ATOM     61  C   UNL A   1      44.841  29.628  31.031  1.00  0.00     0.037 A 
ATOM     62  C   UNL A   1      39.325  32.975  31.360  1.00  0.00     0.049 A 
ATOM     63  C   UNL A   1      44.453  30.899  31.738  1.00  0.00     0.074 A 
ATOM     64  C   UNL A   1      39.065  34.149  32.051  1.00  0.00     0.029 A 
ATOM     65  N   UNL A   1      40.648  32.652  31.615  1.00  0.00    -0.354 N 
ATOM     66  N   UNL A   1      43.294  31.506  31.771  1.00  0.00    -0.248 NA
ATOM     67  C   UNL A   1      45.506  31.572  32.515  1.00  0.00     0.031 C 
ATOM     68  C   UNL A   1      40.236  34.548  32.705  1.00  0.00     0.029 A 
ATOM     69  C   UNL A   1      41.215  33.604  32.451  1.00  0.00     0.049 A 
ATOM     70  H   UNL A   1      41.117  31.864  31.257  1.00  0.00     0.167 HD
ATOM     71  C   UNL A   1      43.469  32.611  32.594  1.00  0.00     0.074 A 
ATOM     72  C   UNL A   1      44.840  32.585  33.052  1.00  0.00     0.031 C 
ATOM     73  C   UNL A   1      42.569  33.565  32.930  1.00  0.00     0.037 A 
BRANCH  60  74
ATOM     74  C   UNL A   1      37.029  32.719  30.375  1.00  0.00     0.064 A 
ATOM     75  C   UNL A   1      36.083  32.605  31.405  1.00  0.00     0.173 A 
ATOM     76  C   UNL A   1      36.656  33.416  29.216  1.00  0.00     0.173 A 
ATOM     77  F   UNL A   1      36.390  31.946  32.533  1.00  0.00    -0.203 F 
ATOM     78  C   UNL A   1      34.808  33.149  31.270  1.00  0.00     0.198 A 
ATOM     79  C   UNL A   1      35.390  33.984  29.097  1.00  0.00     0.198 A 
ATOM     80  F   UNL A   1      37.528  33.568  28.207  1.00  0.00    -0.203 F 
ATOM     81  F   UNL A   1      33.910  32.996  32.254  1.00  0.00    -0.200 F 
ATOM     82  C   UNL A   1      34.466  33.845  30.121  1.00  0.00     0.200 A 
ATOM     83  F   UNL A   1      35.066  34.671  27.992  1.00  0.00    -0.200 F 
ATOM     84  F   UNL A   1      33.244  34.381  30.001  1.00  0.00    -0.200 F 
ENDBRANCH  60  74
BRANCH  61  85
ATOM     85  C   UNL A   1      46.222  29.096  31.175  1.00  0.00     0.064 A 
ATOM     86  C   UNL A   1      47.224  29.457  30.263  1.00  0.00     0.173 A 
ATOM     87  C   UNL A   1      46.556  28.194  32.193  1.00  0.00     0.173 A 
ATOM     88  F   UNL A   1      46.943  30.300  29.257  1.00  0.00    -0.203 F 
ATOM     89  C   UNL A   1      48.503  28.912  30.347  1.00  0.00     0.198 A 
ATOM     90  C   UNL A   1      47.843  27.670  32.292  1.00  0.00     0.198 A 
ATOM     91  F   UNL A   1      45.631  27.822  33.091  1.00  0.00    -0.203 F 
ATOM     92  F   UNL A   1      49.425  29.229  29.428  1.00  0.00    -0.200 F 
ATOM     93  C   UNL A   1      48.812  28.021  31.363  1.00  0.00     0.200 A 
ATOM     94  F   UNL A   1      48.142  26.816  33.281  1.00  0.00    -0.200 F 
ATOM     95  F   UNL A   1      50.039  27.489  31.439  1.00  0.00    -0.200 F 
ENDBRANCH  61  85
BRANCH  73  96
ATOM     96  C   UNL A   1      43.020  34.640  33.876  1.00  0.00     0.064 A 
ATOM     97  C   UNL A   1      42.953  34.472  35.267  1.00  0.00     0.173 A 
ATOM     98  C   UNL A   1      43.552  35.841  33.384  1.00  0.00     0.173 A 
ATOM     99  F   UNL A   1      42.439  33.347  35.786  1.00  0.00    -0.203 F 
ATOM    100  C   UNL A   1      43.380  35.477  36.131  1.00  0.00     0.198 A 
ATOM    101  C   UNL A   1      44.000  36.835  34.251  1.00  0.00     0.198 A 
ATOM    102  F   UNL A   1      43.642  36.050  32.062  1.00  0.00    -0.203 F 
ATOM    103  F   UNL A   1      43.265  35.313  37.456  1.00  0.00    -0.200 F 
ATOM    104  C   UNL A   1      43.908  36.655  35.623  1.00  0.00     0.200 A 
ATOM    105  F   UNL A   1      44.518  37.969  33.759  1.00  0.00    -0.200 F 
ATOM    106  F   UNL A   1      44.320  37.621  36.456  1.00  0.00    -0.200 F 
ENDBRANCH  73  96
ENDBRANCH  47  48
ENDBRANCH  39  42
ENDBRANCH  37  38
ENDBRANCH  36  37
ENDBRANCH   1  36
TORSDOF 14
ENDMDL
