MODEL 1
REMARK VINA RESULT:     -11.2      0.000      0.000
REMARK SMILES CCn1ccnc1[C@H](F)C(=O)NCCCNC(=O)c1ccc(-c2c3nc(c(-c4c(F)c(F)c(F)c(F)c4F)c4ccc([nH]4)c(-c4c(F)c(F)c(F)c(F)c4F)c4nc(c(-c5c(F)c(F)c(F)c(F)c5F)c5ccc2[nH]5)C=C4)C=C3)cc1
REMARK SMILES IDX 14 1 13 2 12 3 10 4 11 5 8 7 9 8 7 9 3 10 4 11 5 12 6 13
REMARK SMILES IDX 2 14 1 15 15 16 16 17 17 18 18 20 19 21 20 22 81 23 21 24
REMARK SMILES IDX 80 25 22 26 23 27 24 28 74 29 25 30 79 31 73 32 75 33 26 34
REMARK SMILES IDX 78 35 72 36 71 37 27 39 59 40 39 41 58 42 40 43 43 44 57 45
REMARK SMILES IDX 76 46 41 47 42 48 56 50 77 51 44 52 28 53 29 54 37 55 30 56
REMARK SMILES IDX 31 57 35 58 38 59 32 60 33 61 36 62 34 63 60 64 61 65 69 66
REMARK SMILES IDX 62 67 63 68 67 69 70 70 64 71 65 72 68 73 66 74 45 75 46 76
REMARK SMILES IDX 54 77 47 78 48 79 52 80 55 81 49 82 50 83 53 84 51 85
REMARK H PARENT 12 6 16 19 75 38 43 49
REMARK Flexibility Score: inf
ROOT
ATOM      1  C   UNL A   1      37.746  31.106  32.521  1.00  0.00     0.042 C 
ENDROOT
BRANCH   1   2
ATOM      2  C   UNL A   1      37.221  32.331  33.253  1.00  0.00     0.117 C 
BRANCH   2   3
ATOM      3  N   UNL A   1      35.779  32.349  33.464  1.00  0.00    -0.353 N 
ATOM      4  C   UNL A   1      34.862  33.087  32.753  1.00  0.00     0.262 C 
ATOM      5  O   UNL A   1      33.662  32.828  32.897  1.00  0.00    -0.271 OA
ATOM      6  H   UNL A   1      35.428  31.777  34.183  1.00  0.00     0.163 HD
BRANCH   4   7
ATOM      7  C   UNL A   1      35.328  34.191  31.797  1.00  0.00     0.321 C 
ATOM      8  F   UNL A   1      35.191  33.815  30.485  1.00  0.00    -0.228 F 
BRANCH   7   9
ATOM      9  C   UNL A   1      34.555  35.450  32.088  1.00  0.00     0.153 A 
ATOM     10  N   UNL A   1      33.583  36.035  31.303  1.00  0.00    -0.332 N 
ATOM     11  C   UNL A   1      33.279  37.253  31.876  1.00  0.00     0.107 A 
ATOM     12  C   UNL A   1      34.009  37.322  33.030  1.00  0.00     0.131 A 
ATOM     13  N   UNL A   1      34.757  36.197  33.166  1.00  0.00    -0.238 NA
BRANCH  10  14
ATOM     14  C   UNL A   1      32.937  35.611  30.075  1.00  0.00     0.120 C 
ATOM     15  C   UNL A   1      33.278  36.328  28.783  1.00  0.00     0.027 C 
ENDBRANCH  10  14
ENDBRANCH   7   9
ENDBRANCH   4   7
ENDBRANCH   2   3
ENDBRANCH   1   2
BRANCH   1  16
ATOM     16  C   UNL A   1      37.713  31.264  31.020  1.00  0.00     0.118 C 
BRANCH  16  17
ATOM     17  N   UNL A   1      36.481  30.772  30.393  1.00  0.00    -0.352 N 
ATOM     18  C   UNL A   1      36.377  29.983  29.253  1.00  0.00     0.251 C 
ATOM     19  H   UNL A   1      35.636  31.029  30.827  1.00  0.00     0.163 HD
ATOM     20  O   UNL A   1      35.339  29.859  28.640  1.00  0.00    -0.269 OA
BRANCH  18  21
ATOM     21  C   UNL A   1      37.601  29.283  28.822  1.00  0.00     0.039 A 
ATOM     22  C   UNL A   1      38.329  29.677  27.698  1.00  0.00     0.014 A 
ATOM     23  C   UNL A   1      38.076  28.303  29.682  1.00  0.00     0.014 A 
ATOM     24  C   UNL A   1      39.597  29.134  27.510  1.00  0.00     0.010 A 
ATOM     25  C   UNL A   1      39.397  27.973  29.633  1.00  0.00     0.010 A 
ATOM     26  C   UNL A   1      40.136  28.303  28.506  1.00  0.00    -0.014 A 
BRANCH  26  27
ATOM     27  C   UNL A   1      41.521  27.850  28.470  1.00  0.00     0.031 A 
ATOM     28  C   UNL A   1      41.715  26.569  27.743  1.00  0.00     0.074 A 
ATOM     29  C   UNL A   1      42.543  28.656  28.847  1.00  0.00     0.049 A 
ATOM     30  N   UNL A   1      42.048  25.425  28.243  1.00  0.00    -0.248 NA
ATOM     31  C   UNL A   1      41.331  26.500  26.323  1.00  0.00     0.031 C 
ATOM     32  C   UNL A   1      42.469  30.059  29.283  1.00  0.00     0.029 A 
ATOM     33  N   UNL A   1      43.886  28.431  28.820  1.00  0.00    -0.354 N 
ATOM     34  C   UNL A   1      42.154  24.552  27.160  1.00  0.00     0.074 A 
ATOM     35  C   UNL A   1      41.491  25.199  26.063  1.00  0.00     0.031 C 
ATOM     36  C   UNL A   1      43.694  30.623  29.236  1.00  0.00     0.029 A 
ATOM     37  C   UNL A   1      44.661  29.579  28.967  1.00  0.00     0.049 A 
ATOM     38  H   UNL A   1      44.276  27.534  28.706  1.00  0.00     0.167 HD
ATOM     39  C   UNL A   1      43.069  23.542  27.194  1.00  0.00     0.037 A 
ATOM     40  C   UNL A   1      46.010  29.665  28.880  1.00  0.00     0.037 A 
ATOM     41  C   UNL A   1      43.544  23.357  28.546  1.00  0.00     0.049 A 
ATOM     42  C   UNL A   1      46.538  28.305  29.112  1.00  0.00     0.074 A 
ATOM     43  C   UNL A   1      43.034  22.881  29.734  1.00  0.00     0.029 A 
ATOM     44  N   UNL A   1      44.635  24.128  28.852  1.00  0.00    -0.354 N 
ATOM     45  N   UNL A   1      46.434  27.681  30.254  1.00  0.00    -0.248 NA
ATOM     46  C   UNL A   1      46.840  27.461  27.964  1.00  0.00     0.031 C 
ATOM     47  C   UNL A   1      43.726  23.587  30.767  1.00  0.00     0.029 A 
ATOM     48  C   UNL A   1      44.672  24.429  30.183  1.00  0.00     0.049 A 
ATOM     49  H   UNL A   1      45.305  24.425  28.195  1.00  0.00     0.167 HD
ATOM     50  C   UNL A   1      46.224  26.360  29.905  1.00  0.00     0.074 A 
ATOM     51  C   UNL A   1      46.659  26.258  28.516  1.00  0.00     0.031 C 
ATOM     52  C   UNL A   1      45.421  25.565  30.672  1.00  0.00     0.037 A 
BRANCH  39  53
ATOM     53  C   UNL A   1      43.950  23.123  26.019  1.00  0.00     0.064 A 
ATOM     54  C   UNL A   1      44.008  21.748  25.689  1.00  0.00     0.173 A 
ATOM     55  C   UNL A   1      44.977  23.912  25.456  1.00  0.00     0.173 A 
ATOM     56  F   UNL A   1      43.080  20.894  26.147  1.00  0.00    -0.203 F 
ATOM     57  C   UNL A   1      45.075  21.198  24.971  1.00  0.00     0.198 A 
ATOM     58  C   UNL A   1      46.018  23.363  24.705  1.00  0.00     0.198 A 
ATOM     59  F   UNL A   1      45.089  25.223  25.682  1.00  0.00    -0.203 F 
ATOM     60  F   UNL A   1      45.155  19.870  24.809  1.00  0.00    -0.200 F 
ATOM     61  C   UNL A   1      46.089  22.005  24.495  1.00  0.00     0.200 A 
ATOM     62  F   UNL A   1      46.999  24.164  24.263  1.00  0.00    -0.200 F 
ATOM     63  F   UNL A   1      47.152  21.475  23.877  1.00  0.00    -0.200 F 
ENDBRANCH  39  53
BRANCH  40  64
ATOM     64  C   UNL A   1      46.846  30.776  28.368  1.00  0.00     0.064 A 
ATOM     65  C   UNL A   1      46.512  31.453  27.184  1.00  0.00     0.173 A 
ATOM     66  C   UNL A   1      47.817  31.385  29.186  1.00  0.00     0.173 A 
ATOM     67  F   UNL A   1      45.569  30.959  26.368  1.00  0.00    -0.203 F 
ATOM     68  C   UNL A   1      47.087  32.687  26.857  1.00  0.00     0.198 A 
ATOM     69  C   UNL A   1      48.391  32.615  28.857  1.00  0.00     0.198 A 
ATOM     70  F   UNL A   1      48.153  30.847  30.367  1.00  0.00    -0.203 F 
ATOM     71  F   UNL A   1      46.692  33.337  25.753  1.00  0.00    -0.200 F 
ATOM     72  C   UNL A   1      48.014  33.273  27.702  1.00  0.00     0.200 A 
ATOM     73  F   UNL A   1      49.259  33.190  29.703  1.00  0.00    -0.200 F 
ATOM     74  F   UNL A   1      48.510  34.488  27.426  1.00  0.00    -0.200 F 
ENDBRANCH  40  64
BRANCH  52  75
ATOM     75  C   UNL A   1      45.168  26.004  32.084  1.00  0.00     0.064 A 
ATOM     76  C   UNL A   1      44.047  26.738  32.503  1.00  0.00     0.173 A 
ATOM     77  C   UNL A   1      46.064  25.573  33.070  1.00  0.00     0.173 A 
ATOM     78  F   UNL A   1      43.106  27.118  31.632  1.00  0.00    -0.203 F 
ATOM     79  C   UNL A   1      43.855  27.057  33.846  1.00  0.00     0.198 A 
ATOM     80  C   UNL A   1      45.852  25.861  34.414  1.00  0.00     0.198 A 
ATOM     81  F   UNL A   1      47.129  24.831  32.730  1.00  0.00    -0.203 F 
ATOM     82  F   UNL A   1      42.784  27.774  34.221  1.00  0.00    -0.200 F 
ATOM     83  C   UNL A   1      44.753  26.612  34.801  1.00  0.00     0.200 A 
ATOM     84  F   UNL A   1      46.702  25.391  35.336  1.00  0.00    -0.200 F 
ATOM     85  F   UNL A   1      44.551  26.887  36.097  1.00  0.00    -0.200 F 
ENDBRANCH  52  75
ENDBRANCH  26  27
ENDBRANCH  18  21
ENDBRANCH  16  17
ENDBRANCH   1  16
TORSDOF 12
ENDMDL
MODEL 2
REMARK VINA RESULT:     -11.2      4.302      9.677
REMARK SMILES CCn1ccnc1[C@H](F)C(=O)NCCCNC(=O)c1ccc(-c2c3nc(c(-c4c(F)c(F)c(F)c(F)c4F)c4ccc([nH]4)c(-c4c(F)c(F)c(F)c(F)c4F)c4nc(c(-c5c(F)c(F)c(F)c(F)c5F)c5ccc2[nH]5)C=C4)C=C3)cc1
REMARK SMILES IDX 14 1 13 2 12 3 10 4 11 5 8 7 9 8 7 9 3 10 4 11 5 12 6 13
REMARK SMILES IDX 2 14 1 15 15 16 16 17 17 18 18 20 19 21 20 22 81 23 21 24
REMARK SMILES IDX 80 25 22 26 23 27 24 28 74 29 25 30 79 31 73 32 75 33 26 34
REMARK SMILES IDX 78 35 72 36 71 37 27 39 59 40 39 41 58 42 40 43 43 44 57 45
REMARK SMILES IDX 76 46 41 47 42 48 56 50 77 51 44 52 28 53 29 54 37 55 30 56
REMARK SMILES IDX 31 57 35 58 38 59 32 60 33 61 36 62 34 63 60 64 61 65 69 66
REMARK SMILES IDX 62 67 63 68 67 69 70 70 64 71 65 72 68 73 66 74 45 75 46 76
REMARK SMILES IDX 54 77 47 78 48 79 52 80 55 81 49 82 50 83 53 84 51 85
REMARK H PARENT 12 6 16 19 75 38 43 49
REMARK Flexibility Score: inf
ROOT
ATOM      1  C   UNL A   1      37.791  20.399  24.901  1.00  0.00     0.042 C 
ENDROOT
BRANCH   1   2
ATOM      2  C   UNL A   1      36.826  21.570  25.018  1.00  0.00     0.117 C 
BRANCH   2   3
ATOM      3  N   UNL A   1      36.100  21.642  26.280  1.00  0.00    -0.353 N 
ATOM      4  C   UNL A   1      34.733  21.671  26.431  1.00  0.00     0.262 C 
ATOM      5  O   UNL A   1      34.265  21.507  27.563  1.00  0.00    -0.271 OA
ATOM      6  H   UNL A   1      36.639  21.673  27.102  1.00  0.00     0.163 HD
BRANCH   4   7
ATOM      7  C   UNL A   1      33.822  21.888  25.218  1.00  0.00     0.321 C 
ATOM      8  F   UNL A   1      33.415  20.697  24.672  1.00  0.00    -0.228 F 
BRANCH   7   9
ATOM      9  C   UNL A   1      32.644  22.730  25.633  1.00  0.00     0.153 A 
ATOM     10  N   UNL A   1      32.638  24.081  25.911  1.00  0.00    -0.332 N 
ATOM     11  C   UNL A   1      31.388  24.384  26.413  1.00  0.00     0.107 A 
ATOM     12  C   UNL A   1      30.659  23.231  26.336  1.00  0.00     0.131 A 
ATOM     13  N   UNL A   1      31.427  22.237  25.823  1.00  0.00    -0.238 NA
BRANCH  10  14
ATOM     14  C   UNL A   1      33.662  25.103  25.800  1.00  0.00     0.120 C 
ATOM     15  C   UNL A   1      33.272  26.554  26.005  1.00  0.00     0.027 C 
ENDBRANCH  10  14
ENDBRANCH   7   9
ENDBRANCH   4   7
ENDBRANCH   2   3
ENDBRANCH   1   2
BRANCH   1  16
ATOM     16  C   UNL A   1      39.015  20.564  25.768  1.00  0.00     0.118 C 
BRANCH  16  17
ATOM     17  N   UNL A   1      39.914  19.406  25.762  1.00  0.00    -0.352 N 
ATOM     18  C   UNL A   1      41.295  19.413  25.923  1.00  0.00     0.251 C 
ATOM     19  H   UNL A   1      39.493  18.526  25.629  1.00  0.00     0.163 HD
ATOM     20  O   UNL A   1      41.991  18.467  25.623  1.00  0.00    -0.269 OA
BRANCH  18  21
ATOM     21  C   UNL A   1      41.885  20.638  26.494  1.00  0.00     0.039 A 
ATOM     22  C   UNL A   1      42.329  21.693  25.696  1.00  0.00     0.014 A 
ATOM     23  C   UNL A   1      41.836  20.749  27.877  1.00  0.00     0.014 A 
ATOM     24  C   UNL A   1      42.631  22.905  26.314  1.00  0.00     0.010 A 
ATOM     25  C   UNL A   1      41.886  21.990  28.436  1.00  0.00     0.010 A 
ATOM     26  C   UNL A   1      42.373  23.052  27.686  1.00  0.00    -0.014 A 
BRANCH  26  27
ATOM     27  C   UNL A   1      42.486  24.339  28.362  1.00  0.00     0.031 A 
ATOM     28  C   UNL A   1      41.354  25.261  28.089  1.00  0.00     0.074 A 
ATOM     29  C   UNL A   1      43.406  24.554  29.332  1.00  0.00     0.049 A 
ATOM     30  N   UNL A   1      41.382  26.361  27.412  1.00  0.00    -0.248 NA
ATOM     31  C   UNL A   1      39.993  24.835  28.461  1.00  0.00     0.031 C 
ATOM     32  C   UNL A   1      44.367  23.590  29.892  1.00  0.00     0.029 A 
ATOM     33  N   UNL A   1      43.614  25.654  30.108  1.00  0.00    -0.354 N 
ATOM     34  C   UNL A   1      40.092  26.887  27.485  1.00  0.00     0.074 A 
ATOM     35  C   UNL A   1      39.251  25.813  27.934  1.00  0.00     0.031 C 
ATOM     36  C   UNL A   1      44.864  24.057  31.057  1.00  0.00     0.029 A 
ATOM     37  C   UNL A   1      44.420  25.425  31.221  1.00  0.00     0.049 A 
ATOM     38  H   UNL A   1      43.227  26.536  29.900  1.00  0.00     0.167 HD
ATOM     39  C   UNL A   1      39.914  28.239  27.492  1.00  0.00     0.037 A 
ATOM     40  C   UNL A   1      44.708  26.304  32.210  1.00  0.00     0.037 A 
ATOM     41  C   UNL A   1      41.129  28.895  27.066  1.00  0.00     0.049 A 
ATOM     42  C   UNL A   1      44.459  27.654  31.663  1.00  0.00     0.074 A 
ATOM     43  C   UNL A   1      41.837  29.035  25.892  1.00  0.00     0.029 A 
ATOM     44  N   UNL A   1      41.989  29.174  28.095  1.00  0.00    -0.354 N 
ATOM     45  N   UNL A   1      45.163  28.177  30.696  1.00  0.00    -0.248 NA
ATOM     46  C   UNL A   1      43.173  28.290  31.914  1.00  0.00     0.031 C 
ATOM     47  C   UNL A   1      43.206  29.181  26.277  1.00  0.00     0.029 A 
ATOM     48  C   UNL A   1      43.286  29.181  27.670  1.00  0.00     0.049 A 
ATOM     49  H   UNL A   1      41.707  29.347  29.022  1.00  0.00     0.167 HD
ATOM     50  C   UNL A   1      44.245  28.896  29.953  1.00  0.00     0.074 A 
ATOM     51  C   UNL A   1      43.097  29.076  30.836  1.00  0.00     0.031 C 
ATOM     52  C   UNL A   1      44.379  28.990  28.597  1.00  0.00     0.037 A 
BRANCH  39  53
ATOM     53  C   UNL A   1      38.926  28.984  28.387  1.00  0.00     0.064 A 
ATOM     54  C   UNL A   1      38.945  28.705  29.774  1.00  0.00     0.173 A 
ATOM     55  C   UNL A   1      37.769  29.653  27.933  1.00  0.00     0.173 A 
ATOM     56  F   UNL A   1      39.996  28.087  30.334  1.00  0.00    -0.203 F 
ATOM     57  C   UNL A   1      37.845  28.956  30.601  1.00  0.00     0.198 A 
ATOM     58  C   UNL A   1      36.690  29.939  28.771  1.00  0.00     0.198 A 
ATOM     59  F   UNL A   1      37.573  29.973  26.651  1.00  0.00    -0.203 F 
ATOM     60  F   UNL A   1      37.861  28.542  31.876  1.00  0.00    -0.200 F 
ATOM     61  C   UNL A   1      36.711  29.557  30.094  1.00  0.00     0.200 A 
ATOM     62  F   UNL A   1      35.592  30.513  28.255  1.00  0.00    -0.200 F 
ATOM     63  F   UNL A   1      35.626  29.728  30.860  1.00  0.00    -0.200 F 
ENDBRANCH  39  53
BRANCH  40  64
ATOM     64  C   UNL A   1      44.939  26.051  33.651  1.00  0.00     0.064 A 
ATOM     65  C   UNL A   1      43.868  25.830  34.532  1.00  0.00     0.173 A 
ATOM     66  C   UNL A   1      46.223  25.727  34.131  1.00  0.00     0.173 A 
ATOM     67  F   UNL A   1      42.609  26.077  34.139  1.00  0.00    -0.203 F 
ATOM     68  C   UNL A   1      44.065  25.280  35.804  1.00  0.00     0.198 A 
ATOM     69  C   UNL A   1      46.418  25.180  35.400  1.00  0.00     0.198 A 
ATOM     70  F   UNL A   1      47.299  25.842  33.339  1.00  0.00    -0.203 F 
ATOM     71  F   UNL A   1      43.012  25.018  36.590  1.00  0.00    -0.200 F 
ATOM     72  C   UNL A   1      45.339  24.941  36.230  1.00  0.00     0.200 A 
ATOM     73  F   UNL A   1      47.651  24.821  35.787  1.00  0.00    -0.200 F 
ATOM     74  F   UNL A   1      45.521  24.347  37.418  1.00  0.00    -0.200 F 
ENDBRANCH  40  64
BRANCH  52  75
ATOM     75  C   UNL A   1      45.735  28.709  28.020  1.00  0.00     0.064 A 
ATOM     76  C   UNL A   1      46.140  27.468  27.502  1.00  0.00     0.173 A 
ATOM     77  C   UNL A   1      46.629  29.780  27.906  1.00  0.00     0.173 A 
ATOM     78  F   UNL A   1      45.313  26.417  27.502  1.00  0.00    -0.203 F 
ATOM     79  C   UNL A   1      47.399  27.303  26.928  1.00  0.00     0.198 A 
ATOM     80  C   UNL A   1      47.872  29.622  27.301  1.00  0.00     0.198 A 
ATOM     81  F   UNL A   1      46.276  30.998  28.345  1.00  0.00    -0.203 F 
ATOM     82  F   UNL A   1      47.770  26.104  26.453  1.00  0.00    -0.200 F 
ATOM     83  C   UNL A   1      48.261  28.381  26.822  1.00  0.00     0.200 A 
ATOM     84  F   UNL A   1      48.682  30.679  27.162  1.00  0.00    -0.200 F 
ATOM     85  F   UNL A   1      49.458  28.233  26.239  1.00  0.00    -0.200 F 
ENDBRANCH  52  75
ENDBRANCH  26  27
ENDBRANCH  18  21
ENDBRANCH  16  17
ENDBRANCH   1  16
TORSDOF 12
ENDMDL
MODEL 3
REMARK VINA RESULT:     -11.1      0.860      1.676
REMARK SMILES CCn1ccnc1[C@H](F)C(=O)NCCCNC(=O)c1ccc(-c2c3nc(c(-c4c(F)c(F)c(F)c(F)c4F)c4ccc([nH]4)c(-c4c(F)c(F)c(F)c(F)c4F)c4nc(c(-c5c(F)c(F)c(F)c(F)c5F)c5ccc2[nH]5)C=C4)C=C3)cc1
REMARK SMILES IDX 14 1 13 2 12 3 10 4 11 5 8 7 9 8 7 9 3 10 4 11 5 12 6 13
REMARK SMILES IDX 2 14 1 15 15 16 16 17 17 18 18 20 19 21 20 22 81 23 21 24
REMARK SMILES IDX 80 25 22 26 23 27 24 28 74 29 25 30 79 31 73 32 75 33 26 34
REMARK SMILES IDX 78 35 72 36 71 37 27 39 59 40 39 41 58 42 40 43 43 44 57 45
REMARK SMILES IDX 76 46 41 47 42 48 56 50 77 51 44 52 28 53 29 54 37 55 30 56
REMARK SMILES IDX 31 57 35 58 38 59 32 60 33 61 36 62 34 63 60 64 61 65 69 66
REMARK SMILES IDX 62 67 63 68 67 69 70 70 64 71 65 72 68 73 66 74 45 75 46 76
REMARK SMILES IDX 54 77 47 78 48 79 52 80 55 81 49 82 50 83 53 84 51 85
REMARK H PARENT 12 6 16 19 75 38 43 49
REMARK Flexibility Score: inf
ROOT
ATOM      1  C   UNL A   1      38.419  31.165  31.768  1.00  0.00     0.042 C 
ENDROOT
BRANCH   1   2
ATOM      2  C   UNL A   1      37.470  31.594  32.877  1.00  0.00     0.117 C 
BRANCH   2   3
ATOM      3  N   UNL A   1      37.371  33.035  33.076  1.00  0.00    -0.353 N 
ATOM      4  C   UNL A   1      36.212  33.774  33.101  1.00  0.00     0.262 C 
ATOM      5  O   UNL A   1      36.270  34.942  33.500  1.00  0.00    -0.271 OA
ATOM      6  H   UNL A   1      38.214  33.525  33.204  1.00  0.00     0.163 HD
BRANCH   4   7
ATOM      7  C   UNL A   1      34.884  33.151  32.657  1.00  0.00     0.321 C 
ATOM      8  F   UNL A   1      33.920  33.269  33.626  1.00  0.00    -0.228 F 
BRANCH   7   9
ATOM      9  C   UNL A   1      34.445  33.797  31.369  1.00  0.00     0.153 A 
ATOM     10  N   UNL A   1      33.725  34.964  31.222  1.00  0.00    -0.332 N 
ATOM     11  C   UNL A   1      33.406  35.076  29.884  1.00  0.00     0.107 A 
ATOM     12  C   UNL A   1      34.017  34.025  29.259  1.00  0.00     0.131 A 
ATOM     13  N   UNL A   1      34.679  33.272  30.173  1.00  0.00    -0.238 NA
BRANCH  10  14
ATOM     14  C   UNL A   1      33.274  35.957  32.178  1.00  0.00     0.120 C 
ATOM     15  C   UNL A   1      31.795  36.039  32.507  1.00  0.00     0.027 C 
ENDBRANCH  10  14
ENDBRANCH   7   9
ENDBRANCH   4   7
ENDBRANCH   2   3
ENDBRANCH   1   2
BRANCH   1  16
ATOM     16  C   UNL A   1      37.953  31.604  30.401  1.00  0.00     0.118 C 
BRANCH  16  17
ATOM     17  N   UNL A   1      36.699  30.979  29.966  1.00  0.00    -0.352 N 
ATOM     18  C   UNL A   1      36.541  30.005  28.987  1.00  0.00     0.251 C 
ATOM     19  H   UNL A   1      35.879  31.284  30.418  1.00  0.00     0.163 HD
ATOM     20  O   UNL A   1      35.466  29.751  28.489  1.00  0.00    -0.269 OA
BRANCH  18  21
ATOM     21  C   UNL A   1      37.757  29.276  28.581  1.00  0.00     0.039 A 
ATOM     22  C   UNL A   1      38.525  29.661  27.482  1.00  0.00     0.014 A 
ATOM     23  C   UNL A   1      38.180  28.274  29.443  1.00  0.00     0.014 A 
ATOM     24  C   UNL A   1      39.782  29.083  27.322  1.00  0.00     0.010 A 
ATOM     25  C   UNL A   1      39.492  27.907  29.426  1.00  0.00     0.010 A 
ATOM     26  C   UNL A   1      40.271  28.228  28.323  1.00  0.00    -0.014 A 
BRANCH  26  27
ATOM     27  C   UNL A   1      41.643  27.736  28.320  1.00  0.00     0.031 A 
ATOM     28  C   UNL A   1      41.819  26.453  27.591  1.00  0.00     0.074 A 
ATOM     29  C   UNL A   1      42.677  28.510  28.727  1.00  0.00     0.049 A 
ATOM     30  N   UNL A   1      42.107  25.298  28.092  1.00  0.00    -0.248 NA
ATOM     31  C   UNL A   1      41.470  26.403  26.160  1.00  0.00     0.031 C 
ATOM     32  C   UNL A   1      42.631  29.913  29.170  1.00  0.00     0.029 A 
ATOM     33  N   UNL A   1      44.014  28.247  28.733  1.00  0.00    -0.354 N 
ATOM     34  C   UNL A   1      42.216  24.428  27.006  1.00  0.00     0.074 A 
ATOM     35  C   UNL A   1      41.599  25.099  25.897  1.00  0.00     0.031 C 
ATOM     36  C   UNL A   1      43.873  30.442  29.157  1.00  0.00     0.029 A 
ATOM     37  C   UNL A   1      44.816  29.373  28.907  1.00  0.00     0.049 A 
ATOM     38  H   UNL A   1      44.380  27.340  28.624  1.00  0.00     0.167 HD
ATOM     39  C   UNL A   1      43.101  23.392  27.058  1.00  0.00     0.037 A 
ATOM     40  C   UNL A   1      46.169  29.421  28.854  1.00  0.00     0.037 A 
ATOM     41  C   UNL A   1      43.535  23.187  28.421  1.00  0.00     0.049 A 
ATOM     42  C   UNL A   1      46.652  28.045  29.092  1.00  0.00     0.074 A 
ATOM     43  C   UNL A   1      42.982  22.719  29.593  1.00  0.00     0.029 A 
ATOM     44  N   UNL A   1      44.639  23.925  28.759  1.00  0.00    -0.354 N 
ATOM     45  N   UNL A   1      46.502  27.419  30.227  1.00  0.00    -0.248 NA
ATOM     46  C   UNL A   1      46.960  27.199  27.946  1.00  0.00     0.031 C 
ATOM     47  C   UNL A   1      43.667  23.400  30.647  1.00  0.00     0.029 A 
ATOM     48  C   UNL A   1      44.652  24.218  30.092  1.00  0.00     0.049 A 
ATOM     49  H   UNL A   1      45.335  24.207  28.121  1.00  0.00     0.167 HD
ATOM     50  C   UNL A   1      46.264  26.106  29.865  1.00  0.00     0.074 A 
ATOM     51  C   UNL A   1      46.731  25.999  28.486  1.00  0.00     0.031 C 
ATOM     52  C   UNL A   1      45.419  25.330  30.607  1.00  0.00     0.037 A 
BRANCH  39  53
ATOM     53  C   UNL A   1      43.999  22.955  25.903  1.00  0.00     0.064 A 
ATOM     54  C   UNL A   1      44.071  21.573  25.603  1.00  0.00     0.173 A 
ATOM     55  C   UNL A   1      45.028  23.738  25.337  1.00  0.00     0.173 A 
ATOM     56  F   UNL A   1      43.143  20.723  26.068  1.00  0.00    -0.203 F 
ATOM     57  C   UNL A   1      45.150  21.015  24.910  1.00  0.00     0.198 A 
ATOM     58  C   UNL A   1      46.082  23.181  24.610  1.00  0.00     0.198 A 
ATOM     59  F   UNL A   1      45.129  25.055  25.536  1.00  0.00    -0.203 F 
ATOM     60  F   UNL A   1      45.241  19.685  24.778  1.00  0.00    -0.200 F 
ATOM     61  C   UNL A   1      46.165  21.819  24.430  1.00  0.00     0.200 A 
ATOM     62  F   UNL A   1      47.064  23.979  24.164  1.00  0.00    -0.200 F 
ATOM     63  F   UNL A   1      47.239  21.283  23.837  1.00  0.00    -0.200 F 
ENDBRANCH  39  53
BRANCH  40  64
ATOM     64  C   UNL A   1      47.049  30.510  28.370  1.00  0.00     0.064 A 
ATOM     65  C   UNL A   1      46.727  31.250  27.221  1.00  0.00     0.173 A 
ATOM     66  C   UNL A   1      48.063  31.038  29.192  1.00  0.00     0.173 A 
ATOM     67  F   UNL A   1      45.746  30.836  26.404  1.00  0.00    -0.203 F 
ATOM     68  C   UNL A   1      47.355  32.467  26.931  1.00  0.00     0.198 A 
ATOM     69  C   UNL A   1      48.690  32.252  28.901  1.00  0.00     0.198 A 
ATOM     70  F   UNL A   1      48.393  30.437  30.344  1.00  0.00    -0.203 F 
ATOM     71  F   UNL A   1      46.972  33.180  25.863  1.00  0.00    -0.200 F 
ATOM     72  C   UNL A   1      48.325  32.974  27.781  1.00  0.00     0.200 A 
ATOM     73  F   UNL A   1      49.600  32.750  29.751  1.00  0.00    -0.200 F 
ATOM     74  F   UNL A   1      48.874  34.173  27.544  1.00  0.00    -0.200 F 
ENDBRANCH  40  64
BRANCH  52  75
ATOM     75  C   UNL A   1      45.143  25.768  32.014  1.00  0.00     0.064 A 
ATOM     76  C   UNL A   1      46.014  25.570  33.098  1.00  0.00     0.173 A 
ATOM     77  C   UNL A   1      43.977  26.508  32.249  1.00  0.00     0.173 A 
ATOM     78  F   UNL A   1      47.184  24.942  32.937  1.00  0.00    -0.203 F 
ATOM     79  C   UNL A   1      45.709  26.061  34.367  1.00  0.00     0.198 A 
ATOM     80  C   UNL A   1      43.692  27.027  33.507  1.00  0.00     0.198 A 
ATOM     81  F   UNL A   1      43.131  26.764  31.239  1.00  0.00    -0.203 F 
ATOM     82  F   UNL A   1      46.549  25.846  35.391  1.00  0.00    -0.200 F 
ATOM     83  C   UNL A   1      44.553  26.795  34.568  1.00  0.00     0.200 A 
ATOM     84  F   UNL A   1      42.594  27.773  33.685  1.00  0.00    -0.200 F 
ATOM     85  F   UNL A   1      44.276  27.297  35.779  1.00  0.00    -0.200 F 
ENDBRANCH  52  75
ENDBRANCH  26  27
ENDBRANCH  18  21
ENDBRANCH  16  17
ENDBRANCH   1  16
TORSDOF 12
ENDMDL
