MODEL 1
REMARK VINA RESULT:     -13.5      0.000      0.000
REMARK SMILES CCc1ccc(Oc2ncnc(N3CCC(C(=O)NCCCNC(=O)c4ccc(-c5c6nc(c(-c7c(F)c(F)c(F)c(F)c7F)c7ccc([nH]7)c(-c7c(F)c(F)c(F)c(F)c7F)c7nc(c(-c8c(F)c(F)c(F)c(F)c8F)c8ccc5[nH]8)C=C7)C=C6)cc4)CC3)c2[N+](=O)[O-])cc1
REMARK SMILES IDX 20 1 19 2 17 3 18 4 16 6 13 7 14 8 90 9 15 10 89 11 12 12
REMARK SMILES IDX 8 13 9 14 91 15 10 16 11 17 7 18 6 19 3 20 4 21 96 22 5 23
REMARK SMILES IDX 95 24 2 25 1 26 92 27 93 28 94 29 21 30 22 31 23 32 24 33
REMARK SMILES IDX 25 35 26 36 27 37 88 38 28 39 87 40 29 41 30 42 31 43 81 44
REMARK SMILES IDX 32 45 86 46 80 47 82 48 33 49 85 50 79 51 78 52 34 54 66 55
REMARK SMILES IDX 46 56 65 57 47 58 50 59 64 60 83 61 48 62 49 63 63 65 84 66
REMARK SMILES IDX 51 67 35 68 36 69 44 70 37 71 38 72 42 73 45 74 39 75 40 76
REMARK SMILES IDX 43 77 41 78 67 79 68 80 76 81 69 82 70 83 74 84 77 85 71 86
REMARK SMILES IDX 72 87 75 88 73 89 52 90 53 91 61 92 54 93 55 94 59 95 62 96
REMARK SMILES IDX 56 97 57 98 60 99 58 100
REMARK H PARENT 19 5 23 34 82 53 50 64
REMARK Flexibility Score: inf
ROOT
ATOM      1  C   UNL A   1      31.733  30.610  26.066  1.00  0.00     0.117 C 
ENDROOT
BRANCH   1   2
ATOM      2  N   UNL A   1      31.552  29.710  27.199  1.00  0.00    -0.356 N 
ATOM      3  C   UNL A   1      31.640  28.354  27.284  1.00  0.00     0.223 C 
ATOM      4  O   UNL A   1      31.406  27.830  28.375  1.00  0.00    -0.275 OA
ATOM      5  H   UNL A   1      31.330  30.160  28.045  1.00  0.00     0.163 HD
BRANCH   3   6
ATOM      6  C   UNL A   1      32.027  27.504  26.084  1.00  0.00     0.082 C 
ATOM      7  N   UNL A   1      32.869  24.895  25.425  1.00  0.00    -0.351 N 
ATOM      8  C   UNL A   1      33.871  25.939  25.265  1.00  0.00     0.119 C 
ATOM      9  C   UNL A   1      31.518  25.232  25.012  1.00  0.00     0.119 C 
ATOM     10  C   UNL A   1      33.513  27.115  26.154  1.00  0.00     0.035 C 
ATOM     11  C   UNL A   1      31.011  26.362  25.895  1.00  0.00     0.035 C 
BRANCH   7  12
ATOM     12  C   UNL A   1      33.302  23.628  25.722  1.00  0.00     0.215 A 
ATOM     13  C   UNL A   1      34.162  21.472  25.266  1.00  0.00     0.305 A 
ATOM     14  N   UNL A   1      34.315  21.201  26.578  1.00  0.00    -0.195 NA
ATOM     15  C   UNL A   1      33.597  22.642  24.803  1.00  0.00     0.373 A 
ATOM     16  C   UNL A   1      33.953  22.179  27.408  1.00  0.00     0.228 A 
ATOM     17  N   UNL A   1      33.489  23.385  27.042  1.00  0.00    -0.212 NA
BRANCH  13  18
ATOM     18  O   UNL A   1      34.672  20.505  24.430  1.00  0.00    -0.434 OA
BRANCH  18  19
ATOM     19  C   UNL A   1      34.188  19.219  24.575  1.00  0.00     0.129 A 
ATOM     20  C   UNL A   1      33.456  16.534  25.032  1.00  0.00    -0.048 A 
ATOM     21  C   UNL A   1      34.781  16.875  24.725  1.00  0.00     0.007 A 
ATOM     22  C   UNL A   1      32.500  17.554  25.082  1.00  0.00     0.007 A 
ATOM     23  C   UNL A   1      35.144  18.206  24.500  1.00  0.00     0.047 A 
ATOM     24  C   UNL A   1      32.854  18.880  24.822  1.00  0.00     0.047 A 
BRANCH  20  25
ATOM     25  C   UNL A   1      33.103  15.107  25.377  1.00  0.00     0.032 C 
ATOM     26  C   UNL A   1      31.788  14.945  26.129  1.00  0.00     0.009 C 
ENDBRANCH  20  25
ENDBRANCH  18  19
ENDBRANCH  13  18
BRANCH  15  27
ATOM     27  N   UNL A   1      33.456  22.852  23.397  1.00  0.00     0.072 N 
ATOM     28  O   UNL A   1      34.375  23.435  22.805  1.00  0.00    -0.258 OA
ATOM     29  O   UNL A   1      32.406  22.453  22.873  1.00  0.00    -0.258 OA
ENDBRANCH  15  27
ENDBRANCH   7  12
ENDBRANCH   3   6
ENDBRANCH   1   2
BRANCH   1  30
ATOM     30  C   UNL A   1      31.510  32.067  26.451  1.00  0.00     0.042 C 
BRANCH  30  31
ATOM     31  C   UNL A   1      32.654  32.668  27.254  1.00  0.00     0.118 C 
BRANCH  31  32
ATOM     32  N   UNL A   1      32.425  34.066  27.593  1.00  0.00    -0.352 N 
ATOM     33  C   UNL A   1      33.000  34.840  28.569  1.00  0.00     0.251 C 
ATOM     34  H   UNL A   1      31.755  34.525  27.037  1.00  0.00     0.163 HD
ATOM     35  O   UNL A   1      32.527  35.945  28.830  1.00  0.00    -0.269 OA
BRANCH  33  36
ATOM     36  C   UNL A   1      34.169  34.344  29.321  1.00  0.00     0.039 A 
ATOM     37  C   UNL A   1      33.964  33.702  30.545  1.00  0.00     0.014 A 
ATOM     38  C   UNL A   1      35.465  34.514  28.829  1.00  0.00     0.014 A 
ATOM     39  C   UNL A   1      35.053  33.167  31.237  1.00  0.00     0.010 A 
ATOM     40  C   UNL A   1      36.535  33.898  29.468  1.00  0.00     0.010 A 
ATOM     41  C   UNL A   1      36.342  33.223  30.683  1.00  0.00    -0.014 A 
BRANCH  41  42
ATOM     42  C   UNL A   1      37.503  32.589  31.356  1.00  0.00     0.031 A 
ATOM     43  C   UNL A   1      38.228  31.450  30.694  1.00  0.00     0.074 A 
ATOM     44  C   UNL A   1      37.855  32.986  32.594  1.00  0.00     0.049 A 
ATOM     45  N   UNL A   1      39.204  30.709  31.156  1.00  0.00    -0.248 NA
ATOM     46  C   UNL A   1      37.777  31.073  29.345  1.00  0.00     0.031 C 
ATOM     47  C   UNL A   1      37.199  34.047  33.360  1.00  0.00     0.029 A 
ATOM     48  N   UNL A   1      38.845  32.537  33.432  1.00  0.00    -0.354 N 
ATOM     49  C   UNL A   1      39.470  29.774  30.162  1.00  0.00     0.074 A 
ATOM     50  C   UNL A   1      38.515  30.001  29.101  1.00  0.00     0.031 C 
ATOM     51  C   UNL A   1      37.818  34.183  34.544  1.00  0.00     0.029 A 
ATOM     52  C   UNL A   1      38.883  33.190  34.640  1.00  0.00     0.049 A 
ATOM     53  H   UNL A   1      39.469  31.815  33.190  1.00  0.00     0.167 HD
ATOM     54  C   UNL A   1      40.438  28.828  30.131  1.00  0.00     0.037 A 
ATOM     55  C   UNL A   1      39.679  33.000  35.709  1.00  0.00     0.037 A 
ATOM     56  C   UNL A   1      41.400  28.623  31.181  1.00  0.00     0.049 A 
ATOM     57  C   UNL A   1      40.737  31.930  35.655  1.00  0.00     0.074 A 
ATOM     58  C   UNL A   1      42.459  27.732  31.219  1.00  0.00     0.029 A 
ATOM     59  N   UNL A   1      41.416  29.313  32.384  1.00  0.00    -0.354 N 
ATOM     60  N   UNL A   1      41.025  31.100  34.682  1.00  0.00    -0.248 NA
ATOM     61  C   UNL A   1      41.585  31.776  36.845  1.00  0.00     0.031 C 
ATOM     62  C   UNL A   1      43.080  27.845  32.466  1.00  0.00     0.029 A 
ATOM     63  C   UNL A   1      42.450  28.850  33.182  1.00  0.00     0.049 A 
ATOM     64  H   UNL A   1      40.786  30.028  32.634  1.00  0.00     0.167 HD
ATOM     65  C   UNL A   1      42.104  30.348  35.128  1.00  0.00     0.074 A 
ATOM     66  C   UNL A   1      42.428  30.831  36.454  1.00  0.00     0.031 C 
ATOM     67  C   UNL A   1      42.766  29.348  34.496  1.00  0.00     0.037 A 
BRANCH  54  68
ATOM     68  C   UNL A   1      40.507  27.942  28.919  1.00  0.00     0.064 A 
ATOM     69  C   UNL A   1      39.781  26.744  28.838  1.00  0.00     0.173 A 
ATOM     70  C   UNL A   1      41.280  28.315  27.808  1.00  0.00     0.173 A 
ATOM     71  F   UNL A   1      39.035  26.335  29.874  1.00  0.00    -0.203 F 
ATOM     72  C   UNL A   1      39.852  25.937  27.705  1.00  0.00     0.198 A 
ATOM     73  C   UNL A   1      41.321  27.523  26.663  1.00  0.00     0.198 A 
ATOM     74  F   UNL A   1      41.990  29.454  27.829  1.00  0.00    -0.203 F 
ATOM     75  F   UNL A   1      39.191  24.770  27.673  1.00  0.00    -0.200 F 
ATOM     76  C   UNL A   1      40.614  26.331  26.616  1.00  0.00     0.200 A 
ATOM     77  F   UNL A   1      42.047  27.913  25.607  1.00  0.00    -0.200 F 
ATOM     78  F   UNL A   1      40.674  25.558  25.523  1.00  0.00    -0.200 F 
ENDBRANCH  54  68
BRANCH  55  79
ATOM     79  C   UNL A   1      39.518  33.852  36.917  1.00  0.00     0.064 A 
ATOM     80  C   UNL A   1      38.745  33.422  38.005  1.00  0.00     0.173 A 
ATOM     81  C   UNL A   1      40.125  35.114  37.010  1.00  0.00     0.173 A 
ATOM     82  F   UNL A   1      38.129  32.232  37.958  1.00  0.00    -0.203 F 
ATOM     83  C   UNL A   1      38.564  34.229  39.126  1.00  0.00     0.198 A 
ATOM     84  C   UNL A   1      39.970  35.907  38.146  1.00  0.00     0.198 A 
ATOM     85  F   UNL A   1      40.881  35.571  36.001  1.00  0.00    -0.203 F 
ATOM     86  F   UNL A   1      37.778  33.813  40.129  1.00  0.00    -0.200 F 
ATOM     87  C   UNL A   1      39.181  35.468  39.199  1.00  0.00     0.200 A 
ATOM     88  F   UNL A   1      40.583  37.095  38.217  1.00  0.00    -0.200 F 
ATOM     89  F   UNL A   1      39.011  36.242  40.278  1.00  0.00    -0.200 F 
ENDBRANCH  55  79
BRANCH  67  90
ATOM     90  C   UNL A   1      43.937  28.736  35.210  1.00  0.00     0.064 A 
ATOM     91  C   UNL A   1      45.239  29.237  35.061  1.00  0.00     0.173 A 
ATOM     92  C   UNL A   1      43.745  27.662  36.092  1.00  0.00     0.173 A 
ATOM     93  F   UNL A   1      45.479  30.253  34.218  1.00  0.00    -0.203 F 
ATOM     94  C   UNL A   1      46.308  28.668  35.749  1.00  0.00     0.198 A 
ATOM     95  C   UNL A   1      44.809  27.119  36.805  1.00  0.00     0.198 A 
ATOM     96  F   UNL A   1      42.519  27.150  36.278  1.00  0.00    -0.203 F 
ATOM     97  F   UNL A   1      47.550  29.130  35.552  1.00  0.00    -0.200 F 
ATOM     98  C   UNL A   1      46.091  27.617  36.627  1.00  0.00     0.200 A 
ATOM     99  F   UNL A   1      44.595  26.114  37.666  1.00  0.00    -0.200 F 
ATOM    100  F   UNL A   1      47.118  27.078  37.297  1.00  0.00    -0.200 F 
ENDBRANCH  67  90
ENDBRANCH  41  42
ENDBRANCH  33  36
ENDBRANCH  31  32
ENDBRANCH  30  31
ENDBRANCH   1  30
TORSDOF 15
ENDMDL
MODEL 2
REMARK VINA RESULT:     -13.4      1.478      2.682
REMARK SMILES CCc1ccc(Oc2ncnc(N3CCC(C(=O)NCCCNC(=O)c4ccc(-c5c6nc(c(-c7c(F)c(F)c(F)c(F)c7F)c7ccc([nH]7)c(-c7c(F)c(F)c(F)c(F)c7F)c7nc(c(-c8c(F)c(F)c(F)c(F)c8F)c8ccc5[nH]8)C=C7)C=C6)cc4)CC3)c2[N+](=O)[O-])cc1
REMARK SMILES IDX 20 1 19 2 17 3 18 4 16 6 13 7 14 8 90 9 15 10 89 11 12 12
REMARK SMILES IDX 8 13 9 14 91 15 10 16 11 17 7 18 6 19 3 20 4 21 96 22 5 23
REMARK SMILES IDX 95 24 2 25 1 26 92 27 93 28 94 29 21 30 22 31 23 32 24 33
REMARK SMILES IDX 25 35 26 36 27 37 88 38 28 39 87 40 29 41 30 42 31 43 81 44
REMARK SMILES IDX 32 45 86 46 80 47 82 48 33 49 85 50 79 51 78 52 34 54 66 55
REMARK SMILES IDX 46 56 65 57 47 58 50 59 64 60 83 61 48 62 49 63 63 65 84 66
REMARK SMILES IDX 51 67 35 68 36 69 44 70 37 71 38 72 42 73 45 74 39 75 40 76
REMARK SMILES IDX 43 77 41 78 67 79 68 80 76 81 69 82 70 83 74 84 77 85 71 86
REMARK SMILES IDX 72 87 75 88 73 89 52 90 53 91 61 92 54 93 55 94 59 95 62 96
REMARK SMILES IDX 56 97 57 98 60 99 58 100
REMARK H PARENT 19 5 23 34 82 53 50 64
REMARK Flexibility Score: inf
ROOT
ATOM      1  C   UNL A   1      31.694  30.640  26.101  1.00  0.00     0.117 C 
ENDROOT
BRANCH   1   2
ATOM      2  N   UNL A   1      31.518  29.724  27.220  1.00  0.00    -0.356 N 
ATOM      3  C   UNL A   1      31.640  28.370  27.293  1.00  0.00     0.223 C 
ATOM      4  O   UNL A   1      31.402  27.828  28.374  1.00  0.00    -0.275 OA
ATOM      5  H   UNL A   1      31.269  30.159  28.068  1.00  0.00     0.163 HD
BRANCH   3   6
ATOM      6  C   UNL A   1      32.071  27.544  26.092  1.00  0.00     0.082 C 
ATOM      7  N   UNL A   1      33.098  25.002  25.432  1.00  0.00    -0.351 N 
ATOM      8  C   UNL A   1      34.014  26.118  25.249  1.00  0.00     0.119 C 
ATOM      9  C   UNL A   1      31.718  25.232  25.041  1.00  0.00     0.119 C 
ATOM     10  C   UNL A   1      33.583  27.269  26.137  1.00  0.00     0.035 C 
ATOM     11  C   UNL A   1      31.142  26.326  25.926  1.00  0.00     0.035 C 
BRANCH   7  12
ATOM     12  C   UNL A   1      33.631  23.773  25.729  1.00  0.00     0.215 A 
ATOM     13  C   UNL A   1      34.885  21.805  25.336  1.00  0.00     0.305 A 
ATOM     14  N   UNL A   1      34.762  21.412  26.619  1.00  0.00    -0.195 NA
ATOM     15  C   UNL A   1      34.278  22.940  24.838  1.00  0.00     0.373 A 
ATOM     16  C   UNL A   1      34.073  22.239  27.406  1.00  0.00     0.228 A 
ATOM     17  N   UNL A   1      33.535  23.410  27.031  1.00  0.00    -0.212 NA
BRANCH  13  18
ATOM     18  O   UNL A   1      35.715  21.009  24.581  1.00  0.00    -0.434 OA
BRANCH  18  19
ATOM     19  C   UNL A   1      37.034  20.907  24.980  1.00  0.00     0.129 A 
ATOM     20  C   UNL A   1      39.654  20.895  26.023  1.00  0.00    -0.048 A 
ATOM     21  C   UNL A   1      38.918  22.086  25.946  1.00  0.00     0.007 A 
ATOM     22  C   UNL A   1      39.068  19.717  25.549  1.00  0.00     0.007 A 
ATOM     23  C   UNL A   1      37.618  22.091  25.430  1.00  0.00     0.047 A 
ATOM     24  C   UNL A   1      37.784  19.727  25.001  1.00  0.00     0.047 A 
BRANCH  20  25
ATOM     25  C   UNL A   1      41.014  20.889  26.681  1.00  0.00     0.032 C 
ATOM     26  C   UNL A   1      41.144  21.831  27.871  1.00  0.00     0.009 C 
ENDBRANCH  20  25
ENDBRANCH  18  19
ENDBRANCH  13  18
BRANCH  15  27
ATOM     27  N   UNL A   1      34.443  23.286  23.462  1.00  0.00     0.072 N 
ATOM     28  O   UNL A   1      33.475  23.123  22.706  1.00  0.00    -0.258 OA
ATOM     29  O   UNL A   1      35.557  23.705  23.120  1.00  0.00    -0.258 OA
ENDBRANCH  15  27
ENDBRANCH   7  12
ENDBRANCH   3   6
ENDBRANCH   1   2
BRANCH   1  30
ATOM     30  C   UNL A   1      31.470  32.091  26.507  1.00  0.00     0.042 C 
BRANCH  30  31
ATOM     31  C   UNL A   1      32.644  32.705  27.253  1.00  0.00     0.118 C 
BRANCH  31  32
ATOM     32  N   UNL A   1      32.422  34.104  27.594  1.00  0.00    -0.352 N 
ATOM     33  C   UNL A   1      32.996  34.873  28.573  1.00  0.00     0.251 C 
ATOM     34  H   UNL A   1      31.756  34.568  27.035  1.00  0.00     0.163 HD
ATOM     35  O   UNL A   1      32.528  35.980  28.835  1.00  0.00    -0.269 OA
BRANCH  33  36
ATOM     36  C   UNL A   1      34.159  34.369  29.330  1.00  0.00     0.039 A 
ATOM     37  C   UNL A   1      33.945  33.723  30.551  1.00  0.00     0.014 A 
ATOM     38  C   UNL A   1      35.458  34.536  28.846  1.00  0.00     0.014 A 
ATOM     39  C   UNL A   1      35.028  33.181  31.246  1.00  0.00     0.010 A 
ATOM     40  C   UNL A   1      36.522  33.913  29.488  1.00  0.00     0.010 A 
ATOM     41  C   UNL A   1      36.320  33.234  30.699  1.00  0.00    -0.014 A 
BRANCH  41  42
ATOM     42  C   UNL A   1      37.475  32.593  31.376  1.00  0.00     0.031 A 
ATOM     43  C   UNL A   1      38.172  31.426  30.733  1.00  0.00     0.074 A 
ATOM     44  C   UNL A   1      37.846  33.010  32.602  1.00  0.00     0.049 A 
ATOM     45  N   UNL A   1      39.139  30.677  31.202  1.00  0.00    -0.248 NA
ATOM     46  C   UNL A   1      37.702  31.029  29.396  1.00  0.00     0.031 C 
ATOM     47  C   UNL A   1      37.216  34.100  33.350  1.00  0.00     0.029 A 
ATOM     48  N   UNL A   1      38.835  32.560  33.441  1.00  0.00    -0.354 N 
ATOM     49  C   UNL A   1      39.377  29.716  30.228  1.00  0.00     0.074 A 
ATOM     50  C   UNL A   1      38.417  29.938  29.170  1.00  0.00     0.031 C 
ATOM     51  C   UNL A   1      37.849  34.250  34.525  1.00  0.00     0.029 A 
ATOM     52  C   UNL A   1      38.895  33.239  34.634  1.00  0.00     0.049 A 
ATOM     53  H   UNL A   1      39.442  31.821  33.210  1.00  0.00     0.167 HD
ATOM     54  C   UNL A   1      40.327  28.751  30.208  1.00  0.00     0.037 A 
ATOM     55  C   UNL A   1      39.697  33.057  35.700  1.00  0.00     0.037 A 
ATOM     56  C   UNL A   1      41.294  28.550  31.255  1.00  0.00     0.049 A 
ATOM     57  C   UNL A   1      40.735  31.967  35.660  1.00  0.00     0.074 A 
ATOM     58  C   UNL A   1      42.337  27.641  31.303  1.00  0.00     0.029 A 
ATOM     59  N   UNL A   1      41.334  29.266  32.442  1.00  0.00    -0.354 N 
ATOM     60  N   UNL A   1      40.998  31.110  34.703  1.00  0.00    -0.248 NA
ATOM     61  C   UNL A   1      41.590  31.822  36.846  1.00  0.00     0.031 C 
ATOM     62  C   UNL A   1      42.971  27.768  32.542  1.00  0.00     0.029 A 
ATOM     63  C   UNL A   1      42.367  28.800  33.241  1.00  0.00     0.049 A 
ATOM     64  H   UNL A   1      40.720  29.999  32.681  1.00  0.00     0.167 HD
ATOM     65  C   UNL A   1      42.067  30.347  35.156  1.00  0.00     0.074 A 
ATOM     66  C   UNL A   1      42.411  30.853  36.469  1.00  0.00     0.031 C 
ATOM     67  C   UNL A   1      42.704  29.322  34.541  1.00  0.00     0.037 A 
BRANCH  54  68
ATOM     68  C   UNL A   1      40.368  27.837  29.016  1.00  0.00     0.064 A 
ATOM     69  C   UNL A   1      41.140  28.136  27.883  1.00  0.00     0.173 A 
ATOM     70  C   UNL A   1      39.654  26.629  29.020  1.00  0.00     0.173 A 
ATOM     71  F   UNL A   1      41.833  29.283  27.822  1.00  0.00    -0.203 F 
ATOM     72  C   UNL A   1      41.172  27.277  26.788  1.00  0.00     0.198 A 
ATOM     73  C   UNL A   1      39.715  25.755  27.937  1.00  0.00     0.198 A 
ATOM     74  F   UNL A   1      38.903  26.290  30.079  1.00  0.00    -0.203 F 
ATOM     75  F   UNL A   1      41.875  27.610  25.696  1.00  0.00    -0.200 F 
ATOM     76  C   UNL A   1      40.466  26.083  26.819  1.00  0.00     0.200 A 
ATOM     77  F   UNL A   1      39.044  24.595  27.976  1.00  0.00    -0.200 F 
ATOM     78  F   UNL A   1      40.505  25.252  25.769  1.00  0.00    -0.200 F 
ENDBRANCH  54  68
BRANCH  55  79
ATOM     79  C   UNL A   1      39.564  33.938  36.891  1.00  0.00     0.064 A 
ATOM     80  C   UNL A   1      38.792  33.547  37.994  1.00  0.00     0.173 A 
ATOM     81  C   UNL A   1      40.196  35.190  36.950  1.00  0.00     0.173 A 
ATOM     82  F   UNL A   1      38.153  32.369  37.978  1.00  0.00    -0.203 F 
ATOM     83  C   UNL A   1      38.637  34.382  39.098  1.00  0.00     0.198 A 
ATOM     84  C   UNL A   1      40.066  36.010  38.070  1.00  0.00     0.198 A 
ATOM     85  F   UNL A   1      40.952  35.610  35.925  1.00  0.00    -0.203 F 
ATOM     86  F   UNL A   1      37.852  34.003  40.117  1.00  0.00    -0.200 F 
ATOM     87  C   UNL A   1      39.279  35.610  39.138  1.00  0.00     0.200 A 
ATOM     88  F   UNL A   1      40.703  37.188  38.110  1.00  0.00    -0.200 F 
ATOM     89  F   UNL A   1      39.132  36.411  40.202  1.00  0.00    -0.200 F 
ENDBRANCH  55  79
BRANCH  67  90
ATOM     90  C   UNL A   1      43.869  28.702  35.258  1.00  0.00     0.064 A 
ATOM     91  C   UNL A   1      43.703  27.643  36.163  1.00  0.00     0.173 A 
ATOM     92  C   UNL A   1      45.176  29.145  35.000  1.00  0.00     0.173 A 
ATOM     93  F   UNL A   1      42.473  27.192  36.456  1.00  0.00    -0.203 F 
ATOM     94  C   UNL A   1      44.799  27.068  36.801  1.00  0.00     0.198 A 
ATOM     95  C   UNL A   1      46.271  28.545  35.613  1.00  0.00     0.198 A 
ATOM     96  F   UNL A   1      45.391  30.149  34.137  1.00  0.00    -0.203 F 
ATOM     97  F   UNL A   1      44.612  26.092  37.700  1.00  0.00    -0.200 F 
ATOM     98  C   UNL A   1      46.082  27.513  36.519  1.00  0.00     0.200 A 
ATOM     99  F   UNL A   1      47.511  28.965  35.325  1.00  0.00    -0.200 F 
ATOM    100  F   UNL A   1      47.136  26.951  37.125  1.00  0.00    -0.200 F 
ENDBRANCH  67  90
ENDBRANCH  41  42
ENDBRANCH  33  36
ENDBRANCH  31  32
ENDBRANCH  30  31
ENDBRANCH   1  30
TORSDOF 15
ENDMDL
MODEL 3
REMARK VINA RESULT:     -13.1      5.286     11.511
REMARK SMILES CCc1ccc(Oc2ncnc(N3CCC(C(=O)NCCCNC(=O)c4ccc(-c5c6nc(c(-c7c(F)c(F)c(F)c(F)c7F)c7ccc([nH]7)c(-c7c(F)c(F)c(F)c(F)c7F)c7nc(c(-c8c(F)c(F)c(F)c(F)c8F)c8ccc5[nH]8)C=C7)C=C6)cc4)CC3)c2[N+](=O)[O-])cc1
REMARK SMILES IDX 20 1 19 2 17 3 18 4 16 6 13 7 14 8 90 9 15 10 89 11 12 12
REMARK SMILES IDX 8 13 9 14 91 15 10 16 11 17 7 18 6 19 3 20 4 21 96 22 5 23
REMARK SMILES IDX 95 24 2 25 1 26 92 27 93 28 94 29 21 30 22 31 23 32 24 33
REMARK SMILES IDX 25 35 26 36 27 37 88 38 28 39 87 40 29 41 30 42 31 43 81 44
REMARK SMILES IDX 32 45 86 46 80 47 82 48 33 49 85 50 79 51 78 52 34 54 66 55
REMARK SMILES IDX 46 56 65 57 47 58 50 59 64 60 83 61 48 62 49 63 63 65 84 66
REMARK SMILES IDX 51 67 35 68 36 69 44 70 37 71 38 72 42 73 45 74 39 75 40 76
REMARK SMILES IDX 43 77 41 78 67 79 68 80 76 81 69 82 70 83 74 84 77 85 71 86
REMARK SMILES IDX 72 87 75 88 73 89 52 90 53 91 61 92 54 93 55 94 59 95 62 96
REMARK SMILES IDX 56 97 57 98 60 99 58 100
REMARK H PARENT 19 5 23 34 82 53 50 64
REMARK Flexibility Score: inf
ROOT
ATOM      1  C   UNL A   1      37.031  20.737  24.728  1.00  0.00     0.117 C 
ENDROOT
BRANCH   1   2
ATOM      2  N   UNL A   1      35.872  20.618  25.604  1.00  0.00    -0.356 N 
ATOM      3  C   UNL A   1      34.595  21.069  25.461  1.00  0.00     0.223 C 
ATOM      4  O   UNL A   1      33.803  20.856  26.381  1.00  0.00    -0.275 OA
ATOM      5  H   UNL A   1      36.041  20.127  26.440  1.00  0.00     0.163 HD
BRANCH   3   6
ATOM      6  C   UNL A   1      34.146  21.800  24.206  1.00  0.00     0.082 C 
ATOM      7  N   UNL A   1      32.867  24.179  23.393  1.00  0.00    -0.351 N 
ATOM      8  C   UNL A   1      32.103  22.955  23.198  1.00  0.00     0.119 C 
ATOM      9  C   UNL A   1      34.286  24.106  23.093  1.00  0.00     0.119 C 
ATOM     10  C   UNL A   1      32.612  21.891  24.153  1.00  0.00     0.035 C 
ATOM     11  C   UNL A   1      34.932  23.116  24.050  1.00  0.00     0.035 C 
BRANCH   7  12
ATOM     12  C   UNL A   1      32.174  25.342  23.612  1.00  0.00     0.215 A 
ATOM     13  C   UNL A   1      31.237  27.094  24.898  1.00  0.00     0.305 A 
ATOM     14  N   UNL A   1      30.920  27.800  23.794  1.00  0.00    -0.195 NA
ATOM     15  C   UNL A   1      31.800  25.835  24.846  1.00  0.00     0.373 A 
ATOM     16  C   UNL A   1      31.259  27.233  22.636  1.00  0.00     0.228 A 
ATOM     17  N   UNL A   1      31.899  26.060  22.497  1.00  0.00    -0.212 NA
BRANCH  13  18
ATOM     18  O   UNL A   1      31.005  27.762  26.078  1.00  0.00    -0.434 OA
BRANCH  18  19
ATOM     19  C   UNL A   1      31.934  28.708  26.467  1.00  0.00     0.129 A 
ATOM     20  C   UNL A   1      33.593  30.799  27.377  1.00  0.00    -0.048 A 
ATOM     21  C   UNL A   1      32.352  31.073  26.783  1.00  0.00     0.007 A 
ATOM     22  C   UNL A   1      33.999  29.464  27.486  1.00  0.00     0.007 A 
ATOM     23  C   UNL A   1      31.530  30.036  26.334  1.00  0.00     0.047 A 
ATOM     24  C   UNL A   1      33.195  28.430  27.005  1.00  0.00     0.047 A 
BRANCH  20  25
ATOM     25  C   UNL A   1      34.420  31.923  27.954  1.00  0.00     0.032 C 
ATOM     26  C   UNL A   1      33.680  33.249  28.084  1.00  0.00     0.009 C 
ENDBRANCH  20  25
ENDBRANCH  18  19
ENDBRANCH  13  18
BRANCH  15  27
ATOM     27  N   UNL A   1      32.096  25.142  26.059  1.00  0.00     0.072 N 
ATOM     28  O   UNL A   1      31.150  24.643  26.685  1.00  0.00    -0.258 OA
ATOM     29  O   UNL A   1      33.283  25.109  26.410  1.00  0.00    -0.258 OA
ENDBRANCH  15  27
ENDBRANCH   7  12
ENDBRANCH   3   6
ENDBRANCH   1   2
BRANCH   1  30
ATOM     30  C   UNL A   1      38.059  19.642  24.986  1.00  0.00     0.042 C 
BRANCH  30  31
ATOM     31  C   UNL A   1      39.291  20.126  25.734  1.00  0.00     0.118 C 
BRANCH  31  32
ATOM     32  N   UNL A   1      40.298  19.084  25.889  1.00  0.00    -0.352 N 
ATOM     33  C   UNL A   1      41.651  19.189  26.081  1.00  0.00     0.251 C 
ATOM     34  H   UNL A   1      39.952  18.163  25.847  1.00  0.00     0.163 HD
ATOM     35  O   UNL A   1      42.363  18.191  25.985  1.00  0.00    -0.269 OA
BRANCH  33  36
ATOM     36  C   UNL A   1      42.261  20.500  26.383  1.00  0.00     0.039 A 
ATOM     37  C   UNL A   1      42.805  21.250  25.336  1.00  0.00     0.014 A 
ATOM     38  C   UNL A   1      42.305  20.988  27.690  1.00  0.00     0.014 A 
ATOM     39  C   UNL A   1      43.324  22.521  25.593  1.00  0.00     0.010 A 
ATOM     40  C   UNL A   1      42.732  22.290  27.929  1.00  0.00     0.010 A 
ATOM     41  C   UNL A   1      43.253  23.068  26.885  1.00  0.00    -0.014 A 
BRANCH  41  42
ATOM     42  C   UNL A   1      43.720  24.448  27.168  1.00  0.00     0.031 A 
ATOM     43  C   UNL A   1      42.749  25.487  27.657  1.00  0.00     0.074 A 
ATOM     44  C   UNL A   1      45.000  24.785  26.913  1.00  0.00     0.049 A 
ATOM     45  N   UNL A   1      42.942  26.764  27.875  1.00  0.00    -0.248 NA
ATOM     46  C   UNL A   1      41.370  25.039  27.904  1.00  0.00     0.031 C 
ATOM     47  C   UNL A   1      46.025  23.878  26.393  1.00  0.00     0.029 A 
ATOM     48  N   UNL A   1      45.654  25.984  27.047  1.00  0.00    -0.354 N 
ATOM     49  C   UNL A   1      41.709  27.269  28.269  1.00  0.00     0.074 A 
ATOM     50  C   UNL A   1      40.763  26.178  28.201  1.00  0.00     0.031 C 
ATOM     51  C   UNL A   1      47.183  24.547  26.273  1.00  0.00     0.029 A 
ATOM     52  C   UNL A   1      46.973  25.936  26.663  1.00  0.00     0.049 A 
ATOM     53  H   UNL A   1      45.220  26.800  27.384  1.00  0.00     0.167 HD
ATOM     54  C   UNL A   1      41.401  28.525  28.671  1.00  0.00     0.037 A 
ATOM     55  C   UNL A   1      47.903  26.909  26.620  1.00  0.00     0.037 A 
ATOM     56  C   UNL A   1      42.353  29.601  28.758  1.00  0.00     0.049 A 
ATOM     57  C   UNL A   1      47.531  28.301  27.058  1.00  0.00     0.074 A 
ATOM     58  C   UNL A   1      42.155  30.893  29.213  1.00  0.00     0.029 A 
ATOM     59  N   UNL A   1      43.683  29.511  28.375  1.00  0.00    -0.354 N 
ATOM     60  N   UNL A   1      46.380  28.750  27.496  1.00  0.00    -0.248 NA
ATOM     61  C   UNL A   1      48.588  29.319  27.002  1.00  0.00     0.031 C 
ATOM     62  C   UNL A   1      43.349  31.600  29.052  1.00  0.00     0.029 A 
ATOM     63  C   UNL A   1      44.310  30.734  28.558  1.00  0.00     0.049 A 
ATOM     64  H   UNL A   1      44.117  28.699  28.026  1.00  0.00     0.167 HD
ATOM     65  C   UNL A   1      46.582  30.091  27.796  1.00  0.00     0.074 A 
ATOM     66  C   UNL A   1      47.971  30.378  27.504  1.00  0.00     0.031 C 
ATOM     67  C   UNL A   1      45.697  31.001  28.272  1.00  0.00     0.037 A 
BRANCH  54  68
ATOM     68  C   UNL A   1      39.974  28.804  29.052  1.00  0.00     0.064 A 
ATOM     69  C   UNL A   1      39.511  28.625  30.364  1.00  0.00     0.173 A 
ATOM     70  C   UNL A   1      39.066  29.292  28.100  1.00  0.00     0.173 A 
ATOM     71  F   UNL A   1      40.334  28.150  31.312  1.00  0.00    -0.203 F 
ATOM     72  C   UNL A   1      38.187  28.893  30.702  1.00  0.00     0.198 A 
ATOM     73  C   UNL A   1      37.752  29.592  28.448  1.00  0.00     0.198 A 
ATOM     74  F   UNL A   1      39.456  29.487  26.830  1.00  0.00    -0.203 F 
ATOM     75  F   UNL A   1      37.755  28.663  31.950  1.00  0.00    -0.200 F 
ATOM     76  C   UNL A   1      37.311  29.384  29.746  1.00  0.00     0.200 A 
ATOM     77  F   UNL A   1      36.911  30.081  27.526  1.00  0.00    -0.200 F 
ATOM     78  F   UNL A   1      36.039  29.651  30.074  1.00  0.00    -0.200 F 
ENDBRANCH  54  68
BRANCH  55  79
ATOM     79  C   UNL A   1      49.283  26.599  26.159  1.00  0.00     0.064 A 
ATOM     80  C   UNL A   1      50.231  26.056  27.038  1.00  0.00     0.173 A 
ATOM     81  C   UNL A   1      49.687  26.845  24.839  1.00  0.00     0.173 A 
ATOM     82  F   UNL A   1      49.900  25.820  28.316  1.00  0.00    -0.203 F 
ATOM     83  C   UNL A   1      51.534  25.794  26.622  1.00  0.00     0.198 A 
ATOM     84  C   UNL A   1      50.982  26.553  24.414  1.00  0.00     0.198 A 
ATOM     85  F   UNL A   1      48.818  27.358  23.955  1.00  0.00    -0.203 F 
ATOM     86  F   UNL A   1      52.433  25.322  27.497  1.00  0.00    -0.200 F 
ATOM     87  C   UNL A   1      51.908  26.037  25.308  1.00  0.00     0.200 A 
ATOM     88  F   UNL A   1      51.332  26.773  23.140  1.00  0.00    -0.200 F 
ATOM     89  F   UNL A   1      53.159  25.782  24.907  1.00  0.00    -0.200 F 
ENDBRANCH  55  79
BRANCH  67  90
ATOM     90  C   UNL A   1      46.211  32.385  28.549  1.00  0.00     0.064 A 
ATOM     91  C   UNL A   1      46.765  32.733  29.790  1.00  0.00     0.173 A 
ATOM     92  C   UNL A   1      46.191  33.362  27.542  1.00  0.00     0.173 A 
ATOM     93  F   UNL A   1      46.795  31.840  30.791  1.00  0.00    -0.203 F 
ATOM     94  C   UNL A   1      47.256  34.016  30.019  1.00  0.00     0.198 A 
ATOM     95  C   UNL A   1      46.714  34.631  27.763  1.00  0.00     0.198 A 
ATOM     96  F   UNL A   1      45.680  33.078  26.334  1.00  0.00    -0.203 F 
ATOM     97  F   UNL A   1      47.735  34.342  31.228  1.00  0.00    -0.200 F 
ATOM     98  C   UNL A   1      47.239  34.960  29.004  1.00  0.00     0.200 A 
ATOM     99  F   UNL A   1      46.713  35.537  26.775  1.00  0.00    -0.200 F 
ATOM    100  F   UNL A   1      47.723  36.191  29.222  1.00  0.00    -0.200 F 
ENDBRANCH  67  90
ENDBRANCH  41  42
ENDBRANCH  33  36
ENDBRANCH  31  32
ENDBRANCH  30  31
ENDBRANCH   1  30
TORSDOF 15
ENDMDL
