MODEL 1
REMARK VINA RESULT:     -13.1      0.000      0.000
REMARK SMILES CC[C@@H](C)NC(=O)c1cccc(NC(=O)[C@H]2CCCC[C@@H]2C(=O)NCCCNC(=O)c2ccc(-c3c4nc(c(-c5c(F)c(F)c(F)c(F)c5F)c5ccc([nH]5)c(-c5c(F)c(F)c(F)c(F)c5F)c5nc(c(-c6c(F)c(F)c(F)c(F)c6F)c6ccc3[nH]6)C=C5)C=C4)cc2)c1
REMARK SMILES IDX 22 1 23 2 24 3 21 5 16 6 17 7 18 8 20 9 19 10 14 11 13 12
REMARK SMILES IDX 15 14 12 15 8 16 9 17 94 18 10 19 11 20 6 21 5 22 7 24 3 25
REMARK SMILES IDX 4 26 2 27 1 28 25 29 26 30 27 31 28 32 29 33 30 35 31 36
REMARK SMILES IDX 32 37 93 38 33 39 92 40 34 41 35 42 36 43 86 44 37 45 91 46
REMARK SMILES IDX 85 47 87 48 38 49 90 50 84 51 83 52 39 54 71 55 51 56 70 57
REMARK SMILES IDX 52 58 55 59 69 60 88 61 53 62 54 63 68 65 89 66 56 67 40 68
REMARK SMILES IDX 41 69 49 70 42 71 43 72 47 73 50 74 44 75 45 76 48 77 46 78
REMARK SMILES IDX 72 79 73 80 81 81 74 82 75 83 79 84 82 85 76 86 77 87 80 88
REMARK SMILES IDX 78 89 57 90 58 91 66 92 59 93 60 94 64 95 67 96 61 97 62 98
REMARK SMILES IDX 65 99 63 100
REMARK H PARENT 24 4 13 13 5 23 28 34 87 53 55 64
REMARK Flexibility Score: inf
ROOT
ATOM      1  C   UNL A   1      33.004  28.584  25.954  1.00  0.00     0.223 C 
ATOM      2  O   UNL A   1      33.967  28.077  26.532  1.00  0.00    -0.275 OA
ATOM      3  N   UNL A   1      32.779  29.906  26.172  1.00  0.00    -0.356 N 
ATOM      4  H   UNL A   1      33.499  30.378  26.648  1.00  0.00     0.163 HD
ENDROOT
BRANCH   1   5
ATOM      5  C   UNL A   1      32.108  27.801  24.993  1.00  0.00     0.091 C 
ATOM      6  C   UNL A   1      32.460  26.295  25.080  1.00  0.00     0.091 C 
ATOM      7  C   UNL A   1      33.716  25.914  24.274  1.00  0.00     0.014 C 
ATOM      8  C   UNL A   1      33.762  26.524  22.878  1.00  0.00     0.001 C 
ATOM      9  C   UNL A   1      32.231  28.381  23.577  1.00  0.00     0.014 C 
ATOM     10  C   UNL A   1      33.558  28.030  22.914  1.00  0.00     0.001 C 
BRANCH   6  11
ATOM     11  C   UNL A   1      31.290  25.389  24.725  1.00  0.00     0.228 C 
ATOM     12  N   UNL A   1      31.243  24.074  25.102  1.00  0.00    -0.326 N 
ATOM     13  H   UNL A   1      30.451  23.611  24.746  1.00  0.00     0.169 HD
ATOM     14  O   UNL A   1      30.350  25.808  24.041  1.00  0.00    -0.274 OA
BRANCH  12  15
ATOM     15  C   UNL A   1      32.058  23.224  25.881  1.00  0.00     0.041 A 
ATOM     16  C   UNL A   1      33.816  21.531  25.838  1.00  0.00     0.041 A 
ATOM     17  C   UNL A   1      33.868  21.529  27.232  1.00  0.00     0.014 A 
ATOM     18  C   UNL A   1      32.881  22.336  25.171  1.00  0.00     0.040 A 
ATOM     19  C   UNL A   1      33.016  22.356  27.949  1.00  0.00     0.003 A 
ATOM     20  C   UNL A   1      32.125  23.198  27.276  1.00  0.00     0.026 A 
BRANCH  16  21
ATOM     21  C   UNL A   1      34.739  20.622  25.126  1.00  0.00     0.251 C 
ATOM     22  N   UNL A   1      34.316  19.418  24.625  1.00  0.00    -0.350 N 
ATOM     23  H   UNL A   1      35.030  18.873  24.222  1.00  0.00     0.164 HD
ATOM     24  O   UNL A   1      35.903  20.975  24.945  1.00  0.00    -0.269 OA
BRANCH  22  25
ATOM     25  C   UNL A   1      32.991  18.803  24.585  1.00  0.00     0.079 C 
ATOM     26  C   UNL A   1      32.788  18.011  25.875  1.00  0.00     0.031 C 
BRANCH  25  27
ATOM     27  C   UNL A   1      32.859  17.930  23.327  1.00  0.00     0.021 C 
ATOM     28  C   UNL A   1      33.961  16.886  23.208  1.00  0.00     0.006 C 
ENDBRANCH  25  27
ENDBRANCH  22  25
ENDBRANCH  16  21
ENDBRANCH  12  15
ENDBRANCH   6  11
ENDBRANCH   1   5
BRANCH   3  29
ATOM     29  C   UNL A   1      31.640  30.727  25.811  1.00  0.00     0.117 C 
BRANCH  29  30
ATOM     30  C   UNL A   1      31.398  31.818  26.848  1.00  0.00     0.042 C 
BRANCH  30  31
ATOM     31  C   UNL A   1      32.655  32.586  27.254  1.00  0.00     0.118 C 
BRANCH  31  32
ATOM     32  N   UNL A   1      32.387  33.983  27.570  1.00  0.00    -0.352 N 
ATOM     33  C   UNL A   1      32.962  34.810  28.500  1.00  0.00     0.251 C 
ATOM     34  H   UNL A   1      31.679  34.401  27.028  1.00  0.00     0.163 HD
ATOM     35  O   UNL A   1      32.460  35.907  28.735  1.00  0.00    -0.269 OA
BRANCH  33  36
ATOM     36  C   UNL A   1      34.165  34.383  29.246  1.00  0.00     0.039 A 
ATOM     37  C   UNL A   1      34.000  33.793  30.501  1.00  0.00     0.014 A 
ATOM     38  C   UNL A   1      35.447  34.567  28.720  1.00  0.00     0.014 A 
ATOM     39  C   UNL A   1      35.114  33.307  31.189  1.00  0.00     0.010 A 
ATOM     40  C   UNL A   1      36.548  34.018  29.372  1.00  0.00     0.010 A 
ATOM     41  C   UNL A   1      36.391  33.366  30.605  1.00  0.00    -0.014 A 
BRANCH  41  42
ATOM     42  C   UNL A   1      37.555  32.698  31.242  1.00  0.00     0.031 A 
ATOM     43  C   UNL A   1      38.249  31.552  30.564  1.00  0.00     0.074 A 
ATOM     44  C   UNL A   1      37.940  33.088  32.473  1.00  0.00     0.049 A 
ATOM     45  N   UNL A   1      39.232  30.805  31.002  1.00  0.00    -0.248 NA
ATOM     46  C   UNL A   1      37.763  31.180  29.227  1.00  0.00     0.031 C 
ATOM     47  C   UNL A   1      37.318  34.160  33.253  1.00  0.00     0.029 A 
ATOM     48  N   UNL A   1      38.938  32.620  33.292  1.00  0.00    -0.354 N 
ATOM     49  C   UNL A   1      39.479  29.877  30.000  1.00  0.00     0.074 A 
ATOM     50  C   UNL A   1      38.511  30.120  28.951  1.00  0.00     0.031 C 
ATOM     51  C   UNL A   1      37.959  34.282  34.425  1.00  0.00     0.029 A 
ATOM     52  C   UNL A   1      39.004  33.267  34.503  1.00  0.00     0.049 A 
ATOM     53  H   UNL A   1      39.549  31.891  33.036  1.00  0.00     0.167 HD
ATOM     54  C   UNL A   1      40.441  28.923  29.952  1.00  0.00     0.037 A 
ATOM     55  C   UNL A   1      39.804  33.054  35.565  1.00  0.00     0.037 A 
ATOM     56  C   UNL A   1      41.407  28.690  30.994  1.00  0.00     0.049 A 
ATOM     57  C   UNL A   1      40.836  31.961  35.497  1.00  0.00     0.074 A 
ATOM     58  C   UNL A   1      42.452  27.782  31.014  1.00  0.00     0.029 A 
ATOM     59  N   UNL A   1      41.440  29.362  32.208  1.00  0.00    -0.354 N 
ATOM     60  N   UNL A   1      41.108  31.137  34.515  1.00  0.00    -0.248 NA
ATOM     61  C   UNL A   1      41.675  31.769  36.689  1.00  0.00     0.031 C 
ATOM     62  C   UNL A   1      43.081  27.865  32.260  1.00  0.00     0.029 A 
ATOM     63  C   UNL A   1      42.468  28.866  32.995  1.00  0.00     0.049 A 
ATOM     64  H   UNL A   1      40.826  30.084  32.471  1.00  0.00     0.167 HD
ATOM     65  C   UNL A   1      42.161  30.350  34.958  1.00  0.00     0.074 A 
ATOM     66  C   UNL A   1      42.495  30.809  36.288  1.00  0.00     0.031 C 
ATOM     67  C   UNL A   1      42.791  29.332  34.320  1.00  0.00     0.037 A 
BRANCH  54  68
ATOM     68  C   UNL A   1      40.500  28.052  28.730  1.00  0.00     0.064 A 
ATOM     69  C   UNL A   1      41.288  28.394  27.620  1.00  0.00     0.173 A 
ATOM     70  C   UNL A   1      39.812  26.829  28.692  1.00  0.00     0.173 A 
ATOM     71  F   UNL A   1      41.958  29.556  27.602  1.00  0.00    -0.203 F 
ATOM     72  C   UNL A   1      41.366  27.557  26.510  1.00  0.00     0.198 A 
ATOM     73  C   UNL A   1      39.919  25.979  27.593  1.00  0.00     0.198 A 
ATOM     74  F   UNL A   1      39.051  26.448  29.729  1.00  0.00    -0.203 F 
ATOM     75  F   UNL A   1      42.092  27.925  25.445  1.00  0.00    -0.200 F 
ATOM     76  C   UNL A   1      40.690  26.346  26.502  1.00  0.00     0.200 A 
ATOM     77  F   UNL A   1      39.277  24.802  27.594  1.00  0.00    -0.200 F 
ATOM     78  F   UNL A   1      40.779  25.535  25.438  1.00  0.00    -0.200 F 
ENDBRANCH  54  68
BRANCH  55  79
ATOM     79  C   UNL A   1      39.662  33.892  36.786  1.00  0.00     0.064 A 
ATOM     80  C   UNL A   1      38.875  33.466  37.866  1.00  0.00     0.173 A 
ATOM     81  C   UNL A   1      40.291  35.141  36.890  1.00  0.00     0.173 A 
ATOM     82  F   UNL A   1      38.236  32.288  37.805  1.00  0.00    -0.203 F 
ATOM     83  C   UNL A   1      38.700  34.270  38.990  1.00  0.00     0.198 A 
ATOM     84  C   UNL A   1      40.143  35.929  38.030  1.00  0.00     0.198 A 
ATOM     85  F   UNL A   1      41.059  35.594  35.889  1.00  0.00    -0.203 F 
ATOM     86  F   UNL A   1      37.897  33.864  39.982  1.00  0.00    -0.200 F 
ATOM     87  C   UNL A   1      39.338  35.498  39.074  1.00  0.00     0.200 A 
ATOM     88  F   UNL A   1      40.774  37.108  38.114  1.00  0.00    -0.200 F 
ATOM     89  F   UNL A   1      39.170  36.271  40.157  1.00  0.00    -0.200 F 
ENDBRANCH  55  79
BRANCH  67  90
ATOM     90  C   UNL A   1      43.925  28.665  35.046  1.00  0.00     0.064 A 
ATOM     91  C   UNL A   1      43.719  27.537  35.854  1.00  0.00     0.173 A 
ATOM     92  C   UNL A   1      45.238  29.140  34.906  1.00  0.00     0.173 A 
ATOM     93  F   UNL A   1      42.481  27.053  36.035  1.00  0.00    -0.203 F 
ATOM     94  C   UNL A   1      44.781  26.929  36.520  1.00  0.00     0.198 A 
ATOM     95  C   UNL A   1      46.301  28.509  35.545  1.00  0.00     0.198 A 
ATOM     96  F   UNL A   1      45.491  30.212  34.139  1.00  0.00    -0.203 F 
ATOM     97  F   UNL A   1      44.551  25.887  37.331  1.00  0.00    -0.200 F 
ATOM     98  C   UNL A   1      46.071  27.411  36.359  1.00  0.00     0.200 A 
ATOM     99  F   UNL A   1      47.549  28.966  35.375  1.00  0.00    -0.200 F 
ATOM    100  F   UNL A   1      47.092  26.820  36.994  1.00  0.00    -0.200 F 
ENDBRANCH  67  90
ENDBRANCH  41  42
ENDBRANCH  33  36
ENDBRANCH  31  32
ENDBRANCH  30  31
ENDBRANCH  29  30
ENDBRANCH   3  29
TORSDOF 15
ENDMDL
MODEL 2
REMARK VINA RESULT:     -13.1      0.195      1.907
REMARK SMILES CC[C@@H](C)NC(=O)c1cccc(NC(=O)[C@H]2CCCC[C@@H]2C(=O)NCCCNC(=O)c2ccc(-c3c4nc(c(-c5c(F)c(F)c(F)c(F)c5F)c5ccc([nH]5)c(-c5c(F)c(F)c(F)c(F)c5F)c5nc(c(-c6c(F)c(F)c(F)c(F)c6F)c6ccc3[nH]6)C=C5)C=C4)cc2)c1
REMARK SMILES IDX 22 1 23 2 24 3 21 5 16 6 17 7 18 8 20 9 19 10 14 11 13 12
REMARK SMILES IDX 15 14 12 15 8 16 9 17 94 18 10 19 11 20 6 21 5 22 7 24 3 25
REMARK SMILES IDX 4 26 2 27 1 28 25 29 26 30 27 31 28 32 29 33 30 35 31 36
REMARK SMILES IDX 32 37 93 38 33 39 92 40 34 41 35 42 36 43 86 44 37 45 91 46
REMARK SMILES IDX 85 47 87 48 38 49 90 50 84 51 83 52 39 54 71 55 51 56 70 57
REMARK SMILES IDX 52 58 55 59 69 60 88 61 53 62 54 63 68 65 89 66 56 67 40 68
REMARK SMILES IDX 41 69 49 70 42 71 43 72 47 73 50 74 44 75 45 76 48 77 46 78
REMARK SMILES IDX 72 79 73 80 81 81 74 82 75 83 79 84 82 85 76 86 77 87 80 88
REMARK SMILES IDX 78 89 57 90 58 91 66 92 59 93 60 94 64 95 67 96 61 97 62 98
REMARK SMILES IDX 65 99 63 100
REMARK H PARENT 24 4 13 13 5 23 28 34 87 53 55 64
REMARK Flexibility Score: inf
ROOT
ATOM      1  C   UNL A   1      33.090  28.522  25.926  1.00  0.00     0.223 C 
ATOM      2  O   UNL A   1      34.079  28.016  26.457  1.00  0.00    -0.275 OA
ATOM      3  N   UNL A   1      32.849  29.832  26.191  1.00  0.00    -0.356 N 
ATOM      4  H   UNL A   1      33.576  30.304  26.657  1.00  0.00     0.163 HD
ENDROOT
BRANCH   1   5
ATOM      5  C   UNL A   1      32.175  27.751  24.972  1.00  0.00     0.091 C 
ATOM      6  C   UNL A   1      32.523  26.244  25.040  1.00  0.00     0.091 C 
ATOM      7  C   UNL A   1      33.764  25.865  24.211  1.00  0.00     0.014 C 
ATOM      8  C   UNL A   1      33.791  26.488  22.820  1.00  0.00     0.001 C 
ATOM      9  C   UNL A   1      32.278  28.343  23.559  1.00  0.00     0.014 C 
ATOM     10  C   UNL A   1      33.593  27.994  22.873  1.00  0.00     0.001 C 
BRANCH   6  11
ATOM     11  C   UNL A   1      31.344  25.345  24.695  1.00  0.00     0.228 C 
ATOM     12  N   UNL A   1      31.284  24.035  25.088  1.00  0.00    -0.326 N 
ATOM     13  H   UNL A   1      30.488  23.575  24.737  1.00  0.00     0.169 HD
ATOM     14  O   UNL A   1      30.408  25.765  24.007  1.00  0.00    -0.274 OA
BRANCH  12  15
ATOM     15  C   UNL A   1      32.091  23.186  25.877  1.00  0.00     0.041 A 
ATOM     16  C   UNL A   1      33.837  21.480  25.854  1.00  0.00     0.041 A 
ATOM     17  C   UNL A   1      33.884  21.490  27.248  1.00  0.00     0.014 A 
ATOM     18  C   UNL A   1      32.910  22.287  25.177  1.00  0.00     0.040 A 
ATOM     19  C   UNL A   1      33.035  22.329  27.955  1.00  0.00     0.003 A 
ATOM     20  C   UNL A   1      32.153  23.172  27.272  1.00  0.00     0.026 A 
BRANCH  16  21
ATOM     21  C   UNL A   1      34.756  20.559  25.153  1.00  0.00     0.251 C 
ATOM     22  N   UNL A   1      34.321  19.367  24.636  1.00  0.00    -0.350 N 
ATOM     23  H   UNL A   1      35.032  18.811  24.242  1.00  0.00     0.164 HD
ATOM     24  O   UNL A   1      35.930  20.892  24.996  1.00  0.00    -0.269 OA
BRANCH  22  25
ATOM     25  C   UNL A   1      32.986  18.777  24.567  1.00  0.00     0.079 C 
ATOM     26  C   UNL A   1      32.753  17.960  25.836  1.00  0.00     0.031 C 
BRANCH  25  27
ATOM     27  C   UNL A   1      32.853  17.936  23.288  1.00  0.00     0.021 C 
ATOM     28  C   UNL A   1      33.951  16.891  23.144  1.00  0.00     0.006 C 
ENDBRANCH  25  27
ENDBRANCH  22  25
ENDBRANCH  16  21
ENDBRANCH  12  15
ENDBRANCH   6  11
ENDBRANCH   1   5
BRANCH   3  29
ATOM     29  C   UNL A   1      31.684  30.643  25.892  1.00  0.00     0.117 C 
BRANCH  29  30
ATOM     30  C   UNL A   1      31.489  31.732  26.941  1.00  0.00     0.042 C 
BRANCH  30  31
ATOM     31  C   UNL A   1      32.742  32.558  27.228  1.00  0.00     0.118 C 
BRANCH  31  32
ATOM     32  N   UNL A   1      32.442  33.946  27.553  1.00  0.00    -0.352 N 
ATOM     33  C   UNL A   1      32.981  34.771  28.507  1.00  0.00     0.251 C 
ATOM     34  H   UNL A   1      31.741  34.359  26.999  1.00  0.00     0.163 HD
ATOM     35  O   UNL A   1      32.454  35.856  28.743  1.00  0.00    -0.269 OA
BRANCH  33  36
ATOM     36  C   UNL A   1      34.171  34.354  29.277  1.00  0.00     0.039 A 
ATOM     37  C   UNL A   1      33.987  33.763  30.530  1.00  0.00     0.014 A 
ATOM     38  C   UNL A   1      35.462  34.551  28.778  1.00  0.00     0.014 A 
ATOM     39  C   UNL A   1      35.091  33.287  31.240  1.00  0.00     0.010 A 
ATOM     40  C   UNL A   1      36.555  34.012  29.453  1.00  0.00     0.010 A 
ATOM     41  C   UNL A   1      36.378  33.358  30.682  1.00  0.00    -0.014 A 
BRANCH  41  42
ATOM     42  C   UNL A   1      37.535  32.700  31.342  1.00  0.00     0.031 A 
ATOM     43  C   UNL A   1      38.227  31.533  30.699  1.00  0.00     0.074 A 
ATOM     44  C   UNL A   1      37.916  33.121  32.565  1.00  0.00     0.049 A 
ATOM     45  N   UNL A   1      39.203  30.793  31.162  1.00  0.00    -0.248 NA
ATOM     46  C   UNL A   1      37.746  31.129  29.369  1.00  0.00     0.031 C 
ATOM     47  C   UNL A   1      37.297  34.216  33.313  1.00  0.00     0.029 A 
ATOM     48  N   UNL A   1      38.907  32.669  33.402  1.00  0.00    -0.354 N 
ATOM     49  C   UNL A   1      39.450  29.837  30.186  1.00  0.00     0.074 A 
ATOM     50  C   UNL A   1      38.489  30.058  29.126  1.00  0.00     0.031 C 
ATOM     51  C   UNL A   1      37.931  34.366  34.486  1.00  0.00     0.029 A 
ATOM     52  C   UNL A   1      38.971  33.347  34.596  1.00  0.00     0.049 A 
ATOM     53  H   UNL A   1      39.515  31.931  33.168  1.00  0.00     0.167 HD
ATOM     54  C   UNL A   1      40.406  28.877  30.168  1.00  0.00     0.037 A 
ATOM     55  C   UNL A   1      39.764  33.158  35.667  1.00  0.00     0.037 A 
ATOM     56  C   UNL A   1      41.366  28.666  31.222  1.00  0.00     0.049 A 
ATOM     57  C   UNL A   1      40.790  32.058  35.634  1.00  0.00     0.074 A 
ATOM     58  C   UNL A   1      42.406  27.753  31.272  1.00  0.00     0.029 A 
ATOM     59  N   UNL A   1      41.396  29.370  32.417  1.00  0.00    -0.354 N 
ATOM     60  N   UNL A   1      41.062  31.207  34.675  1.00  0.00    -0.248 NA
ATOM     61  C   UNL A   1      41.621  31.893  36.835  1.00  0.00     0.031 C 
ATOM     62  C   UNL A   1      43.029  27.866  32.518  1.00  0.00     0.029 A 
ATOM     63  C   UNL A   1      42.417  28.889  33.223  1.00  0.00     0.049 A 
ATOM     64  H   UNL A   1      40.785  30.102  32.658  1.00  0.00     0.167 HD
ATOM     65  C   UNL A   1      42.108  30.426  35.144  1.00  0.00     0.074 A 
ATOM     66  C   UNL A   1      42.438  30.918  36.464  1.00  0.00     0.031 C 
ATOM     67  C   UNL A   1      42.736  29.388  34.537  1.00  0.00     0.037 A 
BRANCH  54  68
ATOM     68  C   UNL A   1      40.467  27.973  28.970  1.00  0.00     0.064 A 
ATOM     69  C   UNL A   1      39.732  26.780  28.911  1.00  0.00     0.173 A 
ATOM     70  C   UNL A   1      41.220  28.336  27.842  1.00  0.00     0.173 A 
ATOM     71  F   UNL A   1      39.004  26.384  29.965  1.00  0.00    -0.203 F 
ATOM     72  C   UNL A   1      39.765  25.972  27.777  1.00  0.00     0.198 A 
ATOM     73  C   UNL A   1      41.225  27.542  26.698  1.00  0.00     0.198 A 
ATOM     74  F   UNL A   1      41.935  29.470  27.842  1.00  0.00    -0.203 F 
ATOM     75  F   UNL A   1      39.087  24.816  27.759  1.00  0.00    -0.200 F 
ATOM     76  C   UNL A   1      40.503  26.358  26.668  1.00  0.00     0.200 A 
ATOM     77  F   UNL A   1      41.927  27.924  25.622  1.00  0.00    -0.200 F 
ATOM     78  F   UNL A   1      40.522  25.587  25.572  1.00  0.00    -0.200 F 
ENDBRANCH  54  68
BRANCH  55  79
ATOM     79  C   UNL A   1      39.620  34.029  36.865  1.00  0.00     0.064 A 
ATOM     80  C   UNL A   1      40.305  35.249  36.955  1.00  0.00     0.173 A 
ATOM     81  C   UNL A   1      38.816  33.650  37.950  1.00  0.00     0.173 A 
ATOM     82  F   UNL A   1      41.103  35.644  35.952  1.00  0.00    -0.203 F 
ATOM     83  C   UNL A   1      40.212  36.044  38.095  1.00  0.00     0.198 A 
ATOM     84  C   UNL A   1      38.697  34.463  39.076  1.00  0.00     0.198 A 
ATOM     85  F   UNL A   1      38.136  32.495  37.914  1.00  0.00    -0.203 F 
ATOM     86  F   UNL A   1      40.921  37.177  38.178  1.00  0.00    -0.200 F 
ATOM     87  C   UNL A   1      39.405  35.653  39.153  1.00  0.00     0.200 A 
ATOM     88  F   UNL A   1      37.904  34.089  40.088  1.00  0.00    -0.200 F 
ATOM     89  F   UNL A   1      39.315  36.419  40.249  1.00  0.00    -0.200 F 
ENDBRANCH  55  79
BRANCH  67  90
ATOM     90  C   UNL A   1      43.862  28.734  35.286  1.00  0.00     0.064 A 
ATOM     91  C   UNL A   1      45.188  29.176  35.156  1.00  0.00     0.173 A 
ATOM     92  C   UNL A   1      43.609  27.672  36.167  1.00  0.00     0.173 A 
ATOM     93  F   UNL A   1      45.486  30.176  34.313  1.00  0.00    -0.203 F 
ATOM     94  C   UNL A   1      46.221  28.558  35.856  1.00  0.00     0.198 A 
ATOM     95  C   UNL A   1      44.639  27.079  36.892  1.00  0.00     0.198 A 
ATOM     96  F   UNL A   1      42.358  27.215  36.334  1.00  0.00    -0.203 F 
ATOM     97  F   UNL A   1      47.485  28.961  35.674  1.00  0.00    -0.200 F 
ATOM     98  C   UNL A   1      45.944  27.517  36.729  1.00  0.00     0.200 A 
ATOM     99  F   UNL A   1      44.368  26.085  37.747  1.00  0.00    -0.200 F 
ATOM    100  F   UNL A   1      46.939  26.929  37.409  1.00  0.00    -0.200 F 
ENDBRANCH  67  90
ENDBRANCH  41  42
ENDBRANCH  33  36
ENDBRANCH  31  32
ENDBRANCH  30  31
ENDBRANCH  29  30
ENDBRANCH   3  29
TORSDOF 15
ENDMDL
MODEL 3
REMARK VINA RESULT:     -13.1      0.486      7.211
REMARK SMILES CC[C@@H](C)NC(=O)c1cccc(NC(=O)[C@H]2CCCC[C@@H]2C(=O)NCCCNC(=O)c2ccc(-c3c4nc(c(-c5c(F)c(F)c(F)c(F)c5F)c5ccc([nH]5)c(-c5c(F)c(F)c(F)c(F)c5F)c5nc(c(-c6c(F)c(F)c(F)c(F)c6F)c6ccc3[nH]6)C=C5)C=C4)cc2)c1
REMARK SMILES IDX 22 1 23 2 24 3 21 5 16 6 17 7 18 8 20 9 19 10 14 11 13 12
REMARK SMILES IDX 15 14 12 15 8 16 9 17 94 18 10 19 11 20 6 21 5 22 7 24 3 25
REMARK SMILES IDX 4 26 2 27 1 28 25 29 26 30 27 31 28 32 29 33 30 35 31 36
REMARK SMILES IDX 32 37 93 38 33 39 92 40 34 41 35 42 36 43 86 44 37 45 91 46
REMARK SMILES IDX 85 47 87 48 38 49 90 50 84 51 83 52 39 54 71 55 51 56 70 57
REMARK SMILES IDX 52 58 55 59 69 60 88 61 53 62 54 63 68 65 89 66 56 67 40 68
REMARK SMILES IDX 41 69 49 70 42 71 43 72 47 73 50 74 44 75 45 76 48 77 46 78
REMARK SMILES IDX 72 79 73 80 81 81 74 82 75 83 79 84 82 85 76 86 77 87 80 88
REMARK SMILES IDX 78 89 57 90 58 91 66 92 59 93 60 94 64 95 67 96 61 97 62 98
REMARK SMILES IDX 65 99 63 100
REMARK H PARENT 24 4 13 13 5 23 28 34 87 53 55 64
REMARK Flexibility Score: inf
ROOT
ATOM      1  C   UNL A   1      32.861  28.565  25.987  1.00  0.00     0.223 C 
ATOM      2  O   UNL A   1      33.806  28.046  26.583  1.00  0.00    -0.275 OA
ATOM      3  N   UNL A   1      32.638  29.885  26.214  1.00  0.00    -0.356 N 
ATOM      4  H   UNL A   1      33.348  30.349  26.713  1.00  0.00     0.163 HD
ENDROOT
BRANCH   1   5
ATOM      5  C   UNL A   1      31.984  27.798  24.995  1.00  0.00     0.091 C 
ATOM      6  C   UNL A   1      32.417  26.311  24.977  1.00  0.00     0.091 C 
ATOM      7  C   UNL A   1      33.671  26.050  24.122  1.00  0.00     0.014 C 
ATOM      8  C   UNL A   1      33.653  26.751  22.769  1.00  0.00     0.001 C 
ATOM      9  C   UNL A   1      32.044  28.473  23.617  1.00  0.00     0.014 C 
ATOM     10  C   UNL A   1      33.371  28.237  22.907  1.00  0.00     0.001 C 
BRANCH   6  11
ATOM     11  C   UNL A   1      31.288  25.368  24.587  1.00  0.00     0.228 C 
ATOM     12  N   UNL A   1      31.270  24.053  24.966  1.00  0.00    -0.326 N 
ATOM     13  H   UNL A   1      30.505  23.564  24.587  1.00  0.00     0.169 HD
ATOM     14  O   UNL A   1      30.358  25.755  23.872  1.00  0.00    -0.274 OA
BRANCH  12  15
ATOM     15  C   UNL A   1      32.086  23.231  25.774  1.00  0.00     0.041 A 
ATOM     16  C   UNL A   1      33.832  21.526  25.789  1.00  0.00     0.041 A 
ATOM     17  C   UNL A   1      33.895  21.581  27.182  1.00  0.00     0.014 A 
ATOM     18  C   UNL A   1      32.899  22.309  25.096  1.00  0.00     0.040 A 
ATOM     19  C   UNL A   1      33.052  22.442  27.870  1.00  0.00     0.003 A 
ATOM     20  C   UNL A   1      32.162  23.262  27.169  1.00  0.00     0.026 A 
BRANCH  16  21
ATOM     21  C   UNL A   1      34.745  20.583  25.109  1.00  0.00     0.251 C 
ATOM     22  N   UNL A   1      34.304  19.377  24.631  1.00  0.00    -0.350 N 
ATOM     23  H   UNL A   1      35.012  18.808  24.248  1.00  0.00     0.164 HD
ATOM     24  O   UNL A   1      35.918  20.909  24.934  1.00  0.00    -0.269 OA
BRANCH  22  25
ATOM     25  C   UNL A   1      32.968  18.787  24.590  1.00  0.00     0.079 C 
ATOM     26  C   UNL A   1      32.745  18.004  25.882  1.00  0.00     0.031 C 
BRANCH  25  27
ATOM     27  C   UNL A   1      32.822  17.912  23.335  1.00  0.00     0.021 C 
ATOM     28  C   UNL A   1      33.996  16.964  23.130  1.00  0.00     0.006 C 
ENDBRANCH  25  27
ENDBRANCH  22  25
ENDBRANCH  16  21
ENDBRANCH  12  15
ENDBRANCH   6  11
ENDBRANCH   1   5
BRANCH   3  29
ATOM     29  C   UNL A   1      31.513  30.718  25.834  1.00  0.00     0.117 C 
BRANCH  29  30
ATOM     30  C   UNL A   1      31.353  31.895  26.789  1.00  0.00     0.042 C 
BRANCH  30  31
ATOM     31  C   UNL A   1      32.670  32.562  27.188  1.00  0.00     0.118 C 
BRANCH  31  32
ATOM     32  N   UNL A   1      32.510  33.968  27.533  1.00  0.00    -0.352 N 
ATOM     33  C   UNL A   1      33.131  34.722  28.495  1.00  0.00     0.251 C 
ATOM     34  H   UNL A   1      31.851  34.456  26.987  1.00  0.00     0.163 HD
ATOM     35  O   UNL A   1      32.715  35.852  28.748  1.00  0.00    -0.269 OA
BRANCH  33  36
ATOM     36  C   UNL A   1      34.278  34.180  29.253  1.00  0.00     0.039 A 
ATOM     37  C   UNL A   1      34.026  33.454  30.420  1.00  0.00     0.014 A 
ATOM     38  C   UNL A   1      35.592  34.389  28.827  1.00  0.00     0.014 A 
ATOM     39  C   UNL A   1      35.087  32.862  31.110  1.00  0.00     0.010 A 
ATOM     40  C   UNL A   1      36.641  33.739  29.473  1.00  0.00     0.010 A 
ATOM     41  C   UNL A   1      36.397  32.954  30.611  1.00  0.00    -0.014 A 
BRANCH  41  42
ATOM     42  C   UNL A   1      37.507  32.186  31.230  1.00  0.00     0.031 A 
ATOM     43  C   UNL A   1      38.018  32.538  32.598  1.00  0.00     0.074 A 
ATOM     44  C   UNL A   1      38.102  31.208  30.519  1.00  0.00     0.049 A 
ATOM     45  N   UNL A   1      39.022  32.025  33.263  1.00  0.00    -0.248 NA
ATOM     46  C   UNL A   1      37.322  33.624  33.305  1.00  0.00     0.031 C 
ATOM     47  C   UNL A   1      37.726  30.801  29.164  1.00  0.00     0.029 A 
ATOM     48  N   UNL A   1      39.158  30.386  30.829  1.00  0.00    -0.354 N 
ATOM     49  C   UNL A   1      39.082  32.724  34.461  1.00  0.00     0.074 A 
ATOM     50  C   UNL A   1      38.044  33.733  34.412  1.00  0.00     0.031 C 
ATOM     51  C   UNL A   1      38.522  29.796  28.767  1.00  0.00     0.029 A 
ATOM     52  C   UNL A   1      39.497  29.520  29.818  1.00  0.00     0.049 A 
ATOM     53  H   UNL A   1      39.627  30.414  31.695  1.00  0.00     0.167 HD
ATOM     54  C   UNL A   1      39.914  32.527  35.512  1.00  0.00     0.037 A 
ATOM     55  C   UNL A   1      40.492  28.617  29.737  1.00  0.00     0.037 A 
ATOM     56  C   UNL A   1      40.940  31.518  35.559  1.00  0.00     0.049 A 
ATOM     57  C   UNL A   1      41.425  28.448  30.906  1.00  0.00     0.074 A 
ATOM     58  C   UNL A   1      41.797  31.206  36.600  1.00  0.00     0.029 A 
ATOM     59  N   UNL A   1      41.255  30.661  34.513  1.00  0.00    -0.354 N 
ATOM     60  N   UNL A   1      41.425  29.066  32.062  1.00  0.00    -0.248 NA
ATOM     61  C   UNL A   1      42.497  27.454  30.758  1.00  0.00     0.031 C 
ATOM     62  C   UNL A   1      42.668  30.203  36.166  1.00  0.00     0.029 A 
ATOM     63  C   UNL A   1      42.316  29.844  34.875  1.00  0.00     0.049 A 
ATOM     64  H   UNL A   1      40.795  30.636  33.644  1.00  0.00     0.167 HD
ATOM     65  C   UNL A   1      42.475  28.520  32.786  1.00  0.00     0.074 A 
ATOM     66  C   UNL A   1      43.076  27.504  31.948  1.00  0.00     0.031 C 
ATOM     67  C   UNL A   1      42.906  28.836  34.032  1.00  0.00     0.037 A 
BRANCH  54  68
ATOM     68  C   UNL A   1      39.753  33.423  36.707  1.00  0.00     0.064 A 
ATOM     69  C   UNL A   1      40.440  34.643  36.809  1.00  0.00     0.173 A 
ATOM     70  C   UNL A   1      38.855  33.090  37.733  1.00  0.00     0.173 A 
ATOM     71  F   UNL A   1      41.316  35.005  35.860  1.00  0.00    -0.203 F 
ATOM     72  C   UNL A   1      40.250  35.484  37.903  1.00  0.00     0.198 A 
ATOM     73  C   UNL A   1      38.645  33.948  38.809  1.00  0.00     0.198 A 
ATOM     74  F   UNL A   1      38.167  31.939  37.682  1.00  0.00    -0.203 F 
ATOM     75  F   UNL A   1      40.948  36.624  37.998  1.00  0.00    -0.200 F 
ATOM     76  C   UNL A   1      39.346  35.141  38.896  1.00  0.00     0.200 A 
ATOM     77  F   UNL A   1      37.759  33.621  39.761  1.00  0.00    -0.200 F 
ATOM     78  F   UNL A   1      39.154  35.958  39.941  1.00  0.00    -0.200 F 
ENDBRANCH  54  68
BRANCH  55  79
ATOM     79  C   UNL A   1      40.661  27.800  28.505  1.00  0.00     0.064 A 
ATOM     80  C   UNL A   1      41.446  28.260  27.438  1.00  0.00     0.173 A 
ATOM     81  C   UNL A   1      40.027  26.558  28.360  1.00  0.00     0.173 A 
ATOM     82  F   UNL A   1      42.055  29.452  27.520  1.00  0.00    -0.203 F 
ATOM     83  C   UNL A   1      41.567  27.522  26.263  1.00  0.00     0.198 A 
ATOM     84  C   UNL A   1      40.177  25.804  27.198  1.00  0.00     0.198 A 
ATOM     85  F   UNL A   1      39.269  26.068  29.352  1.00  0.00    -0.203 F 
ATOM     86  F   UNL A   1      42.276  28.011  25.237  1.00  0.00    -0.200 F 
ATOM     87  C   UNL A   1      40.937  26.292  26.145  1.00  0.00     0.200 A 
ATOM     88  F   UNL A   1      39.580  24.609  27.095  1.00  0.00    -0.200 F 
ATOM     89  F   UNL A   1      41.055  25.581  25.015  1.00  0.00    -0.200 F 
ENDBRANCH  55  79
BRANCH  67  90
ATOM     90  C   UNL A   1      44.070  28.055  34.575  1.00  0.00     0.064 A 
ATOM     91  C   UNL A   1      45.391  28.501  34.422  1.00  0.00     0.173 A 
ATOM     92  C   UNL A   1      43.858  26.862  35.283  1.00  0.00     0.173 A 
ATOM     93  F   UNL A   1      45.649  29.626  33.738  1.00  0.00    -0.203 F 
ATOM     94  C   UNL A   1      46.459  27.766  34.931  1.00  0.00     0.198 A 
ATOM     95  C   UNL A   1      44.925  26.148  35.820  1.00  0.00     0.198 A 
ATOM     96  F   UNL A   1      42.613  26.394  35.464  1.00  0.00    -0.203 F 
ATOM     97  F   UNL A   1      47.715  28.183  34.724  1.00  0.00    -0.200 F 
ATOM     98  C   UNL A   1      46.224  26.595  35.636  1.00  0.00     0.200 A 
ATOM     99  F   UNL A   1      44.696  25.026  36.515  1.00  0.00    -0.200 F 
ATOM    100  F   UNL A   1      47.253  25.893  36.132  1.00  0.00    -0.200 F 
ENDBRANCH  67  90
ENDBRANCH  41  42
ENDBRANCH  33  36
ENDBRANCH  31  32
ENDBRANCH  30  31
ENDBRANCH  29  30
ENDBRANCH   3  29
TORSDOF 15
ENDMDL
