MODEL 1
REMARK VINA RESULT:     -12.3      0.000      0.000
REMARK SMILES C[C@@H]1CCC[C@](CCSc2ccccc2)(C(=O)NCCCNC(=O)c2ccc(-c3c4nc(c(-c5c(F)c(F)c(F)c(F)c5F)c5ccc([nH]5)c(-c5c(F)c(F)c(F)c(F)c5F)c5nc(c(-c6c(F)c(F)c(F)c(F)c6F)c6ccc3[nH]6)C=C5)C=C4)cc2)C1
REMARK SMILES IDX 19 1 18 2 16 3 17 4 6 6 1 7 2 8 3 9 88 10 4 11 5 12 7 13
REMARK SMILES IDX 8 14 9 15 10 16 11 17 15 18 12 19 14 20 13 21 20 22 21 23
REMARK SMILES IDX 22 24 23 25 24 27 25 28 26 29 87 30 27 31 86 32 28 33 29 34
REMARK SMILES IDX 30 35 80 36 31 37 85 38 79 39 81 40 32 41 84 42 78 43 77 44
REMARK SMILES IDX 33 46 65 47 45 48 64 49 46 50 49 51 63 52 82 53 47 54 48 55
REMARK SMILES IDX 62 57 83 58 50 59 34 60 35 61 43 62 36 63 37 64 41 65 44 66
REMARK SMILES IDX 38 67 39 68 42 69 40 70 66 71 67 72 75 73 68 74 69 75 73 76
REMARK SMILES IDX 76 77 70 78 71 79 74 80 72 81 51 82 52 83 60 84 53 85 54 86
REMARK SMILES IDX 58 87 61 88 55 89 56 90 59 91 57 92
REMARK H PARENT 18 5 22 26 81 45 49 56
REMARK Flexibility Score: inf
ROOT
ATOM      1  C   UNL A   1      31.727  30.932  25.915  1.00  0.00     0.117 C 
ENDROOT
BRANCH   1   2
ATOM      2  N   UNL A   1      30.739  30.699  24.901  1.00  0.00    -0.356 N 
ATOM      3  C   UNL A   1      30.474  29.657  24.090  1.00  0.00     0.226 C 
ATOM      4  O   UNL A   1      29.719  29.961  23.155  1.00  0.00    -0.274 OA
ATOM      5  H   UNL A   1      30.126  31.458  24.772  1.00  0.00     0.163 HD
BRANCH   3   6
ATOM      6  C   UNL A   1      31.090  28.232  24.189  1.00  0.00     0.050 C 
ATOM      7  C   UNL A   1      33.341  28.418  27.288  1.00  0.00     0.007 C 
ATOM      8  C   UNL A   1      33.113  27.762  25.911  1.00  0.00    -0.013 C 
ATOM      9  C   UNL A   1      34.105  28.225  24.835  1.00  0.00     0.003 C 
ATOM     10  C   UNL A   1      31.618  27.737  25.550  1.00  0.00     0.020 C 
ATOM     11  C   UNL A   1      33.536  28.696  23.496  1.00  0.00     0.001 C 
ATOM     12  C   UNL A   1      32.191  28.093  23.113  1.00  0.00     0.017 C 
BRANCH   6  13
ATOM     13  C   UNL A   1      29.890  27.269  23.785  1.00  0.00     0.028 C 
BRANCH  13  14
ATOM     14  C   UNL A   1      29.836  25.844  24.394  1.00  0.00     0.076 C 
BRANCH  14  15
ATOM     15  S   UNL A   1      30.663  24.459  23.521  1.00  0.00    -0.126 SA
BRANCH  15  16
ATOM     16  C   UNL A   1      32.302  24.420  24.230  1.00  0.00     0.007 A 
ATOM     17  C   UNL A   1      32.425  24.130  25.594  1.00  0.00     0.015 A 
ATOM     18  C   UNL A   1      33.463  24.635  23.484  1.00  0.00     0.015 A 
ATOM     19  C   UNL A   1      33.674  24.146  26.222  1.00  0.00     0.001 A 
ATOM     20  C   UNL A   1      34.715  24.661  24.110  1.00  0.00     0.001 A 
ATOM     21  C   UNL A   1      34.818  24.432  25.481  1.00  0.00     0.000 A 
ENDBRANCH  15  16
ENDBRANCH  14  15
ENDBRANCH  13  14
ENDBRANCH   6  13
ENDBRANCH   3   6
ENDBRANCH   1   2
BRANCH   1  22
ATOM     22  C   UNL A   1      31.397  32.185  26.708  1.00  0.00     0.042 C 
BRANCH  22  23
ATOM     23  C   UNL A   1      32.642  32.782  27.342  1.00  0.00     0.118 C 
BRANCH  23  24
ATOM     24  N   UNL A   1      32.476  34.207  27.613  1.00  0.00    -0.352 N 
ATOM     25  C   UNL A   1      33.041  34.980  28.599  1.00  0.00     0.251 C 
ATOM     26  H   UNL A   1      31.871  34.685  26.999  1.00  0.00     0.163 HD
ATOM     27  O   UNL A   1      32.604  36.101  28.840  1.00  0.00    -0.269 OA
BRANCH  25  28
ATOM     28  C   UNL A   1      34.164  34.433  29.387  1.00  0.00     0.039 A 
ATOM     29  C   UNL A   1      33.916  33.834  30.623  1.00  0.00     0.014 A 
ATOM     30  C   UNL A   1      35.458  34.470  28.866  1.00  0.00     0.014 A 
ATOM     31  C   UNL A   1      34.957  33.181  31.288  1.00  0.00     0.010 A 
ATOM     32  C   UNL A   1      36.458  33.720  29.468  1.00  0.00     0.010 A 
ATOM     33  C   UNL A   1      36.220  33.068  30.687  1.00  0.00    -0.014 A 
BRANCH  33  34
ATOM     34  C   UNL A   1      37.319  32.275  31.296  1.00  0.00     0.031 A 
ATOM     35  C   UNL A   1      37.828  32.640  32.665  1.00  0.00     0.074 A 
ATOM     36  C   UNL A   1      37.932  31.315  30.574  1.00  0.00     0.049 A 
ATOM     37  N   UNL A   1      38.873  32.185  33.309  1.00  0.00    -0.248 NA
ATOM     38  C   UNL A   1      37.095  33.693  33.387  1.00  0.00     0.031 C 
ATOM     39  C   UNL A   1      37.579  30.924  29.207  1.00  0.00     0.029 A 
ATOM     40  N   UNL A   1      39.001  30.508  30.879  1.00  0.00    -0.354 N 
ATOM     41  C   UNL A   1      38.942  32.924  34.482  1.00  0.00     0.074 A 
ATOM     42  C   UNL A   1      37.869  33.891  34.443  1.00  0.00     0.031 C 
ATOM     43  C   UNL A   1      38.401  29.943  28.800  1.00  0.00     0.029 A 
ATOM     44  C   UNL A   1      39.368  29.667  29.856  1.00  0.00     0.049 A 
ATOM     45  H   UNL A   1      39.460  30.531  31.750  1.00  0.00     0.167 HD
ATOM     46  C   UNL A   1      39.811  32.790  35.511  1.00  0.00     0.037 A 
ATOM     47  C   UNL A   1      40.383  28.785  29.774  1.00  0.00     0.037 A 
ATOM     48  C   UNL A   1      40.828  31.777  35.573  1.00  0.00     0.049 A 
ATOM     49  C   UNL A   1      41.308  28.629  30.952  1.00  0.00     0.074 A 
ATOM     50  C   UNL A   1      41.673  31.468  36.623  1.00  0.00     0.029 A 
ATOM     51  N   UNL A   1      41.136  30.906  34.538  1.00  0.00    -0.354 N 
ATOM     52  N   UNL A   1      41.296  29.261  32.101  1.00  0.00    -0.248 NA
ATOM     53  C   UNL A   1      42.385  27.638  30.825  1.00  0.00     0.031 C 
ATOM     54  C   UNL A   1      42.527  30.443  36.207  1.00  0.00     0.029 A 
ATOM     55  C   UNL A   1      42.182  30.082  34.915  1.00  0.00     0.049 A 
ATOM     56  H   UNL A   1      40.679  30.879  33.667  1.00  0.00     0.167 HD
ATOM     57  C   UNL A   1      42.347  28.733  32.838  1.00  0.00     0.074 A 
ATOM     58  C   UNL A   1      42.962  27.711  32.016  1.00  0.00     0.031 C 
ATOM     59  C   UNL A   1      42.773  29.067  34.080  1.00  0.00     0.037 A 
BRANCH  46  60
ATOM     60  C   UNL A   1      39.694  33.744  36.663  1.00  0.00     0.064 A 
ATOM     61  C   UNL A   1      40.335  34.992  36.660  1.00  0.00     0.173 A 
ATOM     62  C   UNL A   1      38.878  33.429  37.761  1.00  0.00     0.173 A 
ATOM     63  F   UNL A   1      41.135  35.337  35.639  1.00  0.00    -0.203 F 
ATOM     64  C   UNL A   1      40.181  35.880  37.720  1.00  0.00     0.198 A 
ATOM     65  C   UNL A   1      38.702  34.333  38.806  1.00  0.00     0.198 A 
ATOM     66  F   UNL A   1      38.239  32.252  37.814  1.00  0.00    -0.203 F 
ATOM     67  F   UNL A   1      40.836  37.050  37.712  1.00  0.00    -0.200 F 
ATOM     68  C   UNL A   1      39.358  35.554  38.788  1.00  0.00     0.200 A 
ATOM     69  F   UNL A   1      37.897  34.022  39.831  1.00  0.00    -0.200 F 
ATOM     70  F   UNL A   1      39.199  36.418  39.800  1.00  0.00    -0.200 F 
ENDBRANCH  46  60
BRANCH  47  71
ATOM     71  C   UNL A   1      40.584  27.981  28.538  1.00  0.00     0.064 A 
ATOM     72  C   UNL A   1      41.340  28.481  27.468  1.00  0.00     0.173 A 
ATOM     73  C   UNL A   1      40.007  26.711  28.389  1.00  0.00     0.173 A 
ATOM     74  F   UNL A   1      41.897  29.699  27.554  1.00  0.00    -0.203 F 
ATOM     75  C   UNL A   1      41.484  27.758  26.286  1.00  0.00     0.198 A 
ATOM     76  C   UNL A   1      40.179  25.974  27.217  1.00  0.00     0.198 A 
ATOM     77  F   UNL A   1      39.281  26.182  29.383  1.00  0.00    -0.203 F 
ATOM     78  F   UNL A   1      42.165  28.285  25.259  1.00  0.00    -0.200 F 
ATOM     79  C   UNL A   1      40.908  26.503  26.163  1.00  0.00     0.200 A 
ATOM     80  F   UNL A   1      39.633  24.755  27.109  1.00  0.00    -0.200 F 
ATOM     81  F   UNL A   1      41.046  25.808  25.026  1.00  0.00    -0.200 F 
ENDBRANCH  47  71
BRANCH  59  82
ATOM     82  C   UNL A   1      43.944  28.313  34.634  1.00  0.00     0.064 A 
ATOM     83  C   UNL A   1      45.256  28.777  34.464  1.00  0.00     0.173 A 
ATOM     84  C   UNL A   1      43.748  27.149  35.392  1.00  0.00     0.173 A 
ATOM     85  F   UNL A   1      45.496  29.876  33.733  1.00  0.00    -0.203 F 
ATOM     86  C   UNL A   1      46.332  28.093  35.022  1.00  0.00     0.198 A 
ATOM     87  C   UNL A   1      44.823  26.486  35.973  1.00  0.00     0.198 A 
ATOM     88  F   UNL A   1      42.510  26.671  35.588  1.00  0.00    -0.203 F 
ATOM     89  F   UNL A   1      47.582  28.531  34.814  1.00  0.00    -0.200 F 
ATOM     90  C   UNL A   1      46.115  26.954  35.784  1.00  0.00     0.200 A 
ATOM     91  F   UNL A   1      44.609  25.395  36.722  1.00  0.00    -0.200 F 
ATOM     92  F   UNL A   1      47.150  26.305  36.332  1.00  0.00    -0.200 F 
ENDBRANCH  59  82
ENDBRANCH  33  34
ENDBRANCH  25  28
ENDBRANCH  23  24
ENDBRANCH  22  23
ENDBRANCH   1  22
TORSDOF 14
ENDMDL
MODEL 2
REMARK VINA RESULT:     -12.3      1.409      7.963
REMARK SMILES C[C@@H]1CCC[C@](CCSc2ccccc2)(C(=O)NCCCNC(=O)c2ccc(-c3c4nc(c(-c5c(F)c(F)c(F)c(F)c5F)c5ccc([nH]5)c(-c5c(F)c(F)c(F)c(F)c5F)c5nc(c(-c6c(F)c(F)c(F)c(F)c6F)c6ccc3[nH]6)C=C5)C=C4)cc2)C1
REMARK SMILES IDX 19 1 18 2 16 3 17 4 6 6 1 7 2 8 3 9 88 10 4 11 5 12 7 13
REMARK SMILES IDX 8 14 9 15 10 16 11 17 15 18 12 19 14 20 13 21 20 22 21 23
REMARK SMILES IDX 22 24 23 25 24 27 25 28 26 29 87 30 27 31 86 32 28 33 29 34
REMARK SMILES IDX 30 35 80 36 31 37 85 38 79 39 81 40 32 41 84 42 78 43 77 44
REMARK SMILES IDX 33 46 65 47 45 48 64 49 46 50 49 51 63 52 82 53 47 54 48 55
REMARK SMILES IDX 62 57 83 58 50 59 34 60 35 61 43 62 36 63 37 64 41 65 44 66
REMARK SMILES IDX 38 67 39 68 42 69 40 70 66 71 67 72 75 73 68 74 69 75 73 76
REMARK SMILES IDX 76 77 70 78 71 79 74 80 72 81 51 82 52 83 60 84 53 85 54 86
REMARK SMILES IDX 58 87 61 88 55 89 56 90 59 91 57 92
REMARK H PARENT 18 5 22 26 81 45 49 56
REMARK Flexibility Score: inf
ROOT
ATOM      1  C   UNL A   1      32.079  30.657  26.213  1.00  0.00     0.117 C 
ENDROOT
BRANCH   1   2
ATOM      2  N   UNL A   1      31.882  29.556  27.112  1.00  0.00    -0.356 N 
ATOM      3  C   UNL A   1      31.600  28.252  26.929  1.00  0.00     0.226 C 
ATOM      4  O   UNL A   1      31.223  27.695  27.970  1.00  0.00    -0.274 OA
ATOM      5  H   UNL A   1      31.973  29.805  28.060  1.00  0.00     0.163 HD
BRANCH   3   6
ATOM      6  C   UNL A   1      31.619  27.486  25.575  1.00  0.00     0.050 C 
ATOM      7  C   UNL A   1      30.761  23.878  26.549  1.00  0.00     0.007 C 
ATOM      8  C   UNL A   1      31.511  24.791  25.557  1.00  0.00    -0.013 C 
ATOM      9  C   UNL A   1      33.037  24.753  25.714  1.00  0.00     0.003 C 
ATOM     10  C   UNL A   1      30.832  26.167  25.450  1.00  0.00     0.020 C 
ATOM     11  C   UNL A   1      33.776  26.087  25.823  1.00  0.00     0.001 C 
ATOM     12  C   UNL A   1      33.088  27.268  25.151  1.00  0.00     0.017 C 
BRANCH   6  13
ATOM     13  C   UNL A   1      30.964  28.510  24.549  1.00  0.00     0.028 C 
BRANCH  13  14
ATOM     14  C   UNL A   1      30.232  27.953  23.299  1.00  0.00     0.076 C 
BRANCH  14  15
ATOM     15  S   UNL A   1      28.442  28.284  23.082  1.00  0.00    -0.126 SA
BRANCH  15  16
ATOM     16  C   UNL A   1      28.374  30.013  22.638  1.00  0.00     0.007 A 
ATOM     17  C   UNL A   1      28.132  30.344  21.299  1.00  0.00     0.015 A 
ATOM     18  C   UNL A   1      28.523  31.047  23.566  1.00  0.00     0.015 A 
ATOM     19  C   UNL A   1      28.130  31.676  20.877  1.00  0.00     0.001 A 
ATOM     20  C   UNL A   1      28.530  32.382  23.146  1.00  0.00     0.001 A 
ATOM     21  C   UNL A   1      28.350  32.696  21.800  1.00  0.00     0.000 A 
ENDBRANCH  15  16
ENDBRANCH  14  15
ENDBRANCH  13  14
ENDBRANCH   6  13
ENDBRANCH   3   6
ENDBRANCH   1   2
BRANCH   1  22
ATOM     22  C   UNL A   1      31.631  31.960  26.854  1.00  0.00     0.042 C 
BRANCH  22  23
ATOM     23  C   UNL A   1      32.806  32.713  27.454  1.00  0.00     0.118 C 
BRANCH  23  24
ATOM     24  N   UNL A   1      32.493  34.125  27.655  1.00  0.00    -0.352 N 
ATOM     25  C   UNL A   1      32.982  35.002  28.594  1.00  0.00     0.251 C 
ATOM     26  H   UNL A   1      31.837  34.504  27.026  1.00  0.00     0.163 HD
ATOM     27  O   UNL A   1      32.431  36.082  28.784  1.00  0.00    -0.269 OA
BRANCH  25  28
ATOM     28  C   UNL A   1      34.163  34.617  29.393  1.00  0.00     0.039 A 
ATOM     29  C   UNL A   1      33.992  34.118  30.686  1.00  0.00     0.014 A 
ATOM     30  C   UNL A   1      35.437  34.701  28.831  1.00  0.00     0.014 A 
ATOM     31  C   UNL A   1      35.095  33.610  31.375  1.00  0.00     0.010 A 
ATOM     32  C   UNL A   1      36.506  34.088  29.467  1.00  0.00     0.010 A 
ATOM     33  C   UNL A   1      36.349  33.537  30.747  1.00  0.00    -0.014 A 
BRANCH  33  34
ATOM     34  C   UNL A   1      37.520  32.889  31.392  1.00  0.00     0.031 A 
ATOM     35  C   UNL A   1      38.192  31.724  30.715  1.00  0.00     0.074 A 
ATOM     36  C   UNL A   1      37.897  33.268  32.631  1.00  0.00     0.049 A 
ATOM     37  N   UNL A   1      39.119  30.922  31.173  1.00  0.00    -0.248 NA
ATOM     38  C   UNL A   1      37.724  31.383  29.361  1.00  0.00     0.031 C 
ATOM     39  C   UNL A   1      37.273  34.332  33.420  1.00  0.00     0.029 A 
ATOM     40  N   UNL A   1      38.882  32.783  33.456  1.00  0.00    -0.354 N 
ATOM     41  C   UNL A   1      39.310  29.965  30.185  1.00  0.00     0.074 A 
ATOM     42  C   UNL A   1      38.370  30.252  29.125  1.00  0.00     0.031 C 
ATOM     43  C   UNL A   1      37.899  34.432  34.604  1.00  0.00     0.029 A 
ATOM     44  C   UNL A   1      38.938  33.410  34.678  1.00  0.00     0.049 A 
ATOM     45  H   UNL A   1      39.491  32.055  33.196  1.00  0.00     0.167 HD
ATOM     46  C   UNL A   1      40.207  28.952  30.156  1.00  0.00     0.037 A 
ATOM     47  C   UNL A   1      39.726  33.174  35.744  1.00  0.00     0.037 A 
ATOM     48  C   UNL A   1      41.186  28.720  31.182  1.00  0.00     0.049 A 
ATOM     49  C   UNL A   1      40.743  32.066  35.665  1.00  0.00     0.074 A 
ATOM     50  C   UNL A   1      42.225  27.808  31.190  1.00  0.00     0.029 A 
ATOM     51  N   UNL A   1      41.246  29.412  32.383  1.00  0.00    -0.354 N 
ATOM     52  N   UNL A   1      40.986  31.236  34.680  1.00  0.00    -0.248 NA
ATOM     53  C   UNL A   1      41.597  31.862  36.843  1.00  0.00     0.031 C 
ATOM     54  C   UNL A   1      42.884  27.911  32.418  1.00  0.00     0.029 A 
ATOM     55  C   UNL A   1      42.285  28.921  33.154  1.00  0.00     0.049 A 
ATOM     56  H   UNL A   1      40.641  30.142  32.646  1.00  0.00     0.167 HD
ATOM     57  C   UNL A   1      42.028  30.427  35.111  1.00  0.00     0.074 A 
ATOM     58  C   UNL A   1      42.389  30.881  36.437  1.00  0.00     0.031 C 
ATOM     59  C   UNL A   1      42.629  29.395  34.471  1.00  0.00     0.037 A 
BRANCH  46  60
ATOM     60  C   UNL A   1      40.189  28.026  28.975  1.00  0.00     0.064 A 
ATOM     61  C   UNL A   1      40.897  28.313  27.799  1.00  0.00     0.173 A 
ATOM     62  C   UNL A   1      39.501  26.805  29.046  1.00  0.00     0.173 A 
ATOM     63  F   UNL A   1      41.562  29.472  27.677  1.00  0.00    -0.203 F 
ATOM     64  C   UNL A   1      40.901  27.422  26.730  1.00  0.00     0.198 A 
ATOM     65  C   UNL A   1      39.533  25.902  27.986  1.00  0.00     0.198 A 
ATOM     66  F   UNL A   1      38.812  26.478  30.149  1.00  0.00    -0.203 F 
ATOM     67  F   UNL A   1      41.552  27.737  25.601  1.00  0.00    -0.200 F 
ATOM     68  C   UNL A   1      40.227  26.214  26.827  1.00  0.00     0.200 A 
ATOM     69  F   UNL A   1      38.892  24.730  28.086  1.00  0.00    -0.200 F 
ATOM     70  F   UNL A   1      40.246  25.351  25.802  1.00  0.00    -0.200 F 
ENDBRANCH  46  60
BRANCH  47  71
ATOM     71  C   UNL A   1      39.592  33.996  36.977  1.00  0.00     0.064 A 
ATOM     72  C   UNL A   1      38.830  33.544  38.065  1.00  0.00     0.173 A 
ATOM     73  C   UNL A   1      40.196  35.257  37.086  1.00  0.00     0.173 A 
ATOM     74  F   UNL A   1      38.216  32.353  38.002  1.00  0.00    -0.203 F 
ATOM     75  C   UNL A   1      38.653  34.333  39.199  1.00  0.00     0.198 A 
ATOM     76  C   UNL A   1      40.045  36.032  38.236  1.00  0.00     0.198 A 
ATOM     77  F   UNL A   1      40.941  35.734  36.079  1.00  0.00    -0.203 F 
ATOM     78  F   UNL A   1      37.874  33.900  40.199  1.00  0.00    -0.200 F 
ATOM     79  C   UNL A   1      39.265  35.575  39.286  1.00  0.00     0.200 A 
ATOM     80  F   UNL A   1      40.650  37.225  38.321  1.00  0.00    -0.200 F 
ATOM     81  F   UNL A   1      39.093  36.334  40.377  1.00  0.00    -0.200 F 
ENDBRANCH  47  71
BRANCH  59  82
ATOM     82  C   UNL A   1      43.748  28.698  35.185  1.00  0.00     0.064 A 
ATOM     83  C   UNL A   1      43.509  27.585  36.004  1.00  0.00     0.173 A 
ATOM     84  C   UNL A   1      45.076  29.109  35.000  1.00  0.00     0.173 A 
ATOM     85  F   UNL A   1      42.255  27.164  36.224  1.00  0.00    -0.203 F 
ATOM     86  C   UNL A   1      44.561  26.919  36.626  1.00  0.00     0.198 A 
ATOM     87  C   UNL A   1      46.127  28.422  35.599  1.00  0.00     0.198 A 
ATOM     88  F   UNL A   1      45.355  30.164  34.220  1.00  0.00    -0.203 F 
ATOM     89  F   UNL A   1      44.308  25.882  37.437  1.00  0.00    -0.200 F 
ATOM     90  C   UNL A   1      45.869  27.331  36.415  1.00  0.00     0.200 A 
ATOM     91  F   UNL A   1      47.390  28.812  35.382  1.00  0.00    -0.200 F 
ATOM     92  F   UNL A   1      46.881  26.679  37.003  1.00  0.00    -0.200 F 
ENDBRANCH  59  82
ENDBRANCH  33  34
ENDBRANCH  25  28
ENDBRANCH  23  24
ENDBRANCH  22  23
ENDBRANCH   1  22
TORSDOF 14
ENDMDL
MODEL 3
REMARK VINA RESULT:     -12.3      6.080     10.163
REMARK SMILES C[C@@H]1CCC[C@](CCSc2ccccc2)(C(=O)NCCCNC(=O)c2ccc(-c3c4nc(c(-c5c(F)c(F)c(F)c(F)c5F)c5ccc([nH]5)c(-c5c(F)c(F)c(F)c(F)c5F)c5nc(c(-c6c(F)c(F)c(F)c(F)c6F)c6ccc3[nH]6)C=C5)C=C4)cc2)C1
REMARK SMILES IDX 19 1 18 2 16 3 17 4 6 6 1 7 2 8 3 9 88 10 4 11 5 12 7 13
REMARK SMILES IDX 8 14 9 15 10 16 11 17 15 18 12 19 14 20 13 21 20 22 21 23
REMARK SMILES IDX 22 24 23 25 24 27 25 28 26 29 87 30 27 31 86 32 28 33 29 34
REMARK SMILES IDX 30 35 80 36 31 37 85 38 79 39 81 40 32 41 84 42 78 43 77 44
REMARK SMILES IDX 33 46 65 47 45 48 64 49 46 50 49 51 63 52 82 53 47 54 48 55
REMARK SMILES IDX 62 57 83 58 50 59 34 60 35 61 43 62 36 63 37 64 41 65 44 66
REMARK SMILES IDX 38 67 39 68 42 69 40 70 66 71 67 72 75 73 68 74 69 75 73 76
REMARK SMILES IDX 76 77 70 78 71 79 74 80 72 81 51 82 52 83 60 84 53 85 54 86
REMARK SMILES IDX 58 87 61 88 55 89 56 90 59 91 57 92
REMARK H PARENT 18 5 22 26 81 45 49 56
REMARK Flexibility Score: inf
ROOT
ATOM      1  C   UNL A   1      36.818  20.608  25.395  1.00  0.00     0.117 C 
ENDROOT
BRANCH   1   2
ATOM      2  N   UNL A   1      35.710  19.794  24.982  1.00  0.00    -0.356 N 
ATOM      3  C   UNL A   1      34.403  20.046  24.778  1.00  0.00     0.226 C 
ATOM      4  O   UNL A   1      33.723  19.012  24.707  1.00  0.00    -0.274 OA
ATOM      5  H   UNL A   1      35.956  18.857  24.812  1.00  0.00     0.163 HD
BRANCH   3   6
ATOM      6  C   UNL A   1      33.731  21.449  24.731  1.00  0.00     0.050 C 
ATOM      7  C   UNL A   1      36.658  23.884  25.190  1.00  0.00     0.007 C 
ATOM      8  C   UNL A   1      35.151  23.639  25.411  1.00  0.00    -0.013 C 
ATOM      9  C   UNL A   1      34.774  23.398  26.880  1.00  0.00     0.003 C 
ATOM     10  C   UNL A   1      34.585  22.675  24.355  1.00  0.00     0.020 C 
ATOM     11  C   UNL A   1      33.916  22.175  27.203  1.00  0.00     0.001 C 
ATOM     12  C   UNL A   1      33.011  21.698  26.075  1.00  0.00     0.017 C 
BRANCH   6  13
ATOM     13  C   UNL A   1      32.619  21.301  23.603  1.00  0.00     0.028 C 
BRANCH  13  14
ATOM     14  C   UNL A   1      32.195  22.558  22.800  1.00  0.00     0.076 C 
BRANCH  14  15
ATOM     15  S   UNL A   1      30.947  23.700  23.510  1.00  0.00    -0.126 SA
BRANCH  15  16
ATOM     16  C   UNL A   1      31.923  25.003  24.243  1.00  0.00     0.007 A 
ATOM     17  C   UNL A   1      32.796  25.722  23.416  1.00  0.00     0.015 A 
ATOM     18  C   UNL A   1      31.837  25.357  25.592  1.00  0.00     0.015 A 
ATOM     19  C   UNL A   1      33.633  26.711  23.941  1.00  0.00     0.001 A 
ATOM     20  C   UNL A   1      32.680  26.341  26.124  1.00  0.00     0.001 A 
ATOM     21  C   UNL A   1      33.588  27.006  25.302  1.00  0.00     0.000 A 
ENDBRANCH  15  16
ENDBRANCH  14  15
ENDBRANCH  13  14
ENDBRANCH   6  13
ENDBRANCH   3   6
ENDBRANCH   1   2
BRANCH   1  22
ATOM     22  C   UNL A   1      38.125  20.044  24.865  1.00  0.00     0.042 C 
BRANCH  22  23
ATOM     23  C   UNL A   1      39.281  20.356  25.799  1.00  0.00     0.118 C 
BRANCH  23  24
ATOM     24  N   UNL A   1      40.165  19.205  25.964  1.00  0.00    -0.352 N 
ATOM     25  C   UNL A   1      41.530  19.169  26.122  1.00  0.00     0.251 C 
ATOM     26  H   UNL A   1      39.718  18.327  25.961  1.00  0.00     0.163 HD
ATOM     27  O   UNL A   1      42.145  18.115  25.995  1.00  0.00    -0.269 OA
BRANCH  25  28
ATOM     28  C   UNL A   1      42.253  20.422  26.420  1.00  0.00     0.039 A 
ATOM     29  C   UNL A   1      42.841  21.146  25.381  1.00  0.00     0.014 A 
ATOM     30  C   UNL A   1      42.298  20.902  27.729  1.00  0.00     0.014 A 
ATOM     31  C   UNL A   1      43.385  22.405  25.647  1.00  0.00     0.010 A 
ATOM     32  C   UNL A   1      42.729  22.198  27.967  1.00  0.00     0.010 A 
ATOM     33  C   UNL A   1      43.280  22.965  26.930  1.00  0.00    -0.014 A 
BRANCH  33  34
ATOM     34  C   UNL A   1      43.729  24.349  27.229  1.00  0.00     0.031 A 
ATOM     35  C   UNL A   1      42.731  25.365  27.718  1.00  0.00     0.074 A 
ATOM     36  C   UNL A   1      44.995  24.719  26.945  1.00  0.00     0.049 A 
ATOM     37  N   UNL A   1      42.877  26.655  27.885  1.00  0.00    -0.248 NA
ATOM     38  C   UNL A   1      41.374  24.875  28.011  1.00  0.00     0.031 C 
ATOM     39  C   UNL A   1      46.031  23.843  26.393  1.00  0.00     0.029 A 
ATOM     40  N   UNL A   1      45.620  25.936  27.057  1.00  0.00    -0.354 N 
ATOM     41  C   UNL A   1      41.626  27.128  28.259  1.00  0.00     0.074 A 
ATOM     42  C   UNL A   1      40.720  26.002  28.245  1.00  0.00     0.031 C 
ATOM     43  C   UNL A   1      47.165  24.544  26.233  1.00  0.00     0.029 A 
ATOM     44  C   UNL A   1      46.926  25.929  26.625  1.00  0.00     0.049 A 
ATOM     45  H   UNL A   1      45.175  26.738  27.414  1.00  0.00     0.167 HD
ATOM     46  C   UNL A   1      41.272  28.388  28.605  1.00  0.00     0.037 A 
ATOM     47  C   UNL A   1      47.821  26.931  26.539  1.00  0.00     0.037 A 
ATOM     48  C   UNL A   1      42.196  29.486  28.687  1.00  0.00     0.049 A 
ATOM     49  C   UNL A   1      47.409  28.313  26.972  1.00  0.00     0.074 A 
ATOM     50  C   UNL A   1      41.971  30.767  29.154  1.00  0.00     0.029 A 
ATOM     51  N   UNL A   1      43.524  29.427  28.293  1.00  0.00    -0.354 N 
ATOM     52  N   UNL A   1      46.250  28.726  27.425  1.00  0.00    -0.248 NA
ATOM     53  C   UNL A   1      48.427  29.369  26.882  1.00  0.00     0.031 C 
ATOM     54  C   UNL A   1      43.150  31.501  28.995  1.00  0.00     0.029 A 
ATOM     55  C   UNL A   1      44.122  30.662  28.474  1.00  0.00     0.049 A 
ATOM     56  H   UNL A   1      43.974  28.627  27.937  1.00  0.00     0.167 HD
ATOM     57  C   UNL A   1      46.405  30.079  27.693  1.00  0.00     0.074 A 
ATOM     58  C   UNL A   1      47.776  30.414  27.373  1.00  0.00     0.031 C 
ATOM     59  C   UNL A   1      45.492  30.969  28.154  1.00  0.00     0.037 A 
BRANCH  46  60
ATOM     60  C   UNL A   1      39.833  28.650  28.941  1.00  0.00     0.064 A 
ATOM     61  C   UNL A   1      39.332  28.478  30.240  1.00  0.00     0.173 A 
ATOM     62  C   UNL A   1      38.957  29.140  27.960  1.00  0.00     0.173 A 
ATOM     63  F   UNL A   1      40.126  28.002  31.212  1.00  0.00    -0.203 F 
ATOM     64  C   UNL A   1      38.004  28.766  30.540  1.00  0.00     0.198 A 
ATOM     65  C   UNL A   1      37.637  29.456  28.270  1.00  0.00     0.198 A 
ATOM     66  F   UNL A   1      39.385  29.328  26.702  1.00  0.00    -0.203 F 
ATOM     67  F   UNL A   1      37.538  28.554  31.779  1.00  0.00    -0.200 F 
ATOM     68  C   UNL A   1      37.160  29.263  29.558  1.00  0.00     0.200 A 
ATOM     69  F   UNL A   1      36.826  29.948  27.324  1.00  0.00    -0.200 F 
ATOM     70  F   UNL A   1      35.886  29.555  29.853  1.00  0.00    -0.200 F 
ENDBRANCH  46  60
BRANCH  47  71
ATOM     71  C   UNL A   1      49.193  26.673  26.025  1.00  0.00     0.064 A 
ATOM     72  C   UNL A   1      50.201  26.188  26.872  1.00  0.00     0.173 A 
ATOM     73  C   UNL A   1      49.535  26.927  24.688  1.00  0.00     0.173 A 
ATOM     74  F   UNL A   1      49.930  25.948  28.164  1.00  0.00    -0.203 F 
ATOM     75  C   UNL A   1      51.501  25.998  26.411  1.00  0.00     0.198 A 
ATOM     76  C   UNL A   1      50.829  26.706  24.220  1.00  0.00     0.198 A 
ATOM     77  F   UNL A   1      48.608  27.384  23.834  1.00  0.00    -0.203 F 
ATOM     78  F   UNL A   1      52.457  25.589  27.257  1.00  0.00    -0.200 F 
ATOM     79  C   UNL A   1      51.814  26.253  25.084  1.00  0.00     0.200 A 
ATOM     80  F   UNL A   1      51.123  26.938  22.934  1.00  0.00    -0.200 F 
ATOM     81  F   UNL A   1      53.066  26.071  24.642  1.00  0.00    -0.200 F 
ENDBRANCH  47  71
BRANCH  59  82
ATOM     82  C   UNL A   1      45.949  32.382  28.357  1.00  0.00     0.064 A 
ATOM     83  C   UNL A   1      45.851  33.334  27.333  1.00  0.00     0.173 A 
ATOM     84  C   UNL A   1      46.433  32.802  29.606  1.00  0.00     0.173 A 
ATOM     85  F   UNL A   1      45.411  32.977  26.118  1.00  0.00    -0.203 F 
ATOM     86  C   UNL A   1      46.236  34.655  27.548  1.00  0.00     0.198 A 
ATOM     87  C   UNL A   1      46.787  34.128  29.825  1.00  0.00     0.198 A 
ATOM     88  F   UNL A   1      46.537  31.928  30.618  1.00  0.00    -0.203 F 
ATOM     89  F   UNL A   1      46.173  35.541  26.544  1.00  0.00    -0.200 F 
ATOM     90  C   UNL A   1      46.695  35.053  28.795  1.00  0.00     0.200 A 
ATOM     91  F   UNL A   1      47.214  34.514  31.035  1.00  0.00    -0.200 F 
ATOM     92  F   UNL A   1      47.051  36.327  29.004  1.00  0.00    -0.200 F 
ENDBRANCH  59  82
ENDBRANCH  33  34
ENDBRANCH  25  28
ENDBRANCH  23  24
ENDBRANCH  22  23
ENDBRANCH   1  22
TORSDOF 14
ENDMDL
