MODEL 1
REMARK VINA RESULT:     -14.0      0.000      0.000
REMARK SMILES Cc1ccc(F)c(C(=O)N[C@@H]2C=C[C@@H](C(=O)NCCCNC(=O)c3ccc(-c4c5nc(c(-c6c(F)c(F)c(F)c(F)c6F)c6ccc([nH]6)c(-c6c(F)c(F)c(F)c(F)c6F)c6nc(c(-c7c(F)c(F)c(F)c(F)c7F)c7ccc4[nH]7)C=C6)C=C5)cc3)C2)c1
REMARK SMILES IDX 19 1 18 2 17 3 15 4 16 5 14 7 11 8 12 9 87 10 13 11 10 12
REMARK SMILES IDX 8 13 9 14 7 16 1 17 2 18 3 19 88 20 4 21 5 22 6 23 20 24
REMARK SMILES IDX 21 25 22 26 23 28 24 29 25 30 86 31 26 32 85 33 27 34 28 35
REMARK SMILES IDX 29 36 79 37 30 38 84 39 78 40 80 41 31 42 83 43 77 44 76 45
REMARK SMILES IDX 32 47 64 48 44 49 63 50 45 51 48 52 62 53 81 54 46 55 47 56
REMARK SMILES IDX 61 58 82 59 49 60 33 61 34 62 42 63 35 64 36 65 40 66 43 67
REMARK SMILES IDX 37 68 38 69 41 70 39 71 65 72 66 73 74 74 67 75 68 76 72 77
REMARK SMILES IDX 75 78 69 79 70 80 73 81 71 82 50 83 51 84 59 85 52 86 53 87
REMARK SMILES IDX 57 88 60 89 54 90 55 91 58 92 56 93
REMARK H PARENT 17 6 10 15 21 27 80 46 48 57
REMARK Flexibility Score: inf
ROOT
ATOM      1  C   UNL A   1      32.032  30.472  26.693  1.00  0.00     0.042 C 
ENDROOT
BRANCH   1   2
ATOM      2  C   UNL A   1      31.735  29.888  25.323  1.00  0.00     0.117 C 
BRANCH   2   3
ATOM      3  N   UNL A   1      32.947  29.664  24.558  1.00  0.00    -0.356 N 
ATOM      4  C   UNL A   1      33.455  28.551  23.965  1.00  0.00     0.227 C 
ATOM      5  O   UNL A   1      34.526  28.697  23.363  1.00  0.00    -0.274 OA
ATOM      6  H   UNL A   1      33.505  30.468  24.446  1.00  0.00     0.163 HD
BRANCH   4   7
ATOM      7  C   UNL A   1      32.849  27.141  24.100  1.00  0.00     0.103 C 
ATOM      8  C   UNL A   1      31.321  26.503  25.933  1.00  0.00     0.106 C 
ATOM      9  C   UNL A   1      30.638  26.511  24.606  1.00  0.00    -0.006 C 
ATOM     10  C   UNL A   1      32.801  26.675  25.560  1.00  0.00     0.047 C 
ATOM     11  C   UNL A   1      31.459  26.891  23.618  1.00  0.00    -0.016 C 
BRANCH   8  12
ATOM     12  N   UNL A   1      30.974  25.316  26.676  1.00  0.00    -0.346 N 
ATOM     13  C   UNL A   1      31.595  24.087  26.730  1.00  0.00     0.254 C 
ATOM     14  O   UNL A   1      31.287  23.308  27.628  1.00  0.00    -0.269 OA
ATOM     15  H   UNL A   1      30.166  25.397  27.232  1.00  0.00     0.164 HD
BRANCH  13  16
ATOM     16  C   UNL A   1      32.569  23.668  25.697  1.00  0.00     0.075 A 
ATOM     17  C   UNL A   1      36.294  23.846  24.950  1.00  0.00     0.044 C 
ATOM     18  C   UNL A   1      34.827  23.562  24.800  1.00  0.00    -0.050 A 
ATOM     19  C   UNL A   1      34.310  23.165  23.562  1.00  0.00     0.006 A 
ATOM     20  C   UNL A   1      33.955  23.722  25.888  1.00  0.00     0.020 A 
ATOM     21  C   UNL A   1      32.935  22.991  23.399  1.00  0.00     0.040 A 
ATOM     22  C   UNL A   1      32.072  23.266  24.456  1.00  0.00     0.135 A 
ATOM     23  F   UNL A   1      30.753  23.181  24.230  1.00  0.00    -0.206 F 
ENDBRANCH  13  16
ENDBRANCH   8  12
ENDBRANCH   4   7
ENDBRANCH   2   3
ENDBRANCH   1   2
BRANCH   1  24
ATOM     24  C   UNL A   1      33.479  30.327  27.089  1.00  0.00     0.118 C 
BRANCH  24  25
ATOM     25  N   UNL A   1      33.942  31.371  27.967  1.00  0.00    -0.352 N 
ATOM     26  C   UNL A   1      34.974  31.367  28.879  1.00  0.00     0.251 C 
ATOM     27  H   UNL A   1      33.444  32.219  27.904  1.00  0.00     0.163 HD
ATOM     28  O   UNL A   1      35.019  32.271  29.693  1.00  0.00    -0.269 OA
BRANCH  26  29
ATOM     29  C   UNL A   1      36.081  30.366  28.816  1.00  0.00     0.039 A 
ATOM     30  C   UNL A   1      36.307  29.585  29.967  1.00  0.00     0.014 A 
ATOM     31  C   UNL A   1      36.996  30.294  27.770  1.00  0.00     0.014 A 
ATOM     32  C   UNL A   1      37.511  28.899  30.131  1.00  0.00     0.010 A 
ATOM     33  C   UNL A   1      38.180  29.627  27.922  1.00  0.00     0.010 A 
ATOM     34  C   UNL A   1      38.465  29.004  29.130  1.00  0.00    -0.014 A 
BRANCH  34  35
ATOM     35  C   UNL A   1      39.842  28.577  29.211  1.00  0.00     0.031 A 
ATOM     36  C   UNL A   1      40.209  27.208  28.840  1.00  0.00     0.074 A 
ATOM     37  C   UNL A   1      40.766  29.558  29.280  1.00  0.00     0.049 A 
ATOM     38  N   UNL A   1      41.328  26.661  29.155  1.00  0.00    -0.248 NA
ATOM     39  C   UNL A   1      39.336  26.356  28.041  1.00  0.00     0.031 C 
ATOM     40  C   UNL A   1      42.185  29.498  28.964  1.00  0.00     0.029 A 
ATOM     41  N   UNL A   1      40.582  30.856  29.781  1.00  0.00    -0.354 N 
ATOM     42  C   UNL A   1      41.459  25.541  28.372  1.00  0.00     0.074 A 
ATOM     43  C   UNL A   1      40.164  25.344  27.757  1.00  0.00     0.031 C 
ATOM     44  C   UNL A   1      42.798  30.538  29.554  1.00  0.00     0.029 A 
ATOM     45  C   UNL A   1      41.812  31.207  30.387  1.00  0.00     0.049 A 
ATOM     46  H   UNL A   1      39.768  31.406  29.724  1.00  0.00     0.167 HD
ATOM     47  C   UNL A   1      42.694  24.989  28.206  1.00  0.00     0.037 A 
ATOM     48  C   UNL A   1      41.852  31.302  31.752  1.00  0.00     0.037 A 
ATOM     49  C   UNL A   1      43.715  25.742  28.935  1.00  0.00     0.049 A 
ATOM     50  C   UNL A   1      42.618  30.173  32.414  1.00  0.00     0.074 A 
ATOM     51  C   UNL A   1      44.617  26.733  28.579  1.00  0.00     0.029 A 
ATOM     52  N   UNL A   1      43.641  25.784  30.315  1.00  0.00    -0.354 N 
ATOM     53  N   UNL A   1      43.228  29.218  31.765  1.00  0.00    -0.248 NA
ATOM     54  C   UNL A   1      42.682  29.986  33.863  1.00  0.00     0.031 C 
ATOM     55  C   UNL A   1      45.016  27.418  29.766  1.00  0.00     0.029 A 
ATOM     56  C   UNL A   1      44.375  26.831  30.842  1.00  0.00     0.049 A 
ATOM     57  H   UNL A   1      43.127  25.145  30.859  1.00  0.00     0.167 HD
ATOM     58  C   UNL A   1      43.678  28.281  32.650  1.00  0.00     0.074 A 
ATOM     59  C   UNL A   1      43.328  28.812  33.956  1.00  0.00     0.031 C 
ATOM     60  C   UNL A   1      44.271  27.115  32.266  1.00  0.00     0.037 A 
BRANCH  47  61
ATOM     61  C   UNL A   1      42.977  23.930  27.176  1.00  0.00     0.064 A 
ATOM     62  C   UNL A   1      42.666  22.579  27.423  1.00  0.00     0.173 A 
ATOM     63  C   UNL A   1      43.579  24.191  25.931  1.00  0.00     0.173 A 
ATOM     64  F   UNL A   1      42.026  22.202  28.537  1.00  0.00    -0.203 F 
ATOM     65  C   UNL A   1      43.016  21.560  26.535  1.00  0.00     0.198 A 
ATOM     66  C   UNL A   1      43.981  23.167  25.068  1.00  0.00     0.198 A 
ATOM     67  F   UNL A   1      43.766  25.448  25.502  1.00  0.00    -0.203 F 
ATOM     68  F   UNL A   1      42.694  20.291  26.821  1.00  0.00    -0.200 F 
ATOM     69  C   UNL A   1      43.703  21.850  25.374  1.00  0.00     0.200 A 
ATOM     70  F   UNL A   1      44.641  23.466  23.940  1.00  0.00    -0.200 F 
ATOM     71  F   UNL A   1      44.079  20.866  24.545  1.00  0.00    -0.200 F 
ENDBRANCH  47  61
BRANCH  48  72
ATOM     72  C   UNL A   1      40.597  31.932  32.271  1.00  0.00     0.064 A 
ATOM     73  C   UNL A   1      40.377  33.281  31.918  1.00  0.00     0.173 A 
ATOM     74  C   UNL A   1      39.473  31.153  32.580  1.00  0.00     0.173 A 
ATOM     75  F   UNL A   1      41.422  34.077  31.636  1.00  0.00    -0.203 F 
ATOM     76  C   UNL A   1      39.093  33.759  31.671  1.00  0.00     0.198 A 
ATOM     77  C   UNL A   1      38.186  31.652  32.370  1.00  0.00     0.198 A 
ATOM     78  F   UNL A   1      39.614  29.871  32.945  1.00  0.00    -0.203 F 
ATOM     79  F   UNL A   1      38.926  34.983  31.150  1.00  0.00    -0.200 F 
ATOM     80  C   UNL A   1      38.002  32.929  31.855  1.00  0.00     0.200 A 
ATOM     81  F   UNL A   1      37.125  30.858  32.573  1.00  0.00    -0.200 F 
ATOM     82  F   UNL A   1      36.780  33.343  31.494  1.00  0.00    -0.200 F 
ENDBRANCH  48  72
BRANCH  60  83
ATOM     83  C   UNL A   1      44.823  26.146  33.262  1.00  0.00     0.064 A 
ATOM     84  C   UNL A   1      46.196  25.858  33.312  1.00  0.00     0.173 A 
ATOM     85  C   UNL A   1      43.989  25.383  34.102  1.00  0.00     0.173 A 
ATOM     86  F   UNL A   1      47.059  26.509  32.516  1.00  0.00    -0.203 F 
ATOM     87  C   UNL A   1      46.706  24.889  34.173  1.00  0.00     0.198 A 
ATOM     88  C   UNL A   1      44.493  24.374  34.916  1.00  0.00     0.198 A 
ATOM     89  F   UNL A   1      42.669  25.614  34.170  1.00  0.00    -0.203 F 
ATOM     90  F   UNL A   1      48.028  24.681  34.231  1.00  0.00    -0.200 F 
ATOM     91  C   UNL A   1      45.853  24.135  34.961  1.00  0.00     0.200 A 
ATOM     92  F   UNL A   1      43.654  23.636  35.656  1.00  0.00    -0.200 F 
ATOM     93  F   UNL A   1      46.342  23.183  35.767  1.00  0.00    -0.200 F 
ENDBRANCH  60  83
ENDBRANCH  34  35
ENDBRANCH  26  29
ENDBRANCH  24  25
ENDBRANCH   1  24
TORSDOF 12
ENDMDL
MODEL 2
REMARK VINA RESULT:     -13.8      1.673      2.140
REMARK SMILES Cc1ccc(F)c(C(=O)N[C@@H]2C=C[C@@H](C(=O)NCCCNC(=O)c3ccc(-c4c5nc(c(-c6c(F)c(F)c(F)c(F)c6F)c6ccc([nH]6)c(-c6c(F)c(F)c(F)c(F)c6F)c6nc(c(-c7c(F)c(F)c(F)c(F)c7F)c7ccc4[nH]7)C=C6)C=C5)cc3)C2)c1
REMARK SMILES IDX 19 1 18 2 17 3 15 4 16 5 14 7 11 8 12 9 87 10 13 11 10 12
REMARK SMILES IDX 8 13 9 14 7 16 1 17 2 18 3 19 88 20 4 21 5 22 6 23 20 24
REMARK SMILES IDX 21 25 22 26 23 28 24 29 25 30 86 31 26 32 85 33 27 34 28 35
REMARK SMILES IDX 29 36 79 37 30 38 84 39 78 40 80 41 31 42 83 43 77 44 76 45
REMARK SMILES IDX 32 47 64 48 44 49 63 50 45 51 48 52 62 53 81 54 46 55 47 56
REMARK SMILES IDX 61 58 82 59 49 60 33 61 34 62 42 63 35 64 36 65 40 66 43 67
REMARK SMILES IDX 37 68 38 69 41 70 39 71 65 72 66 73 74 74 67 75 68 76 72 77
REMARK SMILES IDX 75 78 69 79 70 80 73 81 71 82 50 83 51 84 59 85 52 86 53 87
REMARK SMILES IDX 57 88 60 89 54 90 55 91 58 92 56 93
REMARK H PARENT 17 6 10 15 21 27 80 46 48 57
REMARK Flexibility Score: inf
ROOT
ATOM      1  C   UNL A   1      33.413  30.260  26.472  1.00  0.00     0.042 C 
ENDROOT
BRANCH   1   2
ATOM      2  C   UNL A   1      31.953  30.118  26.867  1.00  0.00     0.117 C 
BRANCH   2   3
ATOM      3  N   UNL A   1      31.636  28.765  27.283  1.00  0.00    -0.356 N 
ATOM      4  C   UNL A   1      31.558  27.596  26.592  1.00  0.00     0.227 C 
ATOM      5  O   UNL A   1      31.271  26.591  27.254  1.00  0.00    -0.274 OA
ATOM      6  H   UNL A   1      31.441  28.675  28.244  1.00  0.00     0.163 HD
BRANCH   4   7
ATOM      7  C   UNL A   1      31.688  27.482  25.061  1.00  0.00     0.103 C 
ATOM      8  C   UNL A   1      31.980  25.326  23.892  1.00  0.00     0.106 C 
ATOM      9  C   UNL A   1      30.663  25.960  23.587  1.00  0.00    -0.006 C 
ATOM     10  C   UNL A   1      32.727  26.433  24.651  1.00  0.00     0.047 C 
ATOM     11  C   UNL A   1      30.491  27.112  24.249  1.00  0.00    -0.016 C 
BRANCH   8  12
ATOM     12  N   UNL A   1      32.599  24.836  22.685  1.00  0.00    -0.346 N 
ATOM     13  C   UNL A   1      33.456  23.775  22.491  1.00  0.00     0.254 C 
ATOM     14  O   UNL A   1      33.650  23.372  21.346  1.00  0.00    -0.269 OA
ATOM     15  H   UNL A   1      32.373  25.341  21.870  1.00  0.00     0.164 HD
BRANCH  13  16
ATOM     16  C   UNL A   1      34.189  23.159  23.620  1.00  0.00     0.075 A 
ATOM     17  C   UNL A   1      37.400  23.606  25.609  1.00  0.00     0.044 C 
ATOM     18  C   UNL A   1      36.098  23.039  25.123  1.00  0.00    -0.050 A 
ATOM     19  C   UNL A   1      35.695  21.759  25.522  1.00  0.00     0.006 A 
ATOM     20  C   UNL A   1      35.287  23.769  24.239  1.00  0.00     0.020 A 
ATOM     21  C   UNL A   1      34.532  21.195  24.997  1.00  0.00     0.040 A 
ATOM     22  C   UNL A   1      33.800  21.884  24.034  1.00  0.00     0.135 A 
ATOM     23  F   UNL A   1      32.744  21.268  23.484  1.00  0.00    -0.206 F 
ENDBRANCH  13  16
ENDBRANCH   8  12
ENDBRANCH   4   7
ENDBRANCH   2   3
ENDBRANCH   1   2
BRANCH   1  24
ATOM     24  C   UNL A   1      34.358  29.862  27.576  1.00  0.00     0.118 C 
BRANCH  24  25
ATOM     25  N   UNL A   1      35.124  30.963  28.100  1.00  0.00    -0.352 N 
ATOM     26  C   UNL A   1      36.342  30.967  28.746  1.00  0.00     0.251 C 
ATOM     27  H   UNL A   1      34.716  31.851  27.977  1.00  0.00     0.163 HD
ATOM     28  O   UNL A   1      36.675  31.982  29.329  1.00  0.00    -0.269 OA
BRANCH  26  29
ATOM     29  C   UNL A   1      37.292  29.818  28.647  1.00  0.00     0.039 A 
ATOM     30  C   UNL A   1      37.373  28.955  29.757  1.00  0.00     0.014 A 
ATOM     31  C   UNL A   1      38.212  29.667  27.613  1.00  0.00     0.014 A 
ATOM     32  C   UNL A   1      38.460  28.092  29.904  1.00  0.00     0.010 A 
ATOM     33  C   UNL A   1      39.282  28.826  27.749  1.00  0.00     0.010 A 
ATOM     34  C   UNL A   1      39.443  28.106  28.926  1.00  0.00    -0.014 A 
BRANCH  34  35
ATOM     35  C   UNL A   1      40.741  27.478  29.006  1.00  0.00     0.031 A 
ATOM     36  C   UNL A   1      40.891  26.058  28.682  1.00  0.00     0.074 A 
ATOM     37  C   UNL A   1      41.804  28.310  29.028  1.00  0.00     0.049 A 
ATOM     38  N   UNL A   1      41.919  25.358  29.004  1.00  0.00    -0.248 NA
ATOM     39  C   UNL A   1      39.885  25.321  27.925  1.00  0.00     0.031 C 
ATOM     40  C   UNL A   1      43.192  28.023  28.697  1.00  0.00     0.029 A 
ATOM     41  N   UNL A   1      41.828  29.637  29.482  1.00  0.00    -0.354 N 
ATOM     42  C   UNL A   1      41.865  24.204  28.261  1.00  0.00     0.074 A 
ATOM     43  C   UNL A   1      40.544  24.186  27.670  1.00  0.00     0.031 C 
ATOM     44  C   UNL A   1      43.966  28.978  29.241  1.00  0.00     0.029 A 
ATOM     45  C   UNL A   1      43.107  29.818  30.061  1.00  0.00     0.049 A 
ATOM     46  H   UNL A   1      41.106  30.302  29.415  1.00  0.00     0.167 HD
ATOM     47  C   UNL A   1      42.999  23.466  28.101  1.00  0.00     0.037 A 
ATOM     48  C   UNL A   1      43.184  29.953  31.421  1.00  0.00     0.037 A 
ATOM     49  C   UNL A   1      44.134  24.079  28.789  1.00  0.00     0.049 A 
ATOM     50  C   UNL A   1      43.782  28.744  32.115  1.00  0.00     0.074 A 
ATOM     51  C   UNL A   1      45.170  24.909  28.386  1.00  0.00     0.029 A 
ATOM     52  N   UNL A   1      44.092  24.181  30.168  1.00  0.00    -0.354 N 
ATOM     53  N   UNL A   1      44.229  27.686  31.495  1.00  0.00    -0.248 NA
ATOM     54  C   UNL A   1      43.842  28.600  33.569  1.00  0.00     0.031 C 
ATOM     55  C   UNL A   1      45.689  25.566  29.543  1.00  0.00     0.029 A 
ATOM     56  C   UNL A   1      44.985  25.122  30.647  1.00  0.00     0.049 A 
ATOM     57  H   UNL A   1      43.496  23.646  30.742  1.00  0.00     0.167 HD
ATOM     58  C   UNL A   1      44.547  26.722  32.408  1.00  0.00     0.074 A 
ATOM     59  C   UNL A   1      44.304  27.345  33.698  1.00  0.00     0.031 C 
ATOM     60  C   UNL A   1      44.950  25.467  32.061  1.00  0.00     0.037 A 
BRANCH  47  61
ATOM     61  C   UNL A   1      43.101  22.341  27.108  1.00  0.00     0.064 A 
ATOM     62  C   UNL A   1      42.323  21.175  27.252  1.00  0.00     0.173 A 
ATOM     63  C   UNL A   1      43.972  22.351  26.002  1.00  0.00     0.173 A 
ATOM     64  F   UNL A   1      41.403  21.065  28.219  1.00  0.00    -0.203 F 
ATOM     65  C   UNL A   1      42.474  20.071  26.412  1.00  0.00     0.198 A 
ATOM     66  C   UNL A   1      44.164  21.225  25.196  1.00  0.00     0.198 A 
ATOM     67  F   UNL A   1      44.637  23.462  25.654  1.00  0.00    -0.203 F 
ATOM     68  F   UNL A   1      41.706  18.988  26.594  1.00  0.00    -0.200 F 
ATOM     69  C   UNL A   1      43.418  20.083  25.405  1.00  0.00     0.200 A 
ATOM     70  F   UNL A   1      45.080  21.254  24.217  1.00  0.00    -0.200 F 
ATOM     71  F   UNL A   1      43.594  19.005  24.629  1.00  0.00    -0.200 F 
ENDBRANCH  47  61
BRANCH  48  72
ATOM     72  C   UNL A   1      42.048  30.784  31.931  1.00  0.00     0.064 A 
ATOM     73  C   UNL A   1      42.109  32.168  31.659  1.00  0.00     0.173 A 
ATOM     74  C   UNL A   1      40.782  30.222  32.145  1.00  0.00     0.173 A 
ATOM     75  F   UNL A   1      43.299  32.761  31.470  1.00  0.00    -0.203 F 
ATOM     76  C   UNL A   1      40.954  32.899  31.394  1.00  0.00     0.198 A 
ATOM     77  C   UNL A   1      39.627  30.972  31.918  1.00  0.00     0.198 A 
ATOM     78  F   UNL A   1      40.657  28.918  32.430  1.00  0.00    -0.203 F 
ATOM     79  F   UNL A   1      41.051  34.160  30.948  1.00  0.00    -0.200 F 
ATOM     80  C   UNL A   1      39.716  32.287  31.481  1.00  0.00     0.200 A 
ATOM     81  F   UNL A   1      38.424  30.389  32.027  1.00  0.00    -0.200 F 
ATOM     82  F   UNL A   1      38.616  32.951  31.101  1.00  0.00    -0.200 F 
ENDBRANCH  48  72
BRANCH  60  83
ATOM     83  C   UNL A   1      45.366  24.461  33.086  1.00  0.00     0.064 A 
ATOM     84  C   UNL A   1      46.668  24.455  33.611  1.00  0.00     0.173 A 
ATOM     85  C   UNL A   1      44.525  23.399  33.473  1.00  0.00     0.173 A 
ATOM     86  F   UNL A   1      47.549  25.406  33.263  1.00  0.00    -0.203 F 
ATOM     87  C   UNL A   1      47.091  23.465  34.495  1.00  0.00     0.198 A 
ATOM     88  C   UNL A   1      44.971  22.379  34.307  1.00  0.00     0.198 A 
ATOM     89  F   UNL A   1      43.247  23.339  33.070  1.00  0.00    -0.203 F 
ATOM     90  F   UNL A   1      48.323  23.524  35.017  1.00  0.00    -0.200 F 
ATOM     91  C   UNL A   1      46.249  22.418  34.829  1.00  0.00     0.200 A 
ATOM     92  F   UNL A   1      44.152  21.360  34.604  1.00  0.00    -0.200 F 
ATOM     93  F   UNL A   1      46.668  21.451  35.656  1.00  0.00    -0.200 F 
ENDBRANCH  60  83
ENDBRANCH  34  35
ENDBRANCH  26  29
ENDBRANCH  24  25
ENDBRANCH   1  24
TORSDOF 12
ENDMDL
MODEL 3
REMARK VINA RESULT:     -13.7      3.136      9.195
REMARK SMILES Cc1ccc(F)c(C(=O)N[C@@H]2C=C[C@@H](C(=O)NCCCNC(=O)c3ccc(-c4c5nc(c(-c6c(F)c(F)c(F)c(F)c6F)c6ccc([nH]6)c(-c6c(F)c(F)c(F)c(F)c6F)c6nc(c(-c7c(F)c(F)c(F)c(F)c7F)c7ccc4[nH]7)C=C6)C=C5)cc3)C2)c1
REMARK SMILES IDX 19 1 18 2 17 3 15 4 16 5 14 7 11 8 12 9 87 10 13 11 10 12
REMARK SMILES IDX 8 13 9 14 7 16 1 17 2 18 3 19 88 20 4 21 5 22 6 23 20 24
REMARK SMILES IDX 21 25 22 26 23 28 24 29 25 30 86 31 26 32 85 33 27 34 28 35
REMARK SMILES IDX 29 36 79 37 30 38 84 39 78 40 80 41 31 42 83 43 77 44 76 45
REMARK SMILES IDX 32 47 64 48 44 49 63 50 45 51 48 52 62 53 81 54 46 55 47 56
REMARK SMILES IDX 61 58 82 59 49 60 33 61 34 62 42 63 35 64 36 65 40 66 43 67
REMARK SMILES IDX 37 68 38 69 41 70 39 71 65 72 66 73 74 74 67 75 68 76 72 77
REMARK SMILES IDX 75 78 69 79 70 80 73 81 71 82 50 83 51 84 59 85 52 86 53 87
REMARK SMILES IDX 57 88 60 89 54 90 55 91 58 92 56 93
REMARK H PARENT 17 6 10 15 21 27 80 46 48 57
REMARK Flexibility Score: inf
ROOT
ATOM      1  C   UNL A   1      37.183  21.420  24.915  1.00  0.00     0.042 C 
ENDROOT
BRANCH   1   2
ATOM      2  C   UNL A   1      35.791  21.088  25.423  1.00  0.00     0.117 C 
BRANCH   2   3
ATOM      3  N   UNL A   1      34.775  21.342  24.419  1.00  0.00    -0.356 N 
ATOM      4  C   UNL A   1      33.581  21.990  24.479  1.00  0.00     0.227 C 
ATOM      5  O   UNL A   1      32.941  22.047  23.422  1.00  0.00    -0.274 OA
ATOM      6  H   UNL A   1      34.990  20.979  23.530  1.00  0.00     0.163 HD
BRANCH   4   7
ATOM      7  C   UNL A   1      32.951  22.534  25.775  1.00  0.00     0.103 C 
ATOM      8  C   UNL A   1      31.909  24.768  25.931  1.00  0.00     0.106 C 
ATOM      9  C   UNL A   1      30.911  23.667  26.080  1.00  0.00    -0.006 C 
ATOM     10  C   UNL A   1      33.251  24.023  25.977  1.00  0.00     0.047 C 
ATOM     11  C   UNL A   1      31.472  22.457  25.960  1.00  0.00    -0.016 C 
BRANCH   8  12
ATOM     12  N   UNL A   1      31.697  25.785  26.932  1.00  0.00    -0.346 N 
ATOM     13  C   UNL A   1      31.573  27.151  26.802  1.00  0.00     0.254 C 
ATOM     14  O   UNL A   1      31.132  27.798  27.748  1.00  0.00    -0.269 OA
ATOM     15  H   UNL A   1      31.630  25.448  27.855  1.00  0.00     0.164 HD
BRANCH  13  16
ATOM     16  C   UNL A   1      32.020  27.852  25.577  1.00  0.00     0.075 A 
ATOM     17  C   UNL A   1      30.627  29.165  22.291  1.00  0.00     0.044 C 
ATOM     18  C   UNL A   1      31.595  28.809  23.382  1.00  0.00    -0.050 A 
ATOM     19  C   UNL A   1      32.973  28.862  23.145  1.00  0.00     0.006 A 
ATOM     20  C   UNL A   1      31.130  28.388  24.638  1.00  0.00     0.020 A 
ATOM     21  C   UNL A   1      33.870  28.442  24.128  1.00  0.00     0.040 A 
ATOM     22  C   UNL A   1      33.391  27.918  25.326  1.00  0.00     0.135 A 
ATOM     23  F   UNL A   1      34.282  27.436  26.204  1.00  0.00    -0.206 F 
ENDBRANCH  13  16
ENDBRANCH   8  12
ENDBRANCH   4   7
ENDBRANCH   2   3
ENDBRANCH   1   2
BRANCH   1  24
ATOM     24  C   UNL A   1      37.832  22.544  25.682  1.00  0.00     0.118 C 
BRANCH  24  25
ATOM     25  N   UNL A   1      39.203  22.280  26.037  1.00  0.00    -0.352 N 
ATOM     26  C   UNL A   1      40.206  23.151  26.402  1.00  0.00     0.251 C 
ATOM     27  H   UNL A   1      39.463  21.330  26.018  1.00  0.00     0.163 HD
ATOM     28  O   UNL A   1      41.350  22.733  26.406  1.00  0.00    -0.269 OA
BRANCH  26  29
ATOM     29  C   UNL A   1      39.914  24.530  26.896  1.00  0.00     0.039 A 
ATOM     30  C   UNL A   1      40.489  25.602  26.186  1.00  0.00     0.014 A 
ATOM     31  C   UNL A   1      39.270  24.796  28.102  1.00  0.00     0.014 A 
ATOM     32  C   UNL A   1      40.573  26.869  26.762  1.00  0.00     0.010 A 
ATOM     33  C   UNL A   1      39.349  26.034  28.677  1.00  0.00     0.010 A 
ATOM     34  C   UNL A   1      40.069  27.039  28.043  1.00  0.00    -0.014 A 
BRANCH  34  35
ATOM     35  C   UNL A   1      40.268  28.187  28.897  1.00  0.00     0.031 A 
ATOM     36  C   UNL A   1      39.283  29.271  28.911  1.00  0.00     0.074 A 
ATOM     37  C   UNL A   1      41.162  28.037  29.897  1.00  0.00     0.049 A 
ATOM     38  N   UNL A   1      39.514  30.437  29.399  1.00  0.00    -0.248 NA
ATOM     39  C   UNL A   1      37.928  29.100  28.399  1.00  0.00     0.031 C 
ATOM     40  C   UNL A   1      41.289  28.802  31.128  1.00  0.00     0.029 A 
ATOM     41  N   UNL A   1      42.255  27.158  29.926  1.00  0.00    -0.354 N 
ATOM     42  C   UNL A   1      38.297  31.056  29.547  1.00  0.00     0.074 A 
ATOM     43  C   UNL A   1      37.350  30.224  28.836  1.00  0.00     0.031 C 
ATOM     44  C   UNL A   1      42.524  28.609  31.624  1.00  0.00     0.029 A 
ATOM     45  C   UNL A   1      43.269  27.835  30.645  1.00  0.00     0.049 A 
ATOM     46  H   UNL A   1      42.307  26.259  29.529  1.00  0.00     0.167 HD
ATOM     47  C   UNL A   1      38.196  32.124  30.386  1.00  0.00     0.037 A 
ATOM     48  C   UNL A   1      44.367  28.270  29.952  1.00  0.00     0.037 A 
ATOM     49  C   UNL A   1      39.480  32.430  31.016  1.00  0.00     0.049 A 
ATOM     50  C   UNL A   1      44.417  29.775  29.780  1.00  0.00     0.074 A 
ATOM     51  C   UNL A   1      40.053  32.111  32.238  1.00  0.00     0.029 A 
ATOM     52  N   UNL A   1      40.527  32.841  30.210  1.00  0.00    -0.354 N 
ATOM     53  N   UNL A   1      43.535  30.602  30.273  1.00  0.00    -0.248 NA
ATOM     54  C   UNL A   1      45.419  30.458  28.962  1.00  0.00     0.031 C 
ATOM     55  C   UNL A   1      41.468  32.262  32.119  1.00  0.00     0.029 A 
ATOM     56  C   UNL A   1      41.752  32.692  30.835  1.00  0.00     0.049 A 
ATOM     57  H   UNL A   1      40.414  33.197  29.299  1.00  0.00     0.167 HD
ATOM     58  C   UNL A   1      43.776  31.861  29.804  1.00  0.00     0.074 A 
ATOM     59  C   UNL A   1      44.977  31.727  28.998  1.00  0.00     0.031 C 
ATOM     60  C   UNL A   1      42.965  32.925  30.066  1.00  0.00     0.037 A 
BRANCH  47  61
ATOM     61  C   UNL A   1      36.873  32.702  30.807  1.00  0.00     0.064 A 
ATOM     62  C   UNL A   1      36.157  33.568  29.958  1.00  0.00     0.173 A 
ATOM     63  C   UNL A   1      36.271  32.451  32.055  1.00  0.00     0.173 A 
ATOM     64  F   UNL A   1      36.580  33.834  28.715  1.00  0.00    -0.203 F 
ATOM     65  C   UNL A   1      34.983  34.205  30.361  1.00  0.00     0.198 A 
ATOM     66  C   UNL A   1      35.127  33.132  32.481  1.00  0.00     0.198 A 
ATOM     67  F   UNL A   1      36.759  31.514  32.883  1.00  0.00    -0.203 F 
ATOM     68  F   UNL A   1      34.343  35.019  29.511  1.00  0.00    -0.200 F 
ATOM     69  C   UNL A   1      34.486  34.014  31.635  1.00  0.00     0.200 A 
ATOM     70  F   UNL A   1      34.653  32.929  33.719  1.00  0.00    -0.200 F 
ATOM     71  F   UNL A   1      33.385  34.663  32.038  1.00  0.00    -0.200 F 
ENDBRANCH  47  61
BRANCH  48  72
ATOM     72  C   UNL A   1      44.775  27.256  28.929  1.00  0.00     0.064 A 
ATOM     73  C   UNL A   1      44.478  27.564  27.583  1.00  0.00     0.173 A 
ATOM     74  C   UNL A   1      45.837  26.375  29.171  1.00  0.00     0.173 A 
ATOM     75  F   UNL A   1      43.454  28.384  27.295  1.00  0.00    -0.203 F 
ATOM     76  C   UNL A   1      45.337  27.189  26.554  1.00  0.00     0.198 A 
ATOM     77  C   UNL A   1      46.672  25.967  28.127  1.00  0.00     0.198 A 
ATOM     78  F   UNL A   1      46.158  26.023  30.424  1.00  0.00    -0.203 F 
ATOM     79  F   UNL A   1      45.137  27.658  25.314  1.00  0.00    -0.200 F 
ATOM     80  C   UNL A   1      46.458  26.427  26.835  1.00  0.00     0.200 A 
ATOM     81  F   UNL A   1      47.744  25.208  28.393  1.00  0.00    -0.200 F 
ATOM     82  F   UNL A   1      47.352  26.176  25.870  1.00  0.00    -0.200 F 
ENDBRANCH  48  72
BRANCH  60  83
ATOM     83  C   UNL A   1      43.301  34.305  29.601  1.00  0.00     0.064 A 
ATOM     84  C   UNL A   1      43.494  35.353  30.515  1.00  0.00     0.173 A 
ATOM     85  C   UNL A   1      43.310  34.651  28.235  1.00  0.00     0.173 A 
ATOM     86  F   UNL A   1      43.460  35.121  31.837  1.00  0.00    -0.203 F 
ATOM     87  C   UNL A   1      43.715  36.660  30.087  1.00  0.00     0.198 A 
ATOM     88  C   UNL A   1      43.470  35.967  27.814  1.00  0.00     0.198 A 
ATOM     89  F   UNL A   1      43.188  33.718  27.279  1.00  0.00    -0.203 F 
ATOM     90  F   UNL A   1      43.950  37.623  30.989  1.00  0.00    -0.200 F 
ATOM     91  C   UNL A   1      43.685  36.970  28.739  1.00  0.00     0.200 A 
ATOM     92  F   UNL A   1      43.416  36.256  26.506  1.00  0.00    -0.200 F 
ATOM     93  F   UNL A   1      43.868  38.233  28.331  1.00  0.00    -0.200 F 
ENDBRANCH  60  83
ENDBRANCH  34  35
ENDBRANCH  26  29
ENDBRANCH  24  25
ENDBRANCH   1  24
TORSDOF 12
ENDMDL
