MODEL 1
REMARK VINA RESULT:     -11.5      0.000      0.000
REMARK SMILES O=C(NCCCNC(=O)c1cc(/N=C/c2ccc([N+](=O)[O-])cc2)ccc1O)c1ccc(-c2c3nc(c(-c4c(F)c(F)c(F)c(F)c4F)c4ccc([nH]4)c(-c4c(F)c(F)c(F)c(F)c4F)c4nc(c(-c5c(F)c(F)c(F)c(F)c5F)c5ccc2[nH]5)C=C4)C=C3)cc1
REMARK SMILES IDX 5 1 4 2 3 3 1 4 2 5 28 7 29 8 90 9 30 10 89 11 31 12 32 13
REMARK SMILES IDX 33 14 83 15 34 16 88 17 82 18 84 19 35 20 87 21 81 22 80 23
REMARK SMILES IDX 36 25 68 26 48 27 67 28 49 29 52 30 66 31 85 32 50 33 51 34
REMARK SMILES IDX 65 36 86 37 53 38 37 39 38 40 46 41 39 42 40 43 44 44 47 45
REMARK SMILES IDX 41 46 42 47 45 48 43 49 69 50 70 51 78 52 71 53 72 54 76 55
REMARK SMILES IDX 79 56 73 57 74 58 77 59 75 60 54 61 55 62 63 63 56 64 57 65
REMARK SMILES IDX 61 66 64 67 58 68 59 69 62 70 60 71 6 72 7 73 8 74 9 76
REMARK SMILES IDX 10 77 11 78 26 79 12 80 25 81 24 82 27 83 13 85 14 86 15 87
REMARK SMILES IDX 16 88 23 89 17 90 22 91 18 92 19 93 20 94 21 95
REMARK H PARENT 3 6 84 24 52 35 7 75 27 84
REMARK Flexibility Score: inf
ROOT
ATOM      1  C   UNL A   1      35.319  33.297  28.064  1.00  0.00     0.042 C 
ENDROOT
BRANCH   1   2
ATOM      2  C   UNL A   1      34.573  32.378  29.014  1.00  0.00     0.118 C 
BRANCH   2   3
ATOM      3  N   UNL A   1      34.001  31.219  28.339  1.00  0.00    -0.352 N 
ATOM      4  O   UNL A   1      33.971  29.296  27.167  1.00  0.00    -0.269 OA
ATOM      5  C   UNL A   1      34.597  30.067  27.891  1.00  0.00     0.251 C 
ATOM      6  H   UNL A   1      33.030  31.272  28.180  1.00  0.00     0.163 HD
BRANCH   5   7
ATOM      7  C   UNL A   1      35.995  29.755  28.258  1.00  0.00     0.039 A 
ATOM      8  C   UNL A   1      37.036  29.984  27.357  1.00  0.00     0.014 A 
ATOM      9  C   UNL A   1      36.276  29.262  29.536  1.00  0.00     0.014 A 
ATOM     10  C   UNL A   1      38.323  29.568  27.666  1.00  0.00     0.010 A 
ATOM     11  C   UNL A   1      37.593  28.949  29.889  1.00  0.00     0.010 A 
ATOM     12  C   UNL A   1      38.624  29.075  28.945  1.00  0.00    -0.014 A 
BRANCH  12  13
ATOM     13  C   UNL A   1      40.040  28.796  29.288  1.00  0.00     0.031 A 
ATOM     14  C   UNL A   1      40.831  29.716  30.173  1.00  0.00     0.074 A 
ATOM     15  C   UNL A   1      40.599  27.666  28.808  1.00  0.00     0.049 A 
ATOM     16  N   UNL A   1      42.070  29.601  30.580  1.00  0.00    -0.248 NA
ATOM     17  C   UNL A   1      40.151  30.926  30.661  1.00  0.00     0.031 C 
ATOM     18  C   UNL A   1      39.928  26.708  27.924  1.00  0.00     0.029 A 
ATOM     19  N   UNL A   1      41.840  27.118  29.007  1.00  0.00    -0.354 N 
ATOM     20  C   UNL A   1      42.326  30.726  31.350  1.00  0.00     0.074 A 
ATOM     21  C   UNL A   1      41.119  31.526  31.342  1.00  0.00     0.031 C 
ATOM     22  C   UNL A   1      40.744  25.669  27.699  1.00  0.00     0.029 A 
ATOM     23  C   UNL A   1      42.018  25.919  28.362  1.00  0.00     0.049 A 
ATOM     24  H   UNL A   1      42.535  27.543  29.560  1.00  0.00     0.167 HD
ATOM     25  C   UNL A   1      43.465  31.054  32.007  1.00  0.00     0.037 A 
ATOM     26  C   UNL A   1      43.095  25.118  28.290  1.00  0.00     0.037 A 
ATOM     27  C   UNL A   1      44.652  30.237  32.031  1.00  0.00     0.049 A 
ATOM     28  C   UNL A   1      44.345  25.518  29.020  1.00  0.00     0.074 A 
ATOM     29  C   UNL A   1      45.838  30.460  32.710  1.00  0.00     0.029 A 
ATOM     30  N   UNL A   1      44.805  29.043  31.343  1.00  0.00    -0.354 N 
ATOM     31  N   UNL A   1      44.557  26.565  29.777  1.00  0.00    -0.248 NA
ATOM     32  C   UNL A   1      45.504  24.630  28.879  1.00  0.00     0.031 C 
ATOM     33  C   UNL A   1      46.724  29.425  32.396  1.00  0.00     0.029 A 
ATOM     34  C   UNL A   1      46.075  28.531  31.560  1.00  0.00     0.049 A 
ATOM     35  H   UNL A   1      44.114  28.620  30.784  1.00  0.00     0.167 HD
ATOM     36  C   UNL A   1      45.869  26.458  30.215  1.00  0.00     0.074 A 
ATOM     37  C   UNL A   1      46.393  25.226  29.659  1.00  0.00     0.031 C 
ATOM     38  C   UNL A   1      46.578  27.304  30.998  1.00  0.00     0.037 A 
BRANCH  25  39
ATOM     39  C   UNL A   1      43.502  32.357  32.751  1.00  0.00     0.064 A 
ATOM     40  C   UNL A   1      43.803  33.566  32.109  1.00  0.00     0.173 A 
ATOM     41  C   UNL A   1      43.144  32.405  34.108  1.00  0.00     0.173 A 
ATOM     42  F   UNL A   1      44.159  33.573  30.816  1.00  0.00    -0.203 F 
ATOM     43  C   UNL A   1      43.753  34.776  32.799  1.00  0.00     0.198 A 
ATOM     44  C   UNL A   1      43.073  33.618  34.789  1.00  0.00     0.198 A 
ATOM     45  F   UNL A   1      42.841  31.277  34.768  1.00  0.00    -0.203 F 
ATOM     46  F   UNL A   1      44.069  35.917  32.172  1.00  0.00    -0.200 F 
ATOM     47  C   UNL A   1      43.379  34.801  34.134  1.00  0.00     0.200 A 
ATOM     48  F   UNL A   1      42.698  33.642  36.075  1.00  0.00    -0.200 F 
ATOM     49  F   UNL A   1      43.314  35.968  34.791  1.00  0.00    -0.200 F 
ENDBRANCH  25  39
BRANCH  26  50
ATOM     50  C   UNL A   1      43.043  23.873  27.480  1.00  0.00     0.064 A 
ATOM     51  C   UNL A   1      42.606  22.665  28.036  1.00  0.00     0.173 A 
ATOM     52  C   UNL A   1      43.429  23.870  26.131  1.00  0.00     0.173 A 
ATOM     53  F   UNL A   1      42.242  22.614  29.327  1.00  0.00    -0.203 F 
ATOM     54  C   UNL A   1      42.578  21.494  27.281  1.00  0.00     0.198 A 
ATOM     55  C   UNL A   1      43.369  22.707  25.368  1.00  0.00     0.198 A 
ATOM     56  F   UNL A   1      43.849  25.003  25.549  1.00  0.00    -0.203 F 
ATOM     57  F   UNL A   1      42.203  20.341  27.851  1.00  0.00    -0.200 F 
ATOM     58  C   UNL A   1      42.954  21.518  25.946  1.00  0.00     0.200 A 
ATOM     59  F   UNL A   1      43.716  22.740  24.074  1.00  0.00    -0.200 F 
ATOM     60  F   UNL A   1      42.923  20.393  25.219  1.00  0.00    -0.200 F 
ENDBRANCH  26  50
BRANCH  38  61
ATOM     61  C   UNL A   1      47.991  26.913  31.313  1.00  0.00     0.064 A 
ATOM     62  C   UNL A   1      49.070  27.390  30.554  1.00  0.00     0.173 A 
ATOM     63  C   UNL A   1      48.269  26.069  32.398  1.00  0.00     0.173 A 
ATOM     64  F   UNL A   1      48.851  28.185  29.496  1.00  0.00    -0.203 F 
ATOM     65  C   UNL A   1      50.375  27.011  30.852  1.00  0.00     0.198 A 
ATOM     66  C   UNL A   1      49.579  25.715  32.711  1.00  0.00     0.198 A 
ATOM     67  F   UNL A   1      47.273  25.590  33.156  1.00  0.00    -0.203 F 
ATOM     68  F   UNL A   1      51.386  27.436  30.081  1.00  0.00    -0.200 F 
ATOM     69  C   UNL A   1      50.629  26.180  31.933  1.00  0.00     0.200 A 
ATOM     70  F   UNL A   1      49.824  24.921  33.761  1.00  0.00    -0.200 F 
ATOM     71  F   UNL A   1      51.887  25.818  32.220  1.00  0.00    -0.200 F 
ENDBRANCH  38  61
ENDBRANCH  12  13
ENDBRANCH   5   7
ENDBRANCH   2   3
ENDBRANCH   1   2
BRANCH   1  72
ATOM     72  C   UNL A   1      35.310  34.751  28.502  1.00  0.00     0.118 C 
BRANCH  72  73
ATOM     73  N   UNL A   1      34.008  35.375  28.318  1.00  0.00    -0.352 N 
ATOM     74  C   UNL A   1      33.187  35.934  29.266  1.00  0.00     0.255 C 
ATOM     75  H   UNL A   1      33.673  35.398  27.393  1.00  0.00     0.163 HD
ATOM     76  O   UNL A   1      32.065  36.328  28.963  1.00  0.00    -0.269 OA
BRANCH  74  77
ATOM     77  C   UNL A   1      33.634  35.986  30.671  1.00  0.00     0.083 A 
ATOM     78  C   UNL A   1      34.295  34.862  31.180  1.00  0.00     0.046 A 
ATOM     79  C   UNL A   1      33.460  37.124  31.464  1.00  0.00     0.128 A 
ATOM     80  C   UNL A   1      34.846  34.895  32.461  1.00  0.00     0.064 A 
ATOM     81  C   UNL A   1      34.030  37.179  32.730  1.00  0.00     0.049 A 
ATOM     82  C   UNL A   1      34.742  36.077  33.210  1.00  0.00     0.032 A 
BRANCH  79  83
ATOM     83  O   UNL A   1      32.771  38.204  30.985  1.00  0.00    -0.507 OA
ATOM     84  H   UNL A   1      33.095  39.070  31.131  1.00  0.00     0.293 HD
ENDBRANCH  79  83
BRANCH  80  85
ATOM     85  N   UNL A   1      35.543  33.766  32.923  1.00  0.00    -0.256 NA
ATOM     86  C   UNL A   1      36.826  33.867  33.062  1.00  0.00     0.119 C 
BRANCH  86  87
ATOM     87  C   UNL A   1      37.657  32.751  33.551  1.00  0.00    -0.007 A 
ATOM     88  C   UNL A   1      37.292  31.447  33.197  1.00  0.00     0.017 A 
ATOM     89  C   UNL A   1      38.796  32.982  34.329  1.00  0.00     0.017 A 
ATOM     90  C   UNL A   1      38.074  30.368  33.611  1.00  0.00     0.086 A 
ATOM     91  C   UNL A   1      39.588  31.907  34.743  1.00  0.00     0.086 A 
ATOM     92  C   UNL A   1      39.226  30.601  34.377  1.00  0.00     0.269 A 
BRANCH  92  93
ATOM     93  N   UNL A   1      40.065  29.468  34.789  1.00  0.00     0.062 N 
ATOM     94  O   UNL A   1      40.356  29.377  35.990  1.00  0.00    -0.258 OA
ATOM     95  O   UNL A   1      40.427  28.671  33.914  1.00  0.00    -0.258 OA
ENDBRANCH  92  93
ENDBRANCH  86  87
ENDBRANCH  80  85
ENDBRANCH  74  77
ENDBRANCH  72  73
ENDBRANCH   1  72
TORSDOF 14
ENDMDL
MODEL 2
REMARK VINA RESULT:     -11.4      4.802      7.964
REMARK SMILES O=C(NCCCNC(=O)c1cc(/N=C/c2ccc([N+](=O)[O-])cc2)ccc1O)c1ccc(-c2c3nc(c(-c4c(F)c(F)c(F)c(F)c4F)c4ccc([nH]4)c(-c4c(F)c(F)c(F)c(F)c4F)c4nc(c(-c5c(F)c(F)c(F)c(F)c5F)c5ccc2[nH]5)C=C4)C=C3)cc1
REMARK SMILES IDX 5 1 4 2 3 3 1 4 2 5 28 7 29 8 90 9 30 10 89 11 31 12 32 13
REMARK SMILES IDX 33 14 83 15 34 16 88 17 82 18 84 19 35 20 87 21 81 22 80 23
REMARK SMILES IDX 36 25 68 26 48 27 67 28 49 29 52 30 66 31 85 32 50 33 51 34
REMARK SMILES IDX 65 36 86 37 53 38 37 39 38 40 46 41 39 42 40 43 44 44 47 45
REMARK SMILES IDX 41 46 42 47 45 48 43 49 69 50 70 51 78 52 71 53 72 54 76 55
REMARK SMILES IDX 79 56 73 57 74 58 77 59 75 60 54 61 55 62 63 63 56 64 57 65
REMARK SMILES IDX 61 66 64 67 58 68 59 69 62 70 60 71 6 72 7 73 8 74 9 76
REMARK SMILES IDX 10 77 11 78 26 79 12 80 25 81 24 82 27 83 13 85 14 86 15 87
REMARK SMILES IDX 16 88 23 89 17 90 22 91 18 92 19 93 20 94 21 95
REMARK H PARENT 3 6 84 24 52 35 7 75 27 84
REMARK Flexibility Score: inf
ROOT
ATOM      1  C   UNL A   1      31.373  31.697  26.654  1.00  0.00     0.042 C 
ENDROOT
BRANCH   1   2
ATOM      2  C   UNL A   1      32.673  32.455  26.859  1.00  0.00     0.118 C 
BRANCH   2   3
ATOM      3  N   UNL A   1      32.464  33.786  27.417  1.00  0.00    -0.352 N 
ATOM      4  O   UNL A   1      32.613  35.465  28.912  1.00  0.00    -0.269 OA
ATOM      5  C   UNL A   1      33.074  34.412  28.476  1.00  0.00     0.251 C 
ATOM      6  H   UNL A   1      31.775  34.321  26.961  1.00  0.00     0.163 HD
BRANCH   5   7
ATOM      7  C   UNL A   1      34.272  33.819  29.108  1.00  0.00     0.039 A 
ATOM      8  C   UNL A   1      34.156  32.732  29.974  1.00  0.00     0.014 A 
ATOM      9  C   UNL A   1      35.536  34.333  28.801  1.00  0.00     0.014 A 
ATOM     10  C   UNL A   1      35.272  32.269  30.658  1.00  0.00     0.010 A 
ATOM     11  C   UNL A   1      36.675  33.791  29.404  1.00  0.00     0.010 A 
ATOM     12  C   UNL A   1      36.548  32.771  30.359  1.00  0.00    -0.014 A 
BRANCH  12  13
ATOM     13  C   UNL A   1      37.731  32.137  30.993  1.00  0.00     0.031 A 
ATOM     14  C   UNL A   1      38.169  32.503  32.382  1.00  0.00     0.074 A 
ATOM     15  C   UNL A   1      38.392  31.190  30.297  1.00  0.00     0.049 A 
ATOM     16  N   UNL A   1      39.168  32.026  33.081  1.00  0.00    -0.248 NA
ATOM     17  C   UNL A   1      37.394  33.541  33.078  1.00  0.00     0.031 C 
ATOM     18  C   UNL A   1      38.065  30.768  28.932  1.00  0.00     0.029 A 
ATOM     19  N   UNL A   1      39.457  30.397  30.640  1.00  0.00    -0.354 N 
ATOM     20  C   UNL A   1      39.157  32.716  34.284  1.00  0.00     0.074 A 
ATOM     21  C   UNL A   1      38.062  33.660  34.219  1.00  0.00     0.031 C 
ATOM     22  C   UNL A   1      38.875  29.762  28.573  1.00  0.00     0.029 A 
ATOM     23  C   UNL A   1      39.823  29.516  29.652  1.00  0.00     0.049 A 
ATOM     24  H   UNL A   1      39.914  30.453  31.510  1.00  0.00     0.167 HD
ATOM     25  C   UNL A   1      39.985  32.566  35.346  1.00  0.00     0.037 A 
ATOM     26  C   UNL A   1      40.828  28.624  29.607  1.00  0.00     0.037 A 
ATOM     27  C   UNL A   1      41.056  31.603  35.411  1.00  0.00     0.049 A 
ATOM     28  C   UNL A   1      41.734  28.492  30.797  1.00  0.00     0.074 A 
ATOM     29  C   UNL A   1      41.916  31.341  36.465  1.00  0.00     0.029 A 
ATOM     30  N   UNL A   1      41.415  30.747  34.381  1.00  0.00    -0.354 N 
ATOM     31  N   UNL A   1      41.685  29.124  31.944  1.00  0.00    -0.248 NA
ATOM     32  C   UNL A   1      42.837  27.531  30.684  1.00  0.00     0.031 C 
ATOM     33  C   UNL A   1      42.825  30.360  36.055  1.00  0.00     0.029 A 
ATOM     34  C   UNL A   1      42.501  29.975  34.765  1.00  0.00     0.049 A 
ATOM     35  H   UNL A   1      40.965  30.695  33.507  1.00  0.00     0.167 HD
ATOM     36  C   UNL A   1      42.741  28.629  32.695  1.00  0.00     0.074 A 
ATOM     37  C   UNL A   1      43.395  27.624  31.882  1.00  0.00     0.031 C 
ATOM     38  C   UNL A   1      43.138  28.980  33.941  1.00  0.00     0.037 A 
BRANCH  25  39
ATOM     39  C   UNL A   1      39.785  33.466  36.531  1.00  0.00     0.064 A 
ATOM     40  C   UNL A   1      40.378  34.734  36.602  1.00  0.00     0.173 A 
ATOM     41  C   UNL A   1      38.917  33.087  37.567  1.00  0.00     0.173 A 
ATOM     42  F   UNL A   1      41.222  35.140  35.643  1.00  0.00    -0.203 F 
ATOM     43  C   UNL A   1      40.116  35.588  37.673  1.00  0.00     0.198 A 
ATOM     44  C   UNL A   1      38.639  33.951  38.623  1.00  0.00     0.198 A 
ATOM     45  F   UNL A   1      38.319  31.886  37.543  1.00  0.00    -0.203 F 
ATOM     46  F   UNL A   1      40.712  36.786  37.734  1.00  0.00    -0.200 F 
ATOM     47  C   UNL A   1      39.240  35.199  38.676  1.00  0.00     0.200 A 
ATOM     48  F   UNL A   1      37.783  33.580  39.584  1.00  0.00    -0.200 F 
ATOM     49  F   UNL A   1      38.976  36.029  39.695  1.00  0.00    -0.200 F 
ENDBRANCH  25  39
BRANCH  26  50
ATOM     50  C   UNL A   1      41.038  27.804  28.386  1.00  0.00     0.064 A 
ATOM     51  C   UNL A   1      40.431  26.550  28.240  1.00  0.00     0.173 A 
ATOM     52  C   UNL A   1      41.853  28.261  27.339  1.00  0.00     0.173 A 
ATOM     53  F   UNL A   1      39.657  26.063  29.222  1.00  0.00    -0.203 F 
ATOM     54  C   UNL A   1      40.648  25.774  27.104  1.00  0.00     0.198 A 
ATOM     55  C   UNL A   1      42.042  27.499  26.189  1.00  0.00     0.198 A 
ATOM     56  F   UNL A   1      42.453  29.457  27.426  1.00  0.00    -0.203 F 
ATOM     57  F   UNL A   1      40.095  24.557  27.011  1.00  0.00    -0.200 F 
ATOM     58  C   UNL A   1      41.449  26.252  26.077  1.00  0.00     0.200 A 
ATOM     59  F   UNL A   1      42.803  27.974  25.192  1.00  0.00    -0.200 F 
ATOM     60  F   UNL A   1      41.653  25.507  24.982  1.00  0.00    -0.200 F 
ENDBRANCH  26  50
BRANCH  38  61
ATOM     61  C   UNL A   1      44.324  28.256  34.503  1.00  0.00     0.064 A 
ATOM     62  C   UNL A   1      45.627  28.751  34.345  1.00  0.00     0.173 A 
ATOM     63  C   UNL A   1      44.154  27.065  35.224  1.00  0.00     0.173 A 
ATOM     64  F   UNL A   1      45.842  29.877  33.648  1.00  0.00    -0.203 F 
ATOM     65  C   UNL A   1      46.720  28.064  34.864  1.00  0.00     0.198 A 
ATOM     66  C   UNL A   1      45.246  26.395  35.766  1.00  0.00     0.198 A 
ATOM     67  F   UNL A   1      42.928  26.554  35.405  1.00  0.00    -0.203 F 
ATOM     68  F   UNL A   1      47.961  28.526  34.656  1.00  0.00    -0.200 F 
ATOM     69  C   UNL A   1      46.528  26.890  35.579  1.00  0.00     0.200 A 
ATOM     70  F   UNL A   1      45.060  25.268  36.466  1.00  0.00    -0.200 F 
ATOM     71  F   UNL A   1      47.582  26.231  36.080  1.00  0.00    -0.200 F 
ENDBRANCH  38  61
ENDBRANCH  12  13
ENDBRANCH   5   7
ENDBRANCH   2   3
ENDBRANCH   1   2
BRANCH   1  72
ATOM     72  C   UNL A   1      31.579  30.245  26.262  1.00  0.00     0.118 C 
BRANCH  72  73
ATOM     73  N   UNL A   1      32.614  30.088  25.250  1.00  0.00    -0.352 N 
ATOM     74  C   UNL A   1      32.597  29.300  24.125  1.00  0.00     0.255 C 
ATOM     75  H   UNL A   1      33.432  30.616  25.391  1.00  0.00     0.163 HD
ATOM     76  O   UNL A   1      33.598  29.199  23.422  1.00  0.00    -0.269 OA
BRANCH  74  77
ATOM     77  C   UNL A   1      31.390  28.514  23.811  1.00  0.00     0.083 A 
ATOM     78  C   UNL A   1      31.462  27.125  23.973  1.00  0.00     0.046 A 
ATOM     79  C   UNL A   1      30.192  29.118  23.415  1.00  0.00     0.128 A 
ATOM     80  C   UNL A   1      30.321  26.341  23.808  1.00  0.00     0.064 A 
ATOM     81  C   UNL A   1      29.042  28.350  23.275  1.00  0.00     0.049 A 
ATOM     82  C   UNL A   1      29.107  26.973  23.498  1.00  0.00     0.032 A 
BRANCH  79  83
ATOM     83  O   UNL A   1      30.134  30.469  23.206  1.00  0.00    -0.507 OA
ATOM     84  H   UNL A   1      29.633  31.010  23.784  1.00  0.00     0.293 HD
ENDBRANCH  79  83
BRANCH  80  85
ATOM     85  N   UNL A   1      30.419  24.956  24.024  1.00  0.00    -0.256 NA
ATOM     86  C   UNL A   1      31.560  24.390  23.794  1.00  0.00     0.119 C 
BRANCH  86  87
ATOM     87  C   UNL A   1      31.781  22.946  23.998  1.00  0.00    -0.007 A 
ATOM     88  C   UNL A   1      32.001  22.144  22.872  1.00  0.00     0.017 A 
ATOM     89  C   UNL A   1      31.796  22.390  25.281  1.00  0.00     0.017 A 
ATOM     90  C   UNL A   1      32.250  20.779  23.028  1.00  0.00     0.086 A 
ATOM     91  C   UNL A   1      32.050  21.025  25.445  1.00  0.00     0.086 A 
ATOM     92  C   UNL A   1      32.282  20.224  24.317  1.00  0.00     0.269 A 
BRANCH  92  93
ATOM     93  N   UNL A   1      32.571  18.794  24.482  1.00  0.00     0.062 N 
ATOM     94  O   UNL A   1      32.338  18.286  25.588  1.00  0.00    -0.258 OA
ATOM     95  O   UNL A   1      33.026  18.181  23.508  1.00  0.00    -0.258 OA
ENDBRANCH  92  93
ENDBRANCH  86  87
ENDBRANCH  80  85
ENDBRANCH  74  77
ENDBRANCH  72  73
ENDBRANCH   1  72
TORSDOF 14
ENDMDL
MODEL 3
REMARK VINA RESULT:     -11.4      4.379      7.948
REMARK SMILES O=C(NCCCNC(=O)c1cc(/N=C/c2ccc([N+](=O)[O-])cc2)ccc1O)c1ccc(-c2c3nc(c(-c4c(F)c(F)c(F)c(F)c4F)c4ccc([nH]4)c(-c4c(F)c(F)c(F)c(F)c4F)c4nc(c(-c5c(F)c(F)c(F)c(F)c5F)c5ccc2[nH]5)C=C4)C=C3)cc1
REMARK SMILES IDX 5 1 4 2 3 3 1 4 2 5 28 7 29 8 90 9 30 10 89 11 31 12 32 13
REMARK SMILES IDX 33 14 83 15 34 16 88 17 82 18 84 19 35 20 87 21 81 22 80 23
REMARK SMILES IDX 36 25 68 26 48 27 67 28 49 29 52 30 66 31 85 32 50 33 51 34
REMARK SMILES IDX 65 36 86 37 53 38 37 39 38 40 46 41 39 42 40 43 44 44 47 45
REMARK SMILES IDX 41 46 42 47 45 48 43 49 69 50 70 51 78 52 71 53 72 54 76 55
REMARK SMILES IDX 79 56 73 57 74 58 77 59 75 60 54 61 55 62 63 63 56 64 57 65
REMARK SMILES IDX 61 66 64 67 58 68 59 69 62 70 60 71 6 72 7 73 8 74 9 76
REMARK SMILES IDX 10 77 11 78 26 79 12 80 25 81 24 82 27 83 13 85 14 86 15 87
REMARK SMILES IDX 16 88 23 89 17 90 22 91 18 92 19 93 20 94 21 95
REMARK H PARENT 3 6 84 24 52 35 7 75 27 84
REMARK Flexibility Score: inf
ROOT
ATOM      1  C   UNL A   1      32.034  27.795  26.116  1.00  0.00     0.042 C 
ENDROOT
BRANCH   1   2
ATOM      2  C   UNL A   1      33.108  28.793  25.722  1.00  0.00     0.118 C 
BRANCH   2   3
ATOM      3  N   UNL A   1      32.700  30.175  25.952  1.00  0.00    -0.352 N 
ATOM      4  O   UNL A   1      32.557  32.154  27.019  1.00  0.00    -0.269 OA
ATOM      5  C   UNL A   1      33.172  31.104  26.847  1.00  0.00     0.251 C 
ATOM      6  H   UNL A   1      31.970  30.492  25.372  1.00  0.00     0.163 HD
BRANCH   5   7
ATOM      7  C   UNL A   1      34.405  30.841  27.619  1.00  0.00     0.039 A 
ATOM      8  C   UNL A   1      34.680  29.565  28.110  1.00  0.00     0.014 A 
ATOM      9  C   UNL A   1      35.320  31.878  27.825  1.00  0.00     0.014 A 
ATOM     10  C   UNL A   1      35.774  29.362  28.940  1.00  0.00     0.010 A 
ATOM     11  C   UNL A   1      36.483  31.646  28.567  1.00  0.00     0.010 A 
ATOM     12  C   UNL A   1      36.705  30.391  29.153  1.00  0.00    -0.014 A 
BRANCH  12  13
ATOM     13  C   UNL A   1      37.943  30.087  29.912  1.00  0.00     0.031 A 
ATOM     14  C   UNL A   1      38.146  30.581  31.316  1.00  0.00     0.074 A 
ATOM     15  C   UNL A   1      38.880  29.321  29.318  1.00  0.00     0.049 A 
ATOM     16  N   UNL A   1      39.163  30.385  32.117  1.00  0.00    -0.248 NA
ATOM     17  C   UNL A   1      37.077  31.408  31.897  1.00  0.00     0.031 C 
ATOM     18  C   UNL A   1      38.795  28.801  27.950  1.00  0.00     0.029 A 
ATOM     19  N   UNL A   1      40.071  28.827  29.785  1.00  0.00    -0.354 N 
ATOM     20  C   UNL A   1      38.869  31.077  33.284  1.00  0.00     0.074 A 
ATOM     21  C   UNL A   1      37.586  31.716  33.084  1.00  0.00     0.031 C 
ATOM     22  C   UNL A   1      39.859  28.022  27.707  1.00  0.00     0.029 A 
ATOM     23  C   UNL A   1      40.734  28.044  28.872  1.00  0.00     0.049 A 
ATOM     24  H   UNL A   1      40.417  29.015  30.688  1.00  0.00     0.167 HD
ATOM     25  C   UNL A   1      39.606  31.163  34.418  1.00  0.00     0.037 A 
ATOM     26  C   UNL A   1      41.927  27.431  28.952  1.00  0.00     0.037 A 
ATOM     27  C   UNL A   1      40.870  30.500  34.616  1.00  0.00     0.049 A 
ATOM     28  C   UNL A   1      42.723  27.557  30.219  1.00  0.00     0.074 A 
ATOM     29  C   UNL A   1      41.667  30.485  35.749  1.00  0.00     0.029 A 
ATOM     30  N   UNL A   1      41.524  29.738  33.659  1.00  0.00    -0.354 N 
ATOM     31  N   UNL A   1      42.413  28.181  31.328  1.00  0.00    -0.248 NA
ATOM     32  C   UNL A   1      44.035  26.900  30.243  1.00  0.00     0.031 C 
ATOM     33  C   UNL A   1      42.824  29.754  35.462  1.00  0.00     0.029 A 
ATOM     34  C   UNL A   1      42.727  29.272  34.167  1.00  0.00     0.049 A 
ATOM     35  H   UNL A   1      41.184  29.556  32.754  1.00  0.00     0.167 HD
ATOM     36  C   UNL A   1      43.484  27.983  32.187  1.00  0.00     0.074 A 
ATOM     37  C   UNL A   1      44.439  27.156  31.478  1.00  0.00     0.031 C 
ATOM     38  C   UNL A   1      43.664  28.450  33.446  1.00  0.00     0.037 A 
BRANCH  25  39
ATOM     39  C   UNL A   1      39.080  32.010  35.540  1.00  0.00     0.064 A 
ATOM     40  C   UNL A   1      38.294  31.470  36.567  1.00  0.00     0.173 A 
ATOM     41  C   UNL A   1      39.445  33.363  35.633  1.00  0.00     0.173 A 
ATOM     42  F   UNL A   1      37.912  30.185  36.521  1.00  0.00    -0.203 F 
ATOM     43  C   UNL A   1      37.883  32.255  37.643  1.00  0.00     0.198 A 
ATOM     44  C   UNL A   1      39.052  34.139  36.721  1.00  0.00     0.198 A 
ATOM     45  F   UNL A   1      40.201  33.927  34.679  1.00  0.00    -0.203 F 
ATOM     46  F   UNL A   1      37.112  31.725  38.601  1.00  0.00    -0.200 F 
ATOM     47  C   UNL A   1      38.271  33.585  37.723  1.00  0.00     0.200 A 
ATOM     48  F   UNL A   1      39.438  35.419  36.803  1.00  0.00    -0.200 F 
ATOM     49  F   UNL A   1      37.890  34.333  38.768  1.00  0.00    -0.200 F 
ENDBRANCH  25  39
BRANCH  26  50
ATOM     50  C   UNL A   1      42.447  26.663  27.791  1.00  0.00     0.064 A 
ATOM     51  C   UNL A   1      43.212  27.283  26.795  1.00  0.00     0.173 A 
ATOM     52  C   UNL A   1      42.188  25.290  27.656  1.00  0.00     0.173 A 
ATOM     53  F   UNL A   1      43.471  28.597  26.871  1.00  0.00    -0.203 F 
ATOM     54  C   UNL A   1      43.679  26.566  25.696  1.00  0.00     0.198 A 
ATOM     55  C   UNL A   1      42.684  24.567  26.575  1.00  0.00     0.198 A 
ATOM     56  F   UNL A   1      41.467  24.648  28.586  1.00  0.00    -0.203 F 
ATOM     57  F   UNL A   1      44.366  27.194  24.732  1.00  0.00    -0.200 F 
ATOM     58  C   UNL A   1      43.419  25.207  25.590  1.00  0.00     0.200 A 
ATOM     59  F   UNL A   1      42.446  23.251  26.487  1.00  0.00    -0.200 F 
ATOM     60  F   UNL A   1      43.873  24.517  24.535  1.00  0.00    -0.200 F 
ENDBRANCH  26  50
BRANCH  38  61
ATOM     61  C   UNL A   1      44.935  28.058  34.138  1.00  0.00     0.064 A 
ATOM     62  C   UNL A   1      46.076  28.873  34.092  1.00  0.00     0.173 A 
ATOM     63  C   UNL A   1      45.006  26.865  34.871  1.00  0.00     0.173 A 
ATOM     64  F   UNL A   1      46.061  30.014  33.388  1.00  0.00    -0.203 F 
ATOM     65  C   UNL A   1      47.252  28.492  34.732  1.00  0.00     0.198 A 
ATOM     66  C   UNL A   1      46.174  26.501  35.534  1.00  0.00     0.198 A 
ATOM     67  F   UNL A   1      43.941  26.054  34.949  1.00  0.00    -0.203 F 
ATOM     68  F   UNL A   1      48.346  29.260  34.630  1.00  0.00    -0.200 F 
ATOM     69  C   UNL A   1      47.298  27.310  35.456  1.00  0.00     0.200 A 
ATOM     70  F   UNL A   1      46.216  25.365  36.243  1.00  0.00    -0.200 F 
ATOM     71  F   UNL A   1      48.431  26.947  36.073  1.00  0.00    -0.200 F 
ENDBRANCH  38  61
ENDBRANCH  12  13
ENDBRANCH   5   7
ENDBRANCH   2   3
ENDBRANCH   1   2
BRANCH   1  72
ATOM     72  C   UNL A   1      32.522  26.357  26.123  1.00  0.00     0.118 C 
BRANCH  72  73
ATOM     73  N   UNL A   1      31.615  25.470  26.835  1.00  0.00    -0.352 N 
ATOM     74  C   UNL A   1      31.306  24.160  26.556  1.00  0.00     0.255 C 
ATOM     75  H   UNL A   1      31.163  25.858  27.618  1.00  0.00     0.163 HD
ATOM     76  O   UNL A   1      30.436  23.577  27.195  1.00  0.00    -0.269 OA
BRANCH  74  77
ATOM     77  C   UNL A   1      31.976  23.484  25.429  1.00  0.00     0.083 A 
ATOM     78  C   UNL A   1      33.182  22.826  25.695  1.00  0.00     0.046 A 
ATOM     79  C   UNL A   1      31.417  23.446  24.148  1.00  0.00     0.128 A 
ATOM     80  C   UNL A   1      33.800  22.069  24.700  1.00  0.00     0.064 A 
ATOM     81  C   UNL A   1      32.009  22.672  23.157  1.00  0.00     0.049 A 
ATOM     82  C   UNL A   1      33.180  21.968  23.445  1.00  0.00     0.032 A 
BRANCH  79  83
ATOM     83  O   UNL A   1      30.265  24.131  23.874  1.00  0.00    -0.507 OA
ATOM     84  H   UNL A   1      30.268  25.067  23.862  1.00  0.00     0.293 HD
ENDBRANCH  79  83
BRANCH  80  85
ATOM     85  N   UNL A   1      34.986  21.384  25.014  1.00  0.00    -0.256 NA
ATOM     86  C   UNL A   1      36.101  22.032  24.911  1.00  0.00     0.119 C 
BRANCH  86  87
ATOM     87  C   UNL A   1      37.405  21.417  25.227  1.00  0.00    -0.007 A 
ATOM     88  C   UNL A   1      38.381  22.211  25.838  1.00  0.00     0.017 A 
ATOM     89  C   UNL A   1      37.656  20.070  24.949  1.00  0.00     0.017 A 
ATOM     90  C   UNL A   1      39.614  21.656  26.185  1.00  0.00     0.086 A 
ATOM     91  C   UNL A   1      38.887  19.505  25.298  1.00  0.00     0.086 A 
ATOM     92  C   UNL A   1      39.861  20.300  25.921  1.00  0.00     0.269 A 
BRANCH  92  93
ATOM     93  N   UNL A   1      41.147  19.708  26.310  1.00  0.00     0.062 N 
ATOM     94  O   UNL A   1      41.472  19.777  27.504  1.00  0.00    -0.258 OA
ATOM     95  O   UNL A   1      41.828  19.174  25.425  1.00  0.00    -0.258 OA
ENDBRANCH  92  93
ENDBRANCH  86  87
ENDBRANCH  80  85
ENDBRANCH  74  77
ENDBRANCH  72  73
ENDBRANCH   1  72
TORSDOF 14
ENDMDL
