MODEL 1
REMARK VINA RESULT:     -11.8      0.000      0.000
REMARK SMILES CCCN(c1cccc(Cl)c1/C=C/C(=O)NCCCNC(=O)c1ccc(-c2c3nc(c(-c4c(F)c(F)c(F)c(F)c4F)c4ccc([nH]4)c(-c4c(F)c(F)c(F)c(F)c4F)c4nc(c(-c5c(F)c(F)c(F)c(F)c5F)c5ccc2[nH]5)C=C4)C=C3)cc1)C1CC1
REMARK SMILES IDX 17 1 16 2 14 3 15 4 13 6 12 7 11 8 5 9 6 10 7 11 9 12 8 13
REMARK SMILES IDX 10 14 4 15 3 16 2 17 1 18 86 19 87 20 88 21 18 22 19 23
REMARK SMILES IDX 20 24 21 25 22 27 23 28 24 29 85 30 25 31 84 32 26 33 27 34
REMARK SMILES IDX 28 35 78 36 29 37 83 38 77 39 79 40 30 41 82 42 76 43 75 44
REMARK SMILES IDX 31 46 63 47 43 48 62 49 44 50 47 51 61 52 80 53 45 54 46 55
REMARK SMILES IDX 60 57 81 58 48 59 32 60 33 61 41 62 34 63 35 64 39 65 42 66
REMARK SMILES IDX 36 67 37 68 40 69 38 70 64 71 65 72 73 73 66 74 67 75 71 76
REMARK SMILES IDX 74 77 68 78 69 79 72 80 70 81 49 82 50 83 58 84 51 85 52 86
REMARK SMILES IDX 56 87 59 88 53 89 54 90 57 91 55 92
REMARK H PARENT 16 5 20 26 79 45 47 56
REMARK Flexibility Score: inf
ROOT
ATOM      1  C   UNL A   1      32.424  27.534  23.002  1.00  0.00     0.118 C 
ENDROOT
BRANCH   1   2
ATOM      2  N   UNL A   1      32.785  26.921  21.737  1.00  0.00    -0.352 N 
ATOM      3  C   UNL A   1      32.917  25.607  21.420  1.00  0.00     0.244 C 
ATOM      4  O   UNL A   1      33.043  25.269  20.246  1.00  0.00    -0.270 OA
ATOM      5  H   UNL A   1      32.964  27.551  21.001  1.00  0.00     0.163 HD
BRANCH   3   6
ATOM      6  C   UNL A   1      32.850  24.586  22.482  1.00  0.00     0.072 C 
ATOM      7  C   UNL A   1      33.523  23.431  22.385  1.00  0.00     0.017 C 
BRANCH   7   8
ATOM      8  C   UNL A   1      33.402  22.361  23.388  1.00  0.00     0.017 A 
ATOM      9  C   UNL A   1      34.062  22.446  24.643  1.00  0.00     0.046 A 
ATOM     10  C   UNL A   1      33.882  21.387  25.557  1.00  0.00     0.026 A 
ATOM     11  C   UNL A   1      33.104  20.268  25.251  1.00  0.00     0.004 A 
ATOM     12  C   UNL A   1      32.607  21.228  23.100  1.00  0.00     0.050 A 
ATOM     13  C   UNL A   1      32.467  20.188  24.022  1.00  0.00     0.021 A 
ATOM     14  Cl  UNL A   1      31.745  21.057  21.604  1.00  0.00    -0.084 Cl
BRANCH   9  15
ATOM     15  N   UNL A   1      34.793  23.602  25.034  1.00  0.00    -0.368 N 
BRANCH  15  16
ATOM     16  C   UNL A   1      36.260  23.566  24.903  1.00  0.00     0.116 C 
BRANCH  16  17
ATOM     17  C   UNL A   1      36.962  23.583  26.264  1.00  0.00     0.018 C 
ATOM     18  C   UNL A   1      38.378  24.134  26.212  1.00  0.00     0.006 C 
ENDBRANCH  16  17
ENDBRANCH  15  16
BRANCH  15  19
ATOM     19  C   UNL A   1      34.197  24.429  26.110  1.00  0.00     0.082 C 
ATOM     20  C   UNL A   1      33.818  25.878  25.958  1.00  0.00     0.027 C 
ATOM     21  C   UNL A   1      32.748  24.840  26.072  1.00  0.00     0.027 C 
ENDBRANCH  15  19
ENDBRANCH   9  15
ENDBRANCH   7   8
ENDBRANCH   3   6
ENDBRANCH   1   2
BRANCH   1  22
ATOM     22  C   UNL A   1      33.185  28.832  23.251  1.00  0.00     0.042 C 
BRANCH  22  23
ATOM     23  C   UNL A   1      33.605  29.026  24.706  1.00  0.00     0.118 C 
BRANCH  23  24
ATOM     24  N   UNL A   1      32.908  30.139  25.339  1.00  0.00    -0.352 N 
ATOM     25  C   UNL A   1      33.120  30.743  26.551  1.00  0.00     0.251 C 
ATOM     26  H   UNL A   1      32.167  30.516  24.813  1.00  0.00     0.163 HD
ATOM     27  O   UNL A   1      32.264  31.483  27.024  1.00  0.00    -0.269 OA
BRANCH  25  28
ATOM     28  C   UNL A   1      34.378  30.513  27.288  1.00  0.00     0.039 A 
ATOM     29  C   UNL A   1      35.203  31.602  27.582  1.00  0.00     0.014 A 
ATOM     30  C   UNL A   1      34.771  29.219  27.640  1.00  0.00     0.014 A 
ATOM     31  C   UNL A   1      36.394  31.400  28.282  1.00  0.00     0.010 A 
ATOM     32  C   UNL A   1      35.920  29.026  28.398  1.00  0.00     0.010 A 
ATOM     33  C   UNL A   1      36.746  30.114  28.721  1.00  0.00    -0.014 A 
BRANCH  33  34
ATOM     34  C   UNL A   1      37.977  29.874  29.512  1.00  0.00     0.031 A 
ATOM     35  C   UNL A   1      39.031  28.936  28.995  1.00  0.00     0.074 A 
ATOM     36  C   UNL A   1      38.105  30.437  30.728  1.00  0.00     0.049 A 
ATOM     37  N   UNL A   1      40.119  28.506  29.581  1.00  0.00    -0.248 NA
ATOM     38  C   UNL A   1      38.816  28.383  27.647  1.00  0.00     0.031 C 
ATOM     39  C   UNL A   1      37.129  31.332  31.352  1.00  0.00     0.029 A 
ATOM     40  N   UNL A   1      39.101  30.327  31.663  1.00  0.00    -0.354 N 
ATOM     41  C   UNL A   1      40.705  27.620  28.686  1.00  0.00     0.074 A 
ATOM     42  C   UNL A   1      39.829  27.536  27.538  1.00  0.00     0.031 C 
ATOM     43  C   UNL A   1      37.583  31.703  32.560  1.00  0.00     0.029 A 
ATOM     44  C   UNL A   1      38.860  31.043  32.810  1.00  0.00     0.049 A 
ATOM     45  H   UNL A   1      39.913  29.786  31.527  1.00  0.00     0.167 HD
ATOM     46  C   UNL A   1      41.878  26.954  28.807  1.00  0.00     0.037 A 
ATOM     47  C   UNL A   1      39.586  31.146  33.940  1.00  0.00     0.037 A 
ATOM     48  C   UNL A   1      42.759  27.067  29.939  1.00  0.00     0.049 A 
ATOM     49  C   UNL A   1      40.885  30.396  34.046  1.00  0.00     0.074 A 
ATOM     50  C   UNL A   1      43.997  26.481  30.132  1.00  0.00     0.029 A 
ATOM     51  N   UNL A   1      42.491  27.823  31.071  1.00  0.00    -0.354 N 
ATOM     52  N   UNL A   1      41.456  29.603  33.173  1.00  0.00    -0.248 NA
ATOM     53  C   UNL A   1      41.641  30.557  35.296  1.00  0.00     0.031 C 
ATOM     54  C   UNL A   1      44.462  26.852  31.398  1.00  0.00     0.029 A 
ATOM     55  C   UNL A   1      43.535  27.704  31.974  1.00  0.00     0.049 A 
ATOM     56  H   UNL A   1      41.681  28.363  31.212  1.00  0.00     0.167 HD
ATOM     57  C   UNL A   1      42.649  29.193  33.753  1.00  0.00     0.074 A 
ATOM     58  C   UNL A   1      42.725  29.834  35.049  1.00  0.00     0.031 C 
ATOM     59  C   UNL A   1      43.596  28.360  33.256  1.00  0.00     0.037 A 
BRANCH  46  60
ATOM     60  C   UNL A   1      42.280  26.048  27.679  1.00  0.00     0.064 A 
ATOM     61  C   UNL A   1      43.184  26.465  26.689  1.00  0.00     0.173 A 
ATOM     62  C   UNL A   1      41.784  24.738  27.605  1.00  0.00     0.173 A 
ATOM     63  F   UNL A   1      43.679  27.712  26.708  1.00  0.00    -0.203 F 
ATOM     64  C   UNL A   1      43.555  25.612  25.652  1.00  0.00     0.198 A 
ATOM     65  C   UNL A   1      42.179  23.879  26.582  1.00  0.00     0.198 A 
ATOM     66  F   UNL A   1      40.922  24.287  28.528  1.00  0.00    -0.203 F 
ATOM     67  F   UNL A   1      44.381  26.048  24.693  1.00  0.00    -0.200 F 
ATOM     68  C   UNL A   1      43.057  24.319  25.603  1.00  0.00     0.200 A 
ATOM     69  F   UNL A   1      41.709  22.625  26.544  1.00  0.00    -0.200 F 
ATOM     70  F   UNL A   1      43.420  23.497  24.609  1.00  0.00    -0.200 F 
ENDBRANCH  46  60
BRANCH  47  71
ATOM     71  C   UNL A   1      39.113  32.015  35.047  1.00  0.00     0.064 A 
ATOM     72  C   UNL A   1      39.371  33.392  35.036  1.00  0.00     0.173 A 
ATOM     73  C   UNL A   1      38.394  31.495  36.133  1.00  0.00     0.173 A 
ATOM     74  F   UNL A   1      40.072  33.933  34.029  1.00  0.00    -0.203 F 
ATOM     75  C   UNL A   1      38.944  34.214  36.077  1.00  0.00     0.198 A 
ATOM     76  C   UNL A   1      37.945  32.321  37.161  1.00  0.00     0.198 A 
ATOM     77  F   UNL A   1      38.116  30.184  36.189  1.00  0.00    -0.203 F 
ATOM     78  F   UNL A   1      39.241  35.521  36.061  1.00  0.00    -0.200 F 
ATOM     79  C   UNL A   1      38.226  33.679  37.136  1.00  0.00     0.200 A 
ATOM     80  F   UNL A   1      37.239  31.802  38.175  1.00  0.00    -0.200 F 
ATOM     81  F   UNL A   1      37.812  34.469  38.134  1.00  0.00    -0.200 F 
ENDBRANCH  47  71
BRANCH  59  82
ATOM     82  C   UNL A   1      44.811  28.121  34.102  1.00  0.00     0.064 A 
ATOM     83  C   UNL A   1      45.878  29.029  34.128  1.00  0.00     0.173 A 
ATOM     84  C   UNL A   1      44.886  26.990  34.929  1.00  0.00     0.173 A 
ATOM     85  F   UNL A   1      45.858  30.116  33.342  1.00  0.00    -0.203 F 
ATOM     86  C   UNL A   1      46.987  28.805  34.939  1.00  0.00     0.198 A 
ATOM     87  C   UNL A   1      45.984  26.783  35.759  1.00  0.00     0.198 A 
ATOM     88  F   UNL A   1      43.888  26.094  34.943  1.00  0.00    -0.203 F 
ATOM     89  F   UNL A   1      48.015  29.664  34.918  1.00  0.00    -0.200 F 
ATOM     90  C   UNL A   1      47.035  27.687  35.759  1.00  0.00     0.200 A 
ATOM     91  F   UNL A   1      46.024  25.709  36.560  1.00  0.00    -0.200 F 
ATOM     92  F   UNL A   1      48.101  27.477  36.545  1.00  0.00    -0.200 F 
ENDBRANCH  59  82
ENDBRANCH  33  34
ENDBRANCH  25  28
ENDBRANCH  23  24
ENDBRANCH  22  23
ENDBRANCH   1  22
TORSDOF 15
ENDMDL
MODEL 2
REMARK VINA RESULT:     -11.7      4.715      9.632
REMARK SMILES CCCN(c1cccc(Cl)c1/C=C/C(=O)NCCCNC(=O)c1ccc(-c2c3nc(c(-c4c(F)c(F)c(F)c(F)c4F)c4ccc([nH]4)c(-c4c(F)c(F)c(F)c(F)c4F)c4nc(c(-c5c(F)c(F)c(F)c(F)c5F)c5ccc2[nH]5)C=C4)C=C3)cc1)C1CC1
REMARK SMILES IDX 17 1 16 2 14 3 15 4 13 6 12 7 11 8 5 9 6 10 7 11 9 12 8 13
REMARK SMILES IDX 10 14 4 15 3 16 2 17 1 18 86 19 87 20 88 21 18 22 19 23
REMARK SMILES IDX 20 24 21 25 22 27 23 28 24 29 85 30 25 31 84 32 26 33 27 34
REMARK SMILES IDX 28 35 78 36 29 37 83 38 77 39 79 40 30 41 82 42 76 43 75 44
REMARK SMILES IDX 31 46 63 47 43 48 62 49 44 50 47 51 61 52 80 53 45 54 46 55
REMARK SMILES IDX 60 57 81 58 48 59 32 60 33 61 41 62 34 63 35 64 39 65 42 66
REMARK SMILES IDX 36 67 37 68 40 69 38 70 64 71 65 72 73 73 66 74 67 75 71 76
REMARK SMILES IDX 74 77 68 78 69 79 72 80 70 81 49 82 50 83 58 84 51 85 52 86
REMARK SMILES IDX 56 87 59 88 53 89 54 90 57 91 55 92
REMARK H PARENT 16 5 20 26 79 45 47 56
REMARK Flexibility Score: inf
ROOT
ATOM      1  C   UNL A   1      37.170  20.744  24.623  1.00  0.00     0.118 C 
ENDROOT
BRANCH   1   2
ATOM      2  N   UNL A   1      37.712  22.055  24.930  1.00  0.00    -0.352 N 
ATOM      3  C   UNL A   1      37.069  23.187  25.319  1.00  0.00     0.244 C 
ATOM      4  O   UNL A   1      37.714  24.152  25.720  1.00  0.00    -0.270 OA
ATOM      5  H   UNL A   1      38.690  22.137  24.841  1.00  0.00     0.163 HD
BRANCH   3   6
ATOM      6  C   UNL A   1      35.595  23.232  25.311  1.00  0.00     0.072 C 
ATOM      7  C   UNL A   1      34.913  23.939  26.223  1.00  0.00     0.017 C 
BRANCH   7   8
ATOM      8  C   UNL A   1      33.442  23.927  26.291  1.00  0.00     0.017 A 
ATOM      9  C   UNL A   1      32.673  25.040  25.858  1.00  0.00     0.046 A 
ATOM     10  C   UNL A   1      31.268  24.944  25.939  1.00  0.00     0.026 A 
ATOM     11  C   UNL A   1      30.631  23.810  26.449  1.00  0.00     0.004 A 
ATOM     12  C   UNL A   1      32.781  22.781  26.790  1.00  0.00     0.050 A 
ATOM     13  C   UNL A   1      31.389  22.729  26.875  1.00  0.00     0.021 A 
ATOM     14  Cl  UNL A   1      33.643  21.369  27.313  1.00  0.00    -0.084 Cl
BRANCH   9  15
ATOM     15  N   UNL A   1      33.270  26.181  25.254  1.00  0.00    -0.368 N 
BRANCH  15  16
ATOM     16  C   UNL A   1      33.646  27.307  26.126  1.00  0.00     0.116 C 
BRANCH  16  17
ATOM     17  C   UNL A   1      32.505  28.314  26.291  1.00  0.00     0.018 C 
ATOM     18  C   UNL A   1      31.786  28.206  27.626  1.00  0.00     0.006 C 
ENDBRANCH  16  17
ENDBRANCH  15  16
BRANCH  15  19
ATOM     19  C   UNL A   1      32.877  26.469  23.853  1.00  0.00     0.082 C 
ATOM     20  C   UNL A   1      33.634  27.385  22.929  1.00  0.00     0.027 C 
ATOM     21  C   UNL A   1      33.653  25.911  22.689  1.00  0.00     0.027 C 
ENDBRANCH  15  19
ENDBRANCH   9  15
ENDBRANCH   7   8
ENDBRANCH   3   6
ENDBRANCH   1   2
BRANCH   1  22
ATOM     22  C   UNL A   1      38.164  19.626  24.921  1.00  0.00     0.042 C 
BRANCH  22  23
ATOM     23  C   UNL A   1      39.209  20.001  25.969  1.00  0.00     0.118 C 
BRANCH  23  24
ATOM     24  N   UNL A   1      40.338  19.079  25.978  1.00  0.00    -0.352 N 
ATOM     25  C   UNL A   1      41.685  19.328  26.032  1.00  0.00     0.251 C 
ATOM     26  H   UNL A   1      40.096  18.127  25.937  1.00  0.00     0.163 HD
ATOM     27  O   UNL A   1      42.484  18.438  25.758  1.00  0.00    -0.269 OA
BRANCH  25  28
ATOM     28  C   UNL A   1      42.181  20.662  26.425  1.00  0.00     0.039 A 
ATOM     29  C   UNL A   1      42.592  21.554  25.431  1.00  0.00     0.014 A 
ATOM     30  C   UNL A   1      42.292  21.012  27.772  1.00  0.00     0.014 A 
ATOM     31  C   UNL A   1      43.060  22.820  25.787  1.00  0.00     0.010 A 
ATOM     32  C   UNL A   1      42.690  22.297  28.124  1.00  0.00     0.010 A 
ATOM     33  C   UNL A   1      43.084  23.211  27.135  1.00  0.00    -0.014 A 
BRANCH  33  34
ATOM     34  C   UNL A   1      43.525  24.567  27.542  1.00  0.00     0.031 A 
ATOM     35  C   UNL A   1      42.506  25.607  27.913  1.00  0.00     0.074 A 
ATOM     36  C   UNL A   1      44.832  24.881  27.497  1.00  0.00     0.049 A 
ATOM     37  N   UNL A   1      42.677  26.876  28.185  1.00  0.00    -0.248 NA
ATOM     38  C   UNL A   1      41.101  25.168  27.955  1.00  0.00     0.031 C 
ATOM     39  C   UNL A   1      45.909  23.967  27.113  1.00  0.00     0.029 A 
ATOM     40  N   UNL A   1      45.478  26.062  27.763  1.00  0.00    -0.354 N 
ATOM     41  C   UNL A   1      41.405  27.389  28.409  1.00  0.00     0.074 A 
ATOM     42  C   UNL A   1      40.469  26.308  28.194  1.00  0.00     0.031 C 
ATOM     43  C   UNL A   1      47.083  24.616  27.183  1.00  0.00     0.029 A 
ATOM     44  C   UNL A   1      46.838  25.999  27.579  1.00  0.00     0.049 A 
ATOM     45  H   UNL A   1      45.011  26.878  28.056  1.00  0.00     0.167 HD
ATOM     46  C   UNL A   1      41.056  28.643  28.779  1.00  0.00     0.037 A 
ATOM     47  C   UNL A   1      47.778  26.954  27.709  1.00  0.00     0.037 A 
ATOM     48  C   UNL A   1      41.996  29.706  29.021  1.00  0.00     0.049 A 
ATOM     49  C   UNL A   1      47.362  28.339  28.121  1.00  0.00     0.074 A 
ATOM     50  C   UNL A   1      41.750  30.995  29.458  1.00  0.00     0.029 A 
ATOM     51  N   UNL A   1      43.369  29.595  28.850  1.00  0.00    -0.354 N 
ATOM     52  N   UNL A   1      46.163  28.799  28.383  1.00  0.00    -0.248 NA
ATOM     53  C   UNL A   1      48.432  29.337  28.260  1.00  0.00     0.031 C 
ATOM     54  C   UNL A   1      42.970  31.678  29.513  1.00  0.00     0.029 A 
ATOM     55  C   UNL A   1      43.980  30.801  29.156  1.00  0.00     0.049 A 
ATOM     56  H   UNL A   1      43.838  28.782  28.555  1.00  0.00     0.167 HD
ATOM     57  C   UNL A   1      46.335  30.129  28.742  1.00  0.00     0.074 A 
ATOM     58  C   UNL A   1      47.756  30.399  28.678  1.00  0.00     0.031 C 
ATOM     59  C   UNL A   1      45.399  31.045  29.094  1.00  0.00     0.037 A 
BRANCH  46  60
ATOM     60  C   UNL A   1      39.594  28.934  28.953  1.00  0.00     0.064 A 
ATOM     61  C   UNL A   1      38.968  28.828  30.205  1.00  0.00     0.173 A 
ATOM     62  C   UNL A   1      38.816  29.356  27.864  1.00  0.00     0.173 A 
ATOM     63  F   UNL A   1      39.664  28.418  31.276  1.00  0.00    -0.203 F 
ATOM     64  C   UNL A   1      37.611  29.107  30.354  1.00  0.00     0.198 A 
ATOM     65  C   UNL A   1      37.466  29.662  28.023  1.00  0.00     0.198 A 
ATOM     66  F   UNL A   1      39.365  29.479  26.647  1.00  0.00    -0.203 F 
ATOM     67  F   UNL A   1      37.025  28.953  31.549  1.00  0.00    -0.200 F 
ATOM     68  C   UNL A   1      36.864  29.530  29.265  1.00  0.00     0.200 A 
ATOM     69  F   UNL A   1      36.749  30.083  26.974  1.00  0.00    -0.200 F 
ATOM     70  F   UNL A   1      35.561  29.805  29.412  1.00  0.00    -0.200 F 
ENDBRANCH  46  60
BRANCH  47  71
ATOM     71  C   UNL A   1      49.206  26.624  27.471  1.00  0.00     0.064 A 
ATOM     72  C   UNL A   1      50.078  26.406  28.546  1.00  0.00     0.173 A 
ATOM     73  C   UNL A   1      49.729  26.517  26.175  1.00  0.00     0.173 A 
ATOM     74  F   UNL A   1      49.629  26.517  29.805  1.00  0.00    -0.203 F 
ATOM     75  C   UNL A   1      51.423  26.110  28.334  1.00  0.00     0.198 A 
ATOM     76  C   UNL A   1      51.068  26.196  25.963  1.00  0.00     0.198 A 
ATOM     77  F   UNL A   1      48.935  26.712  25.112  1.00  0.00    -0.203 F 
ATOM     78  F   UNL A   1      52.243  25.947  29.382  1.00  0.00    -0.200 F 
ATOM     79  C   UNL A   1      51.916  25.999  27.043  1.00  0.00     0.200 A 
ATOM     80  F   UNL A   1      51.537  26.077  24.713  1.00  0.00    -0.200 F 
ATOM     81  F   UNL A   1      53.207  25.710  26.839  1.00  0.00    -0.200 F 
ENDBRANCH  47  71
BRANCH  59  82
ATOM     82  C   UNL A   1      45.885  32.413  29.469  1.00  0.00     0.064 A 
ATOM     83  C   UNL A   1      46.275  32.721  30.779  1.00  0.00     0.173 A 
ATOM     84  C   UNL A   1      46.003  33.414  28.493  1.00  0.00     0.173 A 
ATOM     85  F   UNL A   1      46.165  31.801  31.750  1.00  0.00    -0.203 F 
ATOM     86  C   UNL A   1      46.749  33.989  31.105  1.00  0.00     0.198 A 
ATOM     87  C   UNL A   1      46.503  34.672  28.816  1.00  0.00     0.198 A 
ATOM     88  F   UNL A   1      45.648  33.167  27.223  1.00  0.00    -0.203 F 
ATOM     89  F   UNL A   1      47.077  34.274  32.372  1.00  0.00    -0.200 F 
ATOM     90  C   UNL A   1      46.869  34.960  30.122  1.00  0.00     0.200 A 
ATOM     91  F   UNL A   1      46.631  35.606  27.864  1.00  0.00    -0.200 F 
ATOM     92  F   UNL A   1      47.333  36.178  30.436  1.00  0.00    -0.200 F 
ENDBRANCH  59  82
ENDBRANCH  33  34
ENDBRANCH  25  28
ENDBRANCH  23  24
ENDBRANCH  22  23
ENDBRANCH   1  22
TORSDOF 15
ENDMDL
MODEL 3
REMARK VINA RESULT:     -11.5      1.116      2.509
REMARK SMILES CCCN(c1cccc(Cl)c1/C=C/C(=O)NCCCNC(=O)c1ccc(-c2c3nc(c(-c4c(F)c(F)c(F)c(F)c4F)c4ccc([nH]4)c(-c4c(F)c(F)c(F)c(F)c4F)c4nc(c(-c5c(F)c(F)c(F)c(F)c5F)c5ccc2[nH]5)C=C4)C=C3)cc1)C1CC1
REMARK SMILES IDX 17 1 16 2 14 3 15 4 13 6 12 7 11 8 5 9 6 10 7 11 9 12 8 13
REMARK SMILES IDX 10 14 4 15 3 16 2 17 1 18 86 19 87 20 88 21 18 22 19 23
REMARK SMILES IDX 20 24 21 25 22 27 23 28 24 29 85 30 25 31 84 32 26 33 27 34
REMARK SMILES IDX 28 35 78 36 29 37 83 38 77 39 79 40 30 41 82 42 76 43 75 44
REMARK SMILES IDX 31 46 63 47 43 48 62 49 44 50 47 51 61 52 80 53 45 54 46 55
REMARK SMILES IDX 60 57 81 58 48 59 32 60 33 61 41 62 34 63 35 64 39 65 42 66
REMARK SMILES IDX 36 67 37 68 40 69 38 70 64 71 65 72 73 73 66 74 67 75 71 76
REMARK SMILES IDX 74 77 68 78 69 79 72 80 70 81 49 82 50 83 58 84 51 85 52 86
REMARK SMILES IDX 56 87 59 88 53 89 54 90 57 91 55 92
REMARK H PARENT 16 5 20 26 79 45 47 56
REMARK Flexibility Score: inf
ROOT
ATOM      1  C   UNL A   1      32.567  28.483  22.734  1.00  0.00     0.118 C 
ENDROOT
BRANCH   1   2
ATOM      2  N   UNL A   1      32.999  27.573  21.688  1.00  0.00    -0.352 N 
ATOM      3  C   UNL A   1      33.049  26.215  21.691  1.00  0.00     0.244 C 
ATOM      4  O   UNL A   1      33.261  25.608  20.645  1.00  0.00    -0.270 OA
ATOM      5  H   UNL A   1      33.300  28.004  20.856  1.00  0.00     0.163 HD
BRANCH   3   6
ATOM      6  C   UNL A   1      32.794  25.475  22.941  1.00  0.00     0.072 C 
ATOM      7  C   UNL A   1      31.662  24.781  23.122  1.00  0.00     0.017 C 
BRANCH   7   8
ATOM      8  C   UNL A   1      31.344  24.109  24.393  1.00  0.00     0.017 A 
ATOM      9  C   UNL A   1      31.901  22.843  24.719  1.00  0.00     0.046 A 
ATOM     10  C   UNL A   1      31.561  22.273  25.964  1.00  0.00     0.026 A 
ATOM     11  C   UNL A   1      30.688  22.903  26.853  1.00  0.00     0.004 A 
ATOM     12  C   UNL A   1      30.474  24.739  25.311  1.00  0.00     0.050 A 
ATOM     13  C   UNL A   1      30.143  24.136  26.526  1.00  0.00     0.021 A 
ATOM     14  Cl  UNL A   1      29.773  26.296  25.004  1.00  0.00    -0.084 Cl
BRANCH   9  15
ATOM     15  N   UNL A   1      32.860  22.203  23.886  1.00  0.00    -0.368 N 
BRANCH  15  16
ATOM     16  C   UNL A   1      32.392  21.127  22.996  1.00  0.00     0.116 C 
BRANCH  16  17
ATOM     17  C   UNL A   1      32.522  19.745  23.643  1.00  0.00     0.018 C 
ATOM     18  C   UNL A   1      32.312  18.595  22.671  1.00  0.00     0.006 C 
ENDBRANCH  16  17
ENDBRANCH  15  16
BRANCH  15  19
ATOM     19  C   UNL A   1      34.249  22.143  24.403  1.00  0.00     0.082 C 
ATOM     20  C   UNL A   1      35.464  22.571  23.624  1.00  0.00     0.027 C 
ATOM     21  C   UNL A   1      35.000  23.393  24.782  1.00  0.00     0.027 C 
ENDBRANCH  15  19
ENDBRANCH   9  15
ENDBRANCH   7   8
ENDBRANCH   3   6
ENDBRANCH   1   2
BRANCH   1  22
ATOM     22  C   UNL A   1      33.744  29.066  23.511  1.00  0.00     0.042 C 
BRANCH  22  23
ATOM     23  C   UNL A   1      33.565  29.008  25.025  1.00  0.00     0.118 C 
BRANCH  23  24
ATOM     24  N   UNL A   1      32.964  30.225  25.558  1.00  0.00    -0.352 N 
ATOM     25  C   UNL A   1      33.244  30.925  26.703  1.00  0.00     0.251 C 
ATOM     26  H   UNL A   1      32.240  30.604  25.009  1.00  0.00     0.163 HD
ATOM     27  O   UNL A   1      32.453  31.767  27.115  1.00  0.00    -0.269 OA
BRANCH  25  28
ATOM     28  C   UNL A   1      34.498  30.674  27.441  1.00  0.00     0.039 A 
ATOM     29  C   UNL A   1      35.415  31.716  27.596  1.00  0.00     0.014 A 
ATOM     30  C   UNL A   1      34.793  29.400  27.930  1.00  0.00     0.014 A 
ATOM     31  C   UNL A   1      36.603  31.496  28.295  1.00  0.00     0.010 A 
ATOM     32  C   UNL A   1      35.942  29.197  28.686  1.00  0.00     0.010 A 
ATOM     33  C   UNL A   1      36.861  30.242  28.870  1.00  0.00    -0.014 A 
BRANCH  33  34
ATOM     34  C   UNL A   1      38.089  29.990  29.663  1.00  0.00     0.031 A 
ATOM     35  C   UNL A   1      39.148  29.065  29.133  1.00  0.00     0.074 A 
ATOM     36  C   UNL A   1      38.208  30.529  30.890  1.00  0.00     0.049 A 
ATOM     37  N   UNL A   1      40.235  28.627  29.717  1.00  0.00    -0.248 NA
ATOM     38  C   UNL A   1      38.943  28.539  27.774  1.00  0.00     0.031 C 
ATOM     39  C   UNL A   1      37.227  31.409  31.527  1.00  0.00     0.029 A 
ATOM     40  N   UNL A   1      39.201  30.404  31.829  1.00  0.00    -0.354 N 
ATOM     41  C   UNL A   1      40.828  27.761  28.808  1.00  0.00     0.074 A 
ATOM     42  C   UNL A   1      39.959  27.697  27.654  1.00  0.00     0.031 C 
ATOM     43  C   UNL A   1      37.673  31.758  32.744  1.00  0.00     0.029 A 
ATOM     44  C   UNL A   1      38.951  31.097  32.989  1.00  0.00     0.049 A 
ATOM     45  H   UNL A   1      40.015  29.868  31.686  1.00  0.00     0.167 HD
ATOM     46  C   UNL A   1      42.002  27.096  28.922  1.00  0.00     0.037 A 
ATOM     47  C   UNL A   1      39.671  31.180  34.124  1.00  0.00     0.037 A 
ATOM     48  C   UNL A   1      42.877  27.189  30.061  1.00  0.00     0.049 A 
ATOM     49  C   UNL A   1      40.971  30.432  34.223  1.00  0.00     0.074 A 
ATOM     50  C   UNL A   1      44.116  26.603  30.249  1.00  0.00     0.029 A 
ATOM     51  N   UNL A   1      42.601  27.922  31.207  1.00  0.00    -0.354 N 
ATOM     52  N   UNL A   1      41.549  29.658  33.337  1.00  0.00    -0.248 NA
ATOM     53  C   UNL A   1      41.720  30.570  35.480  1.00  0.00     0.031 C 
ATOM     54  C   UNL A   1      44.573  26.951  31.525  1.00  0.00     0.029 A 
ATOM     55  C   UNL A   1      43.641  27.789  32.113  1.00  0.00     0.049 A 
ATOM     56  H   UNL A   1      41.789  28.457  31.353  1.00  0.00     0.167 HD
ATOM     57  C   UNL A   1      42.740  29.240  33.915  1.00  0.00     0.074 A 
ATOM     58  C   UNL A   1      42.808  29.856  35.223  1.00  0.00     0.031 C 
ATOM     59  C   UNL A   1      43.693  28.420  33.407  1.00  0.00     0.037 A 
BRANCH  46  60
ATOM     60  C   UNL A   1      42.413  26.214  27.779  1.00  0.00     0.064 A 
ATOM     61  C   UNL A   1      43.315  26.655  26.798  1.00  0.00     0.173 A 
ATOM     62  C   UNL A   1      41.928  24.901  27.681  1.00  0.00     0.173 A 
ATOM     63  F   UNL A   1      43.799  27.905  26.839  1.00  0.00    -0.203 F 
ATOM     64  C   UNL A   1      43.694  25.824  25.746  1.00  0.00     0.198 A 
ATOM     65  C   UNL A   1      42.332  24.063  26.644  1.00  0.00     0.198 A 
ATOM     66  F   UNL A   1      41.069  24.427  28.595  1.00  0.00    -0.203 F 
ATOM     67  F   UNL A   1      44.518  26.284  24.796  1.00  0.00    -0.200 F 
ATOM     68  C   UNL A   1      43.207  24.528  25.674  1.00  0.00     0.200 A 
ATOM     69  F   UNL A   1      41.872  22.807  26.582  1.00  0.00    -0.200 F 
ATOM     70  F   UNL A   1      43.578  23.727  24.665  1.00  0.00    -0.200 F 
ENDBRANCH  46  60
BRANCH  47  71
ATOM     71  C   UNL A   1      39.189  32.026  35.246  1.00  0.00     0.064 A 
ATOM     72  C   UNL A   1      38.432  31.470  36.286  1.00  0.00     0.173 A 
ATOM     73  C   UNL A   1      39.474  33.397  35.306  1.00  0.00     0.173 A 
ATOM     74  F   UNL A   1      38.117  30.167  36.262  1.00  0.00    -0.203 F 
ATOM     75  C   UNL A   1      37.963  32.258  37.335  1.00  0.00     0.198 A 
ATOM     76  C   UNL A   1      39.026  34.179  36.369  1.00  0.00     0.198 A 
ATOM     77  F   UNL A   1      40.199  33.976  34.337  1.00  0.00    -0.203 F 
ATOM     78  F   UNL A   1      37.206  31.708  38.295  1.00  0.00    -0.200 F 
ATOM     79  C   UNL A   1      38.265  33.611  37.379  1.00  0.00     0.200 A 
ATOM     80  F   UNL A   1      39.332  35.483  36.414  1.00  0.00    -0.200 F 
ATOM     81  F   UNL A   1      37.818  34.366  38.390  1.00  0.00    -0.200 F 
ENDBRANCH  47  71
BRANCH  59  82
ATOM     82  C   UNL A   1      44.904  28.168  34.255  1.00  0.00     0.064 A 
ATOM     83  C   UNL A   1      44.968  27.084  35.140  1.00  0.00     0.173 A 
ATOM     84  C   UNL A   1      46.030  28.998  34.144  1.00  0.00     0.173 A 
ATOM     85  F   UNL A   1      43.910  26.273  35.292  1.00  0.00    -0.203 F 
ATOM     86  C   UNL A   1      46.111  26.850  35.901  1.00  0.00     0.198 A 
ATOM     87  C   UNL A   1      47.180  28.744  34.885  1.00  0.00     0.198 A 
ATOM     88  F   UNL A   1      46.019  30.045  33.306  1.00  0.00    -0.203 F 
ATOM     89  F   UNL A   1      46.136  25.832  36.773  1.00  0.00    -0.200 F 
ATOM     90  C   UNL A   1      47.217  27.675  35.767  1.00  0.00     0.200 A 
ATOM     91  F   UNL A   1      48.254  29.535  34.746  1.00  0.00    -0.200 F 
ATOM     92  F   UNL A   1      48.319  27.443  36.494  1.00  0.00    -0.200 F 
ENDBRANCH  59  82
ENDBRANCH  33  34
ENDBRANCH  25  28
ENDBRANCH  23  24
ENDBRANCH  22  23
ENDBRANCH   1  22
TORSDOF 15
ENDMDL
