MODEL 1
REMARK VINA RESULT:     -10.7      0.000      0.000
REMARK SMILES CCCC[N@H+](CC)[C@H]1CCC[C@]([NH3+])(C(=O)NCCCNC(=O)c2ccc(-c3c4nc(c(-c5c(F)c(F)c(F)c(F)c5F)c5ccc([nH]5)c(-c5c(F)c(F)c(F)c(F)c5F)c5nc(c(-c6c(F)c(F)c(F)c(F)c6F)c6ccc3[nH]6)C=C5)C=C4)cc2)C1
REMARK SMILES IDX 17 1 16 2 14 3 15 4 12 6 8 7 9 8 86 9 10 10 11 11 5 12 4 14
REMARK SMILES IDX 3 15 2 16 1 17 6 18 7 19 13 20 18 24 19 25 20 26 21 27 22 29
REMARK SMILES IDX 23 30 24 31 85 32 25 33 84 34 26 35 27 36 28 37 78 38 29 39
REMARK SMILES IDX 83 40 77 41 79 42 30 43 82 44 76 45 75 46 31 48 63 49 43 50
REMARK SMILES IDX 62 51 44 52 47 53 61 54 80 55 45 56 46 57 60 59 81 60 48 61
REMARK SMILES IDX 32 62 33 63 41 64 34 65 35 66 39 67 42 68 36 69 37 70 40 71
REMARK SMILES IDX 38 72 64 73 65 74 73 75 66 76 67 77 71 78 74 79 68 80 69 81
REMARK SMILES IDX 72 82 70 83 49 84 50 85 58 86 51 87 52 88 56 89 59 90 53 91
REMARK SMILES IDX 54 92 57 93 55 94
REMARK H PARENT 16 5 5 13 13 21 13 22 13 23 20 28 79 47 47 58
REMARK Flexibility Score: inf
ROOT
ATOM      1  C   UNL A   1      31.123  31.009  26.430  1.00  0.00     0.118 C 
ENDROOT
BRANCH   1   2
ATOM      2  N   UNL A   1      31.896  30.425  25.349  1.00  0.00    -0.351 N 
ATOM      3  C   UNL A   1      32.769  29.381  25.277  1.00  0.00     0.281 C 
ATOM      4  O   UNL A   1      33.215  29.144  24.148  1.00  0.00    -0.268 OA
ATOM      5  H   UNL A   1      31.761  30.877  24.486  1.00  0.00     0.163 HD
BRANCH   3   6
ATOM      6  C   UNL A   1      33.149  28.492  26.512  1.00  0.00     0.179 C 
ATOM      7  C   UNL A   1      33.189  26.264  25.267  1.00  0.00     0.190 C 
ATOM      8  C   UNL A   1      31.960  25.770  26.055  1.00  0.00     0.065 C 
ATOM      9  C   UNL A   1      33.992  27.259  26.141  1.00  0.00     0.144 C 
ATOM     10  C   UNL A   1      31.082  26.945  26.481  1.00  0.00     0.013 C 
ATOM     11  C   UNL A   1      31.869  28.012  27.247  1.00  0.00     0.079 C 
BRANCH   7  12
ATOM     12  N   UNL A   1      34.036  25.226  24.647  1.00  0.00    -0.333 N 
ATOM     13  H   UNL A   1      34.928  25.719  24.685  1.00  0.00     0.348 HD
BRANCH  12  14
ATOM     14  C   UNL A   1      33.774  24.949  23.224  1.00  0.00     0.262 C 
BRANCH  14  15
ATOM     15  C   UNL A   1      33.551  26.165  22.305  1.00  0.00     0.061 C 
BRANCH  15  16
ATOM     16  C   UNL A   1      32.203  26.229  21.581  1.00  0.00     0.002 C 
ATOM     17  C   UNL A   1      31.042  26.618  22.480  1.00  0.00     0.004 C 
ENDBRANCH  15  16
ENDBRANCH  14  15
ENDBRANCH  12  14
BRANCH  12  18
ATOM     18  C   UNL A   1      34.277  23.992  25.409  1.00  0.00     0.258 C 
ATOM     19  C   UNL A   1      35.708  23.706  25.854  1.00  0.00     0.071 C 
ENDBRANCH  12  18
ENDBRANCH   7  12
BRANCH   6  20
ATOM     20  N   UNL A   1      33.874  29.345  27.489  1.00  0.00    -0.345 N 
ATOM     21  H   UNL A   1      33.275  29.526  28.295  1.00  0.00     0.345 HD
ATOM     22  H   UNL A   1      34.126  30.229  27.048  1.00  0.00     0.345 HD
ATOM     23  H   UNL A   1      34.721  28.865  27.797  1.00  0.00     0.345 HD
ENDBRANCH   6  20
ENDBRANCH   3   6
ENDBRANCH   1   2
BRANCH   1  24
ATOM     24  C   UNL A   1      31.238  32.530  26.494  1.00  0.00     0.042 C 
BRANCH  24  25
ATOM     25  C   UNL A   1      32.578  33.054  27.005  1.00  0.00     0.118 C 
BRANCH  25  26
ATOM     26  N   UNL A   1      32.469  34.367  27.622  1.00  0.00    -0.352 N 
ATOM     27  C   UNL A   1      33.102  34.896  28.717  1.00  0.00     0.251 C 
ATOM     28  H   UNL A   1      31.835  34.976  27.179  1.00  0.00     0.163 HD
ATOM     29  O   UNL A   1      32.715  35.973  29.164  1.00  0.00    -0.269 OA
BRANCH  27  30
ATOM     30  C   UNL A   1      34.234  34.203  29.375  1.00  0.00     0.039 A 
ATOM     31  C   UNL A   1      35.531  34.502  28.946  1.00  0.00     0.014 A 
ATOM     32  C   UNL A   1      34.037  33.206  30.337  1.00  0.00     0.014 A 
ATOM     33  C   UNL A   1      36.627  33.834  29.500  1.00  0.00     0.010 A 
ATOM     34  C   UNL A   1      35.135  32.582  30.934  1.00  0.00     0.010 A 
ATOM     35  C   UNL A   1      36.439  32.879  30.511  1.00  0.00    -0.014 A 
BRANCH  35  36
ATOM     36  C   UNL A   1      37.601  32.171  31.106  1.00  0.00     0.031 A 
ATOM     37  C   UNL A   1      38.070  32.509  32.494  1.00  0.00     0.074 A 
ATOM     38  C   UNL A   1      38.251  31.237  30.387  1.00  0.00     0.049 A 
ATOM     39  N   UNL A   1      39.064  31.999  33.179  1.00  0.00    -0.248 NA
ATOM     40  C   UNL A   1      37.341  33.574  33.198  1.00  0.00     0.031 C 
ATOM     41  C   UNL A   1      37.925  30.851  29.013  1.00  0.00     0.029 A 
ATOM     42  N   UNL A   1      39.322  30.443  30.711  1.00  0.00    -0.354 N 
ATOM     43  C   UNL A   1      39.086  32.689  34.385  1.00  0.00     0.074 A 
ATOM     44  C   UNL A   1      38.035  33.683  34.322  1.00  0.00     0.031 C 
ATOM     45  C   UNL A   1      38.764  29.878  28.621  1.00  0.00     0.029 A 
ATOM     46  C   UNL A   1      39.698  29.587  29.705  1.00  0.00     0.049 A 
ATOM     47  H   UNL A   1      39.780  30.485  31.582  1.00  0.00     0.167 HD
ATOM     48  C   UNL A   1      39.895  32.498  35.455  1.00  0.00     0.037 A 
ATOM     49  C   UNL A   1      40.678  28.667  29.666  1.00  0.00     0.037 A 
ATOM     50  C   UNL A   1      40.922  31.492  35.532  1.00  0.00     0.049 A 
ATOM     51  C   UNL A   1      41.540  28.452  30.879  1.00  0.00     0.074 A 
ATOM     52  C   UNL A   1      41.759  31.189  36.593  1.00  0.00     0.029 A 
ATOM     53  N   UNL A   1      41.250  30.622  34.503  1.00  0.00    -0.354 N 
ATOM     54  N   UNL A   1      41.510  29.067  32.035  1.00  0.00    -0.248 NA
ATOM     55  C   UNL A   1      42.564  27.403  30.784  1.00  0.00     0.031 C 
ATOM     56  C   UNL A   1      42.613  30.154  36.195  1.00  0.00     0.029 A 
ATOM     57  C   UNL A   1      42.283  29.788  34.901  1.00  0.00     0.049 A 
ATOM     58  H   UNL A   1      40.814  30.599  33.621  1.00  0.00     0.167 HD
ATOM     59  C   UNL A   1      42.489  28.466  32.813  1.00  0.00     0.074 A 
ATOM     60  C   UNL A   1      43.086  27.425  32.003  1.00  0.00     0.031 C 
ATOM     61  C   UNL A   1      42.862  28.752  34.084  1.00  0.00     0.037 A 
BRANCH  48  62
ATOM     62  C   UNL A   1      39.695  33.398  36.640  1.00  0.00     0.064 A 
ATOM     63  C   UNL A   1      40.364  34.626  36.748  1.00  0.00     0.173 A 
ATOM     64  C   UNL A   1      38.801  33.043  37.662  1.00  0.00     0.173 A 
ATOM     65  F   UNL A   1      41.236  35.004  35.802  1.00  0.00    -0.203 F 
ATOM     66  C   UNL A   1      40.165  35.455  37.849  1.00  0.00     0.198 A 
ATOM     67  C   UNL A   1      38.586  33.887  38.748  1.00  0.00     0.198 A 
ATOM     68  F   UNL A   1      38.133  31.882  37.604  1.00  0.00    -0.203 F 
ATOM     69  F   UNL A   1      40.848  36.603  37.952  1.00  0.00    -0.200 F 
ATOM     70  C   UNL A   1      39.272  35.088  38.844  1.00  0.00     0.200 A 
ATOM     71  F   UNL A   1      37.716  33.536  39.706  1.00  0.00    -0.200 F 
ATOM     72  F   UNL A   1      39.080  35.888  39.901  1.00  0.00    -0.200 F 
ENDBRANCH  48  62
BRANCH  49  73
ATOM     73  C   UNL A   1      40.870  27.845  28.445  1.00  0.00     0.064 A 
ATOM     74  C   UNL A   1      41.727  28.272  27.420  1.00  0.00     0.173 A 
ATOM     75  C   UNL A   1      40.205  26.623  28.276  1.00  0.00     0.173 A 
ATOM     76  F   UNL A   1      42.367  29.445  27.530  1.00  0.00    -0.203 F 
ATOM     77  C   UNL A   1      41.896  27.515  26.264  1.00  0.00     0.198 A 
ATOM     78  C   UNL A   1      40.395  25.855  27.130  1.00  0.00     0.198 A 
ATOM     79  F   UNL A   1      39.378  26.170  29.231  1.00  0.00    -0.203 F 
ATOM     80  F   UNL A   1      42.689  27.965  25.282  1.00  0.00    -0.200 F 
ATOM     81  C   UNL A   1      41.234  26.305  26.121  1.00  0.00     0.200 A 
ATOM     82  F   UNL A   1      39.761  24.681  27.000  1.00  0.00    -0.200 F 
ATOM     83  F   UNL A   1      41.400  25.575  25.009  1.00  0.00    -0.200 F 
ENDBRANCH  49  73
BRANCH  61  84
ATOM     84  C   UNL A   1      43.947  27.907  34.684  1.00  0.00     0.064 A 
ATOM     85  C   UNL A   1      45.296  28.283  34.612  1.00  0.00     0.173 A 
ATOM     86  C   UNL A   1      43.630  26.714  35.352  1.00  0.00     0.173 A 
ATOM     87  F   UNL A   1      45.650  29.406  33.969  1.00  0.00    -0.203 F 
ATOM     88  C   UNL A   1      46.292  27.481  35.161  1.00  0.00     0.198 A 
ATOM     89  C   UNL A   1      44.626  25.928  35.922  1.00  0.00     0.198 A 
ATOM     90  F   UNL A   1      42.354  26.314  35.452  1.00  0.00    -0.203 F 
ATOM     91  F   UNL A   1      47.578  27.834  35.037  1.00  0.00    -0.200 F 
ATOM     92  C   UNL A   1      45.956  26.307  35.819  1.00  0.00     0.200 A 
ATOM     93  F   UNL A   1      44.300  24.798  36.566  1.00  0.00    -0.200 F 
ATOM     94  F   UNL A   1      46.917  25.535  36.346  1.00  0.00    -0.200 F 
ENDBRANCH  61  84
ENDBRANCH  35  36
ENDBRANCH  27  30
ENDBRANCH  25  26
ENDBRANCH  24  25
ENDBRANCH   1  24
TORSDOF 16
ENDMDL
MODEL 2
REMARK VINA RESULT:     -10.7      5.523      9.820
REMARK SMILES CCCC[N@H+](CC)[C@H]1CCC[C@]([NH3+])(C(=O)NCCCNC(=O)c2ccc(-c3c4nc(c(-c5c(F)c(F)c(F)c(F)c5F)c5ccc([nH]5)c(-c5c(F)c(F)c(F)c(F)c5F)c5nc(c(-c6c(F)c(F)c(F)c(F)c6F)c6ccc3[nH]6)C=C5)C=C4)cc2)C1
REMARK SMILES IDX 17 1 16 2 14 3 15 4 12 6 8 7 9 8 86 9 10 10 11 11 5 12 4 14
REMARK SMILES IDX 3 15 2 16 1 17 6 18 7 19 13 20 18 24 19 25 20 26 21 27 22 29
REMARK SMILES IDX 23 30 24 31 85 32 25 33 84 34 26 35 27 36 28 37 78 38 29 39
REMARK SMILES IDX 83 40 77 41 79 42 30 43 82 44 76 45 75 46 31 48 63 49 43 50
REMARK SMILES IDX 62 51 44 52 47 53 61 54 80 55 45 56 46 57 60 59 81 60 48 61
REMARK SMILES IDX 32 62 33 63 41 64 34 65 35 66 39 67 42 68 36 69 37 70 40 71
REMARK SMILES IDX 38 72 64 73 65 74 73 75 66 76 67 77 71 78 74 79 68 80 69 81
REMARK SMILES IDX 72 82 70 83 49 84 50 85 58 86 51 87 52 88 56 89 59 90 53 91
REMARK SMILES IDX 54 92 57 93 55 94
REMARK H PARENT 16 5 5 13 13 21 13 22 13 23 20 28 79 47 47 58
REMARK Flexibility Score: inf
ROOT
ATOM      1  C   UNL A   1      37.072  20.259  24.516  1.00  0.00     0.118 C 
ENDROOT
BRANCH   1   2
ATOM      2  N   UNL A   1      35.906  20.410  25.368  1.00  0.00    -0.351 N 
ATOM      3  C   UNL A   1      35.267  21.488  25.903  1.00  0.00     0.281 C 
ATOM      4  O   UNL A   1      34.255  21.227  26.563  1.00  0.00    -0.268 OA
ATOM      5  H   UNL A   1      35.489  19.553  25.610  1.00  0.00     0.163 HD
BRANCH   3   6
ATOM      6  C   UNL A   1      35.729  22.968  25.661  1.00  0.00     0.179 C 
ATOM      7  C   UNL A   1      33.433  23.893  25.039  1.00  0.00     0.190 C 
ATOM      8  C   UNL A   1      33.898  24.150  23.593  1.00  0.00     0.065 C 
ATOM      9  C   UNL A   1      34.646  24.008  25.995  1.00  0.00     0.144 C 
ATOM     10  C   UNL A   1      34.995  23.166  23.193  1.00  0.00     0.013 C 
ATOM     11  C   UNL A   1      36.164  23.164  24.183  1.00  0.00     0.079 C 
BRANCH   7  12
ATOM     12  N   UNL A   1      32.258  24.658  25.501  1.00  0.00    -0.333 N 
ATOM     13  H   UNL A   1      31.608  24.393  24.761  1.00  0.00     0.348 HD
BRANCH  12  14
ATOM     14  C   UNL A   1      32.382  26.125  25.441  1.00  0.00     0.262 C 
BRANCH  14  15
ATOM     15  C   UNL A   1      31.477  26.941  26.383  1.00  0.00     0.061 C 
BRANCH  15  16
ATOM     16  C   UNL A   1      32.161  28.048  27.189  1.00  0.00     0.002 C 
ATOM     17  C   UNL A   1      33.640  28.205  26.883  1.00  0.00     0.004 C 
ENDBRANCH  15  16
ENDBRANCH  14  15
ENDBRANCH  12  14
BRANCH  12  18
ATOM     18  C   UNL A   1      31.594  24.215  26.736  1.00  0.00     0.258 C 
ATOM     19  C   UNL A   1      30.497  23.163  26.608  1.00  0.00     0.071 C 
ENDBRANCH  12  18
ENDBRANCH   7  12
BRANCH   6  20
ATOM     20  N   UNL A   1      36.951  23.208  26.472  1.00  0.00    -0.345 N 
ATOM     21  H   UNL A   1      37.446  22.326  26.611  1.00  0.00     0.345 HD
ATOM     22  H   UNL A   1      36.689  23.597  27.376  1.00  0.00     0.345 HD
ATOM     23  H   UNL A   1      37.560  23.865  25.983  1.00  0.00     0.345 HD
ENDBRANCH   6  20
ENDBRANCH   3   6
ENDBRANCH   1   2
BRANCH   1  24
ATOM     24  C   UNL A   1      38.100  19.279  25.076  1.00  0.00     0.042 C 
BRANCH  24  25
ATOM     25  C   UNL A   1      39.293  19.924  25.775  1.00  0.00     0.118 C 
BRANCH  25  26
ATOM     26  N   UNL A   1      40.435  19.029  25.879  1.00  0.00    -0.352 N 
ATOM     27  C   UNL A   1      41.769  19.296  26.051  1.00  0.00     0.251 C 
ATOM     28  H   UNL A   1      40.212  18.073  25.814  1.00  0.00     0.163 HD
ATOM     29  O   UNL A   1      42.579  18.380  25.927  1.00  0.00    -0.269 OA
BRANCH  27  30
ATOM     30  C   UNL A   1      42.257  20.657  26.375  1.00  0.00     0.039 A 
ATOM     31  C   UNL A   1      42.253  21.057  27.715  1.00  0.00     0.014 A 
ATOM     32  C   UNL A   1      42.630  21.569  25.383  1.00  0.00     0.014 A 
ATOM     33  C   UNL A   1      42.654  22.349  28.065  1.00  0.00     0.010 A 
ATOM     34  C   UNL A   1      43.088  22.841  25.736  1.00  0.00     0.010 A 
ATOM     35  C   UNL A   1      43.090  23.248  27.078  1.00  0.00    -0.014 A 
BRANCH  35  36
ATOM     36  C   UNL A   1      43.521  24.621  27.446  1.00  0.00     0.031 A 
ATOM     37  C   UNL A   1      42.506  25.664  27.823  1.00  0.00     0.074 A 
ATOM     38  C   UNL A   1      44.829  24.937  27.420  1.00  0.00     0.049 A 
ATOM     39  N   UNL A   1      42.693  26.913  28.174  1.00  0.00    -0.248 NA
ATOM     40  C   UNL A   1      41.093  25.258  27.782  1.00  0.00     0.031 C 
ATOM     41  C   UNL A   1      45.909  24.031  27.027  1.00  0.00     0.029 A 
ATOM     42  N   UNL A   1      45.473  26.109  27.728  1.00  0.00    -0.354 N 
ATOM     43  C   UNL A   1      41.425  27.441  28.379  1.00  0.00     0.074 A 
ATOM     44  C   UNL A   1      40.475  26.393  28.074  1.00  0.00     0.031 C 
ATOM     45  C   UNL A   1      47.083  24.673  27.139  1.00  0.00     0.029 A 
ATOM     46  C   UNL A   1      46.838  26.039  27.592  1.00  0.00     0.049 A 
ATOM     47  H   UNL A   1      45.002  26.923  28.017  1.00  0.00     0.167 HD
ATOM     48  C   UNL A   1      41.083  28.682  28.805  1.00  0.00     0.037 A 
ATOM     49  C   UNL A   1      47.784  26.970  27.815  1.00  0.00     0.037 A 
ATOM     50  C   UNL A   1      42.026  29.718  29.136  1.00  0.00     0.049 A 
ATOM     51  C   UNL A   1      47.380  28.328  28.318  1.00  0.00     0.074 A 
ATOM     52  C   UNL A   1      41.778  30.991  29.623  1.00  0.00     0.029 A 
ATOM     53  N   UNL A   1      43.403  29.599  29.016  1.00  0.00    -0.354 N 
ATOM     54  N   UNL A   1      46.183  28.796  28.570  1.00  0.00    -0.248 NA
ATOM     55  C   UNL A   1      48.466  29.284  28.582  1.00  0.00     0.031 C 
ATOM     56  C   UNL A   1      43.004  31.651  29.770  1.00  0.00     0.029 A 
ATOM     57  C   UNL A   1      44.016  30.777  29.412  1.00  0.00     0.049 A 
ATOM     58  H   UNL A   1      43.874  28.795  28.698  1.00  0.00     0.167 HD
ATOM     59  C   UNL A   1      46.369  30.087  29.043  1.00  0.00     0.074 A 
ATOM     60  C   UNL A   1      47.797  30.324  29.062  1.00  0.00     0.031 C 
ATOM     61  C   UNL A   1      45.440  30.995  29.428  1.00  0.00     0.037 A 
BRANCH  48  62
ATOM     62  C   UNL A   1      39.620  28.986  28.942  1.00  0.00     0.064 A 
ATOM     63  C   UNL A   1      38.849  29.386  27.841  1.00  0.00     0.173 A 
ATOM     64  C   UNL A   1      38.976  28.844  30.180  1.00  0.00     0.173 A 
ATOM     65  F   UNL A   1      39.421  29.547  26.639  1.00  0.00    -0.203 F 
ATOM     66  C   UNL A   1      37.490  29.659  27.980  1.00  0.00     0.198 A 
ATOM     67  C   UNL A   1      37.611  29.093  30.309  1.00  0.00     0.198 A 
ATOM     68  F   UNL A   1      39.666  28.459  31.263  1.00  0.00    -0.203 F 
ATOM     69  F   UNL A   1      36.783  30.083  26.923  1.00  0.00    -0.200 F 
ATOM     70  C   UNL A   1      36.872  29.507  29.211  1.00  0.00     0.200 A 
ATOM     71  F   UNL A   1      37.012  28.936  31.498  1.00  0.00    -0.200 F 
ATOM     72  F   UNL A   1      35.564  29.766  29.342  1.00  0.00    -0.200 F 
ENDBRANCH  48  62
BRANCH  49  73
ATOM     73  C   UNL A   1      49.215  26.633  27.606  1.00  0.00     0.064 A 
ATOM     74  C   UNL A   1      50.033  26.280  28.687  1.00  0.00     0.173 A 
ATOM     75  C   UNL A   1      49.790  26.658  26.328  1.00  0.00     0.173 A 
ATOM     76  F   UNL A   1      49.529  26.264  29.930  1.00  0.00    -0.203 F 
ATOM     77  C   UNL A   1      51.381  25.981  28.500  1.00  0.00     0.198 A 
ATOM     78  C   UNL A   1      51.132  26.336  26.139  1.00  0.00     0.198 A 
ATOM     79  F   UNL A   1      49.046  26.986  25.262  1.00  0.00    -0.203 F 
ATOM     80  F   UNL A   1      52.152  25.687  29.556  1.00  0.00    -0.200 F 
ATOM     81  C   UNL A   1      51.928  26.005  27.226  1.00  0.00     0.200 A 
ATOM     82  F   UNL A   1      51.655  26.350  24.906  1.00  0.00    -0.200 F 
ATOM     83  F   UNL A   1      53.224  25.715  27.047  1.00  0.00    -0.200 F 
ENDBRANCH  49  73
BRANCH  61  84
ATOM     84  C   UNL A   1      45.944  32.317  29.927  1.00  0.00     0.064 A 
ATOM     85  C   UNL A   1      46.253  32.522  31.280  1.00  0.00     0.173 A 
ATOM     86  C   UNL A   1      46.135  33.386  29.039  1.00  0.00     0.173 A 
ATOM     87  F   UNL A   1      46.071  31.535  32.171  1.00  0.00    -0.203 F 
ATOM     88  C   UNL A   1      46.708  33.758  31.730  1.00  0.00     0.198 A 
ATOM     89  C   UNL A   1      46.614  34.612  29.489  1.00  0.00     0.198 A 
ATOM     90  F   UNL A   1      45.859  33.239  27.735  1.00  0.00    -0.203 F 
ATOM     91  F   UNL A   1      46.948  33.946  33.035  1.00  0.00    -0.200 F 
ATOM     92  C   UNL A   1      46.891  34.800  30.834  1.00  0.00     0.200 A 
ATOM     93  F   UNL A   1      46.800  35.617  28.620  1.00  0.00    -0.200 F 
ATOM     94  F   UNL A   1      47.327  35.990  31.271  1.00  0.00    -0.200 F 
ENDBRANCH  61  84
ENDBRANCH  35  36
ENDBRANCH  27  30
ENDBRANCH  25  26
ENDBRANCH  24  25
ENDBRANCH   1  24
TORSDOF 16
ENDMDL
MODEL 3
REMARK VINA RESULT:     -10.7      0.983      7.758
REMARK SMILES CCCC[N@H+](CC)[C@H]1CCC[C@]([NH3+])(C(=O)NCCCNC(=O)c2ccc(-c3c4nc(c(-c5c(F)c(F)c(F)c(F)c5F)c5ccc([nH]5)c(-c5c(F)c(F)c(F)c(F)c5F)c5nc(c(-c6c(F)c(F)c(F)c(F)c6F)c6ccc3[nH]6)C=C5)C=C4)cc2)C1
REMARK SMILES IDX 17 1 16 2 14 3 15 4 12 6 8 7 9 8 86 9 10 10 11 11 5 12 4 14
REMARK SMILES IDX 3 15 2 16 1 17 6 18 7 19 13 20 18 24 19 25 20 26 21 27 22 29
REMARK SMILES IDX 23 30 24 31 85 32 25 33 84 34 26 35 27 36 28 37 78 38 29 39
REMARK SMILES IDX 83 40 77 41 79 42 30 43 82 44 76 45 75 46 31 48 63 49 43 50
REMARK SMILES IDX 62 51 44 52 47 53 61 54 80 55 45 56 46 57 60 59 81 60 48 61
REMARK SMILES IDX 32 62 33 63 41 64 34 65 35 66 39 67 42 68 36 69 37 70 40 71
REMARK SMILES IDX 38 72 64 73 65 74 73 75 66 76 67 77 71 78 74 79 68 80 69 81
REMARK SMILES IDX 72 82 70 83 49 84 50 85 58 86 51 87 52 88 56 89 59 90 53 91
REMARK SMILES IDX 54 92 57 93 55 94
REMARK H PARENT 16 5 5 13 13 21 13 22 13 23 20 28 79 47 47 58
REMARK Flexibility Score: inf
ROOT
ATOM      1  C   UNL A   1      31.250  30.980  26.464  1.00  0.00     0.118 C 
ENDROOT
BRANCH   1   2
ATOM      2  N   UNL A   1      31.534  30.404  25.161  1.00  0.00    -0.351 N 
ATOM      3  C   UNL A   1      32.353  29.402  24.736  1.00  0.00     0.281 C 
ATOM      4  O   UNL A   1      32.301  29.157  23.525  1.00  0.00    -0.268 OA
ATOM      5  H   UNL A   1      31.027  30.827  24.432  1.00  0.00     0.163 HD
BRANCH   3   6
ATOM      6  C   UNL A   1      33.261  28.566  25.704  1.00  0.00     0.179 C 
ATOM      7  C   UNL A   1      32.545  26.266  24.861  1.00  0.00     0.190 C 
ATOM      8  C   UNL A   1      31.864  25.954  26.207  1.00  0.00     0.065 C 
ATOM      9  C   UNL A   1      33.732  27.232  25.098  1.00  0.00     0.144 C 
ATOM     10  C   UNL A   1      31.387  27.238  26.883  1.00  0.00     0.013 C 
ATOM     11  C   UNL A   1      32.510  28.270  27.030  1.00  0.00     0.079 C 
BRANCH   7  12
ATOM     12  N   UNL A   1      32.902  25.108  24.018  1.00  0.00    -0.333 N 
ATOM     13  H   UNL A   1      31.971  24.885  23.669  1.00  0.00     0.348 HD
BRANCH  12  14
ATOM     14  C   UNL A   1      33.376  23.911  24.736  1.00  0.00     0.262 C 
BRANCH  14  15
ATOM     15  C   UNL A   1      34.857  23.530  24.556  1.00  0.00     0.061 C 
BRANCH  15  16
ATOM     16  C   UNL A   1      35.802  23.933  25.692  1.00  0.00     0.002 C 
ATOM     17  C   UNL A   1      37.271  23.717  25.374  1.00  0.00     0.004 C 
ENDBRANCH  15  16
ENDBRANCH  14  15
ENDBRANCH  12  14
BRANCH  12  18
ATOM     18  C   UNL A   1      33.688  25.362  22.801  1.00  0.00     0.258 C 
ATOM     19  C   UNL A   1      32.960  25.965  21.604  1.00  0.00     0.071 C 
ENDBRANCH  12  18
ENDBRANCH   7  12
BRANCH   6  20
ATOM     20  N   UNL A   1      34.427  29.406  26.084  1.00  0.00    -0.345 N 
ATOM     21  H   UNL A   1      35.274  28.837  26.079  1.00  0.00     0.345 HD
ATOM     22  H   UNL A   1      34.281  29.788  27.018  1.00  0.00     0.345 HD
ATOM     23  H   UNL A   1      34.527  30.171  25.416  1.00  0.00     0.345 HD
ENDBRANCH   6  20
ENDBRANCH   3   6
ENDBRANCH   1   2
BRANCH   1  24
ATOM     24  C   UNL A   1      31.396  32.499  26.492  1.00  0.00     0.042 C 
BRANCH  24  25
ATOM     25  C   UNL A   1      32.659  33.013  27.179  1.00  0.00     0.118 C 
BRANCH  25  26
ATOM     26  N   UNL A   1      32.512  34.371  27.680  1.00  0.00    -0.352 N 
ATOM     27  C   UNL A   1      33.082  34.993  28.761  1.00  0.00     0.251 C 
ATOM     28  H   UNL A   1      31.901  34.937  27.155  1.00  0.00     0.163 HD
ATOM     29  O   UNL A   1      32.667  36.100  29.097  1.00  0.00    -0.269 OA
BRANCH  27  30
ATOM     30  C   UNL A   1      34.178  34.364  29.534  1.00  0.00     0.039 A 
ATOM     31  C   UNL A   1      35.483  34.481  29.044  1.00  0.00     0.014 A 
ATOM     32  C   UNL A   1      33.935  33.591  30.674  1.00  0.00     0.014 A 
ATOM     33  C   UNL A   1      36.543  33.860  29.710  1.00  0.00     0.010 A 
ATOM     34  C   UNL A   1      35.001  33.021  31.374  1.00  0.00     0.010 A 
ATOM     35  C   UNL A   1      36.312  33.136  30.891  1.00  0.00    -0.014 A 
BRANCH  35  36
ATOM     36  C   UNL A   1      37.437  32.479  31.604  1.00  0.00     0.031 A 
ATOM     37  C   UNL A   1      38.169  31.325  30.975  1.00  0.00     0.074 A 
ATOM     38  C   UNL A   1      37.787  32.906  32.831  1.00  0.00     0.049 A 
ATOM     39  N   UNL A   1      39.173  30.627  31.445  1.00  0.00    -0.248 NA
ATOM     40  C   UNL A   1      37.697  30.884  29.654  1.00  0.00     0.031 C 
ATOM     41  C   UNL A   1      37.128  33.984  33.570  1.00  0.00     0.029 A 
ATOM     42  N   UNL A   1      38.785  32.485  33.675  1.00  0.00    -0.354 N 
ATOM     43  C   UNL A   1      39.442  29.660  30.485  1.00  0.00     0.074 A 
ATOM     44  C   UNL A   1      38.470  29.831  29.428  1.00  0.00     0.031 C 
ATOM     45  C   UNL A   1      37.752  34.154  34.747  1.00  0.00     0.029 A 
ATOM     46  C   UNL A   1      38.840  33.187  34.854  1.00  0.00     0.049 A 
ATOM     47  H   UNL A   1      39.400  31.748  33.457  1.00  0.00     0.167 HD
ATOM     48  C   UNL A   1      40.425  28.725  30.476  1.00  0.00     0.037 A 
ATOM     49  C   UNL A   1      39.680  33.067  35.899  1.00  0.00     0.037 A 
ATOM     50  C   UNL A   1      41.411  28.570  31.514  1.00  0.00     0.049 A 
ATOM     51  C   UNL A   1      40.781  32.045  35.849  1.00  0.00     0.074 A 
ATOM     52  C   UNL A   1      42.475  27.686  31.570  1.00  0.00     0.029 A 
ATOM     53  N   UNL A   1      41.454  29.322  32.678  1.00  0.00    -0.354 N 
ATOM     54  N   UNL A   1      41.065  31.178  34.909  1.00  0.00    -0.248 NA
ATOM     55  C   UNL A   1      41.690  31.996  37.004  1.00  0.00     0.031 C 
ATOM     56  C   UNL A   1      43.145  27.884  32.784  1.00  0.00     0.029 A 
ATOM     57  C   UNL A   1      42.522  28.916  33.464  1.00  0.00     0.049 A 
ATOM     58  H   UNL A   1      40.821  30.039  32.912  1.00  0.00     0.167 HD
ATOM     59  C   UNL A   1      42.194  30.499  35.344  1.00  0.00     0.074 A 
ATOM     60  C   UNL A   1      42.556  31.066  36.627  1.00  0.00     0.031 C 
ATOM     61  C   UNL A   1      42.871  29.494  34.736  1.00  0.00     0.037 A 
BRANCH  48  62
ATOM     62  C   UNL A   1      40.484  27.798  29.299  1.00  0.00     0.064 A 
ATOM     63  C   UNL A   1      39.647  26.676  29.207  1.00  0.00     0.173 A 
ATOM     64  C   UNL A   1      41.363  28.051  28.235  1.00  0.00     0.173 A 
ATOM     65  F   UNL A   1      38.797  26.385  30.203  1.00  0.00    -0.203 F 
ATOM     66  C   UNL A   1      39.707  25.825  28.106  1.00  0.00     0.198 A 
ATOM     67  C   UNL A   1      41.401  27.212  27.123  1.00  0.00     0.198 A 
ATOM     68  F   UNL A   1      42.180  29.114  28.270  1.00  0.00    -0.203 F 
ATOM     69  F   UNL A   1      38.930  24.735  28.061  1.00  0.00    -0.200 F 
ATOM     70  C   UNL A   1      40.579  26.098  27.063  1.00  0.00     0.200 A 
ATOM     71  F   UNL A   1      42.238  27.482  26.111  1.00  0.00    -0.200 F 
ATOM     72  F   UNL A   1      40.633  25.281  26.002  1.00  0.00    -0.200 F 
ENDBRANCH  48  62
BRANCH  49  73
ATOM     73  C   UNL A   1      39.539  33.973  37.066  1.00  0.00     0.064 A 
ATOM     74  C   UNL A   1      38.796  33.584  38.190  1.00  0.00     0.173 A 
ATOM     75  C   UNL A   1      40.138  35.240  37.084  1.00  0.00     0.173 A 
ATOM     76  F   UNL A   1      38.188  32.389  38.208  1.00  0.00    -0.203 F 
ATOM     77  C   UNL A   1      38.643  34.436  39.281  1.00  0.00     0.198 A 
ATOM     78  C   UNL A   1      40.005  36.082  38.185  1.00  0.00     0.198 A 
ATOM     79  F   UNL A   1      40.862  35.656  36.033  1.00  0.00    -0.203 F 
ATOM     80  F   UNL A   1      37.895  34.056  40.325  1.00  0.00    -0.200 F 
ATOM     81  C   UNL A   1      39.251  35.683  39.280  1.00  0.00     0.200 A 
ATOM     82  F   UNL A   1      40.602  37.281  38.186  1.00  0.00    -0.200 F 
ATOM     83  F   UNL A   1      39.106  36.501  40.330  1.00  0.00    -0.200 F 
ENDBRANCH  49  73
BRANCH  61  84
ATOM     84  C   UNL A   1      44.086  28.967  35.440  1.00  0.00     0.064 A 
ATOM     85  C   UNL A   1      44.002  27.911  36.359  1.00  0.00     0.173 A 
ATOM     86  C   UNL A   1      45.352  29.513  35.178  1.00  0.00     0.173 A 
ATOM     87  F   UNL A   1      42.811  27.366  36.654  1.00  0.00    -0.203 F 
ATOM     88  C   UNL A   1      45.136  27.440  37.013  1.00  0.00     0.198 A 
ATOM     89  C   UNL A   1      46.487  29.024  35.816  1.00  0.00     0.198 A 
ATOM     90  F   UNL A   1      45.485  30.521  34.304  1.00  0.00    -0.203 F 
ATOM     91  F   UNL A   1      45.026  26.465  37.925  1.00  0.00    -0.200 F 
ATOM     92  C   UNL A   1      46.378  27.995  36.739  1.00  0.00     0.200 A 
ATOM     93  F   UNL A   1      47.688  29.554  35.543  1.00  0.00    -0.200 F 
ATOM     94  F   UNL A   1      47.469  27.541  37.372  1.00  0.00    -0.200 F 
ENDBRANCH  61  84
ENDBRANCH  35  36
ENDBRANCH  27  30
ENDBRANCH  25  26
ENDBRANCH  24  25
ENDBRANCH   1  24
TORSDOF 16
ENDMDL
