MODEL 1
REMARK VINA RESULT:     -12.3      0.000      0.000
REMARK SMILES COc1ccc(/C=C2\SC(=S)[NH+]=C2NCCCNC(=O)c2ccc(-c3c4nc(c(-c5c(F)c(F)c(F)c(F)c5F)c5ccc([nH]5)c(-c5c(F)c(F)c(F)c(F)c5F)c5nc(c(-c6c(F)c(F)c(F)c(F)c6F)c6ccc3[nH]6)C=C5)C=C4)cc2)c(C(=O)[O-])c1OC
REMARK SMILES IDX 16 1 15 2 14 3 7 4 8 5 9 6 13 7 10 8 12 9 11 10 6 13 3 14
REMARK SMILES IDX 4 15 88 16 5 17 84 18 2 19 1 20 89 21 90 22 85 23 86 24
REMARK SMILES IDX 87 25 17 26 18 27 19 28 20 30 21 31 22 32 83 33 23 34 82 35
REMARK SMILES IDX 24 36 25 37 26 38 76 39 27 40 81 41 75 42 77 43 28 44 80 45
REMARK SMILES IDX 74 46 73 47 29 49 61 50 41 51 60 52 42 53 45 54 59 55 78 56
REMARK SMILES IDX 43 57 44 58 58 60 79 61 46 62 30 63 31 64 39 65 32 66 33 67
REMARK SMILES IDX 37 68 40 69 34 70 35 71 38 72 36 73 62 74 63 75 71 76 64 77
REMARK SMILES IDX 65 78 69 79 72 80 66 81 67 82 70 83 68 84 47 85 48 86 56 87
REMARK SMILES IDX 49 88 50 89 54 90 57 91 51 92 52 93 55 94 53 95
REMARK H PARENT 12 11 14 12 18 29 77 48 45 59
REMARK Flexibility Score: inf
ROOT
ATOM      1  C   UNL A   1      31.425  32.317  27.182  1.00  0.00     0.067 C 
ENDROOT
BRANCH   1   2
ATOM      2  C   UNL A   1      31.009  31.961  25.759  1.00  0.00     0.235 C 
BRANCH   2   3
ATOM      3  N   UNL A   1      31.348  30.581  25.437  1.00  0.00    -0.273 N 
ATOM      4  C   UNL A   1      32.105  27.715  24.526  1.00  0.00     0.033 C 
ATOM      5  C   UNL A   1      31.109  28.456  24.000  1.00  0.00     0.106 C 
ATOM      6  S   UNL A   1      30.024  28.047  22.717  1.00  0.00    -0.027 SA
ATOM      7  C   UNL A   1      30.750  29.877  24.415  1.00  0.00     0.288 C 
ATOM      8  C   UNL A   1      29.326  29.658  22.709  1.00  0.00     0.230 C 
ATOM      9  N   UNL A   1      29.799  30.452  23.721  1.00  0.00    -0.225 N 
ATOM     10  S   UNL A   1      28.231  30.138  21.540  1.00  0.00    -0.026 S 
ATOM     11  H   UNL A   1      29.459  31.358  23.907  1.00  0.00     0.314 HD
ATOM     12  H   UNL A   1      32.039  30.130  25.974  1.00  0.00     0.305 HD
BRANCH   4  13
ATOM     13  C   UNL A   1      32.622  26.335  24.206  1.00  0.00    -0.011 A 
ATOM     14  C   UNL A   1      33.652  23.760  23.506  1.00  0.00     0.161 A 
ATOM     15  C   UNL A   1      34.129  24.908  22.889  1.00  0.00     0.051 A 
ATOM     16  C   UNL A   1      32.668  23.859  24.498  1.00  0.00     0.170 A 
ATOM     17  C   UNL A   1      33.608  26.160  23.219  1.00  0.00     0.013 A 
ATOM     18  C   UNL A   1      32.135  25.143  24.828  1.00  0.00     0.050 A 
BRANCH  14  19
ATOM     19  O   UNL A   1      34.241  22.566  23.190  1.00  0.00    -0.493 OA
ATOM     20  C   UNL A   1      35.615  22.527  23.589  1.00  0.00     0.278 C 
ENDBRANCH  14  19
BRANCH  16  21
ATOM     21  O   UNL A   1      32.249  22.792  25.263  1.00  0.00    -0.492 OA
ATOM     22  C   UNL A   1      33.113  22.339  26.302  1.00  0.00     0.278 C 
ENDBRANCH  16  21
BRANCH  18  23
ATOM     23  C   UNL A   1      31.066  25.212  25.864  1.00  0.00     0.076 C 
ATOM     24  O   UNL A   1      31.227  25.240  27.073  1.00  0.00    -0.545 OA
ATOM     25  O   UNL A   1      29.834  25.332  25.335  1.00  0.00    -0.545 OA
ENDBRANCH  18  23
ENDBRANCH   4  13
ENDBRANCH   2   3
ENDBRANCH   1   2
BRANCH   1  26
ATOM     26  C   UNL A   1      32.693  33.159  27.267  1.00  0.00     0.120 C 
BRANCH  26  27
ATOM     27  N   UNL A   1      32.454  34.504  27.775  1.00  0.00    -0.352 N 
ATOM     28  C   UNL A   1      33.043  35.188  28.810  1.00  0.00     0.251 C 
ATOM     29  H   UNL A   1      31.753  35.004  27.297  1.00  0.00     0.163 HD
ATOM     30  O   UNL A   1      32.576  36.267  29.162  1.00  0.00    -0.269 OA
BRANCH  28  31
ATOM     31  C   UNL A   1      34.217  34.634  29.519  1.00  0.00     0.039 A 
ATOM     32  C   UNL A   1      34.029  34.074  30.786  1.00  0.00     0.014 A 
ATOM     33  C   UNL A   1      35.499  34.689  28.968  1.00  0.00     0.014 A 
ATOM     34  C   UNL A   1      35.111  33.509  31.466  1.00  0.00     0.010 A 
ATOM     35  C   UNL A   1      36.561  34.055  29.610  1.00  0.00     0.010 A 
ATOM     36  C   UNL A   1      36.379  33.457  30.866  1.00  0.00    -0.014 A 
BRANCH  36  37
ATOM     37  C   UNL A   1      37.518  32.769  31.530  1.00  0.00     0.031 A 
ATOM     38  C   UNL A   1      38.178  31.584  30.879  1.00  0.00     0.074 A 
ATOM     39  C   UNL A   1      37.917  33.174  32.751  1.00  0.00     0.049 A 
ATOM     40  N   UNL A   1      39.137  30.817  31.334  1.00  0.00    -0.248 NA
ATOM     41  C   UNL A   1      37.677  31.194  29.552  1.00  0.00     0.031 C 
ATOM     42  C   UNL A   1      37.333  34.283  33.506  1.00  0.00     0.029 A 
ATOM     43  N   UNL A   1      38.903  32.693  33.577  1.00  0.00    -0.354 N 
ATOM     44  C   UNL A   1      39.346  29.853  30.357  1.00  0.00     0.074 A 
ATOM     45  C   UNL A   1      38.374  30.094  29.313  1.00  0.00     0.031 C 
ATOM     46  C   UNL A   1      37.985  34.415  34.670  1.00  0.00     0.029 A 
ATOM     47  C   UNL A   1      39.002  33.371  34.768  1.00  0.00     0.049 A 
ATOM     48  H   UNL A   1      39.483  31.934  33.340  1.00  0.00     0.167 HD
ATOM     49  C   UNL A   1      40.278  28.869  30.324  1.00  0.00     0.037 A 
ATOM     50  C   UNL A   1      39.811  33.169  35.824  1.00  0.00     0.037 A 
ATOM     51  C   UNL A   1      41.250  28.638  31.362  1.00  0.00     0.049 A 
ATOM     52  C   UNL A   1      40.816  32.048  35.778  1.00  0.00     0.074 A 
ATOM     53  C   UNL A   1      42.267  27.701  31.398  1.00  0.00     0.029 A 
ATOM     54  N   UNL A   1      41.319  29.347  32.553  1.00  0.00    -0.354 N 
ATOM     55  N   UNL A   1      41.049  31.184  34.819  1.00  0.00    -0.248 NA
ATOM     56  C   UNL A   1      41.673  31.878  36.958  1.00  0.00     0.031 C 
ATOM     57  C   UNL A   1      42.911  27.800  32.636  1.00  0.00     0.029 A 
ATOM     58  C   UNL A   1      42.342  28.845  33.343  1.00  0.00     0.049 A 
ATOM     59  H   UNL A   1      40.729  30.094  32.801  1.00  0.00     0.167 HD
ATOM     60  C   UNL A   1      42.099  30.393  35.265  1.00  0.00     0.074 A 
ATOM     61  C   UNL A   1      42.466  30.889  36.575  1.00  0.00     0.031 C 
ATOM     62  C   UNL A   1      42.705  29.351  34.645  1.00  0.00     0.037 A 
BRANCH  49  63
ATOM     63  C   UNL A   1      40.286  27.959  29.126  1.00  0.00     0.064 A 
ATOM     64  C   UNL A   1      41.036  28.257  27.978  1.00  0.00     0.173 A 
ATOM     65  C   UNL A   1      39.561  26.758  29.139  1.00  0.00     0.173 A 
ATOM     66  F   UNL A   1      41.741  29.397  27.908  1.00  0.00    -0.203 F 
ATOM     67  C   UNL A   1      41.028  27.408  26.875  1.00  0.00     0.198 A 
ATOM     68  C   UNL A   1      39.584  25.892  28.048  1.00  0.00     0.198 A 
ATOM     69  F   UNL A   1      38.833  26.418  30.213  1.00  0.00    -0.203 F 
ATOM     70  F   UNL A   1      41.704  27.744  25.766  1.00  0.00    -0.200 F 
ATOM     71  C   UNL A   1      40.308  26.223  26.913  1.00  0.00     0.200 A 
ATOM     72  F   UNL A   1      38.902  24.740  28.094  1.00  0.00    -0.200 F 
ATOM     73  F   UNL A   1      40.307  25.403  25.853  1.00  0.00    -0.200 F 
ENDBRANCH  49  63
BRANCH  50  74
ATOM     74  C   UNL A   1      39.719  34.059  37.012  1.00  0.00     0.064 A 
ATOM     75  C   UNL A   1      40.421  35.272  37.060  1.00  0.00     0.173 A 
ATOM     76  C   UNL A   1      38.935  33.717  38.124  1.00  0.00     0.173 A 
ATOM     77  F   UNL A   1      41.201  35.634  36.030  1.00  0.00    -0.203 F 
ATOM     78  C   UNL A   1      40.361  36.096  38.181  1.00  0.00     0.198 A 
ATOM     79  C   UNL A   1      38.850  34.558  39.231  1.00  0.00     0.198 A 
ATOM     80  F   UNL A   1      38.240  32.569  38.129  1.00  0.00    -0.203 F 
ATOM     81  F   UNL A   1      41.083  37.224  38.220  1.00  0.00    -0.200 F 
ATOM     82  C   UNL A   1      39.571  35.742  39.263  1.00  0.00     0.200 A 
ATOM     83  F   UNL A   1      38.071  34.219  40.269  1.00  0.00    -0.200 F 
ATOM     84  F   UNL A   1      39.509  36.537  40.340  1.00  0.00    -0.200 F 
ENDBRANCH  50  74
BRANCH  62  85
ATOM     85  C   UNL A   1      43.860  28.700  35.352  1.00  0.00     0.064 A 
ATOM     86  C   UNL A   1      45.184  29.117  35.150  1.00  0.00     0.173 A 
ATOM     87  C   UNL A   1      43.633  27.666  36.274  1.00  0.00     0.173 A 
ATOM     88  F   UNL A   1      45.460  30.091  34.270  1.00  0.00    -0.203 F 
ATOM     89  C   UNL A   1      46.239  28.504  35.823  1.00  0.00     0.198 A 
ATOM     90  C   UNL A   1      44.686  27.080  36.971  1.00  0.00     0.198 A 
ATOM     91  F   UNL A   1      42.385  27.232  36.511  1.00  0.00    -0.203 F 
ATOM     92  F   UNL A   1      47.500  28.882  35.573  1.00  0.00    -0.200 F 
ATOM     93  C   UNL A   1      45.988  27.492  36.738  1.00  0.00     0.200 A 
ATOM     94  F   UNL A   1      44.439  26.116  37.869  1.00  0.00    -0.200 F 
ATOM     95  F   UNL A   1      47.004  26.911  37.391  1.00  0.00    -0.200 F 
ENDBRANCH  62  85
ENDBRANCH  36  37
ENDBRANCH  28  31
ENDBRANCH  26  27
ENDBRANCH   1  26
TORSDOF 13
ENDMDL
MODEL 2
REMARK VINA RESULT:     -12.1      0.523      7.199
REMARK SMILES COc1ccc(/C=C2\SC(=S)[NH+]=C2NCCCNC(=O)c2ccc(-c3c4nc(c(-c5c(F)c(F)c(F)c(F)c5F)c5ccc([nH]5)c(-c5c(F)c(F)c(F)c(F)c5F)c5nc(c(-c6c(F)c(F)c(F)c(F)c6F)c6ccc3[nH]6)C=C5)C=C4)cc2)c(C(=O)[O-])c1OC
REMARK SMILES IDX 16 1 15 2 14 3 7 4 8 5 9 6 13 7 10 8 12 9 11 10 6 13 3 14
REMARK SMILES IDX 4 15 88 16 5 17 84 18 2 19 1 20 89 21 90 22 85 23 86 24
REMARK SMILES IDX 87 25 17 26 18 27 19 28 20 30 21 31 22 32 83 33 23 34 82 35
REMARK SMILES IDX 24 36 25 37 26 38 76 39 27 40 81 41 75 42 77 43 28 44 80 45
REMARK SMILES IDX 74 46 73 47 29 49 61 50 41 51 60 52 42 53 45 54 59 55 78 56
REMARK SMILES IDX 43 57 44 58 58 60 79 61 46 62 30 63 31 64 39 65 32 66 33 67
REMARK SMILES IDX 37 68 40 69 34 70 35 71 38 72 36 73 62 74 63 75 71 76 64 77
REMARK SMILES IDX 65 78 69 79 72 80 66 81 67 82 70 83 68 84 47 85 48 86 56 87
REMARK SMILES IDX 49 88 50 89 54 90 57 91 51 92 52 93 55 94 53 95
REMARK H PARENT 12 11 14 12 18 29 77 48 45 59
REMARK Flexibility Score: inf
ROOT
ATOM      1  C   UNL A   1      31.522  32.406  27.237  1.00  0.00     0.067 C 
ENDROOT
BRANCH   1   2
ATOM      2  C   UNL A   1      31.027  32.051  25.838  1.00  0.00     0.235 C 
BRANCH   2   3
ATOM      3  N   UNL A   1      31.328  30.664  25.507  1.00  0.00    -0.273 N 
ATOM      4  C   UNL A   1      32.016  27.786  24.579  1.00  0.00     0.033 C 
ATOM      5  C   UNL A   1      31.078  28.577  24.018  1.00  0.00     0.106 C 
ATOM      6  S   UNL A   1      30.046  28.234  22.673  1.00  0.00    -0.027 SA
ATOM      7  C   UNL A   1      30.755  30.003  24.441  1.00  0.00     0.288 C 
ATOM      8  C   UNL A   1      29.414  29.873  22.662  1.00  0.00     0.230 C 
ATOM      9  N   UNL A   1      29.865  30.629  23.712  1.00  0.00    -0.225 N 
ATOM     10  S   UNL A   1      28.402  30.417  21.448  1.00  0.00    -0.026 S 
ATOM     11  H   UNL A   1      29.553  31.544  23.898  1.00  0.00     0.314 HD
ATOM     12  H   UNL A   1      31.971  30.176  26.070  1.00  0.00     0.305 HD
BRANCH   4  13
ATOM     13  C   UNL A   1      32.494  26.393  24.259  1.00  0.00    -0.011 A 
ATOM     14  C   UNL A   1      33.462  23.792  23.567  1.00  0.00     0.161 A 
ATOM     15  C   UNL A   1      34.075  24.934  23.069  1.00  0.00     0.051 A 
ATOM     16  C   UNL A   1      32.368  23.908  24.433  1.00  0.00     0.170 A 
ATOM     17  C   UNL A   1      33.585  26.200  23.393  1.00  0.00     0.013 A 
ATOM     18  C   UNL A   1      31.869  25.206  24.757  1.00  0.00     0.050 A 
BRANCH  14  19
ATOM     19  O   UNL A   1      34.021  22.578  23.268  1.00  0.00    -0.493 OA
ATOM     20  C   UNL A   1      35.309  22.421  23.873  1.00  0.00     0.278 C 
ENDBRANCH  14  19
BRANCH  16  21
ATOM     21  O   UNL A   1      31.800  22.837  25.088  1.00  0.00    -0.492 OA
ATOM     22  C   UNL A   1      32.466  22.333  26.242  1.00  0.00     0.278 C 
ENDBRANCH  16  21
BRANCH  18  23
ATOM     23  C   UNL A   1      30.683  25.297  25.656  1.00  0.00     0.076 C 
ATOM     24  O   UNL A   1      30.696  25.320  26.876  1.00  0.00    -0.545 OA
ATOM     25  O   UNL A   1      29.527  25.442  24.981  1.00  0.00    -0.545 OA
ENDBRANCH  18  23
ENDBRANCH   4  13
ENDBRANCH   2   3
ENDBRANCH   1   2
BRANCH   1  26
ATOM     26  C   UNL A   1      32.752  33.307  27.251  1.00  0.00     0.120 C 
BRANCH  26  27
ATOM     27  N   UNL A   1      32.516  34.587  27.907  1.00  0.00    -0.352 N 
ATOM     28  C   UNL A   1      33.094  35.140  29.023  1.00  0.00     0.251 C 
ATOM     29  H   UNL A   1      31.828  35.147  27.480  1.00  0.00     0.163 HD
ATOM     30  O   UNL A   1      32.632  36.176  29.490  1.00  0.00    -0.269 OA
BRANCH  28  31
ATOM     31  C   UNL A   1      34.252  34.495  29.681  1.00  0.00     0.039 A 
ATOM     32  C   UNL A   1      34.033  33.770  30.856  1.00  0.00     0.014 A 
ATOM     33  C   UNL A   1      35.547  34.623  29.175  1.00  0.00     0.014 A 
ATOM     34  C   UNL A   1      35.099  33.119  31.482  1.00  0.00     0.010 A 
ATOM     35  C   UNL A   1      36.594  33.907  29.753  1.00  0.00     0.010 A 
ATOM     36  C   UNL A   1      36.381  33.146  30.912  1.00  0.00    -0.014 A 
BRANCH  36  37
ATOM     37  C   UNL A   1      37.505  32.375  31.507  1.00  0.00     0.031 A 
ATOM     38  C   UNL A   1      38.043  32.734  32.865  1.00  0.00     0.074 A 
ATOM     39  C   UNL A   1      38.084  31.389  30.795  1.00  0.00     0.049 A 
ATOM     40  N   UNL A   1      39.057  32.223  33.516  1.00  0.00    -0.248 NA
ATOM     41  C   UNL A   1      37.367  33.831  33.574  1.00  0.00     0.031 C 
ATOM     42  C   UNL A   1      37.683  30.971  29.451  1.00  0.00     0.029 A 
ATOM     43  N   UNL A   1      39.140  30.566  31.097  1.00  0.00    -0.354 N 
ATOM     44  C   UNL A   1      39.146  32.939  34.703  1.00  0.00     0.074 A 
ATOM     45  C   UNL A   1      38.122  33.960  34.655  1.00  0.00     0.031 C 
ATOM     46  C   UNL A   1      38.464  29.954  29.055  1.00  0.00     0.029 A 
ATOM     47  C   UNL A   1      39.452  29.680  30.094  1.00  0.00     0.049 A 
ATOM     48  H   UNL A   1      39.629  30.606  31.951  1.00  0.00     0.167 HD
ATOM     49  C   UNL A   1      39.990  32.748  35.746  1.00  0.00     0.037 A 
ATOM     50  C   UNL A   1      40.430  28.758  30.015  1.00  0.00     0.037 A 
ATOM     51  C   UNL A   1      41.003  31.724  35.793  1.00  0.00     0.049 A 
ATOM     52  C   UNL A   1      41.376  28.588  31.173  1.00  0.00     0.074 A 
ATOM     53  C   UNL A   1      41.872  31.418  36.824  1.00  0.00     0.029 A 
ATOM     54  N   UNL A   1      41.287  30.845  34.758  1.00  0.00    -0.354 N 
ATOM     55  N   UNL A   1      41.408  29.227  32.318  1.00  0.00    -0.248 NA
ATOM     56  C   UNL A   1      42.421  27.565  31.030  1.00  0.00     0.031 C 
ATOM     57  C   UNL A   1      42.724  30.397  36.391  1.00  0.00     0.029 A 
ATOM     58  C   UNL A   1      42.341  30.018  35.116  1.00  0.00     0.049 A 
ATOM     59  H   UNL A   1      40.812  30.814  33.896  1.00  0.00     0.167 HD
ATOM     60  C   UNL A   1      42.448  28.661  33.043  1.00  0.00     0.074 A 
ATOM     61  C   UNL A   1      43.015  27.618  32.213  1.00  0.00     0.031 C 
ATOM     62  C   UNL A   1      42.893  28.976  34.284  1.00  0.00     0.037 A 
BRANCH  49  63
ATOM     63  C   UNL A   1      39.860  33.675  36.923  1.00  0.00     0.064 A 
ATOM     64  C   UNL A   1      40.569  34.883  36.995  1.00  0.00     0.173 A 
ATOM     65  C   UNL A   1      38.990  33.365  37.980  1.00  0.00     0.173 A 
ATOM     66  F   UNL A   1      41.423  35.225  36.017  1.00  0.00    -0.203 F 
ATOM     67  C   UNL A   1      40.442  35.727  38.096  1.00  0.00     0.198 A 
ATOM     68  C   UNL A   1      38.836  34.228  39.062  1.00  0.00     0.198 A 
ATOM     69  F   UNL A   1      38.280  32.227  37.961  1.00  0.00    -0.203 F 
ATOM     70  F   UNL A   1      41.176  36.846  38.169  1.00  0.00    -0.200 F 
ATOM     71  C   UNL A   1      39.570  35.403  39.125  1.00  0.00     0.200 A 
ATOM     72  F   UNL A   1      37.981  33.921  40.047  1.00  0.00    -0.200 F 
ATOM     73  F   UNL A   1      39.444  36.219  40.180  1.00  0.00    -0.200 F 
ENDBRANCH  49  63
BRANCH  50  74
ATOM     74  C   UNL A   1      40.555  27.910  28.800  1.00  0.00     0.064 A 
ATOM     75  C   UNL A   1      41.352  28.313  27.719  1.00  0.00     0.173 A 
ATOM     76  C   UNL A   1      39.878  26.686  28.688  1.00  0.00     0.173 A 
ATOM     77  F   UNL A   1      42.002  29.485  27.768  1.00  0.00    -0.203 F 
ATOM     78  C   UNL A   1      41.449  27.537  26.566  1.00  0.00     0.198 A 
ATOM     79  C   UNL A   1      40.003  25.895  27.548  1.00  0.00     0.198 A 
ATOM     80  F   UNL A   1      39.105  26.252  29.695  1.00  0.00    -0.203 F 
ATOM     81  F   UNL A   1      42.178  27.971  25.529  1.00  0.00    -0.200 F 
ATOM     82  C   UNL A   1      40.780  26.325  26.484  1.00  0.00     0.200 A 
ATOM     83  F   UNL A   1      39.367  24.717  27.480  1.00  0.00    -0.200 F 
ATOM     84  F   UNL A   1      40.878  25.577  25.377  1.00  0.00    -0.200 F 
ENDBRANCH  50  74
BRANCH  62  85
ATOM     85  C   UNL A   1      44.022  28.158  34.845  1.00  0.00     0.064 A 
ATOM     86  C   UNL A   1      45.362  28.550  34.710  1.00  0.00     0.173 A 
ATOM     87  C   UNL A   1      43.754  26.979  35.559  1.00  0.00     0.173 A 
ATOM     88  F   UNL A   1      45.676  29.660  34.025  1.00  0.00    -0.203 F 
ATOM     89  C   UNL A   1      46.392  27.780  35.245  1.00  0.00     0.198 A 
ATOM     90  C   UNL A   1      44.783  26.230  36.123  1.00  0.00     0.198 A 
ATOM     91  F   UNL A   1      42.490  26.561  35.724  1.00  0.00    -0.203 F 
ATOM     92  F   UNL A   1      47.667  28.146  35.057  1.00  0.00    -0.200 F 
ATOM     93  C   UNL A   1      46.101  26.625  35.957  1.00  0.00     0.200 A 
ATOM     94  F   UNL A   1      44.498  25.126  36.827  1.00  0.00    -0.200 F 
ATOM     95  F   UNL A   1      47.093  25.891  36.479  1.00  0.00    -0.200 F 
ENDBRANCH  62  85
ENDBRANCH  36  37
ENDBRANCH  28  31
ENDBRANCH  26  27
ENDBRANCH   1  26
TORSDOF 13
ENDMDL
MODEL 3
REMARK VINA RESULT:     -12.0      0.773      7.391
REMARK SMILES COc1ccc(/C=C2\SC(=S)[NH+]=C2NCCCNC(=O)c2ccc(-c3c4nc(c(-c5c(F)c(F)c(F)c(F)c5F)c5ccc([nH]5)c(-c5c(F)c(F)c(F)c(F)c5F)c5nc(c(-c6c(F)c(F)c(F)c(F)c6F)c6ccc3[nH]6)C=C5)C=C4)cc2)c(C(=O)[O-])c1OC
REMARK SMILES IDX 16 1 15 2 14 3 7 4 8 5 9 6 13 7 10 8 12 9 11 10 6 13 3 14
REMARK SMILES IDX 4 15 88 16 5 17 84 18 2 19 1 20 89 21 90 22 85 23 86 24
REMARK SMILES IDX 87 25 17 26 18 27 19 28 20 30 21 31 22 32 83 33 23 34 82 35
REMARK SMILES IDX 24 36 25 37 26 38 76 39 27 40 81 41 75 42 77 43 28 44 80 45
REMARK SMILES IDX 74 46 73 47 29 49 61 50 41 51 60 52 42 53 45 54 59 55 78 56
REMARK SMILES IDX 43 57 44 58 58 60 79 61 46 62 30 63 31 64 39 65 32 66 33 67
REMARK SMILES IDX 37 68 40 69 34 70 35 71 38 72 36 73 62 74 63 75 71 76 64 77
REMARK SMILES IDX 65 78 69 79 72 80 66 81 67 82 70 83 68 84 47 85 48 86 56 87
REMARK SMILES IDX 49 88 50 89 54 90 57 91 51 92 52 93 55 94 53 95
REMARK H PARENT 12 11 14 12 18 29 77 48 45 59
REMARK Flexibility Score: inf
ROOT
ATOM      1  C   UNL A   1      31.405  32.447  27.153  1.00  0.00     0.067 C 
ENDROOT
BRANCH   1   2
ATOM      2  C   UNL A   1      30.995  32.099  25.726  1.00  0.00     0.235 C 
BRANCH   2   3
ATOM      3  N   UNL A   1      31.315  30.714  25.406  1.00  0.00    -0.273 N 
ATOM      4  C   UNL A   1      32.026  27.835  24.496  1.00  0.00     0.033 C 
ATOM      5  C   UNL A   1      31.018  28.579  23.995  1.00  0.00     0.106 C 
ATOM      6  S   UNL A   1      29.891  28.165  22.750  1.00  0.00    -0.027 SA
ATOM      7  C   UNL A   1      30.681  30.005  24.408  1.00  0.00     0.288 C 
ATOM      8  C   UNL A   1      29.202  29.781  22.750  1.00  0.00     0.230 C 
ATOM      9  N   UNL A   1      29.712  30.581  23.740  1.00  0.00    -0.225 N 
ATOM     10  S   UNL A   1      28.075  30.258  21.612  1.00  0.00    -0.026 S 
ATOM     11  H   UNL A   1      29.384  31.490  23.928  1.00  0.00     0.314 HD
ATOM     12  H   UNL A   1      32.019  30.263  25.925  1.00  0.00     0.305 HD
BRANCH   4  13
ATOM     13  C   UNL A   1      32.524  26.450  24.172  1.00  0.00    -0.011 A 
ATOM     14  C   UNL A   1      33.520  23.864  23.465  1.00  0.00     0.161 A 
ATOM     15  C   UNL A   1      34.025  25.008  22.863  1.00  0.00     0.051 A 
ATOM     16  C   UNL A   1      32.524  23.971  24.444  1.00  0.00     0.170 A 
ATOM     17  C   UNL A   1      33.520  26.266  23.197  1.00  0.00     0.013 A 
ATOM     18  C   UNL A   1      32.009  25.261  24.777  1.00  0.00     0.050 A 
BRANCH  14  19
ATOM     19  O   UNL A   1      34.094  22.662  23.147  1.00  0.00    -0.493 OA
ATOM     20  C   UNL A   1      35.459  22.595  23.570  1.00  0.00     0.278 C 
ENDBRANCH  14  19
BRANCH  16  21
ATOM     21  O   UNL A   1      32.078  22.905  25.195  1.00  0.00    -0.492 OA
ATOM     22  C   UNL A   1      32.927  22.419  26.230  1.00  0.00     0.278 C 
ENDBRANCH  16  21
BRANCH  18  23
ATOM     23  C   UNL A   1      30.927  25.340  25.800  1.00  0.00     0.076 C 
ATOM     24  O   UNL A   1      29.726  25.269  25.595  1.00  0.00    -0.545 OA
ATOM     25  O   UNL A   1      31.403  25.421  27.057  1.00  0.00    -0.545 OA
ENDBRANCH  18  23
ENDBRANCH   4  13
ENDBRANCH   2   3
ENDBRANCH   1   2
BRANCH   1  26
ATOM     26  C   UNL A   1      32.713  33.224  27.252  1.00  0.00     0.120 C 
BRANCH  26  27
ATOM     27  N   UNL A   1      32.555  34.534  27.869  1.00  0.00    -0.352 N 
ATOM     28  C   UNL A   1      33.197  35.100  28.944  1.00  0.00     0.251 C 
ATOM     29  H   UNL A   1      31.877  35.108  27.446  1.00  0.00     0.163 HD
ATOM     30  O   UNL A   1      32.795  36.170  29.390  1.00  0.00    -0.269 OA
BRANCH  28  31
ATOM     31  C   UNL A   1      34.349  34.428  29.584  1.00  0.00     0.039 A 
ATOM     32  C   UNL A   1      34.121  33.655  30.727  1.00  0.00     0.014 A 
ATOM     33  C   UNL A   1      35.648  34.577  29.095  1.00  0.00     0.014 A 
ATOM     34  C   UNL A   1      35.182  32.979  31.334  1.00  0.00     0.010 A 
ATOM     35  C   UNL A   1      36.691  33.838  29.651  1.00  0.00     0.010 A 
ATOM     36  C   UNL A   1      36.469  33.030  30.776  1.00  0.00    -0.014 A 
BRANCH  36  37
ATOM     37  C   UNL A   1      37.589  32.235  31.347  1.00  0.00     0.031 A 
ATOM     38  C   UNL A   1      38.114  32.537  32.724  1.00  0.00     0.074 A 
ATOM     39  C   UNL A   1      38.174  31.280  30.599  1.00  0.00     0.049 A 
ATOM     40  N   UNL A   1      39.123  31.999  33.362  1.00  0.00    -0.248 NA
ATOM     41  C   UNL A   1      37.431  33.603  33.473  1.00  0.00     0.031 C 
ATOM     42  C   UNL A   1      37.785  30.919  29.236  1.00  0.00     0.029 A 
ATOM     43  N   UNL A   1      39.229  30.445  30.876  1.00  0.00    -0.354 N 
ATOM     44  C   UNL A   1      39.202  32.664  34.578  1.00  0.00     0.074 A 
ATOM     45  C   UNL A   1      38.177  33.686  34.565  1.00  0.00     0.031 C 
ATOM     46  C   UNL A   1      38.571  29.920  28.804  1.00  0.00     0.029 A 
ATOM     47  C   UNL A   1      39.550  29.603  29.839  1.00  0.00     0.049 A 
ATOM     48  H   UNL A   1      39.710  30.450  31.735  1.00  0.00     0.167 HD
ATOM     49  C   UNL A   1      40.037  32.431  35.619  1.00  0.00     0.037 A 
ATOM     50  C   UNL A   1      40.529  28.685  29.730  1.00  0.00     0.037 A 
ATOM     51  C   UNL A   1      41.049  31.406  35.632  1.00  0.00     0.049 A 
ATOM     52  C   UNL A   1      41.466  28.467  30.888  1.00  0.00     0.074 A 
ATOM     53  C   UNL A   1      41.910  31.057  36.657  1.00  0.00     0.029 A 
ATOM     54  N   UNL A   1      41.344  30.571  34.564  1.00  0.00    -0.354 N 
ATOM     55  N   UNL A   1      41.487  29.057  32.059  1.00  0.00    -0.248 NA
ATOM     56  C   UNL A   1      42.512  27.451  30.711  1.00  0.00     0.031 C 
ATOM     57  C   UNL A   1      42.767  30.056  36.189  1.00  0.00     0.029 A 
ATOM     58  C   UNL A   1      42.395  29.731  34.895  1.00  0.00     0.049 A 
ATOM     59  H   UNL A   1      40.876  30.576  33.697  1.00  0.00     0.167 HD
ATOM     60  C   UNL A   1      42.521  28.462  32.768  1.00  0.00     0.074 A 
ATOM     61  C   UNL A   1      43.096  27.455  31.900  1.00  0.00     0.031 C 
ATOM     62  C   UNL A   1      42.955  28.725  34.026  1.00  0.00     0.037 A 
BRANCH  49  63
ATOM     63  C   UNL A   1      39.895  33.306  36.834  1.00  0.00     0.064 A 
ATOM     64  C   UNL A   1      38.975  33.014  37.853  1.00  0.00     0.173 A 
ATOM     65  C   UNL A   1      40.713  34.435  36.997  1.00  0.00     0.173 A 
ATOM     66  F   UNL A   1      38.161  31.952  37.744  1.00  0.00    -0.203 F 
ATOM     67  C   UNL A   1      38.852  33.839  38.968  1.00  0.00     0.198 A 
ATOM     68  C   UNL A   1      40.614  35.237  38.132  1.00  0.00     0.198 A 
ATOM     69  F   UNL A   1      41.616  34.758  36.060  1.00  0.00    -0.203 F 
ATOM     70  F   UNL A   1      37.924  33.572  39.898  1.00  0.00    -0.200 F 
ATOM     71  C   UNL A   1      39.676  34.945  39.111  1.00  0.00     0.200 A 
ATOM     72  F   UNL A   1      41.423  36.296  38.275  1.00  0.00    -0.200 F 
ATOM     73  F   UNL A   1      39.561  35.734  40.188  1.00  0.00    -0.200 F 
ENDBRANCH  49  63
BRANCH  50  74
ATOM     74  C   UNL A   1      40.665  27.889  28.481  1.00  0.00     0.064 A 
ATOM     75  C   UNL A   1      40.033  26.644  28.348  1.00  0.00     0.173 A 
ATOM     76  C   UNL A   1      41.431  28.349  27.399  1.00  0.00     0.173 A 
ATOM     77  F   UNL A   1      39.307  26.152  29.362  1.00  0.00    -0.203 F 
ATOM     78  C   UNL A   1      40.180  25.881  27.192  1.00  0.00     0.198 A 
ATOM     79  C   UNL A   1      41.550  27.599  26.231  1.00  0.00     0.198 A 
ATOM     80  F   UNL A   1      42.054  29.534  27.473  1.00  0.00    -0.203 F 
ATOM     81  F   UNL A   1      39.606  24.673  27.113  1.00  0.00    -0.200 F 
ATOM     82  C   UNL A   1      40.932  26.362  26.132  1.00  0.00     0.200 A 
ATOM     83  F   UNL A   1      42.265  28.075  25.202  1.00  0.00    -0.200 F 
ATOM     84  F   UNL A   1      41.069  25.630  25.018  1.00  0.00    -0.200 F 
ENDBRANCH  50  74
BRANCH  62  85
ATOM     85  C   UNL A   1      44.080  27.884  34.561  1.00  0.00     0.064 A 
ATOM     86  C   UNL A   1      45.421  28.284  34.457  1.00  0.00     0.173 A 
ATOM     87  C   UNL A   1      43.807  26.675  35.221  1.00  0.00     0.173 A 
ATOM     88  F   UNL A   1      45.739  29.423  33.824  1.00  0.00    -0.203 F 
ATOM     89  C   UNL A   1      46.446  27.492  34.967  1.00  0.00     0.198 A 
ATOM     90  C   UNL A   1      44.832  25.904  35.761  1.00  0.00     0.198 A 
ATOM     91  F   UNL A   1      42.542  26.248  35.355  1.00  0.00    -0.203 F 
ATOM     92  F   UNL A   1      47.723  27.868  34.808  1.00  0.00    -0.200 F 
ATOM     93  C   UNL A   1      46.151  26.307  35.626  1.00  0.00     0.200 A 
ATOM     94  F   UNL A   1      44.542  24.770  36.414  1.00  0.00    -0.200 F 
ATOM     95  F   UNL A   1      47.138  25.552  36.125  1.00  0.00    -0.200 F 
ENDBRANCH  62  85
ENDBRANCH  36  37
ENDBRANCH  28  31
ENDBRANCH  26  27
ENDBRANCH   1  26
TORSDOF 13
ENDMDL
