MODEL 1
REMARK VINA RESULT:     -11.9      0.000      0.000
REMARK SMILES CCc1nc(=O)n([C@H]2CCCOC2)c(CC)c1CC(=O)NCCCNC(=O)c1ccc(-c2c3nc(c(-c4c(F)c(F)c(F)c(F)c4F)c4ccc([nH]4)c(-c4c(F)c(F)c(F)c(F)c4F)c4nc(c(-c5c(F)c(F)c(F)c(F)c5F)c5ccc2[nH]5)C=C4)C=C3)cc1
REMARK SMILES IDX 23 1 22 2 21 3 19 4 20 5 18 7 17 8 3 9 4 10 5 11 14 12 6 13
REMARK SMILES IDX 7 14 2 15 1 16 15 17 16 18 8 19 9 20 13 21 10 22 12 23 11 24
REMARK SMILES IDX 24 25 25 26 26 27 27 29 28 30 29 31 90 32 30 33 89 34 31 35
REMARK SMILES IDX 32 36 33 37 83 38 34 39 88 40 82 41 84 42 35 43 87 44 81 45
REMARK SMILES IDX 80 46 36 48 68 49 48 50 67 51 49 52 52 53 66 54 85 55 50 56
REMARK SMILES IDX 51 57 65 59 86 60 53 61 37 62 38 63 46 64 39 65 40 66 44 67
REMARK SMILES IDX 47 68 41 69 42 70 45 71 43 72 69 73 70 74 78 75 71 76 72 77
REMARK SMILES IDX 76 78 79 79 73 80 74 81 77 82 75 83 54 84 55 85 63 86 56 87
REMARK SMILES IDX 57 88 61 89 64 90 58 91 59 92 62 93 60 94
REMARK H PARENT 21 6 25 28 84 47 52 58
REMARK Flexibility Score: inf
ROOT
ATOM      1  C   UNL A   1      37.818  20.013  25.001  1.00  0.00     0.042 C 
ENDROOT
BRANCH   1   2
ATOM      2  C   UNL A   1      37.031  21.217  24.513  1.00  0.00     0.117 C 
BRANCH   2   3
ATOM      3  N   UNL A   1      37.250  22.401  25.316  1.00  0.00    -0.356 N 
ATOM      4  C   UNL A   1      36.535  23.553  25.404  1.00  0.00     0.224 C 
ATOM      5  O   UNL A   1      36.912  24.392  26.226  1.00  0.00    -0.275 OA
ATOM      6  H   UNL A   1      38.047  22.365  25.893  1.00  0.00     0.163 HD
BRANCH   4   7
ATOM      7  C   UNL A   1      35.286  23.797  24.558  1.00  0.00     0.139 C 
BRANCH   7   8
ATOM      8  C   UNL A   1      34.051  24.233  25.301  1.00  0.00     0.003 A 
ATOM      9  C   UNL A   1      33.365  23.320  26.265  1.00  0.00     0.051 A 
ATOM     10  N   UNL A   1      32.209  23.597  26.771  1.00  0.00    -0.198 NA
ATOM     11  C   UNL A   1      31.578  24.767  26.498  1.00  0.00     0.348 A 
ATOM     12  C   UNL A   1      33.472  25.461  25.143  1.00  0.00     0.028 A 
ATOM     13  O   UNL A   1      30.401  24.909  26.831  1.00  0.00    -0.246 OA
ATOM     14  N   UNL A   1      32.302  25.803  25.864  1.00  0.00    -0.291 N 
BRANCH   9  15
ATOM     15  C   UNL A   1      33.865  21.940  26.779  1.00  0.00     0.053 C 
ATOM     16  C   UNL A   1      33.703  20.589  26.113  1.00  0.00     0.011 C 
ENDBRANCH   9  15
BRANCH  12  17
ATOM     17  C   UNL A   1      34.015  26.406  24.083  1.00  0.00     0.051 C 
ATOM     18  C   UNL A   1      33.483  26.074  22.689  1.00  0.00     0.010 C 
ENDBRANCH  12  17
BRANCH  14  19
ATOM     19  C   UNL A   1      31.619  27.139  25.988  1.00  0.00     0.118 C 
ATOM     20  C   UNL A   1      31.996  27.836  27.331  1.00  0.00     0.030 C 
ATOM     21  C   UNL A   1      31.731  28.265  24.938  1.00  0.00     0.185 C 
ATOM     22  C   UNL A   1      33.373  28.487  27.251  1.00  0.00     0.031 C 
ATOM     23  O   UNL A   1      33.032  28.855  24.873  1.00  0.00    -0.379 OA
ATOM     24  C   UNL A   1      33.435  29.467  26.092  1.00  0.00     0.160 C 
ENDBRANCH  14  19
ENDBRANCH   7   8
ENDBRANCH   4   7
ENDBRANCH   2   3
ENDBRANCH   1   2
BRANCH   1  25
ATOM     25  C   UNL A   1      39.104  20.386  25.719  1.00  0.00     0.118 C 
BRANCH  25  26
ATOM     26  N   UNL A   1      40.062  19.285  25.784  1.00  0.00    -0.352 N 
ATOM     27  C   UNL A   1      41.419  19.293  26.001  1.00  0.00     0.251 C 
ATOM     28  H   UNL A   1      39.671  18.391  25.651  1.00  0.00     0.163 HD
ATOM     29  O   UNL A   1      42.071  18.266  25.844  1.00  0.00    -0.269 OA
BRANCH  27  30
ATOM     30  C   UNL A   1      42.095  20.549  26.386  1.00  0.00     0.039 A 
ATOM     31  C   UNL A   1      42.197  20.911  27.728  1.00  0.00     0.014 A 
ATOM     32  C   UNL A   1      42.601  21.391  25.392  1.00  0.00     0.014 A 
ATOM     33  C   UNL A   1      42.584  22.201  28.061  1.00  0.00     0.010 A 
ATOM     34  C   UNL A   1      43.109  22.645  25.742  1.00  0.00     0.010 A 
ATOM     35  C   UNL A   1      43.044  23.085  27.073  1.00  0.00    -0.014 A 
BRANCH  35  36
ATOM     36  C   UNL A   1      43.435  24.466  27.462  1.00  0.00     0.031 A 
ATOM     37  C   UNL A   1      44.875  24.901  27.413  1.00  0.00     0.074 A 
ATOM     38  C   UNL A   1      42.473  25.350  27.792  1.00  0.00     0.049 A 
ATOM     39  N   UNL A   1      45.396  26.066  27.714  1.00  0.00    -0.248 NA
ATOM     40  C   UNL A   1      45.865  23.903  26.975  1.00  0.00     0.031 C 
ATOM     41  C   UNL A   1      41.041  25.052  27.851  1.00  0.00     0.029 A 
ATOM     42  N   UNL A   1      42.547  26.682  28.110  1.00  0.00    -0.354 N 
ATOM     43  C   UNL A   1      46.764  25.934  27.520  1.00  0.00     0.074 A 
ATOM     44  C   UNL A   1      47.004  24.567  27.111  1.00  0.00     0.031 C 
ATOM     45  C   UNL A   1      40.367  26.179  28.122  1.00  0.00     0.029 A 
ATOM     46  C   UNL A   1      41.323  27.260  28.338  1.00  0.00     0.049 A 
ATOM     47  H   UNL A   1      43.396  27.177  28.169  1.00  0.00     0.167 HD
ATOM     48  C   UNL A   1      47.731  26.873  27.654  1.00  0.00     0.037 A 
ATOM     49  C   UNL A   1      41.000  28.515  28.701  1.00  0.00     0.037 A 
ATOM     50  C   UNL A   1      47.483  28.241  28.032  1.00  0.00     0.049 A 
ATOM     51  C   UNL A   1      42.097  29.520  28.903  1.00  0.00     0.074 A 
ATOM     52  C   UNL A   1      48.394  29.273  28.178  1.00  0.00     0.029 A 
ATOM     53  N   UNL A   1      46.233  28.770  28.319  1.00  0.00    -0.354 N 
ATOM     54  N   UNL A   1      43.388  29.381  28.717  1.00  0.00    -0.248 NA
ATOM     55  C   UNL A   1      41.698  30.851  29.377  1.00  0.00     0.031 C 
ATOM     56  C   UNL A   1      47.704  30.409  28.604  1.00  0.00     0.029 A 
ATOM     57  C   UNL A   1      46.354  30.105  28.667  1.00  0.00     0.049 A 
ATOM     58  H   UNL A   1      45.385  28.269  28.281  1.00  0.00     0.167 HD
ATOM     59  C   UNL A   1      43.952  30.608  29.033  1.00  0.00     0.074 A 
ATOM     60  C   UNL A   1      42.861  31.487  29.402  1.00  0.00     0.031 C 
ATOM     61  C   UNL A   1      45.258  30.970  29.027  1.00  0.00     0.037 A 
BRANCH  48  62
ATOM     62  C   UNL A   1      49.154  26.465  27.396  1.00  0.00     0.064 A 
ATOM     63  C   UNL A   1      49.674  26.385  26.096  1.00  0.00     0.173 A 
ATOM     64  C   UNL A   1      50.031  26.233  28.468  1.00  0.00     0.173 A 
ATOM     65  F   UNL A   1      48.877  26.592  25.037  1.00  0.00    -0.203 F 
ATOM     66  C   UNL A   1      51.014  26.071  25.877  1.00  0.00     0.198 A 
ATOM     67  C   UNL A   1      51.376  25.951  28.246  1.00  0.00     0.198 A 
ATOM     68  F   UNL A   1      49.589  26.308  29.732  1.00  0.00    -0.203 F 
ATOM     69  F   UNL A   1      51.481  25.970  24.625  1.00  0.00    -0.200 F 
ATOM     70  C   UNL A   1      51.866  25.866  26.952  1.00  0.00     0.200 A 
ATOM     71  F   UNL A   1      52.203  25.773  29.287  1.00  0.00    -0.200 F 
ATOM     72  F   UNL A   1      53.160  25.588  26.740  1.00  0.00    -0.200 F 
ENDBRANCH  48  62
BRANCH  49  73
ATOM     73  C   UNL A   1      39.572  28.879  28.897  1.00  0.00     0.064 A 
ATOM     74  C   UNL A   1      38.788  29.318  27.823  1.00  0.00     0.173 A 
ATOM     75  C   UNL A   1      38.955  28.762  30.152  1.00  0.00     0.173 A 
ATOM     76  F   UNL A   1      39.336  29.463  26.608  1.00  0.00    -0.203 F 
ATOM     77  C   UNL A   1      37.441  29.632  27.998  1.00  0.00     0.198 A 
ATOM     78  C   UNL A   1      37.602  29.045  30.318  1.00  0.00     0.198 A 
ATOM     79  F   UNL A   1      39.661  28.343  31.213  1.00  0.00    -0.203 F 
ATOM     80  F   UNL A   1      36.721  30.082  26.962  1.00  0.00    -0.200 F 
ATOM     81  C   UNL A   1      36.847  29.486  29.242  1.00  0.00     0.200 A 
ATOM     82  F   UNL A   1      37.028  28.881  31.519  1.00  0.00    -0.200 F 
ATOM     83  F   UNL A   1      35.549  29.771  29.405  1.00  0.00    -0.200 F 
ENDBRANCH  49  73
BRANCH  61  84
ATOM     84  C   UNL A   1      45.588  32.383  29.411  1.00  0.00     0.064 A 
ATOM     85  C   UNL A   1      45.586  33.418  28.465  1.00  0.00     0.173 A 
ATOM     86  C   UNL A   1      45.836  32.717  30.751  1.00  0.00     0.173 A 
ATOM     87  F   UNL A   1      45.369  33.148  27.168  1.00  0.00    -0.203 F 
ATOM     88  C   UNL A   1      45.836  34.734  28.844  1.00  0.00     0.198 A 
ATOM     89  C   UNL A   1      46.053  34.038  31.132  1.00  0.00     0.198 A 
ATOM     90  F   UNL A   1      45.841  31.766  31.697  1.00  0.00    -0.203 F 
ATOM     91  F   UNL A   1      45.868  35.702  27.917  1.00  0.00    -0.200 F 
ATOM     92  C   UNL A   1      46.058  35.044  30.178  1.00  0.00     0.200 A 
ATOM     93  F   UNL A   1      46.250  34.339  32.423  1.00  0.00    -0.200 F 
ATOM     94  F   UNL A   1      46.279  36.314  30.543  1.00  0.00    -0.200 F 
ENDBRANCH  61  84
ENDBRANCH  35  36
ENDBRANCH  27  30
ENDBRANCH  25  26
ENDBRANCH   1  25
TORSDOF 14
ENDMDL
MODEL 2
REMARK VINA RESULT:     -11.8      5.113     10.586
REMARK SMILES CCc1nc(=O)n([C@H]2CCCOC2)c(CC)c1CC(=O)NCCCNC(=O)c1ccc(-c2c3nc(c(-c4c(F)c(F)c(F)c(F)c4F)c4ccc([nH]4)c(-c4c(F)c(F)c(F)c(F)c4F)c4nc(c(-c5c(F)c(F)c(F)c(F)c5F)c5ccc2[nH]5)C=C4)C=C3)cc1
REMARK SMILES IDX 23 1 22 2 21 3 19 4 20 5 18 7 17 8 3 9 4 10 5 11 14 12 6 13
REMARK SMILES IDX 7 14 2 15 1 16 15 17 16 18 8 19 9 20 13 21 10 22 12 23 11 24
REMARK SMILES IDX 24 25 25 26 26 27 27 29 28 30 29 31 90 32 30 33 89 34 31 35
REMARK SMILES IDX 32 36 33 37 83 38 34 39 88 40 82 41 84 42 35 43 87 44 81 45
REMARK SMILES IDX 80 46 36 48 68 49 48 50 67 51 49 52 52 53 66 54 85 55 50 56
REMARK SMILES IDX 51 57 65 59 86 60 53 61 37 62 38 63 46 64 39 65 40 66 44 67
REMARK SMILES IDX 47 68 41 69 42 70 45 71 43 72 69 73 70 74 78 75 71 76 72 77
REMARK SMILES IDX 76 78 79 79 73 80 74 81 77 82 75 83 54 84 55 85 63 86 56 87
REMARK SMILES IDX 57 88 61 89 64 90 58 91 59 92 62 93 60 94
REMARK H PARENT 21 6 25 28 84 47 52 58
REMARK Flexibility Score: inf
ROOT
ATOM      1  C   UNL A   1      31.541  31.680  26.779  1.00  0.00     0.042 C 
ENDROOT
BRANCH   1   2
ATOM      2  C   UNL A   1      31.867  30.446  25.957  1.00  0.00     0.117 C 
BRANCH   2   3
ATOM      3  N   UNL A   1      33.105  29.811  26.355  1.00  0.00    -0.356 N 
ATOM      4  C   UNL A   1      33.469  28.502  26.345  1.00  0.00     0.224 C 
ATOM      5  O   UNL A   1      34.624  28.232  26.684  1.00  0.00    -0.275 OA
ATOM      6  H   UNL A   1      33.797  30.428  26.686  1.00  0.00     0.163 HD
BRANCH   4   7
ATOM      7  C   UNL A   1      32.512  27.399  25.893  1.00  0.00     0.139 C 
BRANCH   7   8
ATOM      8  C   UNL A   1      33.019  26.478  24.815  1.00  0.00     0.003 A 
ATOM      9  C   UNL A   1      33.138  26.936  23.397  1.00  0.00     0.051 A 
ATOM     10  N   UNL A   1      33.390  26.118  22.429  1.00  0.00    -0.198 NA
ATOM     11  C   UNL A   1      33.618  24.800  22.656  1.00  0.00     0.348 A 
ATOM     12  C   UNL A   1      33.384  25.180  25.044  1.00  0.00     0.028 A 
ATOM     13  O   UNL A   1      33.653  24.022  21.702  1.00  0.00    -0.246 OA
ATOM     14  N   UNL A   1      33.840  24.362  23.982  1.00  0.00    -0.291 N 
BRANCH   9  15
ATOM     15  C   UNL A   1      32.959  28.381  22.853  1.00  0.00     0.053 C 
ATOM     16  C   UNL A   1      31.663  29.114  22.577  1.00  0.00     0.011 C 
ENDBRANCH   9  15
BRANCH  12  17
ATOM     17  C   UNL A   1      33.167  24.582  26.425  1.00  0.00     0.051 C 
ATOM     18  C   UNL A   1      31.769  23.982  26.578  1.00  0.00     0.010 C 
ENDBRANCH  12  17
BRANCH  14  19
ATOM     19  C   UNL A   1      34.463  22.994  24.037  1.00  0.00     0.118 C 
ATOM     20  C   UNL A   1      35.928  23.025  23.501  1.00  0.00     0.030 C 
ATOM     21  C   UNL A   1      34.553  22.138  25.319  1.00  0.00     0.185 C 
ATOM     22  C   UNL A   1      36.892  23.565  24.552  1.00  0.00     0.031 C 
ATOM     23  O   UNL A   1      35.455  22.668  26.295  1.00  0.00    -0.379 OA
ATOM     24  C   UNL A   1      36.798  22.754  25.833  1.00  0.00     0.160 C 
ENDBRANCH  14  19
ENDBRANCH   7   8
ENDBRANCH   4   7
ENDBRANCH   2   3
ENDBRANCH   1   2
BRANCH   1  25
ATOM     25  C   UNL A   1      32.774  32.432  27.251  1.00  0.00     0.118 C 
BRANCH  25  26
ATOM     26  N   UNL A   1      32.502  33.831  27.574  1.00  0.00    -0.352 N 
ATOM     27  C   UNL A   1      33.057  34.652  28.526  1.00  0.00     0.251 C 
ATOM     28  H   UNL A   1      31.807  34.253  27.018  1.00  0.00     0.163 HD
ATOM     29  O   UNL A   1      32.563  35.752  28.749  1.00  0.00    -0.269 OA
BRANCH  27  30
ATOM     30  C   UNL A   1      34.226  34.192  29.302  1.00  0.00     0.039 A 
ATOM     31  C   UNL A   1      35.518  34.484  28.870  1.00  0.00     0.014 A 
ATOM     32  C   UNL A   1      34.028  33.430  30.458  1.00  0.00     0.014 A 
ATOM     33  C   UNL A   1      36.596  33.828  29.446  1.00  0.00     0.010 A 
ATOM     34  C   UNL A   1      35.129  32.872  31.113  1.00  0.00     0.010 A 
ATOM     35  C   UNL A   1      36.416  33.012  30.574  1.00  0.00    -0.014 A 
BRANCH  35  36
ATOM     36  C   UNL A   1      37.591  32.310  31.155  1.00  0.00     0.031 A 
ATOM     37  C   UNL A   1      38.051  32.610  32.557  1.00  0.00     0.074 A 
ATOM     38  C   UNL A   1      38.200  31.348  30.436  1.00  0.00     0.049 A 
ATOM     39  N   UNL A   1      39.052  32.092  33.225  1.00  0.00    -0.248 NA
ATOM     40  C   UNL A   1      37.294  33.623  33.310  1.00  0.00     0.031 C 
ATOM     41  C   UNL A   1      37.830  30.952  29.076  1.00  0.00     0.029 A 
ATOM     42  N   UNL A   1      39.236  30.506  30.754  1.00  0.00    -0.354 N 
ATOM     43  C   UNL A   1      39.055  32.726  34.460  1.00  0.00     0.074 A 
ATOM     44  C   UNL A   1      37.981  33.695  34.441  1.00  0.00     0.031 C 
ATOM     45  C   UNL A   1      38.581  29.907  28.701  1.00  0.00     0.029 A 
ATOM     46  C   UNL A   1      39.542  29.612  29.759  1.00  0.00     0.049 A 
ATOM     47  H   UNL A   1      39.715  30.541  31.614  1.00  0.00     0.167 HD
ATOM     48  C   UNL A   1      39.871  32.507  35.520  1.00  0.00     0.037 A 
ATOM     49  C   UNL A   1      40.500  28.671  29.690  1.00  0.00     0.037 A 
ATOM     50  C   UNL A   1      40.919  31.520  35.544  1.00  0.00     0.049 A 
ATOM     51  C   UNL A   1      41.430  28.493  30.856  1.00  0.00     0.074 A 
ATOM     52  C   UNL A   1      41.788  31.211  36.576  1.00  0.00     0.029 A 
ATOM     53  N   UNL A   1      41.240  30.679  34.488  1.00  0.00    -0.354 N 
ATOM     54  N   UNL A   1      41.423  29.100  32.018  1.00  0.00    -0.248 NA
ATOM     55  C   UNL A   1      42.508  27.508  30.699  1.00  0.00     0.031 C 
ATOM     56  C   UNL A   1      42.666  30.222  36.129  1.00  0.00     0.029 A 
ATOM     57  C   UNL A   1      42.310  29.871  34.837  1.00  0.00     0.049 A 
ATOM     58  H   UNL A   1      40.775  30.660  33.619  1.00  0.00     0.167 HD
ATOM     59  C   UNL A   1      42.481  28.562  32.736  1.00  0.00     0.074 A 
ATOM     60  C   UNL A   1      43.095  27.561  31.887  1.00  0.00     0.031 C 
ATOM     61  C   UNL A   1      42.908  28.875  33.983  1.00  0.00     0.037 A 
BRANCH  48  62
ATOM     62  C   UNL A   1      39.673  33.348  36.750  1.00  0.00     0.064 A 
ATOM     63  C   UNL A   1      40.324  34.580  36.912  1.00  0.00     0.173 A 
ATOM     64  C   UNL A   1      38.758  32.956  37.739  1.00  0.00     0.173 A 
ATOM     65  F   UNL A   1      41.214  34.999  35.999  1.00  0.00    -0.203 F 
ATOM     66  C   UNL A   1      40.079  35.380  38.026  1.00  0.00     0.198 A 
ATOM     67  C   UNL A   1      38.491  33.773  38.835  1.00  0.00     0.198 A 
ATOM     68  F   UNL A   1      38.099  31.793  37.628  1.00  0.00    -0.203 F 
ATOM     69  F   UNL A   1      40.735  36.539  38.175  1.00  0.00    -0.200 F 
ATOM     70  C   UNL A   1      39.155  34.981  38.980  1.00  0.00     0.200 A 
ATOM     71  F   UNL A   1      37.584  33.394  39.746  1.00  0.00    -0.200 F 
ATOM     72  F   UNL A   1      38.902  35.763  40.039  1.00  0.00    -0.200 F 
ENDBRANCH  48  62
BRANCH  49  73
ATOM     73  C   UNL A   1      40.623  27.833  28.469  1.00  0.00     0.064 A 
ATOM     74  C   UNL A   1      39.951  26.608  28.367  1.00  0.00     0.173 A 
ATOM     75  C   UNL A   1      41.382  28.255  27.367  1.00  0.00     0.173 A 
ATOM     76  F   UNL A   1      39.228  26.152  29.400  1.00  0.00    -0.203 F 
ATOM     77  C   UNL A   1      40.041  25.834  27.211  1.00  0.00     0.198 A 
ATOM     78  C   UNL A   1      41.444  27.497  26.202  1.00  0.00     0.198 A 
ATOM     79  F   UNL A   1      42.041  29.423  27.412  1.00  0.00    -0.203 F 
ATOM     80  F   UNL A   1      39.417  24.650  27.152  1.00  0.00    -0.200 F 
ATOM     81  C   UNL A   1      40.778  26.283  26.126  1.00  0.00     0.200 A 
ATOM     82  F   UNL A   1      42.140  27.947  25.148  1.00  0.00    -0.200 F 
ATOM     83  F   UNL A   1      40.848  25.547  25.010  1.00  0.00    -0.200 F 
ENDBRANCH  49  73
BRANCH  61  84
ATOM     84  C   UNL A   1      44.087  28.118  34.522  1.00  0.00     0.064 A 
ATOM     85  C   UNL A   1      43.930  26.893  35.185  1.00  0.00     0.173 A 
ATOM     86  C   UNL A   1      45.392  28.588  34.310  1.00  0.00     0.173 A 
ATOM     87  F   UNL A   1      42.702  26.407  35.426  1.00  0.00    -0.203 F 
ATOM     88  C   UNL A   1      45.035  26.172  35.629  1.00  0.00     0.198 A 
ATOM     89  C   UNL A   1      46.496  27.849  34.725  1.00  0.00     0.198 A 
ATOM     90  F   UNL A   1      45.599  29.751  33.674  1.00  0.00    -0.203 F 
ATOM     91  F   UNL A   1      44.859  25.021  36.294  1.00  0.00    -0.200 F 
ATOM     92  C   UNL A   1      46.317  26.645  35.389  1.00  0.00     0.200 A 
ATOM     93  F   UNL A   1      47.735  28.299  34.477  1.00  0.00    -0.200 F 
ATOM     94  F   UNL A   1      47.379  25.940  35.800  1.00  0.00    -0.200 F 
ENDBRANCH  61  84
ENDBRANCH  35  36
ENDBRANCH  27  30
ENDBRANCH  25  26
ENDBRANCH   1  25
TORSDOF 14
ENDMDL
MODEL 3
REMARK VINA RESULT:     -11.8      0.302      7.278
REMARK SMILES CCc1nc(=O)n([C@H]2CCCOC2)c(CC)c1CC(=O)NCCCNC(=O)c1ccc(-c2c3nc(c(-c4c(F)c(F)c(F)c(F)c4F)c4ccc([nH]4)c(-c4c(F)c(F)c(F)c(F)c4F)c4nc(c(-c5c(F)c(F)c(F)c(F)c5F)c5ccc2[nH]5)C=C4)C=C3)cc1
REMARK SMILES IDX 23 1 22 2 21 3 19 4 20 5 18 7 17 8 3 9 4 10 5 11 14 12 6 13
REMARK SMILES IDX 7 14 2 15 1 16 15 17 16 18 8 19 9 20 13 21 10 22 12 23 11 24
REMARK SMILES IDX 24 25 25 26 26 27 27 29 28 30 29 31 90 32 30 33 89 34 31 35
REMARK SMILES IDX 32 36 33 37 83 38 34 39 88 40 82 41 84 42 35 43 87 44 81 45
REMARK SMILES IDX 80 46 36 48 68 49 48 50 67 51 49 52 52 53 66 54 85 55 50 56
REMARK SMILES IDX 51 57 65 59 86 60 53 61 37 62 38 63 46 64 39 65 40 66 44 67
REMARK SMILES IDX 47 68 41 69 42 70 45 71 43 72 69 73 70 74 78 75 71 76 72 77
REMARK SMILES IDX 76 78 79 79 73 80 74 81 77 82 75 83 54 84 55 85 63 86 56 87
REMARK SMILES IDX 57 88 61 89 64 90 58 91 59 92 62 93 60 94
REMARK H PARENT 21 6 25 28 84 47 52 58
REMARK Flexibility Score: inf
ROOT
ATOM      1  C   UNL A   1      38.027  20.076  24.880  1.00  0.00     0.042 C 
ENDROOT
BRANCH   1   2
ATOM      2  C   UNL A   1      36.787  20.908  25.155  1.00  0.00     0.117 C 
BRANCH   2   3
ATOM      3  N   UNL A   1      37.089  22.208  25.713  1.00  0.00    -0.356 N 
ATOM      4  C   UNL A   1      36.448  23.398  25.577  1.00  0.00     0.224 C 
ATOM      5  O   UNL A   1      36.886  24.355  26.221  1.00  0.00    -0.275 OA
ATOM      6  H   UNL A   1      37.891  22.235  26.284  1.00  0.00     0.163 HD
BRANCH   4   7
ATOM      7  C   UNL A   1      35.204  23.552  24.702  1.00  0.00     0.139 C 
BRANCH   7   8
ATOM      8  C   UNL A   1      33.962  24.052  25.391  1.00  0.00     0.003 A 
ATOM      9  C   UNL A   1      33.201  23.185  26.341  1.00  0.00     0.051 A 
ATOM     10  N   UNL A   1      32.039  23.518  26.797  1.00  0.00    -0.198 NA
ATOM     11  C   UNL A   1      31.470  24.709  26.483  1.00  0.00     0.348 A 
ATOM     12  C   UNL A   1      33.441  25.301  25.193  1.00  0.00     0.028 A 
ATOM     13  O   UNL A   1      30.288  24.906  26.768  1.00  0.00    -0.246 OA
ATOM     14  N   UNL A   1      32.261  25.704  25.862  1.00  0.00    -0.291 N 
BRANCH   9  15
ATOM     15  C   UNL A   1      33.621  21.793  26.893  1.00  0.00     0.053 C 
ATOM     16  C   UNL A   1      33.377  20.435  26.268  1.00  0.00     0.011 C 
ENDBRANCH   9  15
BRANCH  12  17
ATOM     17  C   UNL A   1      34.065  26.205  24.141  1.00  0.00     0.051 C 
ATOM     18  C   UNL A   1      33.553  25.889  22.735  1.00  0.00     0.010 C 
ENDBRANCH  12  17
BRANCH  14  19
ATOM     19  C   UNL A   1      31.632  27.068  25.940  1.00  0.00     0.118 C 
ATOM     20  C   UNL A   1      31.985  27.771  27.288  1.00  0.00     0.030 C 
ATOM     21  C   UNL A   1      31.832  28.172  24.880  1.00  0.00     0.185 C 
ATOM     22  C   UNL A   1      33.391  28.361  27.253  1.00  0.00     0.031 C 
ATOM     23  O   UNL A   1      33.159  28.705  24.858  1.00  0.00    -0.379 OA
ATOM     24  C   UNL A   1      33.540  29.320  26.084  1.00  0.00     0.160 C 
ENDBRANCH  14  19
ENDBRANCH   7   8
ENDBRANCH   4   7
ENDBRANCH   2   3
ENDBRANCH   1   2
BRANCH   1  25
ATOM     25  C   UNL A   1      39.166  20.355  25.847  1.00  0.00     0.118 C 
BRANCH  25  26
ATOM     26  N   UNL A   1      40.132  19.262  25.924  1.00  0.00    -0.352 N 
ATOM     27  C   UNL A   1      41.492  19.283  26.119  1.00  0.00     0.251 C 
ATOM     28  H   UNL A   1      39.743  18.362  25.820  1.00  0.00     0.163 HD
ATOM     29  O   UNL A   1      42.147  18.256  25.978  1.00  0.00    -0.269 OA
BRANCH  27  30
ATOM     30  C   UNL A   1      42.165  20.552  26.462  1.00  0.00     0.039 A 
ATOM     31  C   UNL A   1      42.268  20.958  27.791  1.00  0.00     0.014 A 
ATOM     32  C   UNL A   1      42.669  21.362  25.440  1.00  0.00     0.014 A 
ATOM     33  C   UNL A   1      42.654  22.259  28.080  1.00  0.00     0.010 A 
ATOM     34  C   UNL A   1      43.175  22.627  25.748  1.00  0.00     0.010 A 
ATOM     35  C   UNL A   1      43.111  23.111  27.064  1.00  0.00    -0.014 A 
BRANCH  35  36
ATOM     36  C   UNL A   1      43.500  24.505  27.406  1.00  0.00     0.031 A 
ATOM     37  C   UNL A   1      42.459  25.521  27.794  1.00  0.00     0.074 A 
ATOM     38  C   UNL A   1      44.806  24.832  27.435  1.00  0.00     0.049 A 
ATOM     39  N   UNL A   1      42.617  26.779  28.126  1.00  0.00    -0.248 NA
ATOM     40  C   UNL A   1      41.056  25.075  27.809  1.00  0.00     0.031 C 
ATOM     41  C   UNL A   1      45.908  23.927  27.103  1.00  0.00     0.029 A 
ATOM     42  N   UNL A   1      45.433  26.000  27.786  1.00  0.00    -0.354 N 
ATOM     43  C   UNL A   1      41.342  27.273  28.369  1.00  0.00     0.074 A 
ATOM     44  C   UNL A   1      40.414  26.194  28.112  1.00  0.00     0.031 C 
ATOM     45  C   UNL A   1      47.073  24.549  27.326  1.00  0.00     0.029 A 
ATOM     46  C   UNL A   1      46.803  25.924  27.736  1.00  0.00     0.049 A 
ATOM     47  H   UNL A   1      44.948  26.816  28.049  1.00  0.00     0.167 HD
ATOM     48  C   UNL A   1      40.982  28.511  28.786  1.00  0.00     0.037 A 
ATOM     49  C   UNL A   1      47.742  26.857  27.972  1.00  0.00     0.037 A 
ATOM     50  C   UNL A   1      41.913  29.573  29.070  1.00  0.00     0.049 A 
ATOM     51  C   UNL A   1      47.311  28.239  28.372  1.00  0.00     0.074 A 
ATOM     52  C   UNL A   1      41.646  30.856  29.513  1.00  0.00     0.029 A 
ATOM     53  N   UNL A   1      43.291  29.474  28.941  1.00  0.00    -0.354 N 
ATOM     54  N   UNL A   1      46.102  28.693  28.598  1.00  0.00    -0.248 NA
ATOM     55  C   UNL A   1      48.371  29.242  28.540  1.00  0.00     0.031 C 
ATOM     56  C   UNL A   1      42.855  31.549  29.603  1.00  0.00     0.029 A 
ATOM     57  C   UNL A   1      43.884  30.681  29.272  1.00  0.00     0.049 A 
ATOM     58  H   UNL A   1      43.775  28.664  28.657  1.00  0.00     0.167 HD
ATOM     59  C   UNL A   1      46.255  30.027  28.950  1.00  0.00     0.074 A 
ATOM     60  C   UNL A   1      47.677  30.303  28.930  1.00  0.00     0.031 C 
ATOM     61  C   UNL A   1      45.302  30.940  29.253  1.00  0.00     0.037 A 
BRANCH  48  62
ATOM     62  C   UNL A   1      39.517  28.799  28.962  1.00  0.00     0.064 A 
ATOM     63  C   UNL A   1      38.882  28.654  30.203  1.00  0.00     0.173 A 
ATOM     64  C   UNL A   1      38.761  29.305  27.893  1.00  0.00     0.173 A 
ATOM     65  F   UNL A   1      39.558  28.168  31.255  1.00  0.00    -0.203 F 
ATOM     66  C   UNL A   1      37.539  28.990  30.365  1.00  0.00     0.198 A 
ATOM     67  C   UNL A   1      37.428  29.670  28.067  1.00  0.00     0.198 A 
ATOM     68  F   UNL A   1      39.322  29.475  26.687  1.00  0.00    -0.203 F 
ATOM     69  F   UNL A   1      36.944  28.815  31.553  1.00  0.00    -0.200 F 
ATOM     70  C   UNL A   1      36.817  29.508  29.300  1.00  0.00     0.200 A 
ATOM     71  F   UNL A   1      36.738  30.189  27.041  1.00  0.00    -0.200 F 
ATOM     72  F   UNL A   1      35.532  29.853  29.464  1.00  0.00    -0.200 F 
ENDBRANCH  48  62
BRANCH  49  73
ATOM     73  C   UNL A   1      49.179  26.507  27.830  1.00  0.00     0.064 A 
ATOM     74  C   UNL A   1      49.776  26.415  26.567  1.00  0.00     0.173 A 
ATOM     75  C   UNL A   1      49.993  26.293  28.954  1.00  0.00     0.173 A 
ATOM     76  F   UNL A   1      49.037  26.593  25.463  1.00  0.00    -0.203 F 
ATOM     77  C   UNL A   1      51.131  26.116  26.432  1.00  0.00     0.198 A 
ATOM     78  C   UNL A   1      51.352  26.027  28.819  1.00  0.00     0.198 A 
ATOM     79  F   UNL A   1      49.472  26.374  30.187  1.00  0.00    -0.203 F 
ATOM     80  F   UNL A   1      51.670  26.000  25.211  1.00  0.00    -0.200 F 
ATOM     81  C   UNL A   1      51.920  25.932  27.557  1.00  0.00     0.200 A 
ATOM     82  F   UNL A   1      52.115  25.871  29.911  1.00  0.00    -0.200 F 
ATOM     83  F   UNL A   1      53.225  25.663  27.426  1.00  0.00    -0.200 F 
ENDBRANCH  49  73
BRANCH  61  84
ATOM     84  C   UNL A   1      45.758  32.325  29.609  1.00  0.00     0.064 A 
ATOM     85  C   UNL A   1      45.854  33.336  28.642  1.00  0.00     0.173 A 
ATOM     86  C   UNL A   1      46.029  32.665  30.943  1.00  0.00     0.173 A 
ATOM     87  F   UNL A   1      45.620  33.059  27.349  1.00  0.00    -0.203 F 
ATOM     88  C   UNL A   1      46.222  34.631  28.995  1.00  0.00     0.198 A 
ATOM     89  C   UNL A   1      46.363  33.968  31.298  1.00  0.00     0.198 A 
ATOM     90  F   UNL A   1      45.943  31.737  31.909  1.00  0.00    -0.203 F 
ATOM     91  F   UNL A   1      46.345  35.572  28.048  1.00  0.00    -0.200 F 
ATOM     92  C   UNL A   1      46.464  34.949  30.323  1.00  0.00     0.200 A 
ATOM     93  F   UNL A   1      46.581  34.277  32.584  1.00  0.00    -0.200 F 
ATOM     94  F   UNL A   1      46.799  36.201  30.663  1.00  0.00    -0.200 F 
ENDBRANCH  61  84
ENDBRANCH  35  36
ENDBRANCH  27  30
ENDBRANCH  25  26
ENDBRANCH   1  25
TORSDOF 14
ENDMDL
