MODEL 1
REMARK VINA RESULT:     -11.9      0.000      0.000
REMARK SMILES CC[C@H](C)NS(=O)(=O)c1ccc(C(=O)NCCCNC(=O)c2ccc(-c3c4nc(c(-c5c(F)c(F)c(F)c(F)c5F)c5ccc([nH]5)c(-c5c(F)c(F)c(F)c(F)c5F)c5nc(c(-c6c(F)c(F)c(F)c(F)c6F)c6ccc3[nH]6)C=C5)C=C4)cc2)cc1F
REMARK SMILES IDX 16 1 15 2 13 3 14 4 12 6 9 7 10 8 86 9 11 10 85 11 87 12
REMARK SMILES IDX 6 13 7 14 8 15 5 16 3 18 4 19 2 20 1 21 17 22 18 23 19 24
REMARK SMILES IDX 20 25 21 27 22 28 23 29 84 30 24 31 83 32 25 33 26 34 27 35
REMARK SMILES IDX 77 36 28 37 82 38 76 39 78 40 29 41 81 42 75 43 74 44 30 46
REMARK SMILES IDX 62 47 42 48 61 49 43 50 46 51 60 52 79 53 44 54 45 55 59 57
REMARK SMILES IDX 80 58 47 59 31 60 32 61 40 62 33 63 34 64 38 65 41 66 35 67
REMARK SMILES IDX 36 68 39 69 37 70 63 71 64 72 72 73 65 74 66 75 70 76 73 77
REMARK SMILES IDX 67 78 68 79 71 80 69 81 48 82 49 83 57 84 50 85 51 86 55 87
REMARK SMILES IDX 58 88 52 89 53 90 56 91 54 92
REMARK H PARENT 15 5 5 17 19 26 78 45 46 56
REMARK Flexibility Score: inf
ROOT
ATOM      1  C   UNL A   1      32.571  28.495  22.648  1.00  0.00     0.118 C 
ENDROOT
BRANCH   1   2
ATOM      2  N   UNL A   1      32.901  27.485  21.659  1.00  0.00    -0.352 N 
ATOM      3  C   UNL A   1      32.966  26.118  21.699  1.00  0.00     0.251 C 
ATOM      4  O   UNL A   1      33.253  25.542  20.649  1.00  0.00    -0.269 OA
ATOM      5  H   UNL A   1      33.126  27.861  20.778  1.00  0.00     0.163 HD
BRANCH   3   6
ATOM      6  C   UNL A   1      32.687  25.297  22.912  1.00  0.00     0.042 A 
ATOM      7  C   UNL A   1      32.018  23.636  25.083  1.00  0.00     0.118 A 
ATOM      8  C   UNL A   1      31.229  23.623  23.932  1.00  0.00     0.026 A 
ATOM      9  C   UNL A   1      33.124  24.469  25.147  1.00  0.00     0.144 A 
ATOM     10  C   UNL A   1      31.558  24.458  22.860  1.00  0.00     0.015 A 
ATOM     11  C   UNL A   1      33.482  25.265  24.058  1.00  0.00     0.054 A 
ATOM     12  F   UNL A   1      33.898  24.526  26.239  1.00  0.00    -0.205 F 
BRANCH   7  13
ATOM     13  S   UNL A   1      31.600  22.574  26.422  1.00  0.00     0.243 S 
ATOM     14  O   UNL A   1      30.361  21.911  26.069  1.00  0.00    -0.207 OA
ATOM     15  O   UNL A   1      31.715  23.362  27.626  1.00  0.00    -0.207 OA
BRANCH  13  16
ATOM     16  N   UNL A   1      32.793  21.408  26.510  1.00  0.00    -0.208 NA
ATOM     17  H   UNL A   1      33.308  21.604  27.368  1.00  0.00     0.141 HD
BRANCH  16  18
ATOM     18  C   UNL A   1      33.817  21.189  25.474  1.00  0.00     0.066 C 
ATOM     19  C   UNL A   1      35.177  21.454  26.131  1.00  0.00     0.025 C 
BRANCH  18  20
ATOM     20  C   UNL A   1      33.704  19.776  24.889  1.00  0.00     0.016 C 
ATOM     21  C   UNL A   1      32.525  19.590  23.943  1.00  0.00     0.005 C 
ENDBRANCH  18  20
ENDBRANCH  16  18
ENDBRANCH  13  16
ENDBRANCH   7  13
ENDBRANCH   3   6
ENDBRANCH   1   2
BRANCH   1  22
ATOM     22  C   UNL A   1      33.817  28.948  23.411  1.00  0.00     0.042 C 
BRANCH  22  23
ATOM     23  C   UNL A   1      33.643  28.902  24.929  1.00  0.00     0.118 C 
BRANCH  23  24
ATOM     24  N   UNL A   1      32.946  30.079  25.429  1.00  0.00    -0.352 N 
ATOM     25  C   UNL A   1      33.145  30.797  26.580  1.00  0.00     0.251 C 
ATOM     26  H   UNL A   1      32.221  30.409  24.850  1.00  0.00     0.163 HD
ATOM     27  O   UNL A   1      32.305  31.619  26.937  1.00  0.00    -0.269 OA
BRANCH  25  28
ATOM     28  C   UNL A   1      34.355  30.587  27.403  1.00  0.00     0.039 A 
ATOM     29  C   UNL A   1      34.554  29.339  28.002  1.00  0.00     0.014 A 
ATOM     30  C   UNL A   1      35.266  31.624  27.626  1.00  0.00     0.014 A 
ATOM     31  C   UNL A   1      35.694  29.112  28.776  1.00  0.00     0.010 A 
ATOM     32  C   UNL A   1      36.428  31.382  28.356  1.00  0.00     0.010 A 
ATOM     33  C   UNL A   1      36.655  30.124  28.934  1.00  0.00    -0.014 A 
BRANCH  33  34
ATOM     34  C   UNL A   1      37.914  29.883  29.681  1.00  0.00     0.031 A 
ATOM     35  C   UNL A   1      38.964  28.967  29.121  1.00  0.00     0.074 A 
ATOM     36  C   UNL A   1      38.076  30.431  30.901  1.00  0.00     0.049 A 
ATOM     37  N   UNL A   1      40.067  28.537  29.677  1.00  0.00    -0.248 NA
ATOM     38  C   UNL A   1      38.733  28.449  27.763  1.00  0.00     0.031 C 
ATOM     39  C   UNL A   1      37.118  31.320  31.558  1.00  0.00     0.029 A 
ATOM     40  N   UNL A   1      39.097  30.310  31.809  1.00  0.00    -0.354 N 
ATOM     41  C   UNL A   1      40.653  27.688  28.748  1.00  0.00     0.074 A 
ATOM     42  C   UNL A   1      39.768  27.636  27.605  1.00  0.00     0.031 C 
ATOM     43  C   UNL A   1      37.602  31.674  32.759  1.00  0.00     0.029 A 
ATOM     44  C   UNL A   1      38.882  31.006  32.974  1.00  0.00     0.049 A 
ATOM     45  H   UNL A   1      39.907  29.775  31.643  1.00  0.00     0.167 HD
ATOM     46  C   UNL A   1      41.831  27.026  28.838  1.00  0.00     0.037 A 
ATOM     47  C   UNL A   1      39.625  31.084  34.094  1.00  0.00     0.037 A 
ATOM     48  C   UNL A   1      42.723  27.105  29.965  1.00  0.00     0.049 A 
ATOM     49  C   UNL A   1      40.918  30.323  34.176  1.00  0.00     0.074 A 
ATOM     50  C   UNL A   1      43.964  26.515  30.122  1.00  0.00     0.029 A 
ATOM     51  N   UNL A   1      42.468  27.822  31.125  1.00  0.00    -0.354 N 
ATOM     52  N   UNL A   1      41.477  29.550  33.279  1.00  0.00    -0.248 NA
ATOM     53  C   UNL A   1      41.682  30.441  35.427  1.00  0.00     0.031 C 
ATOM     54  C   UNL A   1      44.446  26.844  31.393  1.00  0.00     0.029 A 
ATOM     55  C   UNL A   1      43.523  27.672  32.011  1.00  0.00     0.049 A 
ATOM     56  H   UNL A   1      41.659  28.357  31.293  1.00  0.00     0.167 HD
ATOM     57  C   UNL A   1      42.663  29.104  33.844  1.00  0.00     0.074 A 
ATOM     58  C   UNL A   1      42.750  29.700  35.162  1.00  0.00     0.031 C 
ATOM     59  C   UNL A   1      43.596  28.275  33.316  1.00  0.00     0.037 A 
BRANCH  46  60
ATOM     60  C   UNL A   1      42.237  26.160  27.683  1.00  0.00     0.064 A 
ATOM     61  C   UNL A   1      41.730  24.858  27.557  1.00  0.00     0.173 A 
ATOM     62  C   UNL A   1      43.183  26.593  26.742  1.00  0.00     0.173 A 
ATOM     63  F   UNL A   1      40.828  24.395  28.436  1.00  0.00    -0.203 F 
ATOM     64  C   UNL A   1      42.163  24.017  26.535  1.00  0.00     0.198 A 
ATOM     65  C   UNL A   1      43.595  25.757  25.708  1.00  0.00     0.198 A 
ATOM     66  F   UNL A   1      43.690  27.832  26.816  1.00  0.00    -0.203 F 
ATOM     67  F   UNL A   1      41.685  22.768  26.449  1.00  0.00    -0.200 F 
ATOM     68  C   UNL A   1      43.093  24.468  25.610  1.00  0.00     0.200 A 
ATOM     69  F   UNL A   1      44.478  26.201  24.803  1.00  0.00    -0.200 F 
ATOM     70  F   UNL A   1      43.503  23.661  24.623  1.00  0.00    -0.200 F 
ENDBRANCH  46  60
BRANCH  47  71
ATOM     71  C   UNL A   1      39.162  31.936  35.219  1.00  0.00     0.064 A 
ATOM     72  C   UNL A   1      39.458  33.305  35.271  1.00  0.00     0.173 A 
ATOM     73  C   UNL A   1      38.442  31.380  36.285  1.00  0.00     0.173 A 
ATOM     74  F   UNL A   1      40.150  33.880  34.277  1.00  0.00    -0.203 F 
ATOM     75  C   UNL A   1      39.071  34.083  36.359  1.00  0.00     0.198 A 
ATOM     76  C   UNL A   1      38.035  32.164  37.362  1.00  0.00     0.198 A 
ATOM     77  F   UNL A   1      38.119  30.079  36.268  1.00  0.00    -0.203 F 
ATOM     78  F   UNL A   1      39.398  35.381  36.402  1.00  0.00    -0.200 F 
ATOM     79  C   UNL A   1      38.357  33.513  37.403  1.00  0.00     0.200 A 
ATOM     80  F   UNL A   1      37.329  31.614  38.360  1.00  0.00    -0.200 F 
ATOM     81  F   UNL A   1      37.979  34.262  38.447  1.00  0.00    -0.200 F 
ENDBRANCH  47  71
BRANCH  59  82
ATOM     82  C   UNL A   1      44.804  27.968  34.148  1.00  0.00     0.064 A 
ATOM     83  C   UNL A   1      45.957  28.761  34.043  1.00  0.00     0.173 A 
ATOM     84  C   UNL A   1      44.851  26.838  34.975  1.00  0.00     0.173 A 
ATOM     85  F   UNL A   1      45.960  29.849  33.258  1.00  0.00    -0.203 F 
ATOM     86  C   UNL A   1      47.121  28.420  34.724  1.00  0.00     0.198 A 
ATOM     87  C   UNL A   1      46.012  26.513  35.672  1.00  0.00     0.198 A 
ATOM     88  F   UNL A   1      43.768  26.059  35.116  1.00  0.00    -0.203 F 
ATOM     89  F   UNL A   1      48.222  29.172  34.584  1.00  0.00    -0.200 F 
ATOM     90  C   UNL A   1      47.148  27.298  35.538  1.00  0.00     0.200 A 
ATOM     91  F   UNL A   1      46.031  25.439  36.473  1.00  0.00    -0.200 F 
ATOM     92  F   UNL A   1      48.270  26.971  36.194  1.00  0.00    -0.200 F 
ENDBRANCH  59  82
ENDBRANCH  33  34
ENDBRANCH  25  28
ENDBRANCH  23  24
ENDBRANCH  22  23
ENDBRANCH   1  22
TORSDOF 14
ENDMDL
MODEL 2
REMARK VINA RESULT:     -11.9      0.440      2.091
REMARK SMILES CC[C@H](C)NS(=O)(=O)c1ccc(C(=O)NCCCNC(=O)c2ccc(-c3c4nc(c(-c5c(F)c(F)c(F)c(F)c5F)c5ccc([nH]5)c(-c5c(F)c(F)c(F)c(F)c5F)c5nc(c(-c6c(F)c(F)c(F)c(F)c6F)c6ccc3[nH]6)C=C5)C=C4)cc2)cc1F
REMARK SMILES IDX 16 1 15 2 13 3 14 4 12 6 9 7 10 8 86 9 11 10 85 11 87 12
REMARK SMILES IDX 6 13 7 14 8 15 5 16 3 18 4 19 2 20 1 21 17 22 18 23 19 24
REMARK SMILES IDX 20 25 21 27 22 28 23 29 84 30 24 31 83 32 25 33 26 34 27 35
REMARK SMILES IDX 77 36 28 37 82 38 76 39 78 40 29 41 81 42 75 43 74 44 30 46
REMARK SMILES IDX 62 47 42 48 61 49 43 50 46 51 60 52 79 53 44 54 45 55 59 57
REMARK SMILES IDX 80 58 47 59 31 60 32 61 40 62 33 63 34 64 38 65 41 66 35 67
REMARK SMILES IDX 36 68 39 69 37 70 63 71 64 72 72 73 65 74 66 75 70 76 73 77
REMARK SMILES IDX 67 78 68 79 71 80 69 81 48 82 49 83 57 84 50 85 51 86 55 87
REMARK SMILES IDX 58 88 52 89 53 90 56 91 54 92
REMARK H PARENT 15 5 5 17 19 26 78 45 46 56
REMARK Flexibility Score: inf
ROOT
ATOM      1  C   UNL A   1      32.348  28.613  23.102  1.00  0.00     0.118 C 
ENDROOT
BRANCH   1   2
ATOM      2  N   UNL A   1      32.767  27.723  22.034  1.00  0.00    -0.352 N 
ATOM      3  C   UNL A   1      32.933  26.367  21.954  1.00  0.00     0.251 C 
ATOM      4  O   UNL A   1      33.277  25.910  20.863  1.00  0.00    -0.269 OA
ATOM      5  H   UNL A   1      32.975  28.193  21.195  1.00  0.00     0.163 HD
BRANCH   3   6
ATOM      6  C   UNL A   1      32.699  25.421  23.083  1.00  0.00     0.042 A 
ATOM      7  C   UNL A   1      32.090  23.561  25.104  1.00  0.00     0.118 A 
ATOM      8  C   UNL A   1      31.167  23.804  24.086  1.00  0.00     0.026 A 
ATOM      9  C   UNL A   1      33.298  24.239  25.112  1.00  0.00     0.144 A 
ATOM     10  C   UNL A   1      31.469  24.738  23.090  1.00  0.00     0.015 A 
ATOM     11  C   UNL A   1      33.621  25.133  24.090  1.00  0.00     0.054 A 
ATOM     12  F   UNL A   1      34.205  24.048  26.080  1.00  0.00    -0.205 F 
BRANCH   7  13
ATOM     13  S   UNL A   1      31.703  22.377  26.347  1.00  0.00     0.243 S 
ATOM     14  O   UNL A   1      30.403  21.826  26.020  1.00  0.00    -0.207 OA
ATOM     15  O   UNL A   1      31.951  23.016  27.618  1.00  0.00    -0.207 OA
BRANCH  13  16
ATOM     16  N   UNL A   1      32.825  21.147  26.214  1.00  0.00    -0.208 NA
ATOM     17  H   UNL A   1      33.678  21.504  26.644  1.00  0.00     0.141 HD
BRANCH  16  18
ATOM     18  C   UNL A   1      33.246  20.542  24.940  1.00  0.00     0.066 C 
ATOM     19  C   UNL A   1      34.775  20.431  24.984  1.00  0.00     0.025 C 
BRANCH  18  20
ATOM     20  C   UNL A   1      32.558  19.189  24.727  1.00  0.00     0.016 C 
ATOM     21  C   UNL A   1      33.396  18.182  23.950  1.00  0.00     0.005 C 
ENDBRANCH  18  20
ENDBRANCH  16  18
ENDBRANCH  13  16
ENDBRANCH   7  13
ENDBRANCH   3   6
ENDBRANCH   1   2
BRANCH   1  22
ATOM     22  C   UNL A   1      33.548  29.100  23.916  1.00  0.00     0.042 C 
BRANCH  22  23
ATOM     23  C   UNL A   1      33.283  29.127  25.421  1.00  0.00     0.118 C 
BRANCH  23  24
ATOM     24  N   UNL A   1      32.826  30.436  25.866  1.00  0.00    -0.352 N 
ATOM     25  C   UNL A   1      33.266  31.216  26.905  1.00  0.00     0.251 C 
ATOM     26  H   UNL A   1      32.089  30.820  25.338  1.00  0.00     0.163 HD
ATOM     27  O   UNL A   1      32.601  32.185  27.262  1.00  0.00    -0.269 OA
BRANCH  25  28
ATOM     28  C   UNL A   1      34.527  30.898  27.608  1.00  0.00     0.039 A 
ATOM     29  C   UNL A   1      35.476  31.912  27.780  1.00  0.00     0.014 A 
ATOM     30  C   UNL A   1      34.800  29.601  28.051  1.00  0.00     0.014 A 
ATOM     31  C   UNL A   1      36.672  31.640  28.447  1.00  0.00     0.010 A 
ATOM     32  C   UNL A   1      35.971  29.342  28.762  1.00  0.00     0.010 A 
ATOM     33  C   UNL A   1      36.915  30.359  28.970  1.00  0.00    -0.014 A 
BRANCH  33  34
ATOM     34  C   UNL A   1      38.140  30.066  29.755  1.00  0.00     0.031 A 
ATOM     35  C   UNL A   1      39.181  29.130  29.211  1.00  0.00     0.074 A 
ATOM     36  C   UNL A   1      38.275  30.584  30.991  1.00  0.00     0.049 A 
ATOM     37  N   UNL A   1      40.251  28.656  29.796  1.00  0.00    -0.248 NA
ATOM     38  C   UNL A   1      38.983  28.648  27.836  1.00  0.00     0.031 C 
ATOM     39  C   UNL A   1      37.320  31.487  31.633  1.00  0.00     0.029 A 
ATOM     40  N   UNL A   1      39.259  30.414  31.931  1.00  0.00    -0.354 N 
ATOM     41  C   UNL A   1      40.845  27.810  28.870  1.00  0.00     0.074 A 
ATOM     42  C   UNL A   1      39.999  27.807  27.696  1.00  0.00     0.031 C 
ATOM     43  C   UNL A   1      37.772  31.803  32.857  1.00  0.00     0.029 A 
ATOM     44  C   UNL A   1      39.024  31.092  33.102  1.00  0.00     0.049 A 
ATOM     45  H   UNL A   1      40.058  29.859  31.781  1.00  0.00     0.167 HD
ATOM     46  C   UNL A   1      41.999  27.111  28.986  1.00  0.00     0.037 A 
ATOM     47  C   UNL A   1      39.729  31.125  34.249  1.00  0.00     0.037 A 
ATOM     48  C   UNL A   1      42.852  27.141  30.145  1.00  0.00     0.049 A 
ATOM     49  C   UNL A   1      40.995  30.325  34.359  1.00  0.00     0.074 A 
ATOM     50  C   UNL A   1      44.070  26.511  30.332  1.00  0.00     0.029 A 
ATOM     51  N   UNL A   1      42.578  27.841  31.310  1.00  0.00    -0.354 N 
ATOM     52  N   UNL A   1      41.563  29.554  33.465  1.00  0.00    -0.248 NA
ATOM     53  C   UNL A   1      41.718  30.395  35.638  1.00  0.00     0.031 C 
ATOM     54  C   UNL A   1      44.516  26.799  31.626  1.00  0.00     0.029 A 
ATOM     55  C   UNL A   1      43.596  27.642  32.229  1.00  0.00     0.049 A 
ATOM     56  H   UNL A   1      41.780  28.396  31.461  1.00  0.00     0.167 HD
ATOM     57  C   UNL A   1      42.714  29.061  34.062  1.00  0.00     0.074 A 
ATOM     58  C   UNL A   1      42.772  29.627  35.394  1.00  0.00     0.031 C 
ATOM     59  C   UNL A   1      43.641  28.216  33.549  1.00  0.00     0.037 A 
BRANCH  46  60
ATOM     60  C   UNL A   1      42.419  26.257  27.828  1.00  0.00     0.064 A 
ATOM     61  C   UNL A   1      43.323  26.747  26.873  1.00  0.00     0.173 A 
ATOM     62  C   UNL A   1      41.871  24.982  27.623  1.00  0.00     0.173 A 
ATOM     63  F   UNL A   1      43.868  27.963  27.020  1.00  0.00    -0.203 F 
ATOM     64  C   UNL A   1      43.655  25.993  25.750  1.00  0.00     0.198 A 
ATOM     65  C   UNL A   1      42.225  24.222  26.511  1.00  0.00     0.198 A 
ATOM     66  F   UNL A   1      41.009  24.468  28.513  1.00  0.00    -0.203 F 
ATOM     67  F   UNL A   1      44.501  26.491  24.837  1.00  0.00    -0.200 F 
ATOM     68  C   UNL A   1      43.108  24.731  25.572  1.00  0.00     0.200 A 
ATOM     69  F   UNL A   1      41.712  22.995  26.351  1.00  0.00    -0.200 F 
ATOM     70  F   UNL A   1      43.436  24.004  24.495  1.00  0.00    -0.200 F 
ENDBRANCH  46  60
BRANCH  47  71
ATOM     71  C   UNL A   1      39.251  31.967  35.375  1.00  0.00     0.064 A 
ATOM     72  C   UNL A   1      38.444  31.440  36.393  1.00  0.00     0.173 A 
ATOM     73  C   UNL A   1      39.566  33.331  35.429  1.00  0.00     0.173 A 
ATOM     74  F   UNL A   1      38.111  30.141  36.380  1.00  0.00    -0.203 F 
ATOM     75  C   UNL A   1      37.952  32.251  37.412  1.00  0.00     0.198 A 
ATOM     76  C   UNL A   1      39.092  34.137  36.462  1.00  0.00     0.198 A 
ATOM     77  F   UNL A   1      40.351  33.875  34.487  1.00  0.00    -0.203 F 
ATOM     78  F   UNL A   1      37.154  31.731  38.353  1.00  0.00    -0.200 F 
ATOM     79  C   UNL A   1      38.278  33.599  37.448  1.00  0.00     0.200 A 
ATOM     80  F   UNL A   1      39.425  35.435  36.504  1.00  0.00    -0.200 F 
ATOM     81  F   UNL A   1      37.810  34.378  38.432  1.00  0.00    -0.200 F 
ENDBRANCH  47  71
BRANCH  59  82
ATOM     82  C   UNL A   1      44.809  27.856  34.415  1.00  0.00     0.064 A 
ATOM     83  C   UNL A   1      44.741  26.747  35.272  1.00  0.00     0.173 A 
ATOM     84  C   UNL A   1      45.956  28.660  34.463  1.00  0.00     0.173 A 
ATOM     85  F   UNL A   1      43.661  25.952  35.265  1.00  0.00    -0.203 F 
ATOM     86  C   UNL A   1      45.774  26.469  36.162  1.00  0.00     0.198 A 
ATOM     87  C   UNL A   1      46.996  28.366  35.340  1.00  0.00     0.198 A 
ATOM     88  F   UNL A   1      46.070  29.723  33.652  1.00  0.00    -0.203 F 
ATOM     89  F   UNL A   1      45.675  25.425  36.996  1.00  0.00    -0.200 F 
ATOM     90  C   UNL A   1      46.901  27.277  36.195  1.00  0.00     0.200 A 
ATOM     91  F   UNL A   1      48.092  29.137  35.358  1.00  0.00    -0.200 F 
ATOM     92  F   UNL A   1      47.895  27.009  37.053  1.00  0.00    -0.200 F 
ENDBRANCH  59  82
ENDBRANCH  33  34
ENDBRANCH  25  28
ENDBRANCH  23  24
ENDBRANCH  22  23
ENDBRANCH   1  22
TORSDOF 14
ENDMDL
MODEL 3
REMARK VINA RESULT:     -11.9      4.567      9.604
REMARK SMILES CC[C@H](C)NS(=O)(=O)c1ccc(C(=O)NCCCNC(=O)c2ccc(-c3c4nc(c(-c5c(F)c(F)c(F)c(F)c5F)c5ccc([nH]5)c(-c5c(F)c(F)c(F)c(F)c5F)c5nc(c(-c6c(F)c(F)c(F)c(F)c6F)c6ccc3[nH]6)C=C5)C=C4)cc2)cc1F
REMARK SMILES IDX 16 1 15 2 13 3 14 4 12 6 9 7 10 8 86 9 11 10 85 11 87 12
REMARK SMILES IDX 6 13 7 14 8 15 5 16 3 18 4 19 2 20 1 21 17 22 18 23 19 24
REMARK SMILES IDX 20 25 21 27 22 28 23 29 84 30 24 31 83 32 25 33 26 34 27 35
REMARK SMILES IDX 77 36 28 37 82 38 76 39 78 40 29 41 81 42 75 43 74 44 30 46
REMARK SMILES IDX 62 47 42 48 61 49 43 50 46 51 60 52 79 53 44 54 45 55 59 57
REMARK SMILES IDX 80 58 47 59 31 60 32 61 40 62 33 63 34 64 38 65 41 66 35 67
REMARK SMILES IDX 36 68 39 69 37 70 63 71 64 72 72 73 65 74 66 75 70 76 73 77
REMARK SMILES IDX 67 78 68 79 71 80 69 81 48 82 49 83 57 84 50 85 51 86 55 87
REMARK SMILES IDX 58 88 52 89 53 90 56 91 54 92
REMARK H PARENT 15 5 5 17 19 26 78 45 46 56
REMARK Flexibility Score: inf
ROOT
ATOM      1  C   UNL A   1      36.583  20.438  25.024  1.00  0.00     0.118 C 
ENDROOT
BRANCH   1   2
ATOM      2  N   UNL A   1      35.538  19.449  24.835  1.00  0.00    -0.352 N 
ATOM      3  C   UNL A   1      34.173  19.495  24.934  1.00  0.00     0.251 C 
ATOM      4  O   UNL A   1      33.559  18.460  24.671  1.00  0.00    -0.269 OA
ATOM      5  H   UNL A   1      35.882  18.561  24.587  1.00  0.00     0.163 HD
BRANCH   3   6
ATOM      6  C   UNL A   1      33.397  20.712  25.307  1.00  0.00     0.042 A 
ATOM      7  C   UNL A   1      31.827  22.989  25.825  1.00  0.00     0.118 A 
ATOM      8  C   UNL A   1      31.840  22.434  24.545  1.00  0.00     0.026 A 
ATOM      9  C   UNL A   1      32.588  22.415  26.830  1.00  0.00     0.144 A 
ATOM     10  C   UNL A   1      32.630  21.309  24.289  1.00  0.00     0.015 A 
ATOM     11  C   UNL A   1      33.337  21.263  26.588  1.00  0.00     0.054 A 
ATOM     12  F   UNL A   1      32.618  22.926  28.068  1.00  0.00    -0.205 F 
BRANCH   7  13
ATOM     13  S   UNL A   1      30.821  24.399  26.138  1.00  0.00     0.243 S 
ATOM     14  O   UNL A   1      29.872  24.025  27.168  1.00  0.00    -0.207 OA
ATOM     15  O   UNL A   1      30.383  24.887  24.852  1.00  0.00    -0.207 OA
BRANCH  13  16
ATOM     16  N   UNL A   1      31.820  25.579  26.771  1.00  0.00    -0.208 NA
ATOM     17  H   UNL A   1      31.527  25.696  27.741  1.00  0.00     0.141 HD
BRANCH  16  18
ATOM     18  C   UNL A   1      31.943  26.941  26.227  1.00  0.00     0.066 C 
ATOM     19  C   UNL A   1      31.725  27.908  27.396  1.00  0.00     0.025 C 
BRANCH  18  20
ATOM     20  C   UNL A   1      33.302  27.132  25.543  1.00  0.00     0.016 C 
ATOM     21  C   UNL A   1      34.169  25.879  25.528  1.00  0.00     0.005 C 
ENDBRANCH  18  20
ENDBRANCH  16  18
ENDBRANCH  13  16
ENDBRANCH   7  13
ENDBRANCH   3   6
ENDBRANCH   1   2
BRANCH   1  22
ATOM     22  C   UNL A   1      37.965  19.837  24.763  1.00  0.00     0.042 C 
BRANCH  22  23
ATOM     23  C   UNL A   1      38.999  20.224  25.820  1.00  0.00     0.118 C 
BRANCH  23  24
ATOM     24  N   UNL A   1      40.078  19.250  25.903  1.00  0.00    -0.352 N 
ATOM     25  C   UNL A   1      41.422  19.439  26.102  1.00  0.00     0.251 C 
ATOM     26  H   UNL A   1      39.798  18.311  25.803  1.00  0.00     0.163 HD
ATOM     27  O   UNL A   1      42.201  18.510  25.911  1.00  0.00    -0.269 OA
BRANCH  25  28
ATOM     28  C   UNL A   1      41.945  20.752  26.534  1.00  0.00     0.039 A 
ATOM     29  C   UNL A   1      42.328  21.679  25.559  1.00  0.00     0.014 A 
ATOM     30  C   UNL A   1      42.105  21.056  27.889  1.00  0.00     0.014 A 
ATOM     31  C   UNL A   1      42.817  22.930  25.941  1.00  0.00     0.010 A 
ATOM     32  C   UNL A   1      42.544  22.323  28.270  1.00  0.00     0.010 A 
ATOM     33  C   UNL A   1      42.900  23.272  27.301  1.00  0.00    -0.014 A 
BRANCH  33  34
ATOM     34  C   UNL A   1      43.336  24.624  27.731  1.00  0.00     0.031 A 
ATOM     35  C   UNL A   1      42.319  25.672  28.078  1.00  0.00     0.074 A 
ATOM     36  C   UNL A   1      44.649  24.926  27.736  1.00  0.00     0.049 A 
ATOM     37  N   UNL A   1      42.500  26.939  28.355  1.00  0.00    -0.248 NA
ATOM     38  C   UNL A   1      40.911  25.247  28.098  1.00  0.00     0.031 C 
ATOM     39  C   UNL A   1      45.728  23.997  27.398  1.00  0.00     0.029 A 
ATOM     40  N   UNL A   1      45.296  26.102  28.021  1.00  0.00    -0.354 N 
ATOM     41  C   UNL A   1      41.233  27.465  28.565  1.00  0.00     0.074 A 
ATOM     42  C   UNL A   1      40.288  26.390  28.351  1.00  0.00     0.031 C 
ATOM     43  C   UNL A   1      46.904  24.634  27.508  1.00  0.00     0.029 A 
ATOM     44  C   UNL A   1      46.661  26.025  27.881  1.00  0.00     0.049 A 
ATOM     45  H   UNL A   1      44.828  26.922  28.298  1.00  0.00     0.167 HD
ATOM     46  C   UNL A   1      40.893  28.727  28.918  1.00  0.00     0.037 A 
ATOM     47  C   UNL A   1      47.607  26.972  28.022  1.00  0.00     0.037 A 
ATOM     48  C   UNL A   1      41.838  29.784  29.159  1.00  0.00     0.049 A 
ATOM     49  C   UNL A   1      47.202  28.370  28.395  1.00  0.00     0.074 A 
ATOM     50  C   UNL A   1      41.592  31.080  29.577  1.00  0.00     0.029 A 
ATOM     51  N   UNL A   1      43.212  29.666  29.008  1.00  0.00    -0.354 N 
ATOM     52  N   UNL A   1      46.004  28.847  28.622  1.00  0.00    -0.248 NA
ATOM     53  C   UNL A   1      48.279  29.363  28.528  1.00  0.00     0.031 C 
ATOM     54  C   UNL A   1      42.813  31.758  29.643  1.00  0.00     0.029 A 
ATOM     55  C   UNL A   1      43.824  30.873  29.305  1.00  0.00     0.049 A 
ATOM     56  H   UNL A   1      43.681  28.847  28.730  1.00  0.00     0.167 HD
ATOM     57  C   UNL A   1      46.179  30.186  28.941  1.00  0.00     0.074 A 
ATOM     58  C   UNL A   1      47.603  30.447  28.888  1.00  0.00     0.031 C 
ATOM     59  C   UNL A   1      45.242  31.114  29.251  1.00  0.00     0.037 A 
BRANCH  46  60
ATOM     60  C   UNL A   1      39.435  29.040  29.077  1.00  0.00     0.064 A 
ATOM     61  C   UNL A   1      38.673  29.459  27.976  1.00  0.00     0.173 A 
ATOM     62  C   UNL A   1      38.811  28.997  30.332  1.00  0.00     0.173 A 
ATOM     63  F   UNL A   1      39.227  29.525  26.756  1.00  0.00    -0.203 F 
ATOM     64  C   UNL A   1      37.340  29.832  28.130  1.00  0.00     0.198 A 
ATOM     65  C   UNL A   1      37.471  29.347  30.477  1.00  0.00     0.198 A 
ATOM     66  F   UNL A   1      39.496  28.594  31.413  1.00  0.00    -0.203 F 
ATOM     67  F   UNL A   1      36.638  30.255  27.069  1.00  0.00    -0.200 F 
ATOM     68  C   UNL A   1      36.740  29.773  29.378  1.00  0.00     0.200 A 
ATOM     69  F   UNL A   1      36.887  29.269  31.680  1.00  0.00    -0.200 F 
ATOM     70  F   UNL A   1      35.455  30.124  29.522  1.00  0.00    -0.200 F 
ENDBRANCH  46  60
BRANCH  47  71
ATOM     71  C   UNL A   1      49.034  26.612  27.826  1.00  0.00     0.064 A 
ATOM     72  C   UNL A   1      49.582  26.462  26.544  1.00  0.00     0.173 A 
ATOM     73  C   UNL A   1      49.868  26.375  28.926  1.00  0.00     0.173 A 
ATOM     74  F   UNL A   1      48.821  26.672  25.460  1.00  0.00    -0.203 F 
ATOM     75  C   UNL A   1      50.906  26.066  26.371  1.00  0.00     0.198 A 
ATOM     76  C   UNL A   1      51.199  26.001  28.752  1.00  0.00     0.198 A 
ATOM     77  F   UNL A   1      49.393  26.526  30.171  1.00  0.00    -0.203 F 
ATOM     78  F   UNL A   1      51.395  25.893  25.136  1.00  0.00    -0.200 F 
ATOM     79  C   UNL A   1      51.715  25.838  27.474  1.00  0.00     0.200 A 
ATOM     80  F   UNL A   1      51.982  25.801  29.820  1.00  0.00    -0.200 F 
ATOM     81  F   UNL A   1      52.990  25.462  27.308  1.00  0.00    -0.200 F 
ENDBRANCH  47  71
BRANCH  59  82
ATOM     82  C   UNL A   1      45.716  32.499  29.575  1.00  0.00     0.064 A 
ATOM     83  C   UNL A   1      46.004  32.858  30.901  1.00  0.00     0.173 A 
ATOM     84  C   UNL A   1      45.794  33.491  28.588  1.00  0.00     0.173 A 
ATOM     85  F   UNL A   1      45.936  31.943  31.879  1.00  0.00    -0.203 F 
ATOM     86  C   UNL A   1      46.335  34.169  31.228  1.00  0.00     0.198 A 
ATOM     87  C   UNL A   1      46.147  34.797  28.918  1.00  0.00     0.198 A 
ATOM     88  F   UNL A   1      45.540  33.190  27.306  1.00  0.00    -0.203 F 
ATOM     89  F   UNL A   1      46.573  34.499  32.505  1.00  0.00    -0.200 F 
ATOM     90  C   UNL A   1      46.407  35.137  30.238  1.00  0.00     0.200 A 
ATOM     91  F   UNL A   1      46.234  35.727  27.958  1.00  0.00    -0.200 F 
ATOM     92  F   UNL A   1      46.726  36.400  30.555  1.00  0.00    -0.200 F 
ENDBRANCH  59  82
ENDBRANCH  33  34
ENDBRANCH  25  28
ENDBRANCH  23  24
ENDBRANCH  22  23
ENDBRANCH   1  22
TORSDOF 14
ENDMDL
