MODEL 1
REMARK VINA RESULT:     -11.3      0.000      0.000
REMARK SMILES C[C@H]1[C@H](C(=O)NCCCNC(=O)c2ccc(-c3c4nc(c(-c5c(F)c(F)c(F)c(F)c5F)c5ccc([nH]5)c(-c5c(F)c(F)c(F)c(F)c5F)c5nc(c(-c6c(F)c(F)c(F)c(F)c6F)c6ccc3[nH]6)C=C5)C=C4)cc2)CCN1C(=O)CC[NH2+]C1CC1
REMARK SMILES IDX 4 1 5 2 6 3 3 5 1 6 2 7 78 8 76 9 77 10 79 11 80 12 81 13
REMARK SMILES IDX 82 14 83 15 84 18 85 19 86 20 7 21 8 22 9 23 10 24 11 25
REMARK SMILES IDX 12 27 13 28 14 29 75 30 15 31 74 32 16 33 17 34 18 35 68 36
REMARK SMILES IDX 19 37 73 38 67 39 69 40 20 41 72 42 66 43 65 44 21 46 53 47
REMARK SMILES IDX 33 48 52 49 34 50 37 51 51 52 70 53 35 54 36 55 50 57 71 58
REMARK SMILES IDX 38 59 22 60 23 61 31 62 24 63 25 64 29 65 32 66 26 67 27 68
REMARK SMILES IDX 30 69 28 70 54 71 55 72 63 73 56 74 57 75 61 76 64 77 58 78
REMARK SMILES IDX 59 79 62 80 60 81 39 82 40 83 48 84 41 85 42 86 46 87 49 88
REMARK SMILES IDX 43 89 44 90 47 91 45 92
REMARK H PARENT 6 4 83 16 83 17 10 26 69 45 37 56
REMARK Flexibility Score: inf
ROOT
ATOM      1  C   UNL A   1      34.558  20.604  25.087  1.00  0.00     0.225 C 
ATOM      2  O   UNL A   1      33.582  19.948  25.460  1.00  0.00    -0.275 OA
ATOM      3  N   UNL A   1      35.741  19.952  25.001  1.00  0.00    -0.356 N 
ATOM      4  H   UNL A   1      35.692  18.990  25.202  1.00  0.00     0.163 HD
ENDROOT
BRANCH   1   5
ATOM      5  C   UNL A   1      34.407  22.085  24.798  1.00  0.00     0.102 C 
ATOM      6  C   UNL A   1      32.822  23.136  23.202  1.00  0.00     0.032 C 
ATOM      7  C   UNL A   1      32.941  22.479  24.577  1.00  0.00     0.094 C 
ATOM      8  N   UNL A   1      32.644  23.451  25.626  1.00  0.00    -0.339 N 
ATOM      9  C   UNL A   1      34.969  23.052  25.843  1.00  0.00     0.037 C 
ATOM     10  C   UNL A   1      33.867  24.076  26.091  1.00  0.00     0.120 C 
BRANCH   8  11
ATOM     11  C   UNL A   1      31.416  23.859  26.109  1.00  0.00     0.228 C 
ATOM     12  O   UNL A   1      31.053  23.574  27.253  1.00  0.00    -0.275 OA
BRANCH  11  13
ATOM     13  C   UNL A   1      30.467  24.619  25.192  1.00  0.00     0.161 C 
BRANCH  13  14
ATOM     14  C   UNL A   1      30.041  25.980  25.747  1.00  0.00     0.270 C 
BRANCH  14  15
ATOM     15  N   UNL A   1      31.016  26.494  26.717  1.00  0.00    -0.343 N 
ATOM     16  H   UNL A   1      31.712  25.767  26.888  1.00  0.00     0.346 HD
ATOM     17  H   UNL A   1      30.492  26.744  27.555  1.00  0.00     0.346 HD
BRANCH  15  18
ATOM     18  C   UNL A   1      31.716  27.707  26.281  1.00  0.00     0.182 C 
ATOM     19  C   UNL A   1      32.216  28.746  27.249  1.00  0.00     0.071 C 
ATOM     20  C   UNL A   1      33.192  27.828  26.579  1.00  0.00     0.071 C 
ENDBRANCH  15  18
ENDBRANCH  14  15
ENDBRANCH  13  14
ENDBRANCH  11  13
ENDBRANCH   8  11
ENDBRANCH   1   5
BRANCH   3  21
ATOM     21  C   UNL A   1      37.068  20.426  24.664  1.00  0.00     0.117 C 
BRANCH  21  22
ATOM     22  C   UNL A   1      38.141  19.402  25.001  1.00  0.00     0.042 C 
BRANCH  22  23
ATOM     23  C   UNL A   1      39.308  19.973  25.794  1.00  0.00     0.118 C 
BRANCH  23  24
ATOM     24  N   UNL A   1      40.382  19.007  25.982  1.00  0.00    -0.352 N 
ATOM     25  C   UNL A   1      41.729  19.201  26.126  1.00  0.00     0.251 C 
ATOM     26  H   UNL A   1      40.093  18.067  26.009  1.00  0.00     0.163 HD
ATOM     27  O   UNL A   1      42.496  18.241  26.039  1.00  0.00    -0.269 OA
BRANCH  25  28
ATOM     28  C   UNL A   1      42.268  20.552  26.375  1.00  0.00     0.039 A 
ATOM     29  C   UNL A   1      42.654  21.336  25.286  1.00  0.00     0.014 A 
ATOM     30  C   UNL A   1      42.419  21.035  27.677  1.00  0.00     0.014 A 
ATOM     31  C   UNL A   1      43.136  22.627  25.502  1.00  0.00     0.010 A 
ATOM     32  C   UNL A   1      42.806  22.354  27.885  1.00  0.00     0.010 A 
ATOM     33  C   UNL A   1      43.181  23.159  26.801  1.00  0.00    -0.014 A 
BRANCH  33  34
ATOM     34  C   UNL A   1      43.622  24.555  27.040  1.00  0.00     0.031 A 
ATOM     35  C   UNL A   1      42.644  25.587  27.530  1.00  0.00     0.074 A 
ATOM     36  C   UNL A   1      44.894  24.901  26.765  1.00  0.00     0.049 A 
ATOM     37  N   UNL A   1      42.835  26.861  27.765  1.00  0.00    -0.248 NA
ATOM     38  C   UNL A   1      41.263  25.136  27.759  1.00  0.00     0.031 C 
ATOM     39  C   UNL A   1      45.916  24.002  26.226  1.00  0.00     0.029 A 
ATOM     40  N   UNL A   1      45.543  26.103  26.895  1.00  0.00    -0.354 N 
ATOM     41  C   UNL A   1      41.600  27.360  28.163  1.00  0.00     0.074 A 
ATOM     42  C   UNL A   1      40.654  26.271  28.069  1.00  0.00     0.031 C 
ATOM     43  C   UNL A   1      47.070  24.675  26.099  1.00  0.00     0.029 A 
ATOM     44  C   UNL A   1      46.860  26.059  26.509  1.00  0.00     0.049 A 
ATOM     45  H   UNL A   1      45.106  26.918  27.233  1.00  0.00     0.167 HD
ATOM     46  C   UNL A   1      41.292  28.605  28.595  1.00  0.00     0.037 A 
ATOM     47  C   UNL A   1      47.792  27.030  26.484  1.00  0.00     0.037 A 
ATOM     48  C   UNL A   1      42.242  29.682  28.695  1.00  0.00     0.049 A 
ATOM     49  C   UNL A   1      47.423  28.407  26.964  1.00  0.00     0.074 A 
ATOM     50  C   UNL A   1      42.046  30.968  29.165  1.00  0.00     0.029 A 
ATOM     51  N   UNL A   1      43.574  29.598  28.310  1.00  0.00    -0.354 N 
ATOM     52  N   UNL A   1      46.271  28.849  27.408  1.00  0.00    -0.248 NA
ATOM     53  C   UNL A   1      48.488  29.418  26.949  1.00  0.00     0.031 C 
ATOM     54  C   UNL A   1      43.242  31.678  29.016  1.00  0.00     0.029 A 
ATOM     55  C   UNL A   1      44.203  30.817  28.510  1.00  0.00     0.049 A 
ATOM     56  H   UNL A   1      44.007  28.792  27.948  1.00  0.00     0.167 HD
ATOM     57  C   UNL A   1      46.477  30.180  27.748  1.00  0.00     0.074 A 
ATOM     58  C   UNL A   1      47.872  30.464  27.481  1.00  0.00     0.031 C 
ATOM     59  C   UNL A   1      45.593  31.084  28.234  1.00  0.00     0.037 A 
BRANCH  46  60
ATOM     60  C   UNL A   1      39.868  28.867  28.995  1.00  0.00     0.064 A 
ATOM     61  C   UNL A   1      38.912  29.315  28.067  1.00  0.00     0.173 A 
ATOM     62  C   UNL A   1      39.441  28.645  30.312  1.00  0.00     0.173 A 
ATOM     63  F   UNL A   1      39.267  29.555  26.796  1.00  0.00    -0.203 F 
ATOM     64  C   UNL A   1      37.597  29.562  28.452  1.00  0.00     0.198 A 
ATOM     65  C   UNL A   1      38.117  28.859  30.686  1.00  0.00     0.198 A 
ATOM     66  F   UNL A   1      40.309  28.213  31.241  1.00  0.00    -0.203 F 
ATOM     67  F   UNL A   1      36.720  30.044  27.560  1.00  0.00    -0.200 F 
ATOM     68  C   UNL A   1      37.198  29.328  29.758  1.00  0.00     0.200 A 
ATOM     69  F   UNL A   1      37.729  28.619  31.946  1.00  0.00    -0.200 F 
ATOM     70  F   UNL A   1      35.930  29.560  30.125  1.00  0.00    -0.200 F 
ENDBRANCH  46  60
BRANCH  47  71
ATOM     71  C   UNL A   1      49.167  26.725  26.007  1.00  0.00     0.064 A 
ATOM     72  C   UNL A   1      49.556  27.009  24.691  1.00  0.00     0.173 A 
ATOM     73  C   UNL A   1      50.120  26.146  26.859  1.00  0.00     0.173 A 
ATOM     74  F   UNL A   1      48.674  27.545  23.833  1.00  0.00    -0.203 F 
ATOM     75  C   UNL A   1      50.837  26.703  24.237  1.00  0.00     0.198 A 
ATOM     76  C   UNL A   1      51.411  25.872  26.412  1.00  0.00     0.198 A 
ATOM     77  F   UNL A   1      49.802  25.862  28.130  1.00  0.00    -0.203 F 
ATOM     78  F   UNL A   1      51.166  26.940  22.959  1.00  0.00    -0.200 F 
ATOM     79  C   UNL A   1      51.766  26.141  25.099  1.00  0.00     0.200 A 
ATOM     80  F   UNL A   1      52.310  25.345  27.255  1.00  0.00    -0.200 F 
ATOM     81  F   UNL A   1      52.999  25.853  24.664  1.00  0.00    -0.200 F 
ENDBRANCH  47  71
BRANCH  59  82
ATOM     82  C   UNL A   1      46.117  32.460  28.534  1.00  0.00     0.064 A 
ATOM     83  C   UNL A   1      46.078  33.489  27.580  1.00  0.00     0.173 A 
ATOM     84  C   UNL A   1      46.647  32.758  29.798  1.00  0.00     0.173 A 
ATOM     85  F   UNL A   1      45.593  33.253  26.351  1.00  0.00    -0.203 F 
ATOM     86  C   UNL A   1      46.585  34.753  27.870  1.00  0.00     0.198 A 
ATOM     87  C   UNL A   1      47.120  34.033  30.096  1.00  0.00     0.198 A 
ATOM     88  F   UNL A   1      46.700  31.814  30.750  1.00  0.00    -0.203 F 
ATOM     89  F   UNL A   1      46.594  35.702  26.923  1.00  0.00    -0.200 F 
ATOM     90  C   UNL A   1      47.100  35.025  29.128  1.00  0.00     0.200 A 
ATOM     91  F   UNL A   1      47.601  34.300  31.318  1.00  0.00    -0.200 F 
ATOM     92  F   UNL A   1      47.585  36.244  29.406  1.00  0.00    -0.200 F 
ENDBRANCH  59  82
ENDBRANCH  33  34
ENDBRANCH  25  28
ENDBRANCH  23  24
ENDBRANCH  22  23
ENDBRANCH  21  22
ENDBRANCH   3  21
TORSDOF 15
ENDMDL
MODEL 2
REMARK VINA RESULT:     -11.3      1.446      2.375
REMARK SMILES C[C@H]1[C@H](C(=O)NCCCNC(=O)c2ccc(-c3c4nc(c(-c5c(F)c(F)c(F)c(F)c5F)c5ccc([nH]5)c(-c5c(F)c(F)c(F)c(F)c5F)c5nc(c(-c6c(F)c(F)c(F)c(F)c6F)c6ccc3[nH]6)C=C5)C=C4)cc2)CCN1C(=O)CC[NH2+]C1CC1
REMARK SMILES IDX 4 1 5 2 6 3 3 5 1 6 2 7 78 8 76 9 77 10 79 11 80 12 81 13
REMARK SMILES IDX 82 14 83 15 84 18 85 19 86 20 7 21 8 22 9 23 10 24 11 25
REMARK SMILES IDX 12 27 13 28 14 29 75 30 15 31 74 32 16 33 17 34 18 35 68 36
REMARK SMILES IDX 19 37 73 38 67 39 69 40 20 41 72 42 66 43 65 44 21 46 53 47
REMARK SMILES IDX 33 48 52 49 34 50 37 51 51 52 70 53 35 54 36 55 50 57 71 58
REMARK SMILES IDX 38 59 22 60 23 61 31 62 24 63 25 64 29 65 32 66 26 67 27 68
REMARK SMILES IDX 30 69 28 70 54 71 55 72 63 73 56 74 57 75 61 76 64 77 58 78
REMARK SMILES IDX 59 79 62 80 60 81 39 82 40 83 48 84 41 85 42 86 46 87 49 88
REMARK SMILES IDX 43 89 44 90 47 91 45 92
REMARK H PARENT 6 4 83 16 83 17 10 26 69 45 37 56
REMARK Flexibility Score: inf
ROOT
ATOM      1  C   UNL A   1      36.217  22.679  23.579  1.00  0.00     0.225 C 
ATOM      2  O   UNL A   1      36.724  23.432  22.742  1.00  0.00    -0.275 OA
ATOM      3  N   UNL A   1      36.975  21.646  24.016  1.00  0.00    -0.356 N 
ATOM      4  H   UNL A   1      37.889  21.629  23.651  1.00  0.00     0.163 HD
ENDROOT
BRANCH   1   5
ATOM      5  C   UNL A   1      34.788  22.904  24.032  1.00  0.00     0.102 C 
ATOM      6  C   UNL A   1      34.049  23.933  26.166  1.00  0.00     0.032 C 
ATOM      7  C   UNL A   1      34.628  24.232  24.784  1.00  0.00     0.094 C 
ATOM      8  N   UNL A   1      33.675  25.007  23.996  1.00  0.00    -0.339 N 
ATOM      9  C   UNL A   1      33.710  22.884  22.947  1.00  0.00     0.037 C 
ATOM     10  C   UNL A   1      32.855  24.123  23.190  1.00  0.00     0.120 C 
BRANCH   8  11
ATOM     11  C   UNL A   1      33.440  26.368  24.010  1.00  0.00     0.228 C 
ATOM     12  O   UNL A   1      33.218  26.966  25.066  1.00  0.00    -0.275 OA
BRANCH  11  13
ATOM     13  C   UNL A   1      33.392  27.132  22.693  1.00  0.00     0.161 C 
BRANCH  13  14
ATOM     14  C   UNL A   1      33.581  28.642  22.856  1.00  0.00     0.270 C 
BRANCH  14  15
ATOM     15  N   UNL A   1      32.378  29.277  23.408  1.00  0.00    -0.343 N 
ATOM     16  H   UNL A   1      32.487  30.289  23.333  1.00  0.00     0.346 HD
ATOM     17  H   UNL A   1      32.296  28.960  24.374  1.00  0.00     0.346 HD
BRANCH  15  18
ATOM     18  C   UNL A   1      31.133  28.896  22.733  1.00  0.00     0.182 C 
ATOM     19  C   UNL A   1      29.995  28.220  23.452  1.00  0.00     0.071 C 
ATOM     20  C   UNL A   1      29.875  29.663  23.066  1.00  0.00     0.071 C 
ENDBRANCH  15  18
ENDBRANCH  14  15
ENDBRANCH  13  14
ENDBRANCH  11  13
ENDBRANCH   8  11
ENDBRANCH   1   5
BRANCH   3  21
ATOM     21  C   UNL A   1      36.674  20.561  24.928  1.00  0.00     0.117 C 
BRANCH  21  22
ATOM     22  C   UNL A   1      37.828  19.578  25.044  1.00  0.00     0.042 C 
BRANCH  22  23
ATOM     23  C   UNL A   1      39.048  20.143  25.758  1.00  0.00     0.118 C 
BRANCH  23  24
ATOM     24  N   UNL A   1      40.098  19.151  25.942  1.00  0.00    -0.352 N 
ATOM     25  C   UNL A   1      41.448  19.311  26.102  1.00  0.00     0.251 C 
ATOM     26  H   UNL A   1      39.787  18.216  25.953  1.00  0.00     0.163 HD
ATOM     27  O   UNL A   1      42.193  18.335  26.008  1.00  0.00    -0.269 OA
BRANCH  25  28
ATOM     28  C   UNL A   1      42.014  20.646  26.374  1.00  0.00     0.039 A 
ATOM     29  C   UNL A   1      42.314  21.485  25.299  1.00  0.00     0.014 A 
ATOM     30  C   UNL A   1      42.277  21.061  27.683  1.00  0.00     0.014 A 
ATOM     31  C   UNL A   1      42.821  22.762  25.542  1.00  0.00     0.010 A 
ATOM     32  C   UNL A   1      42.688  22.366  27.927  1.00  0.00     0.010 A 
ATOM     33  C   UNL A   1      42.977  23.226  26.858  1.00  0.00    -0.014 A 
BRANCH  33  34
ATOM     34  C   UNL A   1      43.446  24.606  27.132  1.00  0.00     0.031 A 
ATOM     35  C   UNL A   1      42.496  25.636  27.677  1.00  0.00     0.074 A 
ATOM     36  C   UNL A   1      44.717  24.941  26.840  1.00  0.00     0.049 A 
ATOM     37  N   UNL A   1      42.713  26.899  27.948  1.00  0.00    -0.248 NA
ATOM     38  C   UNL A   1      41.113  25.200  27.922  1.00  0.00     0.031 C 
ATOM     39  C   UNL A   1      45.713  24.044  26.250  1.00  0.00     0.029 A 
ATOM     40  N   UNL A   1      45.389  26.128  26.994  1.00  0.00    -0.354 N 
ATOM     41  C   UNL A   1      41.495  27.403  28.389  1.00  0.00     0.074 A 
ATOM     42  C   UNL A   1      40.529  26.333  28.282  1.00  0.00     0.031 C 
ATOM     43  C   UNL A   1      46.874  24.703  26.119  1.00  0.00     0.029 A 
ATOM     44  C   UNL A   1      46.696  26.076  26.577  1.00  0.00     0.049 A 
ATOM     45  H   UNL A   1      44.972  26.937  27.368  1.00  0.00     0.167 HD
ATOM     46  C   UNL A   1      41.217  28.639  28.868  1.00  0.00     0.037 A 
ATOM     47  C   UNL A   1      47.643  27.032  26.563  1.00  0.00     0.037 A 
ATOM     48  C   UNL A   1      42.186  29.697  28.982  1.00  0.00     0.049 A 
ATOM     49  C   UNL A   1      47.306  28.399  27.095  1.00  0.00     0.074 A 
ATOM     50  C   UNL A   1      42.021  30.970  29.497  1.00  0.00     0.029 A 
ATOM     51  N   UNL A   1      43.508  29.605  28.564  1.00  0.00    -0.354 N 
ATOM     52  N   UNL A   1      46.172  28.844  27.579  1.00  0.00    -0.248 NA
ATOM     53  C   UNL A   1      48.388  29.393  27.088  1.00  0.00     0.031 C 
ATOM     54  C   UNL A   1      43.225  31.665  29.344  1.00  0.00     0.029 A 
ATOM     55  C   UNL A   1      44.161  30.807  28.789  1.00  0.00     0.049 A 
ATOM     56  H   UNL A   1      43.919  28.804  28.167  1.00  0.00     0.167 HD
ATOM     57  C   UNL A   1      46.407  30.159  27.956  1.00  0.00     0.074 A 
ATOM     58  C   UNL A   1      47.801  30.430  27.668  1.00  0.00     0.031 C 
ATOM     59  C   UNL A   1      45.548  31.062  28.491  1.00  0.00     0.037 A 
BRANCH  46  60
ATOM     60  C   UNL A   1      39.806  28.910  29.308  1.00  0.00     0.064 A 
ATOM     61  C   UNL A   1      39.389  28.679  30.629  1.00  0.00     0.173 A 
ATOM     62  C   UNL A   1      38.863  29.431  28.410  1.00  0.00     0.173 A 
ATOM     63  F   UNL A   1      40.246  28.170  31.528  1.00  0.00    -0.203 F 
ATOM     64  C   UNL A   1      38.077  28.926  31.023  1.00  0.00     0.198 A 
ATOM     65  C   UNL A   1      37.561  29.711  28.816  1.00  0.00     0.198 A 
ATOM     66  F   UNL A   1      39.206  29.677  27.136  1.00  0.00    -0.203 F 
ATOM     67  F   UNL A   1      37.690  28.642  32.274  1.00  0.00    -0.200 F 
ATOM     68  C   UNL A   1      37.166  29.448  30.119  1.00  0.00     0.200 A 
ATOM     69  F   UNL A   1      36.685  30.230  27.944  1.00  0.00    -0.200 F 
ATOM     70  F   UNL A   1      35.904  29.693  30.501  1.00  0.00    -0.200 F 
ENDBRANCH  46  60
BRANCH  47  71
ATOM     71  C   UNL A   1      49.002  26.721  26.046  1.00  0.00     0.064 A 
ATOM     72  C   UNL A   1      49.358  27.018  24.723  1.00  0.00     0.173 A 
ATOM     73  C   UNL A   1      49.972  26.125  26.864  1.00  0.00     0.173 A 
ATOM     74  F   UNL A   1      48.458  27.571  23.896  1.00  0.00    -0.203 F 
ATOM     75  C   UNL A   1      50.624  26.707  24.232  1.00  0.00     0.198 A 
ATOM     76  C   UNL A   1      51.249  25.845  26.381  1.00  0.00     0.198 A 
ATOM     77  F   UNL A   1      49.685  25.828  28.140  1.00  0.00    -0.203 F 
ATOM     78  F   UNL A   1      50.921  26.956  22.948  1.00  0.00    -0.200 F 
ATOM     79  C   UNL A   1      51.570  26.127  25.061  1.00  0.00     0.200 A 
ATOM     80  F   UNL A   1      52.165  25.301  27.192  1.00  0.00    -0.200 F 
ATOM     81  F   UNL A   1      52.789  25.834  24.590  1.00  0.00    -0.200 F 
ENDBRANCH  47  71
BRANCH  59  82
ATOM     82  C   UNL A   1      46.101  32.418  28.823  1.00  0.00     0.064 A 
ATOM     83  C   UNL A   1      46.700  32.687  30.064  1.00  0.00     0.173 A 
ATOM     84  C   UNL A   1      46.047  33.458  27.882  1.00  0.00     0.173 A 
ATOM     85  F   UNL A   1      46.766  31.732  31.004  1.00  0.00    -0.203 F 
ATOM     86  C   UNL A   1      47.191  33.957  30.362  1.00  0.00     0.198 A 
ATOM     87  C   UNL A   1      46.571  34.715  28.171  1.00  0.00     0.198 A 
ATOM     88  F   UNL A   1      45.492  33.253  26.678  1.00  0.00    -0.203 F 
ATOM     89  F   UNL A   1      47.702  34.206  31.575  1.00  0.00    -0.200 F 
ATOM     90  C   UNL A   1      47.130  34.966  29.414  1.00  0.00     0.200 A 
ATOM     91  F   UNL A   1      46.527  35.686  27.247  1.00  0.00    -0.200 F 
ATOM     92  F   UNL A   1      47.605  36.186  29.702  1.00  0.00    -0.200 F 
ENDBRANCH  59  82
ENDBRANCH  33  34
ENDBRANCH  25  28
ENDBRANCH  23  24
ENDBRANCH  22  23
ENDBRANCH  21  22
ENDBRANCH   3  21
TORSDOF 15
ENDMDL
MODEL 3
REMARK VINA RESULT:     -11.2      5.733     11.398
REMARK SMILES C[C@H]1[C@H](C(=O)NCCCNC(=O)c2ccc(-c3c4nc(c(-c5c(F)c(F)c(F)c(F)c5F)c5ccc([nH]5)c(-c5c(F)c(F)c(F)c(F)c5F)c5nc(c(-c6c(F)c(F)c(F)c(F)c6F)c6ccc3[nH]6)C=C5)C=C4)cc2)CCN1C(=O)CC[NH2+]C1CC1
REMARK SMILES IDX 4 1 5 2 6 3 3 5 1 6 2 7 78 8 76 9 77 10 79 11 80 12 81 13
REMARK SMILES IDX 82 14 83 15 84 18 85 19 86 20 7 21 8 22 9 23 10 24 11 25
REMARK SMILES IDX 12 27 13 28 14 29 75 30 15 31 74 32 16 33 17 34 18 35 68 36
REMARK SMILES IDX 19 37 73 38 67 39 69 40 20 41 72 42 66 43 65 44 21 46 53 47
REMARK SMILES IDX 33 48 52 49 34 50 37 51 51 52 70 53 35 54 36 55 50 57 71 58
REMARK SMILES IDX 38 59 22 60 23 61 31 62 24 63 25 64 29 65 32 66 26 67 27 68
REMARK SMILES IDX 30 69 28 70 54 71 55 72 63 73 56 74 57 75 61 76 64 77 58 78
REMARK SMILES IDX 59 79 62 80 60 81 39 82 40 83 48 84 41 85 42 86 46 87 49 88
REMARK SMILES IDX 43 89 44 90 47 91 45 92
REMARK H PARENT 6 4 83 16 83 17 10 26 69 45 37 56
REMARK Flexibility Score: inf
ROOT
ATOM      1  C   UNL A   1      33.152  28.975  26.149  1.00  0.00     0.225 C 
ATOM      2  O   UNL A   1      34.124  28.594  26.808  1.00  0.00    -0.275 OA
ATOM      3  N   UNL A   1      32.631  30.184  26.463  1.00  0.00    -0.356 N 
ATOM      4  H   UNL A   1      33.120  30.668  27.167  1.00  0.00     0.163 HD
ENDROOT
BRANCH   1   5
ATOM      5  C   UNL A   1      32.565  28.075  25.078  1.00  0.00     0.102 C 
ATOM      6  C   UNL A   1      33.505  27.639  22.823  1.00  0.00     0.032 C 
ATOM      7  C   UNL A   1      33.653  27.316  24.309  1.00  0.00     0.094 C 
ATOM      8  N   UNL A   1      33.375  25.902  24.546  1.00  0.00    -0.339 N 
ATOM      9  C   UNL A   1      31.545  27.032  25.538  1.00  0.00     0.037 C 
ATOM     10  C   UNL A   1      31.980  25.718  24.898  1.00  0.00     0.120 C 
BRANCH   8  11
ATOM     11  C   UNL A   1      34.213  24.815  24.395  1.00  0.00     0.228 C 
ATOM     12  O   UNL A   1      34.141  24.088  23.400  1.00  0.00    -0.275 OA
BRANCH  11  13
ATOM     13  C   UNL A   1      35.199  24.470  25.503  1.00  0.00     0.161 C 
BRANCH  13  14
ATOM     14  C   UNL A   1      34.731  23.324  26.402  1.00  0.00     0.270 C 
BRANCH  14  15
ATOM     15  N   UNL A   1      35.675  22.200  26.376  1.00  0.00    -0.343 N 
ATOM     16  H   UNL A   1      35.160  21.354  26.133  1.00  0.00     0.346 HD
ATOM     17  H   UNL A   1      36.099  22.152  27.303  1.00  0.00     0.346 HD
BRANCH  15  18
ATOM     18  C   UNL A   1      36.775  22.362  25.419  1.00  0.00     0.182 C 
ATOM     19  C   UNL A   1      38.198  21.998  25.751  1.00  0.00     0.071 C 
ATOM     20  C   UNL A   1      37.403  21.119  24.835  1.00  0.00     0.071 C 
ENDBRANCH  15  18
ENDBRANCH  14  15
ENDBRANCH  13  14
ENDBRANCH  11  13
ENDBRANCH   8  11
ENDBRANCH   1   5
BRANCH   3  21
ATOM     21  C   UNL A   1      31.477  30.890  25.943  1.00  0.00     0.117 C 
BRANCH  21  22
ATOM     22  C   UNL A   1      31.272  32.231  26.630  1.00  0.00     0.042 C 
BRANCH  22  23
ATOM     23  C   UNL A   1      32.540  32.804  27.249  1.00  0.00     0.118 C 
BRANCH  23  24
ATOM     24  N   UNL A   1      32.394  34.203  27.626  1.00  0.00    -0.352 N 
ATOM     25  C   UNL A   1      32.989  34.914  28.633  1.00  0.00     0.251 C 
ATOM     26  H   UNL A   1      31.767  34.719  27.069  1.00  0.00     0.163 HD
ATOM     27  O   UNL A   1      32.556  36.027  28.932  1.00  0.00    -0.269 OA
BRANCH  25  28
ATOM     28  C   UNL A   1      34.138  34.350  29.367  1.00  0.00     0.039 A 
ATOM     29  C   UNL A   1      33.907  33.674  30.567  1.00  0.00     0.014 A 
ATOM     30  C   UNL A   1      35.442  34.510  28.891  1.00  0.00     0.014 A 
ATOM     31  C   UNL A   1      34.979  33.108  31.257  1.00  0.00     0.010 A 
ATOM     32  C   UNL A   1      36.496  33.863  29.527  1.00  0.00     0.010 A 
ATOM     33  C   UNL A   1      36.277  33.167  30.723  1.00  0.00    -0.014 A 
BRANCH  33  34
ATOM     34  C   UNL A   1      37.416  32.507  31.409  1.00  0.00     0.031 A 
ATOM     35  C   UNL A   1      38.115  31.341  30.767  1.00  0.00     0.074 A 
ATOM     36  C   UNL A   1      37.784  32.931  32.633  1.00  0.00     0.049 A 
ATOM     37  N   UNL A   1      39.106  30.618  31.225  1.00  0.00    -0.248 NA
ATOM     38  C   UNL A   1      37.619  30.912  29.450  1.00  0.00     0.031 C 
ATOM     39  C   UNL A   1      37.139  34.011  33.382  1.00  0.00     0.029 A 
ATOM     40  N   UNL A   1      38.785  32.500  33.466  1.00  0.00    -0.354 N 
ATOM     41  C   UNL A   1      39.345  29.650  30.257  1.00  0.00     0.074 A 
ATOM     42  C   UNL A   1      38.352  29.833  29.221  1.00  0.00     0.031 C 
ATOM     43  C   UNL A   1      37.778  34.178  34.549  1.00  0.00     0.029 A 
ATOM     44  C   UNL A   1      38.850  33.193  34.649  1.00  0.00     0.049 A 
ATOM     45  H   UNL A   1      39.397  31.764  33.236  1.00  0.00     0.167 HD
ATOM     46  C   UNL A   1      40.322  28.713  30.222  1.00  0.00     0.037 A 
ATOM     47  C   UNL A   1      39.679  33.046  35.699  1.00  0.00     0.037 A 
ATOM     48  C   UNL A   1      41.313  28.544  31.252  1.00  0.00     0.049 A 
ATOM     49  C   UNL A   1      40.753  31.994  35.638  1.00  0.00     0.074 A 
ATOM     50  C   UNL A   1      42.376  27.658  31.292  1.00  0.00     0.029 A 
ATOM     51  N   UNL A   1      41.360  29.275  32.431  1.00  0.00    -0.354 N 
ATOM     52  N   UNL A   1      41.016  31.133  34.685  1.00  0.00    -0.248 NA
ATOM     53  C   UNL A   1      41.652  31.902  36.796  1.00  0.00     0.031 C 
ATOM     54  C   UNL A   1      43.032  27.816  32.517  1.00  0.00     0.029 A 
ATOM     55  C   UNL A   1      42.418  28.843  33.216  1.00  0.00     0.049 A 
ATOM     56  H   UNL A   1      40.733  29.994  32.674  1.00  0.00     0.167 HD
ATOM     57  C   UNL A   1      42.123  30.414  35.115  1.00  0.00     0.074 A 
ATOM     58  C   UNL A   1      42.496  30.959  36.404  1.00  0.00     0.031 C 
ATOM     59  C   UNL A   1      42.772  29.394  34.500  1.00  0.00     0.037 A 
BRANCH  46  60
ATOM     60  C   UNL A   1      40.366  27.802  29.028  1.00  0.00     0.064 A 
ATOM     61  C   UNL A   1      41.137  28.110  27.894  1.00  0.00     0.173 A 
ATOM     62  C   UNL A   1      39.653  26.594  29.021  1.00  0.00     0.173 A 
ATOM     63  F   UNL A   1      41.830  29.258  27.841  1.00  0.00    -0.203 F 
ATOM     64  C   UNL A   1      41.164  27.262  26.791  1.00  0.00     0.198 A 
ATOM     65  C   UNL A   1      39.710  25.731  27.930  1.00  0.00     0.198 A 
ATOM     66  F   UNL A   1      38.903  26.246  30.078  1.00  0.00    -0.203 F 
ATOM     67  F   UNL A   1      41.861  27.608  25.700  1.00  0.00    -0.200 F 
ATOM     68  C   UNL A   1      40.457  26.071  26.811  1.00  0.00     0.200 A 
ATOM     69  F   UNL A   1      39.037  24.573  27.957  1.00  0.00    -0.200 F 
ATOM     70  F   UNL A   1      40.488  25.251  25.751  1.00  0.00    -0.200 F 
ENDBRANCH  46  60
BRANCH  47  71
ATOM     71  C   UNL A   1      39.537  33.932  36.884  1.00  0.00     0.064 A 
ATOM     72  C   UNL A   1      40.140  35.196  36.919  1.00  0.00     0.173 A 
ATOM     73  C   UNL A   1      38.793  33.533  38.006  1.00  0.00     0.173 A 
ATOM     74  F   UNL A   1      40.877  35.615  35.879  1.00  0.00    -0.203 F 
ATOM     75  C   UNL A   1      40.026  36.019  38.038  1.00  0.00     0.198 A 
ATOM     76  C   UNL A   1      38.653  34.370  39.110  1.00  0.00     0.198 A 
ATOM     77  F   UNL A   1      38.190  32.336  38.020  1.00  0.00    -0.203 F 
ATOM     78  F   UNL A   1      40.655  37.203  38.063  1.00  0.00    -0.200 F 
ATOM     79  C   UNL A   1      39.278  35.608  39.130  1.00  0.00     0.200 A 
ATOM     80  F   UNL A   1      37.914  33.976  40.156  1.00  0.00    -0.200 F 
ATOM     81  F   UNL A   1      39.163  36.401  40.203  1.00  0.00    -0.200 F 
ENDBRANCH  47  71
BRANCH  59  82
ATOM     82  C   UNL A   1      43.968  28.820  35.205  1.00  0.00     0.064 A 
ATOM     83  C   UNL A   1      43.851  27.751  36.107  1.00  0.00     0.173 A 
ATOM     84  C   UNL A   1      45.250  29.334  34.961  1.00  0.00     0.173 A 
ATOM     85  F   UNL A   1      42.645  27.232  36.386  1.00  0.00    -0.203 F 
ATOM     86  C   UNL A   1      44.968  27.244  36.766  1.00  0.00     0.198 A 
ATOM     87  C   UNL A   1      46.370  28.800  35.594  1.00  0.00     0.198 A 
ATOM     88  F   UNL A   1      45.421  30.350  34.101  1.00  0.00    -0.203 F 
ATOM     89  F   UNL A   1      44.823  26.265  37.669  1.00  0.00    -0.200 F 
ATOM     90  C   UNL A   1      46.226  27.765  36.504  1.00  0.00     0.200 A 
ATOM     91  F   UNL A   1      47.588  29.293  35.327  1.00  0.00    -0.200 F 
ATOM     92  F   UNL A   1      47.301  27.273  37.136  1.00  0.00    -0.200 F 
ENDBRANCH  59  82
ENDBRANCH  33  34
ENDBRANCH  25  28
ENDBRANCH  23  24
ENDBRANCH  22  23
ENDBRANCH  21  22
ENDBRANCH   3  21
TORSDOF 15
ENDMDL
