MODEL 1
REMARK VINA RESULT:     -13.5      0.000      0.000
REMARK SMILES Cc1c(C(=O)NCCCNC(=O)c2ccc(-c3c4nc(c(-c5c(F)c(F)c(F)c(F)c5F)c5ccc([nH]5)c(-c5c(F)c(F)c(F)c(F)c5F)c5nc(c(-c6c(F)c(F)c(F)c(F)c6F)c6ccc3[nH]6)C=C5)C=C4)cc2)sc2c1=C(CSc1nncn1-c1ccccc1)CC(=O)N=2
REMARK SMILES IDX 7 1 6 2 4 3 5 4 3 6 1 7 2 8 78 9 76 10 77 11 79 12 96 13
REMARK SMILES IDX 93 14 94 15 95 16 80 17 81 18 82 19 83 20 86 21 84 22 85 23
REMARK SMILES IDX 87 24 88 25 92 26 89 27 91 28 90 29 8 30 9 31 10 32 11 33
REMARK SMILES IDX 12 35 13 36 14 37 75 38 15 39 74 40 16 41 17 42 18 43 68 44
REMARK SMILES IDX 19 45 73 46 67 47 69 48 20 49 72 50 66 51 65 52 21 54 53 55
REMARK SMILES IDX 33 56 52 57 34 58 37 59 51 60 70 61 35 62 36 63 50 65 71 66
REMARK SMILES IDX 38 67 22 68 23 69 31 70 24 71 25 72 29 73 32 74 26 75 27 76
REMARK SMILES IDX 30 77 28 78 54 79 55 80 63 81 56 82 57 83 61 84 64 85 58 86
REMARK SMILES IDX 59 87 62 88 60 89 39 90 40 91 48 92 41 93 42 94 46 95 49 96
REMARK SMILES IDX 43 97 44 98 47 99 45 100
REMARK H PARENT 6 5 10 34 69 53 37 64
REMARK Flexibility Score: inf
ROOT
ATOM      1  C   UNL A   1      31.851  30.104  26.080  1.00  0.00     0.118 C 
ENDROOT
BRANCH   1   2
ATOM      2  N   UNL A   1      32.713  30.027  24.924  1.00  0.00    -0.351 N 
ATOM      3  C   UNL A   1      33.076  29.018  24.092  1.00  0.00     0.261 C 
ATOM      4  O   UNL A   1      33.754  29.372  23.122  1.00  0.00    -0.268 OA
ATOM      5  H   UNL A   1      33.125  30.890  24.689  1.00  0.00     0.163 HD
BRANCH   3   6
ATOM      6  C   UNL A   1      32.668  27.575  24.258  1.00  0.00     0.098 A 
ATOM      7  C   UNL A   1      30.217  27.299  23.494  1.00  0.00     0.047 C 
ATOM      8  C   UNL A   1      31.554  26.851  23.980  1.00  0.00    -0.018 A 
ATOM      9  C   UNL A   1      31.670  25.470  24.447  1.00  0.00     0.016 A 
ATOM     10  S   UNL A   1      33.812  26.634  25.270  1.00  0.00    -0.110 S 
ATOM     11  C   UNL A   1      32.623  25.400  25.577  1.00  0.00     0.128 A 
ATOM     12  C   UNL A   1      30.741  24.493  24.463  1.00  0.00    -0.040 C 
ATOM     13  N   UNL A   1      32.581  24.663  26.628  1.00  0.00    -0.202 NA
ATOM     14  C   UNL A   1      30.268  24.128  25.861  1.00  0.00     0.135 C 
ATOM     15  C   UNL A   1      31.484  23.831  26.747  1.00  0.00     0.251 C 
ATOM     16  O   UNL A   1      31.434  22.915  27.562  1.00  0.00    -0.272 OA
BRANCH  12  17
ATOM     17  C   UNL A   1      30.997  23.219  23.656  1.00  0.00     0.110 C 
BRANCH  17  18
ATOM     18  S   UNL A   1      32.748  22.831  23.453  1.00  0.00    -0.081 SA
BRANCH  18  19
ATOM     19  C   UNL A   1      32.888  21.427  24.453  1.00  0.00     0.195 A 
ATOM     20  N   UNL A   1      31.955  20.504  24.520  1.00  0.00    -0.123 NA
ATOM     21  N   UNL A   1      34.007  21.036  25.172  1.00  0.00    -0.277 N 
ATOM     22  N   UNL A   1      32.428  19.476  25.283  1.00  0.00    -0.138 NA
ATOM     23  C   UNL A   1      33.639  19.802  25.668  1.00  0.00     0.231 A 
BRANCH  21  24
ATOM     24  C   UNL A   1      35.282  21.652  25.358  1.00  0.00     0.049 A 
ATOM     25  C   UNL A   1      35.421  22.955  25.854  1.00  0.00     0.027 A 
ATOM     26  C   UNL A   1      36.443  20.934  25.033  1.00  0.00     0.027 A 
ATOM     27  C   UNL A   1      36.681  23.553  25.952  1.00  0.00     0.002 A 
ATOM     28  C   UNL A   1      37.701  21.512  25.204  1.00  0.00     0.002 A 
ATOM     29  C   UNL A   1      37.822  22.834  25.617  1.00  0.00     0.000 A 
ENDBRANCH  21  24
ENDBRANCH  18  19
ENDBRANCH  17  18
ENDBRANCH  12  17
ENDBRANCH   3   6
ENDBRANCH   1   2
BRANCH   1  30
ATOM     30  C   UNL A   1      31.562  31.562  26.476  1.00  0.00     0.042 C 
BRANCH  30  31
ATOM     31  C   UNL A   1      32.693  32.166  27.288  1.00  0.00     0.118 C 
BRANCH  31  32
ATOM     32  N   UNL A   1      32.470  33.603  27.505  1.00  0.00    -0.352 N 
ATOM     33  C   UNL A   1      33.015  34.472  28.440  1.00  0.00     0.251 C 
ATOM     34  H   UNL A   1      31.827  34.017  26.885  1.00  0.00     0.163 HD
ATOM     35  O   UNL A   1      32.510  35.541  28.695  1.00  0.00    -0.269 OA
BRANCH  33  36
ATOM     36  C   UNL A   1      34.287  34.056  29.044  1.00  0.00     0.039 A 
ATOM     37  C   UNL A   1      34.427  33.534  30.333  1.00  0.00     0.014 A 
ATOM     38  C   UNL A   1      35.355  34.120  28.168  1.00  0.00     0.014 A 
ATOM     39  C   UNL A   1      35.668  33.005  30.686  1.00  0.00     0.010 A 
ATOM     40  C   UNL A   1      36.402  33.296  28.387  1.00  0.00     0.010 A 
ATOM     41  C   UNL A   1      36.642  32.888  29.688  1.00  0.00    -0.014 A 
BRANCH  41  42
ATOM     42  C   UNL A   1      37.961  32.315  29.872  1.00  0.00     0.031 A 
ATOM     43  C   UNL A   1      38.089  30.918  29.389  1.00  0.00     0.074 A 
ATOM     44  C   UNL A   1      39.011  33.143  30.090  1.00  0.00     0.049 A 
ATOM     45  N   UNL A   1      38.365  29.861  30.075  1.00  0.00    -0.248 NA
ATOM     46  C   UNL A   1      37.716  30.633  27.991  1.00  0.00     0.031 C 
ATOM     47  C   UNL A   1      39.023  34.616  30.183  1.00  0.00     0.029 A 
ATOM     48  N   UNL A   1      40.333  32.845  30.142  1.00  0.00    -0.354 N 
ATOM     49  C   UNL A   1      38.397  28.809  29.162  1.00  0.00     0.074 A 
ATOM     50  C   UNL A   1      37.780  29.301  27.962  1.00  0.00     0.031 C 
ATOM     51  C   UNL A   1      40.286  35.078  30.052  1.00  0.00     0.029 A 
ATOM     52  C   UNL A   1      41.185  33.943  30.058  1.00  0.00     0.049 A 
ATOM     53  H   UNL A   1      40.665  31.922  30.232  1.00  0.00     0.167 HD
ATOM     54  C   UNL A   1      39.162  27.703  29.390  1.00  0.00     0.037 A 
ATOM     55  C   UNL A   1      42.536  33.893  29.971  1.00  0.00     0.037 A 
ATOM     56  C   UNL A   1      39.599  27.671  30.763  1.00  0.00     0.049 A 
ATOM     57  C   UNL A   1      42.935  32.529  30.405  1.00  0.00     0.074 A 
ATOM     58  C   UNL A   1      38.965  27.552  31.982  1.00  0.00     0.029 A 
ATOM     59  N   UNL A   1      40.845  28.186  31.033  1.00  0.00    -0.354 N 
ATOM     60  N   UNL A   1      42.759  32.074  31.617  1.00  0.00    -0.248 NA
ATOM     61  C   UNL A   1      43.072  31.514  29.371  1.00  0.00     0.031 C 
ATOM     62  C   UNL A   1      39.676  28.428  32.855  1.00  0.00     0.029 A 
ATOM     63  C   UNL A   1      40.751  28.974  32.149  1.00  0.00     0.049 A 
ATOM     64  H   UNL A   1      41.663  28.018  30.512  1.00  0.00     0.167 HD
ATOM     65  C   UNL A   1      42.361  30.755  31.452  1.00  0.00     0.074 A 
ATOM     66  C   UNL A   1      42.645  30.446  30.051  1.00  0.00     0.031 C 
ATOM     67  C   UNL A   1      41.569  30.144  32.382  1.00  0.00     0.037 A 
BRANCH  54  68
ATOM     68  C   UNL A   1      39.826  26.859  28.325  1.00  0.00     0.064 A 
ATOM     69  C   UNL A   1      39.626  25.462  28.345  1.00  0.00     0.173 A 
ATOM     70  C   UNL A   1      40.861  27.304  27.474  1.00  0.00     0.173 A 
ATOM     71  F   UNL A   1      38.674  24.919  29.118  1.00  0.00    -0.203 F 
ATOM     72  C   UNL A   1      40.454  24.583  27.644  1.00  0.00     0.198 A 
ATOM     73  C   UNL A   1      41.649  26.426  26.731  1.00  0.00     0.198 A 
ATOM     74  F   UNL A   1      41.231  28.586  27.400  1.00  0.00    -0.203 F 
ATOM     75  F   UNL A   1      40.302  23.260  27.800  1.00  0.00    -0.200 F 
ATOM     76  C   UNL A   1      41.470  25.064  26.842  1.00  0.00     0.200 A 
ATOM     77  F   UNL A   1      42.639  26.914  25.969  1.00  0.00    -0.200 F 
ATOM     78  F   UNL A   1      42.304  24.224  26.217  1.00  0.00    -0.200 F 
ENDBRANCH  54  68
BRANCH  55  79
ATOM     79  C   UNL A   1      43.456  34.792  29.236  1.00  0.00     0.064 A 
ATOM     80  C   UNL A   1      44.433  35.540  29.912  1.00  0.00     0.173 A 
ATOM     81  C   UNL A   1      43.588  34.709  27.836  1.00  0.00     0.173 A 
ATOM     82  F   UNL A   1      44.401  35.633  31.250  1.00  0.00    -0.203 F 
ATOM     83  C   UNL A   1      45.496  36.146  29.232  1.00  0.00     0.198 A 
ATOM     84  C   UNL A   1      44.649  35.313  27.158  1.00  0.00     0.198 A 
ATOM     85  F   UNL A   1      42.744  33.957  27.115  1.00  0.00    -0.203 F 
ATOM     86  F   UNL A   1      46.444  36.801  29.918  1.00  0.00    -0.200 F 
ATOM     87  C   UNL A   1      45.611  36.019  27.857  1.00  0.00     0.200 A 
ATOM     88  F   UNL A   1      44.770  35.149  25.833  1.00  0.00    -0.200 F 
ATOM     89  F   UNL A   1      46.665  36.539  27.213  1.00  0.00    -0.200 F 
ENDBRANCH  55  79
BRANCH  67  90
ATOM     90  C   UNL A   1      41.354  30.853  33.694  1.00  0.00     0.064 A 
ATOM     91  C   UNL A   1      40.264  31.699  33.966  1.00  0.00     0.173 A 
ATOM     92  C   UNL A   1      42.183  30.513  34.768  1.00  0.00     0.173 A 
ATOM     93  F   UNL A   1      39.374  32.003  33.017  1.00  0.00    -0.203 F 
ATOM     94  C   UNL A   1      40.028  32.194  35.249  1.00  0.00     0.198 A 
ATOM     95  C   UNL A   1      41.927  30.979  36.056  1.00  0.00     0.198 A 
ATOM     96  F   UNL A   1      43.208  29.667  34.580  1.00  0.00    -0.203 F 
ATOM     97  F   UNL A   1      38.975  32.993  35.480  1.00  0.00    -0.200 F 
ATOM     98  C   UNL A   1      40.854  31.823  36.295  1.00  0.00     0.200 A 
ATOM     99  F   UNL A   1      42.701  30.577  37.072  1.00  0.00    -0.200 F 
ATOM    100  F   UNL A   1      40.598  32.252  37.539  1.00  0.00    -0.200 F 
ENDBRANCH  67  90
ENDBRANCH  41  42
ENDBRANCH  33  36
ENDBRANCH  31  32
ENDBRANCH  30  31
ENDBRANCH   1  30
TORSDOF 14
ENDMDL
MODEL 2
REMARK VINA RESULT:     -13.5      3.063      7.437
REMARK SMILES Cc1c(C(=O)NCCCNC(=O)c2ccc(-c3c4nc(c(-c5c(F)c(F)c(F)c(F)c5F)c5ccc([nH]5)c(-c5c(F)c(F)c(F)c(F)c5F)c5nc(c(-c6c(F)c(F)c(F)c(F)c6F)c6ccc3[nH]6)C=C5)C=C4)cc2)sc2c1=C(CSc1nncn1-c1ccccc1)CC(=O)N=2
REMARK SMILES IDX 7 1 6 2 4 3 5 4 3 6 1 7 2 8 78 9 76 10 77 11 79 12 96 13
REMARK SMILES IDX 93 14 94 15 95 16 80 17 81 18 82 19 83 20 86 21 84 22 85 23
REMARK SMILES IDX 87 24 88 25 92 26 89 27 91 28 90 29 8 30 9 31 10 32 11 33
REMARK SMILES IDX 12 35 13 36 14 37 75 38 15 39 74 40 16 41 17 42 18 43 68 44
REMARK SMILES IDX 19 45 73 46 67 47 69 48 20 49 72 50 66 51 65 52 21 54 53 55
REMARK SMILES IDX 33 56 52 57 34 58 37 59 51 60 70 61 35 62 36 63 50 65 71 66
REMARK SMILES IDX 38 67 22 68 23 69 31 70 24 71 25 72 29 73 32 74 26 75 27 76
REMARK SMILES IDX 30 77 28 78 54 79 55 80 63 81 56 82 57 83 61 84 64 85 58 86
REMARK SMILES IDX 59 87 62 88 60 89 39 90 40 91 48 92 41 93 42 94 46 95 49 96
REMARK SMILES IDX 43 97 44 98 47 99 45 100
REMARK H PARENT 6 5 10 34 69 53 37 64
REMARK Flexibility Score: inf
ROOT
ATOM      1  C   UNL A   1      33.438  29.744  25.913  1.00  0.00     0.118 C 
ENDROOT
BRANCH   1   2
ATOM      2  N   UNL A   1      32.193  30.061  25.253  1.00  0.00    -0.351 N 
ATOM      3  C   UNL A   1      31.293  29.329  24.550  1.00  0.00     0.261 C 
ATOM      4  O   UNL A   1      30.267  29.941  24.235  1.00  0.00    -0.268 OA
ATOM      5  H   UNL A   1      31.943  31.011  25.331  1.00  0.00     0.163 HD
BRANCH   3   6
ATOM      6  C   UNL A   1      31.453  27.869  24.201  1.00  0.00     0.098 A 
ATOM      7  C   UNL A   1      32.924  26.732  25.993  1.00  0.00     0.047 C 
ATOM      8  C   UNL A   1      32.053  26.801  24.783  1.00  0.00    -0.018 A 
ATOM      9  C   UNL A   1      31.978  25.607  23.942  1.00  0.00     0.016 A 
ATOM     10  S   UNL A   1      30.950  27.490  22.522  1.00  0.00    -0.110 S 
ATOM     11  C   UNL A   1      31.852  26.001  22.520  1.00  0.00     0.128 A 
ATOM     12  C   UNL A   1      32.553  24.401  24.118  1.00  0.00    -0.040 C 
ATOM     13  N   UNL A   1      32.355  25.446  21.478  1.00  0.00    -0.202 NA
ATOM     14  C   UNL A   1      33.667  24.108  23.125  1.00  0.00     0.135 C 
ATOM     15  C   UNL A   1      33.150  24.337  21.700  1.00  0.00     0.251 C 
ATOM     16  O   UNL A   1      33.491  23.578  20.798  1.00  0.00    -0.272 OA
BRANCH  12  17
ATOM     17  C   UNL A   1      31.656  23.170  24.263  1.00  0.00     0.110 C 
BRANCH  17  18
ATOM     18  S   UNL A   1      31.825  22.335  25.854  1.00  0.00    -0.081 SA
BRANCH  18  19
ATOM     19  C   UNL A   1      32.651  20.892  25.378  1.00  0.00     0.195 A 
ATOM     20  N   UNL A   1      32.021  19.790  25.036  1.00  0.00    -0.123 NA
ATOM     21  N   UNL A   1      34.014  20.755  25.167  1.00  0.00    -0.277 N 
ATOM     22  N   UNL A   1      32.947  18.893  24.588  1.00  0.00    -0.138 NA
ATOM     23  C   UNL A   1      34.121  19.470  24.674  1.00  0.00     0.231 A 
BRANCH  21  24
ATOM     24  C   UNL A   1      35.099  21.669  25.326  1.00  0.00     0.049 A 
ATOM     25  C   UNL A   1      35.055  22.735  26.234  1.00  0.00     0.027 A 
ATOM     26  C   UNL A   1      36.255  21.503  24.547  1.00  0.00     0.027 A 
ATOM     27  C   UNL A   1      36.106  23.655  26.309  1.00  0.00     0.002 A 
ATOM     28  C   UNL A   1      37.329  22.383  24.682  1.00  0.00     0.002 A 
ATOM     29  C   UNL A   1      37.240  23.484  25.525  1.00  0.00     0.000 A 
ENDBRANCH  21  24
ENDBRANCH  18  19
ENDBRANCH  17  18
ENDBRANCH  12  17
ENDBRANCH   3   6
ENDBRANCH   1   2
BRANCH   1  30
ATOM     30  C   UNL A   1      33.464  30.270  27.358  1.00  0.00     0.042 C 
BRANCH  30  31
ATOM     31  C   UNL A   1      34.696  31.112  27.635  1.00  0.00     0.118 C 
BRANCH  31  32
ATOM     32  N   UNL A   1      34.608  31.744  28.959  1.00  0.00    -0.352 N 
ATOM     33  C   UNL A   1      35.407  31.600  30.086  1.00  0.00     0.251 C 
ATOM     34  H   UNL A   1      33.859  32.374  29.065  1.00  0.00     0.163 HD
ATOM     35  O   UNL A   1      35.036  31.940  31.184  1.00  0.00    -0.269 OA
BRANCH  33  36
ATOM     36  C   UNL A   1      36.762  31.085  29.855  1.00  0.00     0.039 A 
ATOM     37  C   UNL A   1      37.902  31.877  29.690  1.00  0.00     0.014 A 
ATOM     38  C   UNL A   1      36.843  29.707  29.927  1.00  0.00     0.014 A 
ATOM     39  C   UNL A   1      39.140  31.236  29.676  1.00  0.00     0.010 A 
ATOM     40  C   UNL A   1      38.027  29.159  30.275  1.00  0.00     0.010 A 
ATOM     41  C   UNL A   1      39.178  29.871  29.981  1.00  0.00    -0.014 A 
BRANCH  41  42
ATOM     42  C   UNL A   1      40.381  29.067  30.062  1.00  0.00     0.031 A 
ATOM     43  C   UNL A   1      40.849  28.809  31.447  1.00  0.00     0.074 A 
ATOM     44  C   UNL A   1      40.753  28.332  28.986  1.00  0.00     0.049 A 
ATOM     45  N   UNL A   1      41.962  29.167  31.990  1.00  0.00    -0.248 NA
ATOM     46  C   UNL A   1      39.896  28.206  32.396  1.00  0.00     0.031 C 
ATOM     47  C   UNL A   1      40.093  28.222  27.670  1.00  0.00     0.029 A 
ATOM     48  N   UNL A   1      41.741  27.408  28.886  1.00  0.00    -0.354 N 
ATOM     49  C   UNL A   1      41.934  28.663  33.289  1.00  0.00     0.074 A 
ATOM     50  C   UNL A   1      40.572  28.286  33.543  1.00  0.00     0.031 C 
ATOM     51  C   UNL A   1      40.559  27.139  27.008  1.00  0.00     0.029 A 
ATOM     52  C   UNL A   1      41.671  26.595  27.758  1.00  0.00     0.049 A 
ATOM     53  H   UNL A   1      42.454  27.321  29.559  1.00  0.00     0.167 HD
ATOM     54  C   UNL A   1      43.088  28.360  33.951  1.00  0.00     0.037 A 
ATOM     55  C   UNL A   1      42.470  25.532  27.497  1.00  0.00     0.037 A 
ATOM     56  C   UNL A   1      44.221  28.934  33.269  1.00  0.00     0.049 A 
ATOM     57  C   UNL A   1      43.654  25.667  28.385  1.00  0.00     0.074 A 
ATOM     58  C   UNL A   1      44.645  30.219  33.002  1.00  0.00     0.029 A 
ATOM     59  N   UNL A   1      44.898  28.121  32.392  1.00  0.00    -0.354 N 
ATOM     60  N   UNL A   1      44.519  26.641  28.294  1.00  0.00    -0.248 NA
ATOM     61  C   UNL A   1      43.597  25.001  29.677  1.00  0.00     0.031 C 
ATOM     62  C   UNL A   1      45.190  30.161  31.685  1.00  0.00     0.029 A 
ATOM     63  C   UNL A   1      45.143  28.835  31.248  1.00  0.00     0.049 A 
ATOM     64  H   UNL A   1      45.160  27.186  32.557  1.00  0.00     0.167 HD
ATOM     65  C   UNL A   1      44.823  26.977  29.606  1.00  0.00     0.074 A 
ATOM     66  C   UNL A   1      44.281  25.883  30.411  1.00  0.00     0.031 C 
ATOM     67  C   UNL A   1      45.213  28.245  29.929  1.00  0.00     0.037 A 
BRANCH  54  68
ATOM     68  C   UNL A   1      43.251  27.260  34.975  1.00  0.00     0.064 A 
ATOM     69  C   UNL A   1      43.537  27.615  36.311  1.00  0.00     0.173 A 
ATOM     70  C   UNL A   1      43.424  25.893  34.669  1.00  0.00     0.173 A 
ATOM     71  F   UNL A   1      43.413  28.886  36.723  1.00  0.00    -0.203 F 
ATOM     72  C   UNL A   1      44.042  26.695  37.233  1.00  0.00     0.198 A 
ATOM     73  C   UNL A   1      43.875  24.966  35.607  1.00  0.00     0.198 A 
ATOM     74  F   UNL A   1      43.273  25.408  33.432  1.00  0.00    -0.203 F 
ATOM     75  F   UNL A   1      44.419  27.112  38.449  1.00  0.00    -0.200 F 
ATOM     76  C   UNL A   1      44.218  25.371  36.878  1.00  0.00     0.200 A 
ATOM     77  F   UNL A   1      44.050  23.688  35.239  1.00  0.00    -0.200 F 
ATOM     78  F   UNL A   1      44.759  24.499  37.739  1.00  0.00    -0.200 F 
ENDBRANCH  54  68
BRANCH  55  79
ATOM     79  C   UNL A   1      42.136  24.265  26.807  1.00  0.00     0.064 A 
ATOM     80  C   UNL A   1      43.080  23.604  26.005  1.00  0.00     0.173 A 
ATOM     81  C   UNL A   1      40.988  23.527  27.159  1.00  0.00     0.173 A 
ATOM     82  F   UNL A   1      44.220  24.223  25.662  1.00  0.00    -0.203 F 
ATOM     83  C   UNL A   1      42.902  22.275  25.603  1.00  0.00     0.198 A 
ATOM     84  C   UNL A   1      40.811  22.202  26.757  1.00  0.00     0.198 A 
ATOM     85  F   UNL A   1      40.067  24.050  27.981  1.00  0.00    -0.203 F 
ATOM     86  F   UNL A   1      43.855  21.659  24.889  1.00  0.00    -0.200 F 
ATOM     87  C   UNL A   1      41.775  21.571  25.991  1.00  0.00     0.200 A 
ATOM     88  F   UNL A   1      39.735  21.519  27.173  1.00  0.00    -0.200 F 
ATOM     89  F   UNL A   1      41.635  20.279  25.665  1.00  0.00    -0.200 F 
ENDBRANCH  55  79
BRANCH  67  90
ATOM     90  C   UNL A   1      45.545  29.186  28.800  1.00  0.00     0.064 A 
ATOM     91  C   UNL A   1      44.632  30.093  28.233  1.00  0.00     0.173 A 
ATOM     92  C   UNL A   1      46.883  29.297  28.408  1.00  0.00     0.173 A 
ATOM     93  F   UNL A   1      43.352  30.113  28.616  1.00  0.00    -0.203 F 
ATOM     94  C   UNL A   1      45.039  31.053  27.306  1.00  0.00     0.198 A 
ATOM     95  C   UNL A   1      47.295  30.278  27.509  1.00  0.00     0.198 A 
ATOM     96  F   UNL A   1      47.808  28.493  28.955  1.00  0.00    -0.203 F 
ATOM     97  F   UNL A   1      44.146  31.910  26.788  1.00  0.00    -0.200 F 
ATOM     98  C   UNL A   1      46.373  31.152  26.954  1.00  0.00     0.200 A 
ATOM     99  F   UNL A   1      48.595  30.401  27.211  1.00  0.00    -0.200 F 
ATOM    100  F   UNL A   1      46.777  32.108  26.106  1.00  0.00    -0.200 F 
ENDBRANCH  67  90
ENDBRANCH  41  42
ENDBRANCH  33  36
ENDBRANCH  31  32
ENDBRANCH  30  31
ENDBRANCH   1  30
TORSDOF 14
ENDMDL
MODEL 3
REMARK VINA RESULT:     -13.4      3.010      7.554
REMARK SMILES Cc1c(C(=O)NCCCNC(=O)c2ccc(-c3c4nc(c(-c5c(F)c(F)c(F)c(F)c5F)c5ccc([nH]5)c(-c5c(F)c(F)c(F)c(F)c5F)c5nc(c(-c6c(F)c(F)c(F)c(F)c6F)c6ccc3[nH]6)C=C5)C=C4)cc2)sc2c1=C(CSc1nncn1-c1ccccc1)CC(=O)N=2
REMARK SMILES IDX 7 1 6 2 4 3 5 4 3 6 1 7 2 8 78 9 76 10 77 11 79 12 96 13
REMARK SMILES IDX 93 14 94 15 95 16 80 17 81 18 82 19 83 20 86 21 84 22 85 23
REMARK SMILES IDX 87 24 88 25 92 26 89 27 91 28 90 29 8 30 9 31 10 32 11 33
REMARK SMILES IDX 12 35 13 36 14 37 75 38 15 39 74 40 16 41 17 42 18 43 68 44
REMARK SMILES IDX 19 45 73 46 67 47 69 48 20 49 72 50 66 51 65 52 21 54 53 55
REMARK SMILES IDX 33 56 52 57 34 58 37 59 51 60 70 61 35 62 36 63 50 65 71 66
REMARK SMILES IDX 38 67 22 68 23 69 31 70 24 71 25 72 29 73 32 74 26 75 27 76
REMARK SMILES IDX 30 77 28 78 54 79 55 80 63 81 56 82 57 83 61 84 64 85 58 86
REMARK SMILES IDX 59 87 62 88 60 89 39 90 40 91 48 92 41 93 42 94 46 95 49 96
REMARK SMILES IDX 43 97 44 98 47 99 45 100
REMARK H PARENT 6 5 10 34 69 53 37 64
REMARK Flexibility Score: inf
ROOT
ATOM      1  C   UNL A   1      32.804  29.857  25.988  1.00  0.00     0.118 C 
ENDROOT
BRANCH   1   2
ATOM      2  N   UNL A   1      33.450  29.698  24.706  1.00  0.00    -0.351 N 
ATOM      3  C   UNL A   1      33.560  28.663  23.835  1.00  0.00     0.261 C 
ATOM      4  O   UNL A   1      34.104  28.950  22.764  1.00  0.00    -0.268 OA
ATOM      5  H   UNL A   1      33.909  30.513  24.399  1.00  0.00     0.163 HD
BRANCH   3   6
ATOM      6  C   UNL A   1      33.030  27.272  24.078  1.00  0.00     0.098 A 
ATOM      7  C   UNL A   1      30.607  27.126  23.196  1.00  0.00     0.047 C 
ATOM      8  C   UNL A   1      31.878  26.616  23.788  1.00  0.00    -0.018 A 
ATOM      9  C   UNL A   1      31.859  25.269  24.356  1.00  0.00     0.016 A 
ATOM     10  S   UNL A   1      34.041  26.325  25.218  1.00  0.00    -0.110 S 
ATOM     11  C   UNL A   1      32.743  25.210  25.542  1.00  0.00     0.128 A 
ATOM     12  C   UNL A   1      30.856  24.369  24.388  1.00  0.00    -0.040 C 
ATOM     13  N   UNL A   1      32.588  24.559  26.637  1.00  0.00    -0.202 NA
ATOM     14  C   UNL A   1      30.282  24.146  25.778  1.00  0.00     0.135 C 
ATOM     15  C   UNL A   1      31.423  23.824  26.752  1.00  0.00     0.251 C 
ATOM     16  O   UNL A   1      31.259  22.978  27.625  1.00  0.00    -0.272 OA
BRANCH  12  17
ATOM     17  C   UNL A   1      31.050  23.022  23.688  1.00  0.00     0.110 C 
BRANCH  17  18
ATOM     18  S   UNL A   1      32.782  22.594  23.414  1.00  0.00    -0.081 SA
BRANCH  18  19
ATOM     19  C   UNL A   1      32.934  21.194  24.417  1.00  0.00     0.195 A 
ATOM     20  N   UNL A   1      32.004  20.267  24.493  1.00  0.00    -0.123 NA
ATOM     21  N   UNL A   1      34.059  20.809  25.130  1.00  0.00    -0.277 N 
ATOM     22  N   UNL A   1      32.487  19.243  25.256  1.00  0.00    -0.138 NA
ATOM     23  C   UNL A   1      33.698  19.575  25.631  1.00  0.00     0.231 A 
BRANCH  21  24
ATOM     24  C   UNL A   1      35.333  21.430  25.305  1.00  0.00     0.049 A 
ATOM     25  C   UNL A   1      35.469  22.745  25.771  1.00  0.00     0.027 A 
ATOM     26  C   UNL A   1      36.495  20.705  25.001  1.00  0.00     0.027 A 
ATOM     27  C   UNL A   1      36.729  23.345  25.858  1.00  0.00     0.002 A 
ATOM     28  C   UNL A   1      37.753  21.289  25.163  1.00  0.00     0.002 A 
ATOM     29  C   UNL A   1      37.871  22.619  25.545  1.00  0.00     0.000 A 
ENDBRANCH  21  24
ENDBRANCH  18  19
ENDBRANCH  17  18
ENDBRANCH  12  17
ENDBRANCH   3   6
ENDBRANCH   1   2
BRANCH   1  30
ATOM     30  C   UNL A   1      33.707  29.388  27.141  1.00  0.00     0.042 C 
BRANCH  30  31
ATOM     31  C   UNL A   1      35.121  29.922  27.009  1.00  0.00     0.118 C 
BRANCH  31  32
ATOM     32  N   UNL A   1      35.238  31.248  27.635  1.00  0.00    -0.352 N 
ATOM     33  C   UNL A   1      35.851  31.640  28.817  1.00  0.00     0.251 C 
ATOM     34  H   UNL A   1      34.811  31.978  27.132  1.00  0.00     0.163 HD
ATOM     35  O   UNL A   1      35.600  32.695  29.352  1.00  0.00    -0.269 OA
BRANCH  33  36
ATOM     36  C   UNL A   1      36.882  30.736  29.341  1.00  0.00     0.039 A 
ATOM     37  C   UNL A   1      36.645  29.446  29.822  1.00  0.00     0.014 A 
ATOM     38  C   UNL A   1      38.164  31.237  29.213  1.00  0.00     0.014 A 
ATOM     39  C   UNL A   1      37.752  28.644  30.099  1.00  0.00     0.010 A 
ATOM     40  C   UNL A   1      39.183  30.355  29.132  1.00  0.00     0.010 A 
ATOM     41  C   UNL A   1      39.017  29.120  29.736  1.00  0.00    -0.014 A 
BRANCH  41  42
ATOM     42  C   UNL A   1      40.261  28.396  29.905  1.00  0.00     0.031 A 
ATOM     43  C   UNL A   1      40.669  28.209  31.319  1.00  0.00     0.074 A 
ATOM     44  C   UNL A   1      40.733  27.654  28.874  1.00  0.00     0.049 A 
ATOM     45  N   UNL A   1      41.728  28.652  31.907  1.00  0.00    -0.248 NA
ATOM     46  C   UNL A   1      39.705  27.576  32.238  1.00  0.00     0.031 C 
ATOM     47  C   UNL A   1      40.153  27.464  27.531  1.00  0.00     0.029 A 
ATOM     48  N   UNL A   1      41.781  26.792  28.855  1.00  0.00    -0.354 N 
ATOM     49  C   UNL A   1      41.662  28.186  33.219  1.00  0.00     0.074 A 
ATOM     50  C   UNL A   1      40.313  27.732  33.415  1.00  0.00     0.031 C 
ATOM     51  C   UNL A   1      40.718  26.394  26.928  1.00  0.00     0.029 A 
ATOM     52  C   UNL A   1      41.820  25.943  27.752  1.00  0.00     0.049 A 
ATOM     53  H   UNL A   1      42.461  26.769  29.567  1.00  0.00     0.167 HD
ATOM     54  C   UNL A   1      42.795  27.976  33.948  1.00  0.00     0.037 A 
ATOM     55  C   UNL A   1      42.695  24.925  27.568  1.00  0.00     0.037 A 
ATOM     56  C   UNL A   1      43.926  28.600  33.307  1.00  0.00     0.049 A 
ATOM     57  C   UNL A   1      43.820  25.160  28.510  1.00  0.00     0.074 A 
ATOM     58  C   UNL A   1      44.284  29.900  33.020  1.00  0.00     0.029 A 
ATOM     59  N   UNL A   1      44.696  27.805  32.493  1.00  0.00    -0.354 N 
ATOM     60  N   UNL A   1      44.628  26.184  28.431  1.00  0.00    -0.248 NA
ATOM     61  C   UNL A   1      43.735  24.531  29.819  1.00  0.00     0.031 C 
ATOM     62  C   UNL A   1      44.901  29.837  31.735  1.00  0.00     0.029 A 
ATOM     63  C   UNL A   1      44.959  28.498  31.341  1.00  0.00     0.049 A 
ATOM     64  H   UNL A   1      45.006  26.893  32.701  1.00  0.00     0.167 HD
ATOM     65  C   UNL A   1      44.840  26.576  29.746  1.00  0.00     0.074 A 
ATOM     66  C   UNL A   1      44.324  25.474  30.557  1.00  0.00     0.031 C 
ATOM     67  C   UNL A   1      45.134  27.875  30.047  1.00  0.00     0.037 A 
BRANCH  54  68
ATOM     68  C   UNL A   1      42.970  26.919  35.016  1.00  0.00     0.064 A 
ATOM     69  C   UNL A   1      43.242  27.330  36.338  1.00  0.00     0.173 A 
ATOM     70  C   UNL A   1      43.168  25.544  34.763  1.00  0.00     0.173 A 
ATOM     71  F   UNL A   1      43.095  28.613  36.700  1.00  0.00    -0.203 F 
ATOM     72  C   UNL A   1      43.757  26.454  37.297  1.00  0.00     0.198 A 
ATOM     73  C   UNL A   1      43.628  24.661  35.739  1.00  0.00     0.198 A 
ATOM     74  F   UNL A   1      43.032  25.009  33.546  1.00  0.00    -0.203 F 
ATOM     75  F   UNL A   1      44.120  26.924  38.499  1.00  0.00    -0.200 F 
ATOM     76  C   UNL A   1      43.957  25.121  36.995  1.00  0.00     0.200 A 
ATOM     77  F   UNL A   1      43.827  23.374  35.421  1.00  0.00    -0.200 F 
ATOM     78  F   UNL A   1      44.507  24.293  37.892  1.00  0.00    -0.200 F 
ENDBRANCH  54  68
BRANCH  55  79
ATOM     79  C   UNL A   1      42.476  23.619  26.904  1.00  0.00     0.064 A 
ATOM     80  C   UNL A   1      43.456  23.055  26.070  1.00  0.00     0.173 A 
ATOM     81  C   UNL A   1      41.432  22.765  27.308  1.00  0.00     0.173 A 
ATOM     82  F   UNL A   1      44.505  23.792  25.675  1.00  0.00    -0.203 F 
ATOM     83  C   UNL A   1      43.410  21.710  25.687  1.00  0.00     0.198 A 
ATOM     84  C   UNL A   1      41.386  21.422  26.926  1.00  0.00     0.198 A 
ATOM     85  F   UNL A   1      40.492  23.194  28.163  1.00  0.00    -0.203 F 
ATOM     86  F   UNL A   1      44.395  21.192  24.941  1.00  0.00    -0.200 F 
ATOM     87  C   UNL A   1      42.383  20.891  26.127  1.00  0.00     0.200 A 
ATOM     88  F   UNL A   1      40.409  20.631  27.392  1.00  0.00    -0.200 F 
ATOM     89  F   UNL A   1      42.374  19.587  25.819  1.00  0.00    -0.200 F 
ENDBRANCH  55  79
BRANCH  67  90
ATOM     90  C   UNL A   1      45.467  28.801  28.906  1.00  0.00     0.064 A 
ATOM     91  C   UNL A   1      46.713  28.834  28.253  1.00  0.00     0.173 A 
ATOM     92  C   UNL A   1      44.428  29.546  28.338  1.00  0.00     0.173 A 
ATOM     93  F   UNL A   1      47.734  28.085  28.678  1.00  0.00    -0.203 F 
ATOM     94  C   UNL A   1      46.910  29.592  27.099  1.00  0.00     0.198 A 
ATOM     95  C   UNL A   1      44.617  30.275  27.166  1.00  0.00     0.198 A 
ATOM     96  F   UNL A   1      43.204  29.512  28.887  1.00  0.00    -0.203 F 
ATOM     97  F   UNL A   1      48.108  29.598  26.494  1.00  0.00    -0.200 F 
ATOM     98  C   UNL A   1      45.858  30.302  26.549  1.00  0.00     0.200 A 
ATOM     99  F   UNL A   1      43.581  30.919  26.612  1.00  0.00    -0.200 F 
ATOM    100  F   UNL A   1      46.029  30.986  25.410  1.00  0.00    -0.200 F 
ENDBRANCH  67  90
ENDBRANCH  41  42
ENDBRANCH  33  36
ENDBRANCH  31  32
ENDBRANCH  30  31
ENDBRANCH   1  30
TORSDOF 14
ENDMDL
