MODEL 1
REMARK VINA RESULT:     -15.1      0.000      0.000
REMARK SMILES O=C(NCCCNC(=O)[C@H]1CC2(CCN(C(=O)C3CC3)CC2)CN1C(=O)CCn1cccn1)c1ccc(-c2c3nc(c(-c4c(F)c(F)c(F)c(F)c4F)c4ccc([nH]4)c(-c4c(F)c(F)c(F)c(F)c4F)c4nc(c(-c5c(F)c(F)c(F)c(F)c5F)c5ccc2[nH]5)C=C4)C=C3)cc1
REMARK SMILES IDX 6 1 5 2 4 3 3 4 1 5 2 6 34 8 35 9 96 10 36 11 95 12 37 13
REMARK SMILES IDX 38 14 39 15 89 16 40 17 94 18 88 19 90 20 41 21 93 22 87 23
REMARK SMILES IDX 86 24 42 26 74 27 54 28 73 29 55 30 58 31 72 32 91 33 56 34
REMARK SMILES IDX 57 35 71 37 92 38 59 39 43 40 44 41 52 42 45 43 46 44 50 45
REMARK SMILES IDX 53 46 47 47 48 48 51 49 49 50 75 51 76 52 84 53 77 54 78 55
REMARK SMILES IDX 82 56 85 57 79 58 80 59 83 60 81 61 60 62 61 63 69 64 62 65
REMARK SMILES IDX 63 66 67 67 70 68 64 69 65 70 68 71 66 72 7 73 8 74 9 76
REMARK SMILES IDX 10 77 11 78 24 79 12 80 23 81 13 82 22 83 14 84 21 85 15 86
REMARK SMILES IDX 16 87 17 88 25 89 26 90 27 91 28 92 29 93 30 94 33 95 31 96
REMARK SMILES IDX 32 97 18 98 19 99 20 100
REMARK H PARENT 3 7 90 25 58 36 7 75
REMARK Flexibility Score: inf
ROOT
ATOM      1  C   UNL A   1      38.006  21.372  25.357  1.00  0.00     0.117 C 
ENDROOT
BRANCH   1   2
ATOM      2  C   UNL A   1      38.950  22.314  26.092  1.00  0.00     0.042 C 
BRANCH   2   3
ATOM      3  C   UNL A   1      40.170  21.587  26.592  1.00  0.00     0.118 C 
BRANCH   3   4
ATOM      4  N   UNL A   1      41.314  21.874  25.763  1.00  0.00    -0.352 N 
ATOM      5  O   UNL A   1      42.990  22.832  24.738  1.00  0.00    -0.269 OA
ATOM      6  C   UNL A   1      42.183  22.916  25.668  1.00  0.00     0.251 C 
ATOM      7  H   UNL A   1      41.510  21.154  25.121  1.00  0.00     0.163 HD
BRANCH   6   8
ATOM      8  C   UNL A   1      42.201  24.146  26.518  1.00  0.00     0.039 A 
ATOM      9  C   UNL A   1      42.999  24.444  27.625  1.00  0.00     0.014 A 
ATOM     10  C   UNL A   1      41.292  25.130  26.100  1.00  0.00     0.014 A 
ATOM     11  C   UNL A   1      42.712  25.582  28.411  1.00  0.00     0.010 A 
ATOM     12  C   UNL A   1      41.114  26.316  26.795  1.00  0.00     0.010 A 
ATOM     13  C   UNL A   1      41.691  26.486  28.039  1.00  0.00    -0.014 A 
BRANCH  13  14
ATOM     14  C   UNL A   1      41.489  27.794  28.704  1.00  0.00     0.031 A 
ATOM     15  C   UNL A   1      42.623  28.693  28.308  1.00  0.00     0.074 A 
ATOM     16  C   UNL A   1      40.399  28.194  29.437  1.00  0.00     0.049 A 
ATOM     17  N   UNL A   1      43.593  29.068  29.073  1.00  0.00    -0.248 NA
ATOM     18  C   UNL A   1      42.886  28.977  26.879  1.00  0.00     0.031 C 
ATOM     19  C   UNL A   1      39.161  27.461  29.759  1.00  0.00     0.029 A 
ATOM     20  N   UNL A   1      40.152  29.404  30.079  1.00  0.00    -0.354 N 
ATOM     21  C   UNL A   1      44.422  29.871  28.293  1.00  0.00     0.074 A 
ATOM     22  C   UNL A   1      44.060  29.614  26.929  1.00  0.00     0.031 C 
ATOM     23  C   UNL A   1      38.220  28.298  30.282  1.00  0.00     0.029 A 
ATOM     24  C   UNL A   1      38.800  29.612  30.486  1.00  0.00     0.049 A 
ATOM     25  H   UNL A   1      40.859  30.070  30.239  1.00  0.00     0.167 HD
ATOM     26  C   UNL A   1      45.111  30.886  28.883  1.00  0.00     0.037 A 
ATOM     27  C   UNL A   1      38.246  30.743  31.053  1.00  0.00     0.037 A 
ATOM     28  C   UNL A   1      45.167  30.661  30.307  1.00  0.00     0.049 A 
ATOM     29  C   UNL A   1      39.375  31.528  31.613  1.00  0.00     0.074 A 
ATOM     30  C   UNL A   1      45.738  29.704  31.120  1.00  0.00     0.029 A 
ATOM     31  N   UNL A   1      44.137  31.217  31.018  1.00  0.00    -0.354 N 
ATOM     32  N   UNL A   1      40.101  31.089  32.602  1.00  0.00    -0.248 NA
ATOM     33  C   UNL A   1      40.016  32.443  30.681  1.00  0.00     0.031 C 
ATOM     34  C   UNL A   1      44.750  29.425  32.111  1.00  0.00     0.029 A 
ATOM     35  C   UNL A   1      43.703  30.334  31.968  1.00  0.00     0.049 A 
ATOM     36  H   UNL A   1      43.766  32.116  30.869  1.00  0.00     0.167 HD
ATOM     37  C   UNL A   1      41.398  31.253  32.147  1.00  0.00     0.074 A 
ATOM     38  C   UNL A   1      41.276  32.078  30.938  1.00  0.00     0.031 C 
ATOM     39  C   UNL A   1      42.401  30.437  32.580  1.00  0.00     0.037 A 
BRANCH  26  40
ATOM     40  C   UNL A   1      45.262  32.272  28.293  1.00  0.00     0.064 A 
ATOM     41  C   UNL A   1      44.101  33.034  28.033  1.00  0.00     0.173 A 
ATOM     42  C   UNL A   1      46.442  32.747  27.681  1.00  0.00     0.173 A 
ATOM     43  F   UNL A   1      42.915  32.657  28.530  1.00  0.00    -0.203 F 
ATOM     44  C   UNL A   1      44.117  34.144  27.181  1.00  0.00     0.198 A 
ATOM     45  C   UNL A   1      46.462  33.881  26.867  1.00  0.00     0.198 A 
ATOM     46  F   UNL A   1      47.599  32.079  27.748  1.00  0.00    -0.203 F 
ATOM     47  F   UNL A   1      42.969  34.765  26.875  1.00  0.00    -0.200 F 
ATOM     48  C   UNL A   1      45.297  34.565  26.597  1.00  0.00     0.200 A 
ATOM     49  F   UNL A   1      47.611  34.253  26.285  1.00  0.00    -0.200 F 
ATOM     50  F   UNL A   1      45.305  35.597  25.744  1.00  0.00    -0.200 F 
ENDBRANCH  26  40
BRANCH  27  51
ATOM     51  C   UNL A   1      36.933  31.443  30.790  1.00  0.00     0.064 A 
ATOM     52  C   UNL A   1      36.019  31.819  31.810  1.00  0.00     0.173 A 
ATOM     53  C   UNL A   1      36.722  32.063  29.547  1.00  0.00     0.173 A 
ATOM     54  F   UNL A   1      36.163  31.347  33.058  1.00  0.00    -0.203 F 
ATOM     55  C   UNL A   1      34.981  32.749  31.589  1.00  0.00     0.198 A 
ATOM     56  C   UNL A   1      35.700  32.998  29.333  1.00  0.00     0.198 A 
ATOM     57  F   UNL A   1      37.577  31.848  28.539  1.00  0.00    -0.203 F 
ATOM     58  F   UNL A   1      34.163  33.110  32.590  1.00  0.00    -0.200 F 
ATOM     59  C   UNL A   1      34.832  33.347  30.351  1.00  0.00     0.200 A 
ATOM     60  F   UNL A   1      35.605  33.609  28.143  1.00  0.00    -0.200 F 
ATOM     61  F   UNL A   1      33.893  34.284  30.149  1.00  0.00    -0.200 F 
ENDBRANCH  27  51
BRANCH  39  62
ATOM     62  C   UNL A   1      42.130  29.515  33.734  1.00  0.00     0.064 A 
ATOM     63  C   UNL A   1      41.667  28.189  33.636  1.00  0.00     0.173 A 
ATOM     64  C   UNL A   1      42.547  29.959  34.995  1.00  0.00     0.173 A 
ATOM     65  F   UNL A   1      41.334  27.659  32.452  1.00  0.00    -0.203 F 
ATOM     66  C   UNL A   1      41.612  27.361  34.763  1.00  0.00     0.198 A 
ATOM     67  C   UNL A   1      42.526  29.124  36.104  1.00  0.00     0.198 A 
ATOM     68  F   UNL A   1      43.051  31.195  35.130  1.00  0.00    -0.203 F 
ATOM     69  F   UNL A   1      41.185  26.093  34.651  1.00  0.00    -0.200 F 
ATOM     70  C   UNL A   1      42.050  27.829  35.992  1.00  0.00     0.200 A 
ATOM     71  F   UNL A   1      43.011  29.565  37.271  1.00  0.00    -0.200 F 
ATOM     72  F   UNL A   1      42.046  27.022  37.063  1.00  0.00    -0.200 F 
ENDBRANCH  39  62
ENDBRANCH  13  14
ENDBRANCH   6   8
ENDBRANCH   3   4
ENDBRANCH   2   3
ENDBRANCH   1   2
BRANCH   1  73
ATOM     73  N   UNL A   1      37.193  22.094  24.104  1.00  0.00    -0.354 N 
ATOM     74  C   UNL A   1      35.505  23.238  23.813  1.00  0.00     0.242 C 
ATOM     75  H   UNL A   1      37.652  21.929  23.249  1.00  0.00     0.163 HD
ATOM     76  O   UNL A   1      34.962  23.693  22.749  1.00  0.00    -0.273 OA
BRANCH  74  77
ATOM     77  C   UNL A   1      34.462  23.969  25.165  1.00  0.00     0.175 C 
ATOM     78  C   UNL A   1      33.880  25.400  25.020  1.00  0.00     0.044 C 
ATOM     79  N   UNL A   1      33.330  23.216  25.767  1.00  0.00    -0.330 N 
ATOM     80  C   UNL A   1      32.484  25.475  25.654  1.00  0.00    -0.006 C 
ATOM     81  C   UNL A   1      32.359  24.133  26.391  1.00  0.00     0.127 C 
ATOM     82  C   UNL A   1      31.304  25.585  24.637  1.00  0.00     0.030 C 
ATOM     83  C   UNL A   1      32.480  26.790  26.454  1.00  0.00     0.030 C 
ATOM     84  C   UNL A   1      31.332  26.827  23.743  1.00  0.00     0.120 C 
ATOM     85  C   UNL A   1      32.610  27.999  25.490  1.00  0.00     0.120 C 
ATOM     86  N   UNL A   1      31.510  28.045  24.519  1.00  0.00    -0.342 N 
ATOM     87  C   UNL A   1      30.869  29.276  24.343  1.00  0.00     0.225 C 
ATOM     88  O   UNL A   1      31.232  30.263  24.983  1.00  0.00    -0.275 OA
BRANCH  79  89
ATOM     89  C   UNL A   1      33.178  21.847  25.864  1.00  0.00     0.225 C 
ATOM     90  O   UNL A   1      33.923  21.174  26.582  1.00  0.00    -0.275 OA
BRANCH  89  91
ATOM     91  C   UNL A   1      32.042  21.149  25.137  1.00  0.00     0.124 C 
BRANCH  91  92
ATOM     92  C   UNL A   1      32.481  20.365  23.907  1.00  0.00     0.154 C 
BRANCH  92  93
ATOM     93  N   UNL A   1      32.424  18.924  24.066  1.00  0.00    -0.272 N 
ATOM     94  C   UNL A   1      33.155  17.735  22.803  1.00  0.00     0.108 A 
ATOM     95  N   UNL A   1      32.454  18.118  25.766  1.00  0.00    -0.182 NA
ATOM     96  C   UNL A   1      33.699  16.229  23.744  1.00  0.00     0.042 A 
ATOM     97  C   UNL A   1      33.243  16.556  25.621  1.00  0.00     0.135 A 
ENDBRANCH  92  93
ENDBRANCH  91  92
ENDBRANCH  89  91
ENDBRANCH  79  89
BRANCH  87  98
ATOM     98  C   UNL A   1      29.697  29.509  23.444  1.00  0.00     0.079 C 
ATOM     99  C   UNL A   1      29.078  30.774  22.926  1.00  0.00     0.014 C 
ATOM    100  C   UNL A   1      29.897  29.910  22.003  1.00  0.00     0.014 C 
ENDBRANCH  87  98
ENDBRANCH  74  77
ENDBRANCH   1  73
TORSDOF 15
ENDMDL
MODEL 2
REMARK VINA RESULT:     -15.0      0.747      1.403
REMARK SMILES O=C(NCCCNC(=O)[C@H]1CC2(CCN(C(=O)C3CC3)CC2)CN1C(=O)CCn1cccn1)c1ccc(-c2c3nc(c(-c4c(F)c(F)c(F)c(F)c4F)c4ccc([nH]4)c(-c4c(F)c(F)c(F)c(F)c4F)c4nc(c(-c5c(F)c(F)c(F)c(F)c5F)c5ccc2[nH]5)C=C4)C=C3)cc1
REMARK SMILES IDX 6 1 5 2 4 3 3 4 1 5 2 6 34 8 35 9 96 10 36 11 95 12 37 13
REMARK SMILES IDX 38 14 39 15 89 16 40 17 94 18 88 19 90 20 41 21 93 22 87 23
REMARK SMILES IDX 86 24 42 26 74 27 54 28 73 29 55 30 58 31 72 32 91 33 56 34
REMARK SMILES IDX 57 35 71 37 92 38 59 39 43 40 44 41 52 42 45 43 46 44 50 45
REMARK SMILES IDX 53 46 47 47 48 48 51 49 49 50 75 51 76 52 84 53 77 54 78 55
REMARK SMILES IDX 82 56 85 57 79 58 80 59 83 60 81 61 60 62 61 63 69 64 62 65
REMARK SMILES IDX 63 66 67 67 70 68 64 69 65 70 68 71 66 72 7 73 8 74 9 76
REMARK SMILES IDX 10 77 11 78 24 79 12 80 23 81 13 82 22 83 14 84 21 85 15 86
REMARK SMILES IDX 16 87 17 88 25 89 26 90 27 91 28 92 29 93 30 94 33 95 31 96
REMARK SMILES IDX 32 97 18 98 19 99 20 100
REMARK H PARENT 3 7 90 25 58 36 7 75
REMARK Flexibility Score: inf
ROOT
ATOM      1  C   UNL A   1      38.040  21.560  25.332  1.00  0.00     0.117 C 
ENDROOT
BRANCH   1   2
ATOM      2  C   UNL A   1      38.872  22.545  26.142  1.00  0.00     0.042 C 
BRANCH   2   3
ATOM      3  C   UNL A   1      39.969  21.842  26.899  1.00  0.00     0.118 C 
BRANCH   3   4
ATOM      4  N   UNL A   1      41.259  22.153  26.338  1.00  0.00    -0.352 N 
ATOM      5  O   UNL A   1      43.034  23.165  25.560  1.00  0.00    -0.269 OA
ATOM      6  C   UNL A   1      41.991  23.292  26.207  1.00  0.00     0.251 C 
ATOM      7  H   UNL A   1      41.713  21.364  25.966  1.00  0.00     0.163 HD
BRANCH   6   8
ATOM      8  C   UNL A   1      41.621  24.654  26.701  1.00  0.00     0.039 A 
ATOM      9  C   UNL A   1      40.831  25.632  26.090  1.00  0.00     0.014 A 
ATOM     10  C   UNL A   1      42.137  24.950  27.971  1.00  0.00     0.014 A 
ATOM     11  C   UNL A   1      40.776  26.932  26.638  1.00  0.00     0.010 A 
ATOM     12  C   UNL A   1      41.958  26.185  28.574  1.00  0.00     0.010 A 
ATOM     13  C   UNL A   1      41.426  27.239  27.854  1.00  0.00    -0.014 A 
BRANCH  13  14
ATOM     14  C   UNL A   1      41.229  28.517  28.576  1.00  0.00     0.031 A 
ATOM     15  C   UNL A   1      42.354  29.437  28.201  1.00  0.00     0.074 A 
ATOM     16  C   UNL A   1      40.149  28.882  29.340  1.00  0.00     0.049 A 
ATOM     17  N   UNL A   1      43.334  29.785  28.966  1.00  0.00    -0.248 NA
ATOM     18  C   UNL A   1      42.595  29.780  26.781  1.00  0.00     0.031 C 
ATOM     19  C   UNL A   1      38.918  28.132  29.650  1.00  0.00     0.029 A 
ATOM     20  N   UNL A   1      39.907  30.064  30.035  1.00  0.00    -0.354 N 
ATOM     21  C   UNL A   1      44.149  30.622  28.208  1.00  0.00     0.074 A 
ATOM     22  C   UNL A   1      43.768  30.420  26.840  1.00  0.00     0.031 C 
ATOM     23  C   UNL A   1      37.982  28.942  30.220  1.00  0.00     0.029 A 
ATOM     24  C   UNL A   1      38.561  30.249  30.471  1.00  0.00     0.049 A 
ATOM     25  H   UNL A   1      40.614  30.726  30.212  1.00  0.00     0.167 HD
ATOM     26  C   UNL A   1      44.843  31.615  28.829  1.00  0.00     0.037 A 
ATOM     27  C   UNL A   1      38.011  31.353  31.091  1.00  0.00     0.037 A 
ATOM     28  C   UNL A   1      44.921  31.332  30.242  1.00  0.00     0.049 A 
ATOM     29  C   UNL A   1      39.145  32.119  31.668  1.00  0.00     0.074 A 
ATOM     30  C   UNL A   1      45.507  30.344  31.007  1.00  0.00     0.029 A 
ATOM     31  N   UNL A   1      43.899  31.853  30.991  1.00  0.00    -0.354 N 
ATOM     32  N   UNL A   1      39.888  31.643  32.627  1.00  0.00    -0.248 NA
ATOM     33  C   UNL A   1      39.769  33.075  30.765  1.00  0.00     0.031 C 
ATOM     34  C   UNL A   1      44.535  30.020  31.999  1.00  0.00     0.029 A 
ATOM     35  C   UNL A   1      43.482  30.930  31.909  1.00  0.00     0.049 A 
ATOM     36  H   UNL A   1      43.522  32.756  30.884  1.00  0.00     0.167 HD
ATOM     37  C   UNL A   1      41.177  31.831  32.160  1.00  0.00     0.074 A 
ATOM     38  C   UNL A   1      41.034  32.705  30.988  1.00  0.00     0.031 C 
ATOM     39  C   UNL A   1      42.190  31.002  32.544  1.00  0.00     0.037 A 
BRANCH  26  40
ATOM     40  C   UNL A   1      44.979  33.025  28.295  1.00  0.00     0.064 A 
ATOM     41  C   UNL A   1      46.271  33.555  28.088  1.00  0.00     0.173 A 
ATOM     42  C   UNL A   1      43.932  33.972  28.288  1.00  0.00     0.173 A 
ATOM     43  F   UNL A   1      47.347  32.755  28.112  1.00  0.00    -0.203 F 
ATOM     44  C   UNL A   1      46.496  34.929  27.946  1.00  0.00     0.198 A 
ATOM     45  C   UNL A   1      44.157  35.337  28.102  1.00  0.00     0.198 A 
ATOM     46  F   UNL A   1      42.668  33.640  28.572  1.00  0.00    -0.203 F 
ATOM     47  F   UNL A   1      47.751  35.393  27.867  1.00  0.00    -0.200 F 
ATOM     48  C   UNL A   1      45.439  35.819  27.955  1.00  0.00     0.200 A 
ATOM     49  F   UNL A   1      43.120  36.187  28.146  1.00  0.00    -0.200 F 
ATOM     50  F   UNL A   1      45.657  37.138  27.868  1.00  0.00    -0.200 F 
ENDBRANCH  26  40
BRANCH  27  51
ATOM     51  C   UNL A   1      36.692  32.058  30.877  1.00  0.00     0.064 A 
ATOM     52  C   UNL A   1      35.754  32.313  31.913  1.00  0.00     0.173 A 
ATOM     53  C   UNL A   1      36.493  32.801  29.701  1.00  0.00     0.173 A 
ATOM     54  F   UNL A   1      35.882  31.716  33.108  1.00  0.00    -0.203 F 
ATOM     55  C   UNL A   1      34.705  33.246  31.770  1.00  0.00     0.198 A 
ATOM     56  C   UNL A   1      35.460  33.738  29.566  1.00  0.00     0.198 A 
ATOM     57  F   UNL A   1      37.369  32.705  28.694  1.00  0.00    -0.203 F 
ATOM     58  F   UNL A   1      33.863  33.488  32.786  1.00  0.00    -0.200 F 
ATOM     59  C   UNL A   1      34.569  33.967  30.598  1.00  0.00     0.200 A 
ATOM     60  F   UNL A   1      35.376  34.469  28.444  1.00  0.00    -0.200 F 
ATOM     61  F   UNL A   1      33.618  34.906  30.476  1.00  0.00    -0.200 F 
ENDBRANCH  27  51
BRANCH  39  62
ATOM     62  C   UNL A   1      41.938  30.031  33.663  1.00  0.00     0.064 A 
ATOM     63  C   UNL A   1      41.565  28.682  33.513  1.00  0.00     0.173 A 
ATOM     64  C   UNL A   1      42.282  30.465  34.949  1.00  0.00     0.173 A 
ATOM     65  F   UNL A   1      41.308  28.166  32.304  1.00  0.00    -0.203 F 
ATOM     66  C   UNL A   1      41.525  27.820  34.615  1.00  0.00     0.198 A 
ATOM     67  C   UNL A   1      42.277  29.599  36.034  1.00  0.00     0.198 A 
ATOM     68  F   UNL A   1      42.701  31.726  35.134  1.00  0.00    -0.203 F 
ATOM     69  F   UNL A   1      41.185  26.532  34.454  1.00  0.00    -0.200 F 
ATOM     70  C   UNL A   1      41.889  28.280  35.871  1.00  0.00     0.200 A 
ATOM     71  F   UNL A   1      42.692  30.036  37.230  1.00  0.00    -0.200 F 
ATOM     72  F   UNL A   1      41.900  27.444  36.919  1.00  0.00    -0.200 F 
ENDBRANCH  39  62
ENDBRANCH  13  14
ENDBRANCH   6   8
ENDBRANCH   3   4
ENDBRANCH   2   3
ENDBRANCH   1   2
BRANCH   1  73
ATOM     73  N   UNL A   1      37.205  22.268  24.085  1.00  0.00    -0.354 N 
ATOM     74  C   UNL A   1      35.497  23.384  23.807  1.00  0.00     0.242 C 
ATOM     75  H   UNL A   1      37.659  22.109  23.226  1.00  0.00     0.163 HD
ATOM     76  O   UNL A   1      34.937  23.830  22.748  1.00  0.00    -0.273 OA
BRANCH  74  77
ATOM     77  C   UNL A   1      34.453  24.099  25.168  1.00  0.00     0.175 C 
ATOM     78  C   UNL A   1      33.860  25.526  25.034  1.00  0.00     0.044 C 
ATOM     79  N   UNL A   1      33.330  23.334  25.771  1.00  0.00    -0.330 N 
ATOM     80  C   UNL A   1      32.466  25.588  25.674  1.00  0.00    -0.006 C 
ATOM     81  C   UNL A   1      32.354  24.240  26.404  1.00  0.00     0.127 C 
ATOM     82  C   UNL A   1      31.282  25.695  24.662  1.00  0.00     0.030 C 
ATOM     83  C   UNL A   1      32.455  26.898  26.481  1.00  0.00     0.030 C 
ATOM     84  C   UNL A   1      31.296  26.941  23.775  1.00  0.00     0.120 C 
ATOM     85  C   UNL A   1      32.572  28.113  25.524  1.00  0.00     0.120 C 
ATOM     86  N   UNL A   1      31.468  28.157  24.558  1.00  0.00    -0.342 N 
ATOM     87  C   UNL A   1      30.817  29.383  24.391  1.00  0.00     0.225 C 
ATOM     88  O   UNL A   1      31.175  30.369  25.035  1.00  0.00    -0.275 OA
BRANCH  79  89
ATOM     89  C   UNL A   1      33.189  21.964  25.861  1.00  0.00     0.225 C 
ATOM     90  O   UNL A   1      33.927  21.295  26.589  1.00  0.00    -0.275 OA
BRANCH  89  91
ATOM     91  C   UNL A   1      32.071  21.258  25.112  1.00  0.00     0.124 C 
BRANCH  91  92
ATOM     92  C   UNL A   1      32.545  20.442  23.916  1.00  0.00     0.154 C 
BRANCH  92  93
ATOM     93  N   UNL A   1      32.433  19.006  24.091  1.00  0.00    -0.272 N 
ATOM     94  C   UNL A   1      33.071  17.775  22.818  1.00  0.00     0.108 A 
ATOM     95  N   UNL A   1      32.485  18.214  25.798  1.00  0.00    -0.182 NA
ATOM     96  C   UNL A   1      33.580  16.256  23.756  1.00  0.00     0.042 A 
ATOM     97  C   UNL A   1      33.201  16.619  25.643  1.00  0.00     0.135 A 
ENDBRANCH  92  93
ENDBRANCH  91  92
ENDBRANCH  89  91
ENDBRANCH  79  89
BRANCH  87  98
ATOM     98  C   UNL A   1      29.639  29.613  23.498  1.00  0.00     0.079 C 
ATOM     99  C   UNL A   1      29.094  30.864  22.874  1.00  0.00     0.014 C 
ATOM    100  C   UNL A   1      29.827  29.861  22.021  1.00  0.00     0.014 C 
ENDBRANCH  87  98
ENDBRANCH  74  77
ENDBRANCH   1  73
TORSDOF 15
ENDMDL
MODEL 3
REMARK VINA RESULT:     -14.6      1.641      2.712
REMARK SMILES O=C(NCCCNC(=O)[C@H]1CC2(CCN(C(=O)C3CC3)CC2)CN1C(=O)CCn1cccn1)c1ccc(-c2c3nc(c(-c4c(F)c(F)c(F)c(F)c4F)c4ccc([nH]4)c(-c4c(F)c(F)c(F)c(F)c4F)c4nc(c(-c5c(F)c(F)c(F)c(F)c5F)c5ccc2[nH]5)C=C4)C=C3)cc1
REMARK SMILES IDX 6 1 5 2 4 3 3 4 1 5 2 6 34 8 35 9 96 10 36 11 95 12 37 13
REMARK SMILES IDX 38 14 39 15 89 16 40 17 94 18 88 19 90 20 41 21 93 22 87 23
REMARK SMILES IDX 86 24 42 26 74 27 54 28 73 29 55 30 58 31 72 32 91 33 56 34
REMARK SMILES IDX 57 35 71 37 92 38 59 39 43 40 44 41 52 42 45 43 46 44 50 45
REMARK SMILES IDX 53 46 47 47 48 48 51 49 49 50 75 51 76 52 84 53 77 54 78 55
REMARK SMILES IDX 82 56 85 57 79 58 80 59 83 60 81 61 60 62 61 63 69 64 62 65
REMARK SMILES IDX 63 66 67 67 70 68 64 69 65 70 68 71 66 72 7 73 8 74 9 76
REMARK SMILES IDX 10 77 11 78 24 79 12 80 23 81 13 82 22 83 14 84 21 85 15 86
REMARK SMILES IDX 16 87 17 88 25 89 26 90 27 91 28 92 29 93 30 94 33 95 31 96
REMARK SMILES IDX 32 97 18 98 19 99 20 100
REMARK H PARENT 3 7 90 25 58 36 7 75
REMARK Flexibility Score: inf
ROOT
ATOM      1  C   UNL A   1      35.375  21.749  25.751  1.00  0.00     0.117 C 
ENDROOT
BRANCH   1   2
ATOM      2  C   UNL A   1      36.312  22.889  26.130  1.00  0.00     0.042 C 
BRANCH   2   3
ATOM      3  C   UNL A   1      37.496  22.956  25.203  1.00  0.00     0.118 C 
BRANCH   3   4
ATOM      4  N   UNL A   1      38.666  22.386  25.822  1.00  0.00    -0.352 N 
ATOM      5  O   UNL A   1      40.535  22.069  26.911  1.00  0.00    -0.269 OA
ATOM      6  C   UNL A   1      39.604  22.850  26.691  1.00  0.00     0.251 C 
ATOM      7  H   UNL A   1      38.822  21.452  25.555  1.00  0.00     0.163 HD
BRANCH   6   8
ATOM      8  C   UNL A   1      39.643  24.202  27.328  1.00  0.00     0.039 A 
ATOM      9  C   UNL A   1      38.719  25.246  27.242  1.00  0.00     0.014 A 
ATOM     10  C   UNL A   1      40.769  24.408  28.139  1.00  0.00     0.014 A 
ATOM     11  C   UNL A   1      39.049  26.519  27.758  1.00  0.00     0.010 A 
ATOM     12  C   UNL A   1      41.018  25.619  28.765  1.00  0.00     0.010 A 
ATOM     13  C   UNL A   1      40.260  26.732  28.452  1.00  0.00    -0.014 A 
BRANCH  13  14
ATOM     14  C   UNL A   1      40.560  27.981  29.190  1.00  0.00     0.031 A 
ATOM     15  C   UNL A   1      41.804  28.578  28.601  1.00  0.00     0.074 A 
ATOM     16  C   UNL A   1      39.783  28.589  30.145  1.00  0.00     0.049 A 
ATOM     17  N   UNL A   1      42.966  28.611  29.162  1.00  0.00    -0.248 NA
ATOM     18  C   UNL A   1      41.862  28.909  27.158  1.00  0.00     0.031 C 
ATOM     19  C   UNL A   1      38.473  28.186  30.689  1.00  0.00     0.029 A 
ATOM     20  N   UNL A   1      40.008  29.758  30.866  1.00  0.00    -0.354 N 
ATOM     21  C   UNL A   1      43.824  29.231  28.256  1.00  0.00     0.074 A 
ATOM     22  C   UNL A   1      43.154  29.204  26.988  1.00  0.00     0.031 C 
ATOM     23  C   UNL A   1      37.919  29.192  31.423  1.00  0.00     0.029 A 
ATOM     24  C   UNL A   1      38.870  30.280  31.550  1.00  0.00     0.049 A 
ATOM     25  H   UNL A   1      40.890  30.195  30.900  1.00  0.00     0.167 HD
ATOM     26  C   UNL A   1      44.867  29.969  28.727  1.00  0.00     0.037 A 
ATOM     27  C   UNL A   1      38.770  31.462  32.257  1.00  0.00     0.037 A 
ATOM     28  C   UNL A   1      45.125  29.610  30.100  1.00  0.00     0.049 A 
ATOM     29  C   UNL A   1      40.157  31.865  32.601  1.00  0.00     0.074 A 
ATOM     30  C   UNL A   1      45.549  28.466  30.745  1.00  0.00     0.029 A 
ATOM     31  N   UNL A   1      44.444  30.353  31.028  1.00  0.00    -0.354 N 
ATOM     32  N   UNL A   1      40.905  31.161  33.403  1.00  0.00    -0.248 NA
ATOM     33  C   UNL A   1      40.841  32.657  31.589  1.00  0.00     0.031 C 
ATOM     34  C   UNL A   1      44.727  28.371  31.907  1.00  0.00     0.029 A 
ATOM     35  C   UNL A   1      43.967  29.535  32.014  1.00  0.00     0.049 A 
ATOM     36  H   UNL A   1      44.317  31.328  30.989  1.00  0.00     0.167 HD
ATOM     37  C   UNL A   1      42.087  31.015  32.696  1.00  0.00     0.074 A 
ATOM     38  C   UNL A   1      41.974  31.948  31.568  1.00  0.00     0.031 C 
ATOM     39  C   UNL A   1      42.886  29.926  32.884  1.00  0.00     0.037 A 
BRANCH  26  40
ATOM     40  C   UNL A   1      45.284  31.313  28.167  1.00  0.00     0.064 A 
ATOM     41  C   UNL A   1      44.300  32.305  27.970  1.00  0.00     0.173 A 
ATOM     42  C   UNL A   1      46.518  31.553  27.525  1.00  0.00     0.173 A 
ATOM     43  F   UNL A   1      43.076  32.167  28.500  1.00  0.00    -0.203 F 
ATOM     44  C   UNL A   1      44.520  33.415  27.146  1.00  0.00     0.198 A 
ATOM     45  C   UNL A   1      46.747  32.684  26.740  1.00  0.00     0.198 A 
ATOM     46  F   UNL A   1      47.512  30.658  27.532  1.00  0.00    -0.203 F 
ATOM     47  F   UNL A   1      43.517  34.270  26.899  1.00  0.00    -0.200 F 
ATOM     48  C   UNL A   1      45.743  33.603  26.530  1.00  0.00     0.200 A 
ATOM     49  F   UNL A   1      47.931  32.829  26.126  1.00  0.00    -0.200 F 
ATOM     50  F   UNL A   1      45.939  34.638  25.704  1.00  0.00    -0.200 F 
ENDBRANCH  26  40
BRANCH  27  51
ATOM     51  C   UNL A   1      37.679  32.507  32.295  1.00  0.00     0.064 A 
ATOM     52  C   UNL A   1      37.195  33.187  31.145  1.00  0.00     0.173 A 
ATOM     53  C   UNL A   1      36.855  32.599  33.429  1.00  0.00     0.173 A 
ATOM     54  F   UNL A   1      37.860  33.113  29.982  1.00  0.00    -0.203 F 
ATOM     55  C   UNL A   1      35.975  33.897  31.145  1.00  0.00     0.198 A 
ATOM     56  C   UNL A   1      35.637  33.292  33.423  1.00  0.00     0.198 A 
ATOM     57  F   UNL A   1      37.171  31.924  34.541  1.00  0.00    -0.203 F 
ATOM     58  F   UNL A   1      35.532  34.492  30.027  1.00  0.00    -0.200 F 
ATOM     59  C   UNL A   1      35.191  33.936  32.283  1.00  0.00     0.200 A 
ATOM     60  F   UNL A   1      34.863  33.273  34.518  1.00  0.00    -0.200 F 
ATOM     61  F   UNL A   1      33.998  34.549  32.275  1.00  0.00    -0.200 F 
ENDBRANCH  27  51
BRANCH  39  62
ATOM     62  C   UNL A   1      42.590  29.008  34.037  1.00  0.00     0.064 A 
ATOM     63  C   UNL A   1      41.783  27.856  33.985  1.00  0.00     0.173 A 
ATOM     64  C   UNL A   1      43.328  29.224  35.207  1.00  0.00     0.173 A 
ATOM     65  F   UNL A   1      41.115  27.529  32.871  1.00  0.00    -0.203 F 
ATOM     66  C   UNL A   1      41.712  26.977  35.072  1.00  0.00     0.198 A 
ATOM     67  C   UNL A   1      43.285  28.332  36.270  1.00  0.00     0.198 A 
ATOM     68  F   UNL A   1      44.157  30.277  35.284  1.00  0.00    -0.203 F 
ATOM     69  F   UNL A   1      40.953  25.873  35.002  1.00  0.00    -0.200 F 
ATOM     70  C   UNL A   1      42.471  27.214  36.208  1.00  0.00     0.200 A 
ATOM     71  F   UNL A   1      44.070  28.536  37.335  1.00  0.00    -0.200 F 
ATOM     72  F   UNL A   1      42.444  26.347  37.231  1.00  0.00    -0.200 F 
ENDBRANCH  39  62
ENDBRANCH  13  14
ENDBRANCH   6   8
ENDBRANCH   3   4
ENDBRANCH   2   3
ENDBRANCH   1   2
BRANCH   1  73
ATOM     73  N   UNL A   1      33.968  21.728  26.630  1.00  0.00    -0.354 N 
ATOM     74  C   UNL A   1      32.264  22.863  26.843  1.00  0.00     0.242 C 
ATOM     75  H   UNL A   1      33.939  20.942  27.222  1.00  0.00     0.163 HD
ATOM     76  O   UNL A   1      31.256  22.743  27.621  1.00  0.00    -0.273 OA
BRANCH  74  77
ATOM     77  C   UNL A   1      31.798  24.307  25.771  1.00  0.00     0.175 C 
ATOM     78  C   UNL A   1      31.934  25.757  26.306  1.00  0.00     0.044 C 
ATOM     79  N   UNL A   1      32.287  24.427  24.373  1.00  0.00    -0.330 N 
ATOM     80  C   UNL A   1      32.372  26.703  25.179  1.00  0.00    -0.006 C 
ATOM     81  C   UNL A   1      32.251  25.830  23.920  1.00  0.00     0.127 C 
ATOM     82  C   UNL A   1      33.845  27.210  25.281  1.00  0.00     0.030 C 
ATOM     83  C   UNL A   1      31.482  27.949  25.334  1.00  0.00     0.030 C 
ATOM     84  C   UNL A   1      34.167  28.020  26.539  1.00  0.00     0.120 C 
ATOM     85  C   UNL A   1      31.794  28.661  26.676  1.00  0.00     0.120 C 
ATOM     86  N   UNL A   1      33.198  29.084  26.757  1.00  0.00    -0.342 N 
ATOM     87  C   UNL A   1      33.444  30.395  27.176  1.00  0.00     0.225 C 
ATOM     88  O   UNL A   1      32.508  31.142  27.461  1.00  0.00    -0.275 OA
BRANCH  79  89
ATOM     89  C   UNL A   1      32.649  23.412  23.510  1.00  0.00     0.225 C 
ATOM     90  O   UNL A   1      33.764  23.396  22.981  1.00  0.00    -0.275 OA
BRANCH  89  91
ATOM     91  C   UNL A   1      31.701  22.255  23.247  1.00  0.00     0.124 C 
BRANCH  91  92
ATOM     92  C   UNL A   1      32.362  21.048  22.592  1.00  0.00     0.154 C 
BRANCH  92  93
ATOM     93  N   UNL A   1      32.137  19.794  23.288  1.00  0.00    -0.272 N 
ATOM     94  C   UNL A   1      32.568  18.125  22.533  1.00  0.00     0.108 A 
ATOM     95  N   UNL A   1      32.247  19.674  25.162  1.00  0.00    -0.182 NA
ATOM     96  C   UNL A   1      33.012  17.002  23.945  1.00  0.00     0.042 A 
ATOM     97  C   UNL A   1      32.808  18.063  25.578  1.00  0.00     0.135 A 
ENDBRANCH  92  93
ENDBRANCH  91  92
ENDBRANCH  89  91
ENDBRANCH  79  89
BRANCH  87  98
ATOM     98  C   UNL A   1      34.798  31.024  27.268  1.00  0.00     0.079 C 
ATOM     99  C   UNL A   1      35.272  32.264  27.968  1.00  0.00     0.014 C 
ATOM    100  C   UNL A   1      35.618  30.909  28.530  1.00  0.00     0.014 C 
ENDBRANCH  87  98
ENDBRANCH  74  77
ENDBRANCH   1  73
TORSDOF 15
ENDMDL
