MODEL 1
REMARK VINA RESULT:     -14.0      0.000      0.000
REMARK SMILES O=C(NCCCNC(=O)[C@H]1CC=CC[C@@H]1C(=O)Nc1nn(Cc2ccccc2F)cc1Br)c1ccc(-c2c3nc(c(-c4c(F)c(F)c(F)c(F)c4F)c4ccc([nH]4)c(-c4c(F)c(F)c(F)c(F)c4F)c4nc(c(-c5c(F)c(F)c(F)c(F)c5F)c5ccc2[nH]5)C=C4)C=C3)cc1
REMARK SMILES IDX 6 1 5 2 4 3 3 4 1 5 2 6 33 8 34 9 95 10 35 11 94 12 36 13
REMARK SMILES IDX 37 14 38 15 88 16 39 17 93 18 87 19 89 20 40 21 92 22 86 23
REMARK SMILES IDX 85 24 41 26 73 27 53 28 72 29 54 30 57 31 71 32 90 33 55 34
REMARK SMILES IDX 56 35 70 37 91 38 58 39 42 40 43 41 51 42 44 43 45 44 49 45
REMARK SMILES IDX 52 46 46 47 47 48 50 49 48 50 74 51 75 52 83 53 76 54 77 55
REMARK SMILES IDX 81 56 84 57 78 58 79 59 82 60 80 61 59 62 60 63 68 64 61 65
REMARK SMILES IDX 62 66 66 67 69 68 63 69 64 70 67 71 65 72 7 73 8 74 9 76
REMARK SMILES IDX 10 77 11 78 15 79 12 80 14 81 13 82 16 83 17 84 18 85 19 87
REMARK SMILES IDX 20 88 31 89 21 90 30 91 32 92 22 93 23 94 24 95 28 96 25 97
REMARK SMILES IDX 27 98 29 99 26 100
REMARK H PARENT 3 7 89 25 57 36 7 75 18 86
REMARK Flexibility Score: inf
ROOT
ATOM      1  C   UNL A   1      37.062  22.413  25.398  1.00  0.00     0.117 C 
ENDROOT
BRANCH   1   2
ATOM      2  C   UNL A   1      38.249  21.452  25.396  1.00  0.00     0.042 C 
BRANCH   2   3
ATOM      3  C   UNL A   1      39.339  21.739  26.426  1.00  0.00     0.118 C 
BRANCH   3   4
ATOM      4  N   UNL A   1      40.658  21.975  25.871  1.00  0.00    -0.352 N 
ATOM      5  O   UNL A   1      42.655  22.719  25.335  1.00  0.00    -0.269 OA
ATOM      6  C   UNL A   1      41.612  22.943  25.970  1.00  0.00     0.251 C 
ATOM      7  H   UNL A   1      40.936  21.248  25.268  1.00  0.00     0.163 HD
BRANCH   6   8
ATOM      8  C   UNL A   1      41.506  24.228  26.714  1.00  0.00     0.039 A 
ATOM      9  C   UNL A   1      42.156  24.556  27.905  1.00  0.00     0.014 A 
ATOM     10  C   UNL A   1      40.671  25.200  26.125  1.00  0.00     0.014 A 
ATOM     11  C   UNL A   1      41.929  25.799  28.513  1.00  0.00     0.010 A 
ATOM     12  C   UNL A   1      40.455  26.441  26.718  1.00  0.00     0.010 A 
ATOM     13  C   UNL A   1      41.063  26.738  27.932  1.00  0.00    -0.014 A 
BRANCH  13  14
ATOM     14  C   UNL A   1      40.941  28.076  28.525  1.00  0.00     0.031 A 
ATOM     15  C   UNL A   1      42.013  29.046  28.131  1.00  0.00     0.074 A 
ATOM     16  C   UNL A   1      39.868  28.517  29.218  1.00  0.00     0.049 A 
ATOM     17  N   UNL A   1      42.824  29.705  28.896  1.00  0.00    -0.248 NA
ATOM     18  C   UNL A   1      42.243  29.263  26.693  1.00  0.00     0.031 C 
ATOM     19  C   UNL A   1      38.584  27.845  29.441  1.00  0.00     0.029 A 
ATOM     20  N   UNL A   1      39.677  29.733  29.812  1.00  0.00    -0.354 N 
ATOM     21  C   UNL A   1      43.588  30.515  28.053  1.00  0.00     0.074 A 
ATOM     22  C   UNL A   1      43.250  30.139  26.705  1.00  0.00     0.031 C 
ATOM     23  C   UNL A   1      37.689  28.733  29.936  1.00  0.00     0.029 A 
ATOM     24  C   UNL A   1      38.368  29.989  30.205  1.00  0.00     0.049 A 
ATOM     25  H   UNL A   1      40.409  30.377  29.953  1.00  0.00     0.167 HD
ATOM     26  C   UNL A   1      44.346  31.548  28.521  1.00  0.00     0.037 A 
ATOM     27  C   UNL A   1      37.876  31.161  30.680  1.00  0.00     0.037 A 
ATOM     28  C   UNL A   1      44.589  31.434  29.930  1.00  0.00     0.049 A 
ATOM     29  C   UNL A   1      39.023  31.957  31.176  1.00  0.00     0.074 A 
ATOM     30  C   UNL A   1      45.259  30.526  30.725  1.00  0.00     0.029 A 
ATOM     31  N   UNL A   1      43.816  32.174  30.789  1.00  0.00    -0.354 N 
ATOM     32  N   UNL A   1      39.741  31.643  32.216  1.00  0.00    -0.248 NA
ATOM     33  C   UNL A   1      39.626  32.908  30.257  1.00  0.00     0.031 C 
ATOM     34  C   UNL A   1      44.475  30.429  31.910  1.00  0.00     0.029 A 
ATOM     35  C   UNL A   1      43.414  31.326  31.788  1.00  0.00     0.049 A 
ATOM     36  H   UNL A   1      43.595  33.129  30.704  1.00  0.00     0.167 HD
ATOM     37  C   UNL A   1      41.030  32.012  31.871  1.00  0.00     0.074 A 
ATOM     38  C   UNL A   1      40.884  32.864  30.695  1.00  0.00     0.031 C 
ATOM     39  C   UNL A   1      42.110  31.373  32.404  1.00  0.00     0.037 A 
BRANCH  26  40
ATOM     40  C   UNL A   1      44.654  32.807  27.755  1.00  0.00     0.064 A 
ATOM     41  C   UNL A   1      43.864  33.972  27.853  1.00  0.00     0.173 A 
ATOM     42  C   UNL A   1      45.906  32.968  27.129  1.00  0.00     0.173 A 
ATOM     43  F   UNL A   1      42.708  33.981  28.528  1.00  0.00    -0.203 F 
ATOM     44  C   UNL A   1      44.290  35.203  27.355  1.00  0.00     0.198 A 
ATOM     45  C   UNL A   1      46.349  34.214  26.674  1.00  0.00     0.198 A 
ATOM     46  F   UNL A   1      46.753  31.933  27.016  1.00  0.00    -0.203 F 
ATOM     47  F   UNL A   1      43.502  36.279  27.496  1.00  0.00    -0.200 F 
ATOM     48  C   UNL A   1      45.540  35.330  26.788  1.00  0.00     0.200 A 
ATOM     49  F   UNL A   1      47.589  34.341  26.180  1.00  0.00    -0.200 F 
ATOM     50  F   UNL A   1      45.982  36.533  26.398  1.00  0.00    -0.200 F 
ENDBRANCH  26  40
BRANCH  27  51
ATOM     51  C   UNL A   1      36.553  31.793  30.440  1.00  0.00     0.064 A 
ATOM     52  C   UNL A   1      36.192  32.252  29.159  1.00  0.00     0.173 A 
ATOM     53  C   UNL A   1      35.763  32.249  31.511  1.00  0.00     0.173 A 
ATOM     54  F   UNL A   1      36.924  31.929  28.084  1.00  0.00    -0.203 F 
ATOM     55  C   UNL A   1      35.135  33.145  28.967  1.00  0.00     0.198 A 
ATOM     56  C   UNL A   1      34.707  33.147  31.318  1.00  0.00     0.198 A 
ATOM     57  F   UNL A   1      36.061  31.893  32.769  1.00  0.00    -0.203 F 
ATOM     58  F   UNL A   1      34.876  33.613  27.737  1.00  0.00    -0.200 F 
ATOM     59  C   UNL A   1      34.405  33.606  30.047  1.00  0.00     0.200 A 
ATOM     60  F   UNL A   1      34.027  33.620  32.372  1.00  0.00    -0.200 F 
ATOM     61  F   UNL A   1      33.445  34.524  29.868  1.00  0.00    -0.200 F 
ENDBRANCH  27  51
BRANCH  39  62
ATOM     62  C   UNL A   1      41.888  30.443  33.563  1.00  0.00     0.064 A 
ATOM     63  C   UNL A   1      42.224  30.899  34.845  1.00  0.00     0.173 A 
ATOM     64  C   UNL A   1      41.547  29.086  33.427  1.00  0.00     0.173 A 
ATOM     65  F   UNL A   1      42.604  32.174  35.026  1.00  0.00    -0.203 F 
ATOM     66  C   UNL A   1      42.245  30.036  35.936  1.00  0.00     0.198 A 
ATOM     67  C   UNL A   1      41.533  28.231  34.528  1.00  0.00     0.198 A 
ATOM     68  F   UNL A   1      41.295  28.554  32.225  1.00  0.00    -0.203 F 
ATOM     69  F   UNL A   1      42.645  30.486  37.133  1.00  0.00    -0.200 F 
ATOM     70  C   UNL A   1      41.896  28.704  35.779  1.00  0.00     0.200 A 
ATOM     71  F   UNL A   1      41.214  26.938  34.373  1.00  0.00    -0.200 F 
ATOM     72  F   UNL A   1      41.945  27.869  36.827  1.00  0.00    -0.200 F 
ENDBRANCH  39  62
ENDBRANCH  13  14
ENDBRANCH   6   8
ENDBRANCH   3   4
ENDBRANCH   2   3
ENDBRANCH   1   2
BRANCH   1  73
ATOM     73  N   UNL A   1      36.111  22.227  26.468  1.00  0.00    -0.356 N 
ATOM     74  C   UNL A   1      34.763  22.049  26.409  1.00  0.00     0.224 C 
ATOM     75  H   UNL A   1      36.494  22.231  27.376  1.00  0.00     0.163 HD
ATOM     76  O   UNL A   1      34.276  21.335  27.295  1.00  0.00    -0.275 OA
BRANCH  74  77
ATOM     77  C   UNL A   1      33.831  22.861  25.499  1.00  0.00     0.095 C 
ATOM     78  C   UNL A   1      34.180  24.324  25.765  1.00  0.00     0.041 C 
ATOM     79  C   UNL A   1      33.599  22.518  24.025  1.00  0.00     0.095 C 
ATOM     80  C   UNL A   1      34.422  25.218  24.597  1.00  0.00    -0.030 C 
ATOM     81  C   UNL A   1      34.447  23.321  23.015  1.00  0.00     0.041 C 
ATOM     82  C   UNL A   1      34.572  24.767  23.351  1.00  0.00    -0.030 C 
BRANCH  79  83
ATOM     83  C   UNL A   1      32.151  22.502  23.469  1.00  0.00     0.229 C 
ATOM     84  O   UNL A   1      31.837  21.525  22.760  1.00  0.00    -0.274 OA
ATOM     85  N   UNL A   1      31.125  23.346  23.718  1.00  0.00    -0.308 N 
ATOM     86  H   UNL A   1      30.273  23.030  23.339  1.00  0.00     0.171 HD
BRANCH  85  87
ATOM     87  C   UNL A   1      30.996  24.545  24.380  1.00  0.00     0.168 A 
ATOM     88  N   UNL A   1      31.154  25.760  23.848  1.00  0.00    -0.153 NA
ATOM     89  C   UNL A   1      30.578  24.660  25.725  1.00  0.00     0.080 A 
ATOM     90  N   UNL A   1      31.025  26.621  24.894  1.00  0.00    -0.265 N 
ATOM     91  C   UNL A   1      30.643  25.990  26.047  1.00  0.00     0.127 A 
ATOM     92  Br  UNL A   1      30.189  23.236  26.876  1.00  0.00    -0.045 Br
BRANCH  90  93
ATOM     93  C   UNL A   1      31.204  28.070  24.721  1.00  0.00     0.182 C 
BRANCH  93  94
ATOM     94  C   UNL A   1      32.207  28.673  25.679  1.00  0.00     0.009 A 
ATOM     95  C   UNL A   1      33.314  27.951  26.151  1.00  0.00     0.008 A 
ATOM     96  C   UNL A   1      32.079  30.007  26.086  1.00  0.00     0.128 A 
ATOM     97  C   UNL A   1      34.290  28.578  26.936  1.00  0.00     0.001 A 
ATOM     98  C   UNL A   1      33.067  30.648  26.833  1.00  0.00     0.039 A 
ATOM     99  F   UNL A   1      31.024  30.728  25.678  1.00  0.00    -0.207 F 
ATOM    100  C   UNL A   1      34.186  29.934  27.249  1.00  0.00     0.003 A 
ENDBRANCH  93  94
ENDBRANCH  90  93
ENDBRANCH  85  87
ENDBRANCH  79  83
ENDBRANCH  74  77
ENDBRANCH   1  73
TORSDOF 14
ENDMDL
MODEL 2
REMARK VINA RESULT:     -14.0      3.696      8.965
REMARK SMILES O=C(NCCCNC(=O)[C@H]1CC=CC[C@@H]1C(=O)Nc1nn(Cc2ccccc2F)cc1Br)c1ccc(-c2c3nc(c(-c4c(F)c(F)c(F)c(F)c4F)c4ccc([nH]4)c(-c4c(F)c(F)c(F)c(F)c4F)c4nc(c(-c5c(F)c(F)c(F)c(F)c5F)c5ccc2[nH]5)C=C4)C=C3)cc1
REMARK SMILES IDX 6 1 5 2 4 3 3 4 1 5 2 6 33 8 34 9 95 10 35 11 94 12 36 13
REMARK SMILES IDX 37 14 38 15 88 16 39 17 93 18 87 19 89 20 40 21 92 22 86 23
REMARK SMILES IDX 85 24 41 26 73 27 53 28 72 29 54 30 57 31 71 32 90 33 55 34
REMARK SMILES IDX 56 35 70 37 91 38 58 39 42 40 43 41 51 42 44 43 45 44 49 45
REMARK SMILES IDX 52 46 46 47 47 48 50 49 48 50 74 51 75 52 83 53 76 54 77 55
REMARK SMILES IDX 81 56 84 57 78 58 79 59 82 60 80 61 59 62 60 63 68 64 61 65
REMARK SMILES IDX 62 66 66 67 69 68 63 69 64 70 67 71 65 72 7 73 8 74 9 76
REMARK SMILES IDX 10 77 11 78 15 79 12 80 14 81 13 82 16 83 17 84 18 85 19 87
REMARK SMILES IDX 20 88 31 89 21 90 30 91 32 92 22 93 23 94 24 95 28 96 25 97
REMARK SMILES IDX 27 98 29 99 26 100
REMARK H PARENT 3 7 89 25 57 36 7 75 18 86
REMARK Flexibility Score: inf
ROOT
ATOM      1  C   UNL A   1      32.859  29.885  26.279  1.00  0.00     0.117 C 
ENDROOT
BRANCH   1   2
ATOM      2  C   UNL A   1      33.827  30.131  27.434  1.00  0.00     0.042 C 
BRANCH   2   3
ATOM      3  C   UNL A   1      34.249  31.583  27.650  1.00  0.00     0.118 C 
BRANCH   3   4
ATOM      4  N   UNL A   1      34.341  31.992  29.038  1.00  0.00    -0.352 N 
ATOM      5  O   UNL A   1      34.939  32.436  31.105  1.00  0.00    -0.269 OA
ATOM      6  C   UNL A   1      35.256  31.881  30.042  1.00  0.00     0.251 C 
ATOM      7  H   UNL A   1      33.535  32.476  29.331  1.00  0.00     0.163 HD
BRANCH   6   8
ATOM      8  C   UNL A   1      36.547  31.140  29.996  1.00  0.00     0.039 A 
ATOM      9  C   UNL A   1      37.826  31.696  29.977  1.00  0.00     0.014 A 
ATOM     10  C   UNL A   1      36.435  29.734  29.986  1.00  0.00     0.014 A 
ATOM     11  C   UNL A   1      38.955  30.869  29.895  1.00  0.00     0.010 A 
ATOM     12  C   UNL A   1      37.553  28.908  29.920  1.00  0.00     0.010 A 
ATOM     13  C   UNL A   1      38.821  29.472  29.847  1.00  0.00    -0.014 A 
BRANCH  13  14
ATOM     14  C   UNL A   1      40.022  28.628  29.886  1.00  0.00     0.031 A 
ATOM     15  C   UNL A   1      40.607  28.417  31.249  1.00  0.00     0.074 A 
ATOM     16  C   UNL A   1      40.495  27.911  28.842  1.00  0.00     0.049 A 
ATOM     17  N   UNL A   1      41.807  28.678  31.662  1.00  0.00    -0.248 NA
ATOM     18  C   UNL A   1      39.717  27.899  32.301  1.00  0.00     0.031 C 
ATOM     19  C   UNL A   1      39.897  27.720  27.518  1.00  0.00     0.029 A 
ATOM     20  N   UNL A   1      41.606  27.116  28.787  1.00  0.00    -0.354 N 
ATOM     21  C   UNL A   1      41.870  28.247  32.988  1.00  0.00     0.074 A 
ATOM     22  C   UNL A   1      40.532  27.858  33.356  1.00  0.00     0.031 C 
ATOM     23  C   UNL A   1      40.535  26.715  26.874  1.00  0.00     0.029 A 
ATOM     24  C   UNL A   1      41.674  26.291  27.669  1.00  0.00     0.049 A 
ATOM     25  H   UNL A   1      42.302  27.126  29.483  1.00  0.00     0.167 HD
ATOM     26  C   UNL A   1      43.050  28.102  33.655  1.00  0.00     0.037 A 
ATOM     27  C   UNL A   1      42.582  25.309  27.438  1.00  0.00     0.037 A 
ATOM     28  C   UNL A   1      44.116  28.814  33.011  1.00  0.00     0.049 A 
ATOM     29  C   UNL A   1      43.756  25.576  28.301  1.00  0.00     0.074 A 
ATOM     30  C   UNL A   1      44.373  30.147  32.758  1.00  0.00     0.029 A 
ATOM     31  N   UNL A   1      44.977  28.113  32.205  1.00  0.00    -0.354 N 
ATOM     32  N   UNL A   1      44.563  26.587  28.152  1.00  0.00    -0.248 NA
ATOM     33  C   UNL A   1      43.798  24.920  29.598  1.00  0.00     0.031 C 
ATOM     34  C   UNL A   1      44.984  30.163  31.471  1.00  0.00     0.029 A 
ATOM     35  C   UNL A   1      45.114  28.839  31.050  1.00  0.00     0.049 A 
ATOM     36  H   UNL A   1      45.412  27.256  32.416  1.00  0.00     0.167 HD
ATOM     37  C   UNL A   1      44.893  26.960  29.444  1.00  0.00     0.074 A 
ATOM     38  C   UNL A   1      44.466  25.847  30.286  1.00  0.00     0.031 C 
ATOM     39  C   UNL A   1      45.230  28.248  29.739  1.00  0.00     0.037 A 
BRANCH  26  40
ATOM     40  C   UNL A   1      43.304  27.101  34.750  1.00  0.00     0.064 A 
ATOM     41  C   UNL A   1      43.614  25.750  34.492  1.00  0.00     0.173 A 
ATOM     42  C   UNL A   1      43.523  27.537  36.072  1.00  0.00     0.173 A 
ATOM     43  F   UNL A   1      43.563  25.242  33.254  1.00  0.00    -0.203 F 
ATOM     44  C   UNL A   1      44.099  24.895  35.482  1.00  0.00     0.198 A 
ATOM     45  C   UNL A   1      44.054  26.690  37.050  1.00  0.00     0.198 A 
ATOM     46  F   UNL A   1      43.296  28.813  36.419  1.00  0.00    -0.203 F 
ATOM     47  F   UNL A   1      44.396  23.626  35.170  1.00  0.00    -0.200 F 
ATOM     48  C   UNL A   1      44.343  25.370  36.754  1.00  0.00     0.200 A 
ATOM     49  F   UNL A   1      44.345  27.175  38.266  1.00  0.00    -0.200 F 
ATOM     50  F   UNL A   1      44.898  24.571  37.674  1.00  0.00    -0.200 F 
ENDBRANCH  26  40
BRANCH  27  51
ATOM     51  C   UNL A   1      42.391  23.984  26.794  1.00  0.00     0.064 A 
ATOM     52  C   UNL A   1      41.460  23.058  27.303  1.00  0.00     0.173 A 
ATOM     53  C   UNL A   1      43.336  23.479  25.881  1.00  0.00     0.173 A 
ATOM     54  F   UNL A   1      40.564  23.427  28.229  1.00  0.00    -0.203 F 
ATOM     55  C   UNL A   1      41.499  21.706  26.955  1.00  0.00     0.198 A 
ATOM     56  C   UNL A   1      43.376  22.123  25.537  1.00  0.00     0.198 A 
ATOM     57  F   UNL A   1      44.284  24.283  25.379  1.00  0.00    -0.203 F 
ATOM     58  F   UNL A   1      40.639  20.849  27.523  1.00  0.00    -0.200 F 
ATOM     59  C   UNL A   1      42.467  21.235  26.087  1.00  0.00     0.200 A 
ATOM     60  F   UNL A   1      44.340  21.666  24.725  1.00  0.00    -0.200 F 
ATOM     61  F   UNL A   1      42.552  19.925  25.819  1.00  0.00    -0.200 F 
ENDBRANCH  27  51
BRANCH  39  62
ATOM     62  C   UNL A   1      45.492  29.194  28.602  1.00  0.00     0.064 A 
ATOM     63  C   UNL A   1      46.825  29.477  28.276  1.00  0.00     0.173 A 
ATOM     64  C   UNL A   1      44.495  29.960  27.972  1.00  0.00     0.173 A 
ATOM     65  F   UNL A   1      47.820  28.809  28.882  1.00  0.00    -0.203 F 
ATOM     66  C   UNL A   1      47.151  30.492  27.383  1.00  0.00     0.198 A 
ATOM     67  C   UNL A   1      44.822  30.953  27.050  1.00  0.00     0.198 A 
ATOM     68  F   UNL A   1      43.204  29.810  28.292  1.00  0.00    -0.203 F 
ATOM     69  F   UNL A   1      48.437  30.787  27.151  1.00  0.00    -0.200 F 
ATOM     70  C   UNL A   1      46.151  31.228  26.767  1.00  0.00     0.200 A 
ATOM     71  F   UNL A   1      43.855  31.678  26.469  1.00  0.00    -0.200 F 
ATOM     72  F   UNL A   1      46.468  32.224  25.929  1.00  0.00    -0.200 F 
ENDBRANCH  39  62
ENDBRANCH  13  14
ENDBRANCH   6   8
ENDBRANCH   3   4
ENDBRANCH   2   3
ENDBRANCH   1   2
BRANCH   1  73
ATOM     73  N   UNL A   1      33.470  29.647  24.992  1.00  0.00    -0.356 N 
ATOM     74  C   UNL A   1      33.055  28.853  23.969  1.00  0.00     0.224 C 
ATOM     75  H   UNL A   1      34.313  30.131  24.832  1.00  0.00     0.163 HD
ATOM     76  O   UNL A   1      33.341  29.249  22.832  1.00  0.00    -0.275 OA
BRANCH  74  77
ATOM     77  C   UNL A   1      32.507  27.431  24.155  1.00  0.00     0.095 C 
ATOM     78  C   UNL A   1      33.623  26.657  24.855  1.00  0.00     0.041 C 
ATOM     79  C   UNL A   1      31.101  27.143  24.687  1.00  0.00     0.095 C 
ATOM     80  C   UNL A   1      33.277  25.849  26.059  1.00  0.00    -0.030 C 
ATOM     81  C   UNL A   1      31.013  26.826  26.195  1.00  0.00     0.041 C 
ATOM     82  C   UNL A   1      32.105  25.941  26.688  1.00  0.00    -0.030 C 
BRANCH  79  83
ATOM     83  C   UNL A   1      30.217  26.092  23.965  1.00  0.00     0.229 C 
ATOM     84  O   UNL A   1      29.018  26.390  23.801  1.00  0.00    -0.274 OA
ATOM     85  N   UNL A   1      30.572  24.924  23.383  1.00  0.00    -0.308 N 
ATOM     86  H   UNL A   1      29.834  24.513  22.878  1.00  0.00     0.171 HD
BRANCH  85  87
ATOM     87  C   UNL A   1      31.727  24.178  23.336  1.00  0.00     0.168 A 
ATOM     88  N   UNL A   1      32.061  23.188  24.168  1.00  0.00    -0.153 NA
ATOM     89  C   UNL A   1      32.699  24.298  22.318  1.00  0.00     0.080 A 
ATOM     90  N   UNL A   1      33.316  22.821  23.792  1.00  0.00    -0.265 N 
ATOM     91  C   UNL A   1      33.725  23.454  22.650  1.00  0.00     0.127 A 
ATOM     92  Br  UNL A   1      32.653  25.516  20.898  1.00  0.00    -0.045 Br
BRANCH  90  93
ATOM     93  C   UNL A   1      34.065  21.789  24.524  1.00  0.00     0.182 C 
BRANCH  93  94
ATOM     94  C   UNL A   1      35.468  22.212  24.897  1.00  0.00     0.009 A 
ATOM     95  C   UNL A   1      35.789  23.543  25.204  1.00  0.00     0.008 A 
ATOM     96  C   UNL A   1      36.489  21.258  24.996  1.00  0.00     0.128 A 
ATOM     97  C   UNL A   1      37.067  23.878  25.668  1.00  0.00     0.001 A 
ATOM     98  C   UNL A   1      37.751  21.578  25.495  1.00  0.00     0.039 A 
ATOM     99  F   UNL A   1      36.234  19.977  24.689  1.00  0.00    -0.207 F 
ATOM    100  C   UNL A   1      38.039  22.892  25.846  1.00  0.00     0.003 A 
ENDBRANCH  93  94
ENDBRANCH  90  93
ENDBRANCH  85  87
ENDBRANCH  79  83
ENDBRANCH  74  77
ENDBRANCH   1  73
TORSDOF 14
ENDMDL
MODEL 3
REMARK VINA RESULT:     -13.9      3.500      8.490
REMARK SMILES O=C(NCCCNC(=O)[C@H]1CC=CC[C@@H]1C(=O)Nc1nn(Cc2ccccc2F)cc1Br)c1ccc(-c2c3nc(c(-c4c(F)c(F)c(F)c(F)c4F)c4ccc([nH]4)c(-c4c(F)c(F)c(F)c(F)c4F)c4nc(c(-c5c(F)c(F)c(F)c(F)c5F)c5ccc2[nH]5)C=C4)C=C3)cc1
REMARK SMILES IDX 6 1 5 2 4 3 3 4 1 5 2 6 33 8 34 9 95 10 35 11 94 12 36 13
REMARK SMILES IDX 37 14 38 15 88 16 39 17 93 18 87 19 89 20 40 21 92 22 86 23
REMARK SMILES IDX 85 24 41 26 73 27 53 28 72 29 54 30 57 31 71 32 90 33 55 34
REMARK SMILES IDX 56 35 70 37 91 38 58 39 42 40 43 41 51 42 44 43 45 44 49 45
REMARK SMILES IDX 52 46 46 47 47 48 50 49 48 50 74 51 75 52 83 53 76 54 77 55
REMARK SMILES IDX 81 56 84 57 78 58 79 59 82 60 80 61 59 62 60 63 68 64 61 65
REMARK SMILES IDX 62 66 66 67 69 68 63 69 64 70 67 71 65 72 7 73 8 74 9 76
REMARK SMILES IDX 10 77 11 78 15 79 12 80 14 81 13 82 16 83 17 84 18 85 19 87
REMARK SMILES IDX 20 88 31 89 21 90 30 91 32 92 22 93 23 94 24 95 28 96 25 97
REMARK SMILES IDX 27 98 29 99 26 100
REMARK H PARENT 3 7 89 25 57 36 7 75 18 86
REMARK Flexibility Score: inf
ROOT
ATOM      1  C   UNL A   1      31.509  28.188  26.476  1.00  0.00     0.117 C 
ENDROOT
BRANCH   1   2
ATOM      2  C   UNL A   1      32.673  28.609  27.370  1.00  0.00     0.042 C 
BRANCH   2   3
ATOM      3  C   UNL A   1      33.558  29.728  26.826  1.00  0.00     0.118 C 
BRANCH   3   4
ATOM      4  N   UNL A   1      33.681  30.886  27.691  1.00  0.00    -0.352 N 
ATOM      5  O   UNL A   1      34.345  32.522  28.999  1.00  0.00    -0.269 OA
ATOM      6  C   UNL A   1      34.674  31.479  28.411  1.00  0.00     0.251 C 
ATOM      7  H   UNL A   1      32.827  31.367  27.780  1.00  0.00     0.163 HD
BRANCH   6   8
ATOM      8  C   UNL A   1      36.067  30.985  28.587  1.00  0.00     0.039 A 
ATOM      9  C   UNL A   1      37.145  31.702  29.108  1.00  0.00     0.014 A 
ATOM     10  C   UNL A   1      36.288  29.649  28.194  1.00  0.00     0.014 A 
ATOM     11  C   UNL A   1      38.416  31.113  29.179  1.00  0.00     0.010 A 
ATOM     12  C   UNL A   1      37.544  29.055  28.276  1.00  0.00     0.010 A 
ATOM     13  C   UNL A   1      38.623  29.795  28.745  1.00  0.00    -0.014 A 
BRANCH  13  14
ATOM     14  C   UNL A   1      39.934  29.163  28.947  1.00  0.00     0.031 A 
ATOM     15  C   UNL A   1      40.296  28.888  30.374  1.00  0.00     0.074 A 
ATOM     16  C   UNL A   1      40.711  28.668  27.957  1.00  0.00     0.049 A 
ATOM     17  N   UNL A   1      41.332  29.293  31.036  1.00  0.00    -0.248 NA
ATOM     18  C   UNL A   1      39.345  28.105  31.180  1.00  0.00     0.031 C 
ATOM     19  C   UNL A   1      40.404  28.543  26.530  1.00  0.00     0.029 A 
ATOM     20  N   UNL A   1      41.942  28.081  28.052  1.00  0.00    -0.354 N 
ATOM     21  C   UNL A   1      41.237  28.721  32.306  1.00  0.00     0.074 A 
ATOM     22  C   UNL A   1      39.952  28.072  32.368  1.00  0.00     0.031 C 
ATOM     23  C   UNL A   1      41.324  27.744  25.938  1.00  0.00     0.029 A 
ATOM     24  C   UNL A   1      42.362  27.423  26.902  1.00  0.00     0.049 A 
ATOM     25  H   UNL A   1      42.489  28.123  28.870  1.00  0.00     0.167 HD
ATOM     26  C   UNL A   1      42.286  28.694  33.177  1.00  0.00     0.037 A 
ATOM     27  C   UNL A   1      43.463  26.640  26.768  1.00  0.00     0.037 A 
ATOM     28  C   UNL A   1      43.298  29.647  32.821  1.00  0.00     0.049 A 
ATOM     29  C   UNL A   1      44.393  26.992  27.866  1.00  0.00     0.074 A 
ATOM     30  C   UNL A   1      43.343  31.025  32.742  1.00  0.00     0.029 A 
ATOM     31  N   UNL A   1      44.404  29.203  32.142  1.00  0.00    -0.354 N 
ATOM     32  N   UNL A   1      45.011  28.134  27.969  1.00  0.00    -0.248 NA
ATOM     33  C   UNL A   1      44.325  26.200  29.083  1.00  0.00     0.031 C 
ATOM     34  C   UNL A   1      44.159  31.299  31.607  1.00  0.00     0.029 A 
ATOM     35  C   UNL A   1      44.607  30.076  31.105  1.00  0.00     0.049 A 
ATOM     36  H   UNL A   1      44.946  28.411  32.358  1.00  0.00     0.167 HD
ATOM     37  C   UNL A   1      45.030  28.396  29.328  1.00  0.00     0.074 A 
ATOM     38  C   UNL A   1      44.675  27.134  29.968  1.00  0.00     0.031 C 
ATOM     39  C   UNL A   1      45.063  29.677  29.796  1.00  0.00     0.037 A 
BRANCH  26  40
ATOM     40  C   UNL A   1      42.523  27.624  34.208  1.00  0.00     0.064 A 
ATOM     41  C   UNL A   1      41.879  27.618  35.464  1.00  0.00     0.173 A 
ATOM     42  C   UNL A   1      43.179  26.429  33.853  1.00  0.00     0.173 A 
ATOM     43  F   UNL A   1      41.123  28.645  35.870  1.00  0.00    -0.203 F 
ATOM     44  C   UNL A   1      41.898  26.505  36.305  1.00  0.00     0.198 A 
ATOM     45  C   UNL A   1      43.155  25.299  34.677  1.00  0.00     0.198 A 
ATOM     46  F   UNL A   1      43.792  26.311  32.664  1.00  0.00    -0.203 F 
ATOM     47  F   UNL A   1      41.251  26.555  37.477  1.00  0.00    -0.200 F 
ATOM     48  C   UNL A   1      42.514  25.339  35.902  1.00  0.00     0.200 A 
ATOM     49  F   UNL A   1      43.703  24.152  34.253  1.00  0.00    -0.200 F 
ATOM     50  F   UNL A   1      42.446  24.244  36.671  1.00  0.00    -0.200 F 
ENDBRANCH  26  40
BRANCH  27  51
ATOM     51  C   UNL A   1      43.640  25.391  25.985  1.00  0.00     0.064 A 
ATOM     52  C   UNL A   1      42.850  24.255  26.244  1.00  0.00     0.173 A 
ATOM     53  C   UNL A   1      44.793  25.183  25.205  1.00  0.00     0.173 A 
ATOM     54  F   UNL A   1      41.770  24.338  27.034  1.00  0.00    -0.203 F 
ATOM     55  C   UNL A   1      43.211  22.986  25.788  1.00  0.00     0.198 A 
ATOM     56  C   UNL A   1      45.156  23.909  24.752  1.00  0.00     0.198 A 
ATOM     57  F   UNL A   1      45.624  26.202  24.944  1.00  0.00    -0.203 F 
ATOM     58  F   UNL A   1      42.466  21.922  26.123  1.00  0.00    -0.200 F 
ATOM     59  C   UNL A   1      44.373  22.809  25.058  1.00  0.00     0.200 A 
ATOM     60  F   UNL A   1      46.302  23.738  24.077  1.00  0.00    -0.200 F 
ATOM     61  F   UNL A   1      44.758  21.579  24.692  1.00  0.00    -0.200 F 
ENDBRANCH  27  51
BRANCH  39  62
ATOM     62  C   UNL A   1      45.342  30.785  28.820  1.00  0.00     0.064 A 
ATOM     63  C   UNL A   1      46.631  31.333  28.799  1.00  0.00     0.173 A 
ATOM     64  C   UNL A   1      44.350  31.436  28.067  1.00  0.00     0.173 A 
ATOM     65  F   UNL A   1      47.607  30.780  29.538  1.00  0.00    -0.203 F 
ATOM     66  C   UNL A   1      46.913  32.490  28.081  1.00  0.00     0.198 A 
ATOM     67  C   UNL A   1      44.643  32.575  27.318  1.00  0.00     0.198 A 
ATOM     68  F   UNL A   1      43.075  31.027  28.101  1.00  0.00    -0.203 F 
ATOM     69  F   UNL A   1      48.138  33.031  28.143  1.00  0.00    -0.200 F 
ATOM     70  C   UNL A   1      45.921  33.110  27.338  1.00  0.00     0.200 A 
ATOM     71  F   UNL A   1      43.677  33.186  26.615  1.00  0.00    -0.200 F 
ATOM     72  F   UNL A   1      46.188  34.240  26.669  1.00  0.00    -0.200 F 
ENDBRANCH  39  62
ENDBRANCH  13  14
ENDBRANCH   6   8
ENDBRANCH   3   4
ENDBRANCH   2   3
ENDBRANCH   1   2
BRANCH   1  73
ATOM     73  N   UNL A   1      31.128  26.797  26.561  1.00  0.00    -0.356 N 
ATOM     74  C   UNL A   1      31.867  25.680  26.326  1.00  0.00     0.224 C 
ATOM     75  H   UNL A   1      30.194  26.634  26.827  1.00  0.00     0.163 HD
ATOM     76  O   UNL A   1      31.577  24.691  27.010  1.00  0.00    -0.275 OA
BRANCH  74  77
ATOM     77  C   UNL A   1      32.820  25.518  25.133  1.00  0.00     0.095 C 
ATOM     78  C   UNL A   1      34.225  25.535  25.732  1.00  0.00     0.041 C 
ATOM     79  C   UNL A   1      32.607  24.473  24.034  1.00  0.00     0.095 C 
ATOM     80  C   UNL A   1      35.179  24.463  25.330  1.00  0.00    -0.030 C 
ATOM     81  C   UNL A   1      33.409  23.164  24.199  1.00  0.00     0.041 C 
ATOM     82  C   UNL A   1      34.811  23.372  24.658  1.00  0.00    -0.030 C 
BRANCH  79  83
ATOM     83  C   UNL A   1      32.753  24.895  22.549  1.00  0.00     0.229 C 
ATOM     84  O   UNL A   1      33.357  24.100  21.800  1.00  0.00    -0.274 OA
ATOM     85  N   UNL A   1      32.231  25.961  21.902  1.00  0.00    -0.308 N 
ATOM     86  H   UNL A   1      32.369  25.920  20.929  1.00  0.00     0.171 HD
BRANCH  85  87
ATOM     87  C   UNL A   1      31.552  27.092  22.292  1.00  0.00     0.168 A 
ATOM     88  N   UNL A   1      30.226  27.221  22.394  1.00  0.00    -0.153 NA
ATOM     89  C   UNL A   1      32.185  28.274  22.740  1.00  0.00     0.080 A 
ATOM     90  N   UNL A   1      30.023  28.528  22.716  1.00  0.00    -0.265 N 
ATOM     91  C   UNL A   1      31.193  29.192  22.965  1.00  0.00     0.127 A 
ATOM     92  Br  UNL A   1      34.032  28.562  22.825  1.00  0.00    -0.045 Br
BRANCH  90  93
ATOM     93  C   UNL A   1      28.669  29.082  22.850  1.00  0.00     0.182 C 
BRANCH  93  94
ATOM     94  C   UNL A   1      28.515  30.456  22.238  1.00  0.00     0.009 A 
ATOM     95  C   UNL A   1      28.137  30.637  20.898  1.00  0.00     0.008 A 
ATOM     96  C   UNL A   1      28.702  31.602  23.021  1.00  0.00     0.128 A 
ATOM     97  C   UNL A   1      27.881  31.920  20.398  1.00  0.00     0.001 A 
ATOM     98  C   UNL A   1      28.411  32.878  22.540  1.00  0.00     0.039 A 
ATOM     99  F   UNL A   1      29.087  31.478  24.299  1.00  0.00    -0.207 F 
ATOM    100  C   UNL A   1      27.985  33.038  21.226  1.00  0.00     0.003 A 
ENDBRANCH  93  94
ENDBRANCH  90  93
ENDBRANCH  85  87
ENDBRANCH  79  83
ENDBRANCH  74  77
ENDBRANCH   1  73
TORSDOF 14
ENDMDL
