MODEL 1
REMARK VINA RESULT:     -12.3      0.000      0.000
REMARK SMILES O=C(NCCCNC(=O)c1sccc1S(=O)(=O)NC[C@H](O)c1ccccc1)c1ccc(-c2c3nc(c(-c4c(F)c(F)c(F)c(F)c4F)c4ccc([nH]4)c(-c4c(F)c(F)c(F)c(F)c4F)c4nc(c(-c5c(F)c(F)c(F)c(F)c5F)c5ccc2[nH]5)C=C4)C=C3)cc1
REMARK SMILES IDX 7 1 8 2 9 3 6 5 5 6 4 7 3 8 1 9 2 10 28 12 29 13 90 14 30 15
REMARK SMILES IDX 89 16 31 17 32 18 33 19 83 20 34 21 88 22 82 23 84 24 35 25
REMARK SMILES IDX 87 26 81 27 80 28 36 30 68 31 48 32 67 33 49 34 52 35 66 36
REMARK SMILES IDX 85 37 50 38 51 39 65 41 86 42 53 43 37 44 38 45 46 46 39 47
REMARK SMILES IDX 40 48 44 49 47 50 41 51 42 52 45 53 43 54 69 55 70 56 78 57
REMARK SMILES IDX 71 58 72 59 76 60 79 61 73 62 74 63 77 64 75 65 54 66 55 67
REMARK SMILES IDX 63 68 56 69 57 70 61 71 64 72 58 73 59 74 62 75 60 76 10 77
REMARK SMILES IDX 11 78 14 79 12 80 13 81 15 82 16 83 17 84 18 85 19 87 20 88
REMARK SMILES IDX 22 89 23 90 27 91 24 92 26 93 25 94 21 95
REMARK H PARENT 7 4 3 11 84 29 52 40 18 86 21 96
REMARK Flexibility Score: inf
ROOT
ATOM      1  N   UNL A   1      32.665  30.211  25.406  1.00  0.00    -0.351 N 
ATOM      2  C   UNL A   1      32.892  29.005  24.805  1.00  0.00     0.262 C 
ATOM      3  O   UNL A   1      33.739  28.985  23.909  1.00  0.00    -0.268 OA
ATOM      4  H   UNL A   1      33.184  30.962  25.037  1.00  0.00     0.163 HD
ENDROOT
BRANCH   1   5
ATOM      5  C   UNL A   1      31.780  30.562  26.500  1.00  0.00     0.118 C 
BRANCH   5   6
ATOM      6  C   UNL A   1      31.567  32.062  26.602  1.00  0.00     0.042 C 
BRANCH   6   7
ATOM      7  C   UNL A   1      32.714  32.802  27.280  1.00  0.00     0.118 C 
BRANCH   7   8
ATOM      8  N   UNL A   1      32.397  34.180  27.643  1.00  0.00    -0.352 N 
ATOM      9  O   UNL A   1      32.484  36.097  28.836  1.00  0.00    -0.269 OA
ATOM     10  C   UNL A   1      32.967  34.997  28.593  1.00  0.00     0.251 C 
ATOM     11  H   UNL A   1      31.664  34.588  27.129  1.00  0.00     0.163 HD
BRANCH  10  12
ATOM     12  C   UNL A   1      34.145  34.520  29.347  1.00  0.00     0.039 A 
ATOM     13  C   UNL A   1      35.419  34.630  28.796  1.00  0.00     0.014 A 
ATOM     14  C   UNL A   1      33.968  33.908  30.591  1.00  0.00     0.014 A 
ATOM     15  C   UNL A   1      36.471  33.928  29.364  1.00  0.00     0.010 A 
ATOM     16  C   UNL A   1      35.060  33.316  31.231  1.00  0.00     0.010 A 
ATOM     17  C   UNL A   1      36.311  33.273  30.596  1.00  0.00    -0.014 A 
BRANCH  17  18
ATOM     18  C   UNL A   1      37.487  32.596  31.202  1.00  0.00     0.031 A 
ATOM     19  C   UNL A   1      37.945  32.917  32.598  1.00  0.00     0.074 A 
ATOM     20  C   UNL A   1      38.106  31.633  30.492  1.00  0.00     0.049 A 
ATOM     21  N   UNL A   1      38.936  32.395  33.279  1.00  0.00    -0.248 NA
ATOM     22  C   UNL A   1      37.208  33.962  33.324  1.00  0.00     0.031 C 
ATOM     23  C   UNL A   1      37.750  31.239  29.126  1.00  0.00     0.029 A 
ATOM     24  N   UNL A   1      39.131  30.786  30.823  1.00  0.00    -0.354 N 
ATOM     25  C   UNL A   1      38.962  33.069  34.494  1.00  0.00     0.074 A 
ATOM     26  C   UNL A   1      37.897  34.049  34.453  1.00  0.00     0.031 C 
ATOM     27  C   UNL A   1      38.488  30.182  28.765  1.00  0.00     0.029 A 
ATOM     28  C   UNL A   1      39.427  29.877  29.838  1.00  0.00     0.049 A 
ATOM     29  H   UNL A   1      39.608  30.826  31.683  1.00  0.00     0.167 HD
ATOM     30  C   UNL A   1      39.797  32.881  35.545  1.00  0.00     0.037 A 
ATOM     31  C   UNL A   1      40.364  28.913  29.791  1.00  0.00     0.037 A 
ATOM     32  C   UNL A   1      40.833  31.881  35.588  1.00  0.00     0.049 A 
ATOM     33  C   UNL A   1      41.278  28.734  30.964  1.00  0.00     0.074 A 
ATOM     34  C   UNL A   1      41.706  31.585  36.621  1.00  0.00     0.029 A 
ATOM     35  N   UNL A   1      41.136  31.010  34.551  1.00  0.00    -0.354 N 
ATOM     36  N   UNL A   1      41.286  29.373  32.108  1.00  0.00    -0.248 NA
ATOM     37  C   UNL A   1      42.323  27.713  30.834  1.00  0.00     0.031 C 
ATOM     38  C   UNL A   1      42.564  30.565  36.193  1.00  0.00     0.029 A 
ATOM     39  C   UNL A   1      42.196  30.193  34.910  1.00  0.00     0.049 A 
ATOM     40  H   UNL A   1      40.665  30.976  33.686  1.00  0.00     0.167 HD
ATOM     41  C   UNL A   1      42.332  28.832  32.838  1.00  0.00     0.074 A 
ATOM     42  C   UNL A   1      42.919  27.791  32.016  1.00  0.00     0.031 C 
ATOM     43  C   UNL A   1      42.773  29.170  34.075  1.00  0.00     0.037 A 
BRANCH  30  44
ATOM     44  C   UNL A   1      39.644  33.792  36.729  1.00  0.00     0.064 A 
ATOM     45  C   UNL A   1      40.261  35.050  36.782  1.00  0.00     0.173 A 
ATOM     46  C   UNL A   1      38.833  33.416  37.811  1.00  0.00     0.173 A 
ATOM     47  F   UNL A   1      41.057  35.455  35.779  1.00  0.00    -0.203 F 
ATOM     48  C   UNL A   1      40.093  35.887  37.883  1.00  0.00     0.198 A 
ATOM     49  C   UNL A   1      38.645  34.265  38.899  1.00  0.00     0.198 A 
ATOM     50  F   UNL A   1      38.213  32.226  37.809  1.00  0.00    -0.203 F 
ATOM     51  F   UNL A   1      40.727  37.067  37.931  1.00  0.00    -0.200 F 
ATOM     52  C   UNL A   1      39.280  35.497  38.937  1.00  0.00     0.200 A 
ATOM     53  F   UNL A   1      37.849  33.890  39.911  1.00  0.00    -0.200 F 
ATOM     54  F   UNL A   1      39.114  36.305  39.993  1.00  0.00    -0.200 F 
ENDBRANCH  30  44
BRANCH  31  55
ATOM     55  C   UNL A   1      40.474  28.062  28.580  1.00  0.00     0.064 A 
ATOM     56  C   UNL A   1      41.249  28.465  27.484  1.00  0.00     0.173 A 
ATOM     57  C   UNL A   1      39.848  26.808  28.513  1.00  0.00     0.173 A 
ATOM     58  F   UNL A   1      41.854  29.661  27.496  1.00  0.00    -0.203 F 
ATOM     59  C   UNL A   1      41.390  27.646  26.366  1.00  0.00     0.198 A 
ATOM     60  C   UNL A   1      40.014  25.979  27.408  1.00  0.00     0.198 A 
ATOM     61  F   UNL A   1      39.102  26.375  29.540  1.00  0.00    -0.203 F 
ATOM     62  F   UNL A   1      42.115  28.065  25.319  1.00  0.00    -0.200 F 
ATOM     63  C   UNL A   1      40.781  26.400  26.333  1.00  0.00     0.200 A 
ATOM     64  F   UNL A   1      39.442  24.767  27.391  1.00  0.00    -0.200 F 
ATOM     65  F   UNL A   1      40.933  25.606  25.265  1.00  0.00    -0.200 F 
ENDBRANCH  31  55
BRANCH  43  66
ATOM     66  C   UNL A   1      43.938  28.397  34.611  1.00  0.00     0.064 A 
ATOM     67  C   UNL A   1      45.255  28.847  34.437  1.00  0.00     0.173 A 
ATOM     68  C   UNL A   1      43.736  27.204  35.320  1.00  0.00     0.173 A 
ATOM     69  F   UNL A   1      45.499  29.972  33.750  1.00  0.00    -0.203 F 
ATOM     70  C   UNL A   1      46.331  28.115  34.933  1.00  0.00     0.198 A 
ATOM     71  C   UNL A   1      44.813  26.489  35.836  1.00  0.00     0.198 A 
ATOM     72  F   UNL A   1      42.494  26.734  35.512  1.00  0.00    -0.203 F 
ATOM     73  F   UNL A   1      47.583  28.537  34.714  1.00  0.00    -0.200 F 
ATOM     74  C   UNL A   1      46.109  26.940  35.636  1.00  0.00     0.200 A 
ATOM     75  F   UNL A   1      44.596  25.358  36.522  1.00  0.00    -0.200 F 
ATOM     76  F   UNL A   1      47.144  26.237  36.112  1.00  0.00    -0.200 F 
ENDBRANCH  43  66
ENDBRANCH  17  18
ENDBRANCH  10  12
ENDBRANCH   7   8
ENDBRANCH   6   7
ENDBRANCH   5   6
ENDBRANCH   1   5
BRANCH   2  77
ATOM     77  C   UNL A   1      32.161  27.841  25.230  1.00  0.00     0.112 A 
ATOM     78  S   UNL A   1      32.843  26.930  26.519  1.00  0.00    -0.137 S 
ATOM     79  C   UNL A   1      31.010  27.247  24.746  1.00  0.00     0.106 A 
ATOM     80  C   UNL A   1      31.579  25.785  26.475  1.00  0.00     0.067 A 
ATOM     81  C   UNL A   1      30.664  26.070  25.489  1.00  0.00     0.034 A 
BRANCH  79  82
ATOM     82  S   UNL A   1      30.023  27.787  23.436  1.00  0.00     0.242 S 
ATOM     83  O   UNL A   1      28.814  27.015  23.535  1.00  0.00    -0.207 OA
ATOM     84  O   UNL A   1      30.007  29.227  23.617  1.00  0.00    -0.207 OA
BRANCH  82  85
ATOM     85  N   UNL A   1      30.692  27.542  21.920  1.00  0.00    -0.208 NA
ATOM     86  H   UNL A   1      31.468  28.200  21.831  1.00  0.00     0.141 HD
BRANCH  85  87
ATOM     87  C   UNL A   1      31.218  26.206  21.551  1.00  0.00     0.135 C 
BRANCH  87  88
ATOM     88  C   UNL A   1      32.758  26.147  21.561  1.00  0.00     0.159 C 
BRANCH  88  89
ATOM     89  C   UNL A   1      33.255  24.998  22.413  1.00  0.00    -0.018 A 
ATOM     90  C   UNL A   1      34.109  25.261  23.498  1.00  0.00     0.006 A 
ATOM     91  C   UNL A   1      32.855  23.674  22.179  1.00  0.00     0.006 A 
ATOM     92  C   UNL A   1      34.557  24.226  24.319  1.00  0.00     0.000 A 
ATOM     93  C   UNL A   1      33.314  22.639  22.994  1.00  0.00     0.000 A 
ATOM     94  C   UNL A   1      34.164  22.915  24.063  1.00  0.00     0.000 A 
ENDBRANCH  88  89
BRANCH  88  95
ATOM     95  O   UNL A   1      33.210  26.018  20.212  1.00  0.00    -0.387 OA
ATOM     96  H   UNL A   1      33.884  26.692  20.031  1.00  0.00     0.211 HD
ENDBRANCH  88  95
ENDBRANCH  87  88
ENDBRANCH  85  87
ENDBRANCH  82  85
ENDBRANCH  79  82
ENDBRANCH   2  77
TORSDOF 16
ENDMDL
MODEL 2
REMARK VINA RESULT:     -12.3      1.176      2.245
REMARK SMILES O=C(NCCCNC(=O)c1sccc1S(=O)(=O)NC[C@H](O)c1ccccc1)c1ccc(-c2c3nc(c(-c4c(F)c(F)c(F)c(F)c4F)c4ccc([nH]4)c(-c4c(F)c(F)c(F)c(F)c4F)c4nc(c(-c5c(F)c(F)c(F)c(F)c5F)c5ccc2[nH]5)C=C4)C=C3)cc1
REMARK SMILES IDX 7 1 8 2 9 3 6 5 5 6 4 7 3 8 1 9 2 10 28 12 29 13 90 14 30 15
REMARK SMILES IDX 89 16 31 17 32 18 33 19 83 20 34 21 88 22 82 23 84 24 35 25
REMARK SMILES IDX 87 26 81 27 80 28 36 30 68 31 48 32 67 33 49 34 52 35 66 36
REMARK SMILES IDX 85 37 50 38 51 39 65 41 86 42 53 43 37 44 38 45 46 46 39 47
REMARK SMILES IDX 40 48 44 49 47 50 41 51 42 52 45 53 43 54 69 55 70 56 78 57
REMARK SMILES IDX 71 58 72 59 76 60 79 61 73 62 74 63 77 64 75 65 54 66 55 67
REMARK SMILES IDX 63 68 56 69 57 70 61 71 64 72 58 73 59 74 62 75 60 76 10 77
REMARK SMILES IDX 11 78 14 79 12 80 13 81 15 82 16 83 17 84 18 85 19 87 20 88
REMARK SMILES IDX 22 89 23 90 27 91 24 92 26 93 25 94 21 95
REMARK H PARENT 7 4 3 11 84 29 52 40 18 86 21 96
REMARK Flexibility Score: inf
ROOT
ATOM      1  N   UNL A   1      32.832  29.899  25.890  1.00  0.00    -0.351 N 
ATOM      2  C   UNL A   1      32.914  28.932  24.927  1.00  0.00     0.262 C 
ATOM      3  O   UNL A   1      34.045  28.624  24.549  1.00  0.00    -0.268 OA
ATOM      4  H   UNL A   1      33.696  30.282  26.166  1.00  0.00     0.163 HD
ENDROOT
BRANCH   1   5
ATOM      5  C   UNL A   1      31.675  30.453  26.568  1.00  0.00     0.118 C 
BRANCH   5   6
ATOM      6  C   UNL A   1      31.635  31.968  26.479  1.00  0.00     0.042 C 
BRANCH   6   7
ATOM      7  C   UNL A   1      32.705  32.663  27.312  1.00  0.00     0.118 C 
BRANCH   7   8
ATOM      8  N   UNL A   1      32.399  34.054  27.629  1.00  0.00    -0.352 N 
ATOM      9  O   UNL A   1      32.496  36.007  28.761  1.00  0.00    -0.269 OA
ATOM     10  C   UNL A   1      32.971  34.896  28.556  1.00  0.00     0.251 C 
ATOM     11  H   UNL A   1      31.672  34.452  27.099  1.00  0.00     0.163 HD
BRANCH  10  12
ATOM     12  C   UNL A   1      34.140  34.433  29.332  1.00  0.00     0.039 A 
ATOM     13  C   UNL A   1      35.425  34.581  28.814  1.00  0.00     0.014 A 
ATOM     14  C   UNL A   1      33.947  33.796  30.560  1.00  0.00     0.014 A 
ATOM     15  C   UNL A   1      36.478  33.893  29.396  1.00  0.00     0.010 A 
ATOM     16  C   UNL A   1      35.037  33.219  31.218  1.00  0.00     0.010 A 
ATOM     17  C   UNL A   1      36.304  33.215  30.614  1.00  0.00    -0.014 A 
BRANCH  17  18
ATOM     18  C   UNL A   1      37.479  32.555  31.237  1.00  0.00     0.031 A 
ATOM     19  C   UNL A   1      37.924  32.898  32.632  1.00  0.00     0.074 A 
ATOM     20  C   UNL A   1      38.110  31.586  30.546  1.00  0.00     0.049 A 
ATOM     21  N   UNL A   1      38.914  32.392  33.328  1.00  0.00    -0.248 NA
ATOM     22  C   UNL A   1      37.174  33.947  33.339  1.00  0.00     0.031 C 
ATOM     23  C   UNL A   1      37.768  31.171  29.182  1.00  0.00     0.029 A 
ATOM     24  N   UNL A   1      39.138  30.751  30.896  1.00  0.00    -0.354 N 
ATOM     25  C   UNL A   1      38.926  33.083  34.533  1.00  0.00     0.074 A 
ATOM     26  C   UNL A   1      37.854  34.055  34.471  1.00  0.00     0.031 C 
ATOM     27  C   UNL A   1      38.515  30.114  28.842  1.00  0.00     0.029 A 
ATOM     28  C   UNL A   1      39.448  29.830  29.926  1.00  0.00     0.049 A 
ATOM     29  H   UNL A   1      39.609  30.806  31.759  1.00  0.00     0.167 HD
ATOM     30  C   UNL A   1      39.754  32.915  35.593  1.00  0.00     0.037 A 
ATOM     31  C   UNL A   1      40.392  28.873  29.899  1.00  0.00     0.037 A 
ATOM     32  C   UNL A   1      40.797  31.923  35.658  1.00  0.00     0.049 A 
ATOM     33  C   UNL A   1      41.299  28.716  31.082  1.00  0.00     0.074 A 
ATOM     34  C   UNL A   1      41.664  31.648  36.702  1.00  0.00     0.029 A 
ATOM     35  N   UNL A   1      41.113  31.040  34.635  1.00  0.00    -0.354 N 
ATOM     36  N   UNL A   1      41.293  29.371  32.217  1.00  0.00    -0.248 NA
ATOM     37  C   UNL A   1      42.352  27.700  30.974  1.00  0.00     0.031 C 
ATOM     38  C   UNL A   1      42.532  30.628  36.294  1.00  0.00     0.029 A 
ATOM     39  C   UNL A   1      42.177  30.235  35.014  1.00  0.00     0.049 A 
ATOM     40  H   UNL A   1      40.650  30.991  33.768  1.00  0.00     0.167 HD
ATOM     41  C   UNL A   1      42.338  28.847  32.962  1.00  0.00     0.074 A 
ATOM     42  C   UNL A   1      42.938  27.799  32.159  1.00  0.00     0.031 C 
ATOM     43  C   UNL A   1      42.766  29.206  34.197  1.00  0.00     0.037 A 
BRANCH  30  44
ATOM     44  C   UNL A   1      39.586  33.842  36.764  1.00  0.00     0.064 A 
ATOM     45  C   UNL A   1      38.814  33.493  37.881  1.00  0.00     0.173 A 
ATOM     46  C   UNL A   1      40.245  35.081  36.785  1.00  0.00     0.173 A 
ATOM     47  F   UNL A   1      38.154  32.324  37.908  1.00  0.00    -0.203 F 
ATOM     48  C   UNL A   1      38.686  34.361  38.964  1.00  0.00     0.198 A 
ATOM     49  C   UNL A   1      40.136  35.935  37.879  1.00  0.00     0.198 A 
ATOM     50  F   UNL A   1      41.002  35.461  35.745  1.00  0.00    -0.203 F 
ATOM     51  F   UNL A   1      37.908  34.025  40.002  1.00  0.00    -0.200 F 
ATOM     52  C   UNL A   1      39.352  35.577  38.965  1.00  0.00     0.200 A 
ATOM     53  F   UNL A   1      40.791  37.105  37.883  1.00  0.00    -0.200 F 
ATOM     54  F   UNL A   1      39.233  36.408  40.010  1.00  0.00    -0.200 F 
ENDBRANCH  30  44
BRANCH  31  55
ATOM     55  C   UNL A   1      40.518  28.005  28.701  1.00  0.00     0.064 A 
ATOM     56  C   UNL A   1      39.836  26.784  28.621  1.00  0.00     0.173 A 
ATOM     57  C   UNL A   1      41.282  28.403  27.593  1.00  0.00     0.173 A 
ATOM     58  F   UNL A   1      39.107  26.355  29.661  1.00  0.00    -0.203 F 
ATOM     59  C   UNL A   1      39.918  25.990  27.479  1.00  0.00     0.198 A 
ATOM     60  C   UNL A   1      41.338  27.623  26.441  1.00  0.00     0.198 A 
ATOM     61  F   UNL A   1      41.946  29.568  27.619  1.00  0.00    -0.203 F 
ATOM     62  F   UNL A   1      39.279  24.813  27.437  1.00  0.00    -0.200 F 
ATOM     63  C   UNL A   1      40.660  26.416  26.386  1.00  0.00     0.200 A 
ATOM     64  F   UNL A   1      42.038  28.049  25.381  1.00  0.00    -0.200 F 
ATOM     65  F   UNL A   1      40.722  25.661  25.281  1.00  0.00    -0.200 F 
ENDBRANCH  31  55
BRANCH  43  66
ATOM     66  C   UNL A   1      43.933  28.447  34.753  1.00  0.00     0.064 A 
ATOM     67  C   UNL A   1      45.248  28.906  34.586  1.00  0.00     0.173 A 
ATOM     68  C   UNL A   1      43.735  27.261  35.473  1.00  0.00     0.173 A 
ATOM     69  F   UNL A   1      45.489  30.026  33.889  1.00  0.00    -0.203 F 
ATOM     70  C   UNL A   1      46.325  28.189  35.100  1.00  0.00     0.198 A 
ATOM     71  C   UNL A   1      44.812  26.561  36.007  1.00  0.00     0.198 A 
ATOM     72  F   UNL A   1      42.495  26.784  35.659  1.00  0.00    -0.203 F 
ATOM     73  F   UNL A   1      47.576  28.619  34.888  1.00  0.00    -0.200 F 
ATOM     74  C   UNL A   1      46.106  27.020  35.814  1.00  0.00     0.200 A 
ATOM     75  F   UNL A   1      44.598  25.436  36.703  1.00  0.00    -0.200 F 
ATOM     76  F   UNL A   1      47.143  26.331  36.307  1.00  0.00    -0.200 F 
ENDBRANCH  43  66
ENDBRANCH  17  18
ENDBRANCH  10  12
ENDBRANCH   7   8
ENDBRANCH   6   7
ENDBRANCH   5   6
ENDBRANCH   1   5
BRANCH   2  77
ATOM     77  C   UNL A   1      31.714  28.328  24.411  1.00  0.00     0.112 A 
ATOM     78  S   UNL A   1      31.093  28.976  22.944  1.00  0.00    -0.137 S 
ATOM     79  C   UNL A   1      30.891  27.337  24.912  1.00  0.00     0.106 A 
ATOM     80  C   UNL A   1      29.769  27.901  22.944  1.00  0.00     0.067 A 
ATOM     81  C   UNL A   1      29.780  27.076  24.045  1.00  0.00     0.034 A 
BRANCH  79  82
ATOM     82  S   UNL A   1      31.098  26.444  26.376  1.00  0.00     0.242 S 
ATOM     83  O   UNL A   1      31.190  27.438  27.412  1.00  0.00    -0.207 OA
ATOM     84  O   UNL A   1      29.992  25.505  26.339  1.00  0.00    -0.207 OA
BRANCH  82  85
ATOM     85  N   UNL A   1      32.478  25.497  26.419  1.00  0.00    -0.208 NA
ATOM     86  H   UNL A   1      32.344  24.813  27.165  1.00  0.00     0.141 HD
BRANCH  85  87
ATOM     87  C   UNL A   1      32.893  24.738  25.214  1.00  0.00     0.135 C 
BRANCH  87  88
ATOM     88  C   UNL A   1      34.180  25.291  24.573  1.00  0.00     0.159 C 
BRANCH  88  89
ATOM     89  C   UNL A   1      35.276  24.246  24.560  1.00  0.00    -0.018 A 
ATOM     90  C   UNL A   1      35.985  23.972  25.743  1.00  0.00     0.006 A 
ATOM     91  C   UNL A   1      35.582  23.506  23.408  1.00  0.00     0.006 A 
ATOM     92  C   UNL A   1      36.978  22.993  25.768  1.00  0.00     0.000 A 
ATOM     93  C   UNL A   1      36.583  22.535  23.433  1.00  0.00     0.000 A 
ATOM     94  C   UNL A   1      37.280  22.279  24.611  1.00  0.00     0.000 A 
ENDBRANCH  88  89
BRANCH  88  95
ATOM     95  O   UNL A   1      33.870  25.725  23.248  1.00  0.00    -0.387 OA
ATOM     96  H   UNL A   1      34.285  25.127  22.607  1.00  0.00     0.211 HD
ENDBRANCH  88  95
ENDBRANCH  87  88
ENDBRANCH  85  87
ENDBRANCH  82  85
ENDBRANCH  79  82
ENDBRANCH   2  77
TORSDOF 16
ENDMDL
MODEL 3
REMARK VINA RESULT:     -12.3      0.441      7.373
REMARK SMILES O=C(NCCCNC(=O)c1sccc1S(=O)(=O)NC[C@H](O)c1ccccc1)c1ccc(-c2c3nc(c(-c4c(F)c(F)c(F)c(F)c4F)c4ccc([nH]4)c(-c4c(F)c(F)c(F)c(F)c4F)c4nc(c(-c5c(F)c(F)c(F)c(F)c5F)c5ccc2[nH]5)C=C4)C=C3)cc1
REMARK SMILES IDX 7 1 8 2 9 3 6 5 5 6 4 7 3 8 1 9 2 10 28 12 29 13 90 14 30 15
REMARK SMILES IDX 89 16 31 17 32 18 33 19 83 20 34 21 88 22 82 23 84 24 35 25
REMARK SMILES IDX 87 26 81 27 80 28 36 30 68 31 48 32 67 33 49 34 52 35 66 36
REMARK SMILES IDX 85 37 50 38 51 39 65 41 86 42 53 43 37 44 38 45 46 46 39 47
REMARK SMILES IDX 40 48 44 49 47 50 41 51 42 52 45 53 43 54 69 55 70 56 78 57
REMARK SMILES IDX 71 58 72 59 76 60 79 61 73 62 74 63 77 64 75 65 54 66 55 67
REMARK SMILES IDX 63 68 56 69 57 70 61 71 64 72 58 73 59 74 62 75 60 76 10 77
REMARK SMILES IDX 11 78 14 79 12 80 13 81 15 82 16 83 17 84 18 85 19 87 20 88
REMARK SMILES IDX 22 89 23 90 27 91 24 92 26 93 25 94 21 95
REMARK H PARENT 7 4 3 11 84 29 52 40 18 86 21 96
REMARK Flexibility Score: inf
ROOT
ATOM      1  N   UNL A   1      32.676  30.235  25.455  1.00  0.00    -0.351 N 
ATOM      2  C   UNL A   1      32.893  29.011  24.887  1.00  0.00     0.262 C 
ATOM      3  O   UNL A   1      33.786  28.946  24.041  1.00  0.00    -0.268 OA
ATOM      4  H   UNL A   1      33.240  30.960  25.104  1.00  0.00     0.163 HD
ENDROOT
BRANCH   1   5
ATOM      5  C   UNL A   1      31.744  30.635  26.493  1.00  0.00     0.118 C 
BRANCH   5   6
ATOM      6  C   UNL A   1      31.584  32.144  26.563  1.00  0.00     0.042 C 
BRANCH   6   7
ATOM      7  C   UNL A   1      32.724  32.851  27.284  1.00  0.00     0.118 C 
BRANCH   7   8
ATOM      8  N   UNL A   1      32.433  34.236  27.638  1.00  0.00    -0.352 N 
ATOM      9  O   UNL A   1      32.515  36.144  28.847  1.00  0.00    -0.269 OA
ATOM     10  C   UNL A   1      32.976  35.030  28.623  1.00  0.00     0.251 C 
ATOM     11  H   UNL A   1      31.742  34.671  27.088  1.00  0.00     0.163 HD
BRANCH  10  12
ATOM     12  C   UNL A   1      34.094  34.512  29.438  1.00  0.00     0.039 A 
ATOM     13  C   UNL A   1      35.402  34.605  28.968  1.00  0.00     0.014 A 
ATOM     14  C   UNL A   1      33.827  33.879  30.655  1.00  0.00     0.014 A 
ATOM     15  C   UNL A   1      36.401  33.868  29.584  1.00  0.00     0.010 A 
ATOM     16  C   UNL A   1      34.866  33.250  31.348  1.00  0.00     0.010 A 
ATOM     17  C   UNL A   1      36.152  33.192  30.790  1.00  0.00    -0.014 A 
BRANCH  17  18
ATOM     18  C   UNL A   1      37.274  32.477  31.452  1.00  0.00     0.031 A 
ATOM     19  C   UNL A   1      38.055  31.410  30.737  1.00  0.00     0.074 A 
ATOM     20  C   UNL A   1      37.622  32.850  32.699  1.00  0.00     0.049 A 
ATOM     21  N   UNL A   1      39.079  30.712  31.167  1.00  0.00    -0.248 NA
ATOM     22  C   UNL A   1      37.635  31.070  29.370  1.00  0.00     0.031 C 
ATOM     23  C   UNL A   1      36.934  33.873  33.491  1.00  0.00     0.029 A 
ATOM     24  N   UNL A   1      38.656  32.450  33.504  1.00  0.00    -0.354 N 
ATOM     25  C   UNL A   1      39.399  29.832  30.141  1.00  0.00     0.074 A 
ATOM     26  C   UNL A   1      38.454  30.072  29.071  1.00  0.00     0.031 C 
ATOM     27  C   UNL A   1      37.606  34.073  34.632  1.00  0.00     0.029 A 
ATOM     28  C   UNL A   1      38.721  33.136  34.691  1.00  0.00     0.049 A 
ATOM     29  H   UNL A   1      39.290  31.738  33.256  1.00  0.00     0.167 HD
ATOM     30  C   UNL A   1      40.395  28.914  30.098  1.00  0.00     0.037 A 
ATOM     31  C   UNL A   1      39.571  33.015  35.726  1.00  0.00     0.037 A 
ATOM     32  C   UNL A   1      41.352  28.705  31.156  1.00  0.00     0.049 A 
ATOM     33  C   UNL A   1      40.657  31.985  35.654  1.00  0.00     0.074 A 
ATOM     34  C   UNL A   1      42.421  27.826  31.193  1.00  0.00     0.029 A 
ATOM     35  N   UNL A   1      41.355  29.386  32.365  1.00  0.00    -0.354 N 
ATOM     36  N   UNL A   1      40.953  31.166  34.675  1.00  0.00    -0.248 NA
ATOM     37  C   UNL A   1      41.516  31.851  36.836  1.00  0.00     0.031 C 
ATOM     38  C   UNL A   1      43.044  27.945  32.441  1.00  0.00     0.029 A 
ATOM     39  C   UNL A   1      42.393  28.931  33.164  1.00  0.00     0.049 A 
ATOM     40  H   UNL A   1      40.715  30.090  32.618  1.00  0.00     0.167 HD
ATOM     41  C   UNL A   1      42.033  30.420  35.118  1.00  0.00     0.074 A 
ATOM     42  C   UNL A   1      42.358  30.905  36.445  1.00  0.00     0.031 C 
ATOM     43  C   UNL A   1      42.693  29.419  34.486  1.00  0.00     0.037 A 
BRANCH  30  44
ATOM     44  C   UNL A   1      40.490  28.042  28.878  1.00  0.00     0.064 A 
ATOM     45  C   UNL A   1      39.795  26.828  28.778  1.00  0.00     0.173 A 
ATOM     46  C   UNL A   1      41.255  28.451  27.775  1.00  0.00     0.173 A 
ATOM     47  F   UNL A   1      39.057  26.385  29.808  1.00  0.00    -0.203 F 
ATOM     48  C   UNL A   1      39.883  26.044  27.630  1.00  0.00     0.198 A 
ATOM     49  C   UNL A   1      41.321  27.677  26.619  1.00  0.00     0.198 A 
ATOM     50  F   UNL A   1      41.934  29.607  27.814  1.00  0.00    -0.203 F 
ATOM     51  F   UNL A   1      39.245  24.866  27.573  1.00  0.00    -0.200 F 
ATOM     52  C   UNL A   1      40.640  26.472  26.549  1.00  0.00     0.200 A 
ATOM     53  F   UNL A   1      42.044  28.099  25.571  1.00  0.00    -0.200 F 
ATOM     54  F   UNL A   1      40.720  25.718  25.444  1.00  0.00    -0.200 F 
ENDBRANCH  30  44
BRANCH  31  55
ATOM     55  C   UNL A   1      39.408  33.894  36.911  1.00  0.00     0.064 A 
ATOM     56  C   UNL A   1      38.693  33.461  38.035  1.00  0.00     0.173 A 
ATOM     57  C   UNL A   1      40.003  35.163  36.962  1.00  0.00     0.173 A 
ATOM     58  F   UNL A   1      38.093  32.262  38.027  1.00  0.00    -0.203 F 
ATOM     59  C   UNL A   1      38.577  34.268  39.165  1.00  0.00     0.198 A 
ATOM     60  C   UNL A   1      39.912  35.955  38.103  1.00  0.00     0.198 A 
ATOM     61  F   UNL A   1      40.705  35.618  35.914  1.00  0.00    -0.203 F 
ATOM     62  F   UNL A   1      37.866  33.842  40.219  1.00  0.00    -0.200 F 
ATOM     63  C   UNL A   1      39.196  35.509  39.203  1.00  0.00     0.200 A 
ATOM     64  F   UNL A   1      40.530  37.144  38.142  1.00  0.00    -0.200 F 
ATOM     65  F   UNL A   1      39.100  36.275  40.298  1.00  0.00    -0.200 F 
ENDBRANCH  31  55
BRANCH  43  66
ATOM     66  C   UNL A   1      43.837  28.793  35.224  1.00  0.00     0.064 A 
ATOM     67  C   UNL A   1      45.141  29.298  35.111  1.00  0.00     0.173 A 
ATOM     68  C   UNL A   1      43.626  27.691  36.064  1.00  0.00     0.173 A 
ATOM     69  F   UNL A   1      45.396  30.339  34.305  1.00  0.00    -0.203 F 
ATOM     70  C   UNL A   1      46.198  28.703  35.795  1.00  0.00     0.198 A 
ATOM     71  C   UNL A   1      44.681  27.116  36.766  1.00  0.00     0.198 A 
ATOM     72  F   UNL A   1      42.396  27.175  36.205  1.00  0.00    -0.203 F 
ATOM     73  F   UNL A   1      47.444  29.170  35.636  1.00  0.00    -0.200 F 
ATOM     74  C   UNL A   1      45.966  27.617  36.626  1.00  0.00     0.200 A 
ATOM     75  F   UNL A   1      44.454  26.071  37.575  1.00  0.00    -0.200 F 
ATOM     76  F   UNL A   1      46.984  27.046  37.283  1.00  0.00    -0.200 F 
ENDBRANCH  43  66
ENDBRANCH  17  18
ENDBRANCH  10  12
ENDBRANCH   7   8
ENDBRANCH   6   7
ENDBRANCH   5   6
ENDBRANCH   1   5
BRANCH   2  77
ATOM     77  C   UNL A   1      32.098  27.880  25.289  1.00  0.00     0.112 A 
ATOM     78  S   UNL A   1      32.707  26.933  26.588  1.00  0.00    -0.137 S 
ATOM     79  C   UNL A   1      30.933  27.343  24.776  1.00  0.00     0.106 A 
ATOM     80  C   UNL A   1      31.392  25.848  26.510  1.00  0.00     0.067 A 
ATOM     81  C   UNL A   1      30.515  26.181  25.504  1.00  0.00     0.034 A 
BRANCH  79  82
ATOM     82  S   UNL A   1      30.002  27.935  23.446  1.00  0.00     0.242 S 
ATOM     83  O   UNL A   1      28.728  27.276  23.558  1.00  0.00    -0.207 OA
ATOM     84  O   UNL A   1      30.113  29.374  23.591  1.00  0.00    -0.207 OA
BRANCH  82  85
ATOM     85  N   UNL A   1      30.651  27.592  21.942  1.00  0.00    -0.208 NA
ATOM     86  H   UNL A   1      31.400  28.268  21.783  1.00  0.00     0.141 HD
BRANCH  85  87
ATOM     87  C   UNL A   1      31.222  26.250  21.670  1.00  0.00     0.135 C 
BRANCH  87  88
ATOM     88  C   UNL A   1      32.761  26.234  21.720  1.00  0.00     0.159 C 
BRANCH  88  89
ATOM     89  C   UNL A   1      33.269  25.049  22.515  1.00  0.00    -0.018 A 
ATOM     90  C   UNL A   1      34.084  25.269  23.639  1.00  0.00     0.006 A 
ATOM     91  C   UNL A   1      32.917  23.731  22.189  1.00  0.00     0.006 A 
ATOM     92  C   UNL A   1      34.541  24.200  24.408  1.00  0.00     0.000 A 
ATOM     93  C   UNL A   1      33.385  22.662  22.953  1.00  0.00     0.000 A 
ATOM     94  C   UNL A   1      34.196  22.896  24.062  1.00  0.00     0.000 A 
ENDBRANCH  88  89
BRANCH  88  95
ATOM     95  O   UNL A   1      33.253  26.200  20.379  1.00  0.00    -0.387 OA
ATOM     96  H   UNL A   1      33.987  25.568  20.320  1.00  0.00     0.211 HD
ENDBRANCH  88  95
ENDBRANCH  87  88
ENDBRANCH  85  87
ENDBRANCH  82  85
ENDBRANCH  79  82
ENDBRANCH   2  77
TORSDOF 16
ENDMDL
