MODEL 1
REMARK VINA RESULT:     -10.8      0.000      0.000
REMARK SMILES CC[C@@H](C)CN(C)C(=O)N1CCC(CC(=O)NCCCNC(=O)c2ccc(-c3c4nc(c(-c5c(F)c(F)c(F)c(F)c5F)c5ccc([nH]5)c(-c5c(F)c(F)c(F)c(F)c5F)c5nc(c(-c6c(F)c(F)c(F)c(F)c6F)c6ccc3[nH]6)C=C5)C=C4)cc2)CC1
REMARK SMILES IDX 15 1 16 2 17 3 14 5 13 6 8 7 9 8 10 9 11 10 88 11 12 12
REMARK SMILES IDX 87 13 6 14 7 15 5 16 3 17 4 18 2 19 1 20 18 21 19 22 20 23
REMARK SMILES IDX 21 24 22 25 23 27 24 28 25 29 86 30 26 31 85 32 27 33 28 34
REMARK SMILES IDX 29 35 79 36 30 37 84 38 78 39 80 40 31 41 83 42 77 43 76 44
REMARK SMILES IDX 32 46 64 47 44 48 63 49 45 50 48 51 62 52 81 53 46 54 47 55
REMARK SMILES IDX 61 57 82 58 49 59 33 60 34 61 42 62 35 63 36 64 40 65 43 66
REMARK SMILES IDX 37 67 38 68 41 69 39 70 65 71 66 72 74 73 67 74 68 75 72 76
REMARK SMILES IDX 75 77 69 78 70 79 73 80 71 81 50 82 51 83 59 84 52 85 53 86
REMARK SMILES IDX 57 87 60 88 54 89 55 90 58 91 56 92
REMARK H PARENT 17 4 21 26 80 45 48 56
REMARK Flexibility Score: inf
ROOT
ATOM      1  C   UNL A   1      30.551  28.248  23.133  1.00  0.00     0.220 C 
ATOM      2  O   UNL A   1      30.188  28.221  21.956  1.00  0.00    -0.275 OA
ATOM      3  N   UNL A   1      31.455  29.198  23.502  1.00  0.00    -0.356 N 
ATOM      4  H   UNL A   1      31.722  29.809  22.778  1.00  0.00     0.163 HD
ENDROOT
BRANCH   1   5
ATOM      5  C   UNL A   1      30.020  27.237  24.131  1.00  0.00     0.103 C 
BRANCH   5   6
ATOM      6  C   UNL A   1      30.591  25.824  23.914  1.00  0.00     0.002 C 
ATOM      7  C   UNL A   1      33.494  24.136  25.744  1.00  0.00     0.319 C 
ATOM      8  O   UNL A   1      33.684  25.281  26.148  1.00  0.00    -0.248 OA
ATOM      9  N   UNL A   1      32.577  23.860  24.741  1.00  0.00    -0.325 N 
ATOM     10  C   UNL A   1      32.755  24.536  23.474  1.00  0.00     0.121 C 
ATOM     11  C   UNL A   1      31.192  23.659  25.127  1.00  0.00     0.121 C 
ATOM     12  C   UNL A   1      32.056  25.887  23.463  1.00  0.00     0.026 C 
ATOM     13  C   UNL A   1      30.446  24.993  25.206  1.00  0.00     0.026 C 
BRANCH   7  14
ATOM     14  N   UNL A   1      34.197  23.031  26.197  1.00  0.00    -0.327 N 
ATOM     15  C   UNL A   1      34.002  22.467  27.523  1.00  0.00     0.148 C 
BRANCH  14  16
ATOM     16  C   UNL A   1      35.150  22.368  25.309  1.00  0.00     0.124 C 
BRANCH  16  17
ATOM     17  C   UNL A   1      36.192  23.344  24.708  1.00  0.00     0.005 C 
ATOM     18  C   UNL A   1      36.704  22.781  23.379  1.00  0.00     0.009 C 
BRANCH  17  19
ATOM     19  C   UNL A   1      37.341  23.608  25.703  1.00  0.00     0.002 C 
ATOM     20  C   UNL A   1      38.322  22.456  25.865  1.00  0.00     0.004 C 
ENDBRANCH  17  19
ENDBRANCH  16  17
ENDBRANCH  14  16
ENDBRANCH   7  14
ENDBRANCH   5   6
ENDBRANCH   1   5
BRANCH   3  21
ATOM     21  C   UNL A   1      32.099  29.468  24.782  1.00  0.00     0.117 C 
BRANCH  21  22
ATOM     22  C   UNL A   1      33.429  28.729  24.940  1.00  0.00     0.042 C 
BRANCH  22  23
ATOM     23  C   UNL A   1      33.985  28.733  26.360  1.00  0.00     0.118 C 
BRANCH  23  24
ATOM     24  N   UNL A   1      33.829  30.027  27.000  1.00  0.00    -0.352 N 
ATOM     25  C   UNL A   1      34.623  30.653  27.932  1.00  0.00     0.251 C 
ATOM     26  H   UNL A   1      33.033  30.535  26.724  1.00  0.00     0.163 HD
ATOM     27  O   UNL A   1      34.188  31.638  28.522  1.00  0.00    -0.269 OA
BRANCH  25  28
ATOM     28  C   UNL A   1      35.990  30.165  28.243  1.00  0.00     0.039 A 
ATOM     29  C   UNL A   1      36.211  29.539  29.476  1.00  0.00     0.014 A 
ATOM     30  C   UNL A   1      37.071  30.391  27.386  1.00  0.00     0.014 A 
ATOM     31  C   UNL A   1      37.496  29.115  29.831  1.00  0.00     0.010 A 
ATOM     32  C   UNL A   1      38.339  29.903  27.708  1.00  0.00     0.010 A 
ATOM     33  C   UNL A   1      38.571  29.279  28.943  1.00  0.00    -0.014 A 
BRANCH  33  34
ATOM     34  C   UNL A   1      39.947  28.849  29.311  1.00  0.00     0.031 A 
ATOM     35  C   UNL A   1      40.802  29.725  30.190  1.00  0.00     0.074 A 
ATOM     36  C   UNL A   1      40.450  27.698  28.827  1.00  0.00     0.049 A 
ATOM     37  N   UNL A   1      42.046  29.560  30.570  1.00  0.00    -0.248 NA
ATOM     38  C   UNL A   1      40.185  30.961  30.691  1.00  0.00     0.031 C 
ATOM     39  C   UNL A   1      39.743  26.772  27.943  1.00  0.00     0.029 A 
ATOM     40  N   UNL A   1      41.680  27.113  29.006  1.00  0.00    -0.354 N 
ATOM     41  C   UNL A   1      42.363  30.679  31.328  1.00  0.00     0.074 A 
ATOM     42  C   UNL A   1      41.198  31.537  31.321  1.00  0.00     0.031 C 
ATOM     43  C   UNL A   1      40.539  25.725  27.677  1.00  0.00     0.029 A 
ATOM     44  C   UNL A   1      41.825  25.920  28.342  1.00  0.00     0.049 A 
ATOM     45  H   UNL A   1      42.390  27.512  29.558  1.00  0.00     0.167 HD
ATOM     46  C   UNL A   1      43.513  30.960  31.988  1.00  0.00     0.037 A 
ATOM     47  C   UNL A   1      42.875  25.080  28.276  1.00  0.00     0.037 A 
ATOM     48  C   UNL A   1      44.658  30.090  32.034  1.00  0.00     0.049 A 
ATOM     49  C   UNL A   1      44.140  25.411  29.021  1.00  0.00     0.074 A 
ATOM     50  C   UNL A   1      45.842  30.257  32.731  1.00  0.00     0.029 A 
ATOM     51  N   UNL A   1      44.760  28.885  31.357  1.00  0.00    -0.354 N 
ATOM     52  N   UNL A   1      44.407  26.447  29.777  1.00  0.00    -0.248 NA
ATOM     53  C   UNL A   1      45.247  24.452  28.904  1.00  0.00     0.031 C 
ATOM     54  C   UNL A   1      46.675  29.169  32.448  1.00  0.00     0.029 A 
ATOM     55  C   UNL A   1      45.994  28.305  31.605  1.00  0.00     0.049 A 
ATOM     56  H   UNL A   1      44.060  28.497  30.783  1.00  0.00     0.167 HD
ATOM     57  C   UNL A   1      45.698  26.253  30.248  1.00  0.00     0.074 A 
ATOM     58  C   UNL A   1      46.159  24.994  29.700  1.00  0.00     0.031 C 
ATOM     59  C   UNL A   1      46.435  27.047  31.061  1.00  0.00     0.037 A 
BRANCH  46  60
ATOM     60  C   UNL A   1      43.587  32.266  32.722  1.00  0.00     0.064 A 
ATOM     61  C   UNL A   1      43.173  32.383  34.058  1.00  0.00     0.173 A 
ATOM     62  C   UNL A   1      44.103  33.409  32.093  1.00  0.00     0.173 A 
ATOM     63  F   UNL A   1      42.662  31.323  34.702  1.00  0.00    -0.203 F 
ATOM     64  C   UNL A   1      43.245  33.604  34.726  1.00  0.00     0.198 A 
ATOM     65  C   UNL A   1      44.199  34.620  32.772  1.00  0.00     0.198 A 
ATOM     66  F   UNL A   1      44.520  33.349  30.819  1.00  0.00    -0.203 F 
ATOM     67  F   UNL A   1      42.799  33.703  35.986  1.00  0.00    -0.200 F 
ATOM     68  C   UNL A   1      43.763  34.718  34.084  1.00  0.00     0.200 A 
ATOM     69  F   UNL A   1      44.710  35.695  32.155  1.00  0.00    -0.200 F 
ATOM     70  F   UNL A   1      43.834  35.891  34.729  1.00  0.00    -0.200 F 
ENDBRANCH  46  60
BRANCH  47  71
ATOM     71  C   UNL A   1      42.766  23.821  27.495  1.00  0.00     0.064 A 
ATOM     72  C   UNL A   1      43.093  23.796  26.131  1.00  0.00     0.173 A 
ATOM     73  C   UNL A   1      42.336  22.626  28.087  1.00  0.00     0.173 A 
ATOM     74  F   UNL A   1      43.486  24.921  25.517  1.00  0.00    -0.203 F 
ATOM     75  C   UNL A   1      42.980  22.624  25.387  1.00  0.00     0.198 A 
ATOM     76  C   UNL A   1      42.246  21.449  27.347  1.00  0.00     0.198 A 
ATOM     77  F   UNL A   1      42.013  22.600  29.388  1.00  0.00    -0.203 F 
ATOM     78  F   UNL A   1      43.262  22.636  24.077  1.00  0.00    -0.200 F 
ATOM     79  C   UNL A   1      42.562  21.451  25.996  1.00  0.00     0.200 A 
ATOM     80  F   UNL A   1      41.852  20.315  27.940  1.00  0.00    -0.200 F 
ATOM     81  F   UNL A   1      42.457  20.323  25.280  1.00  0.00    -0.200 F 
ENDBRANCH  47  71
BRANCH  59  82
ATOM     82  C   UNL A   1      47.804  26.564  31.438  1.00  0.00     0.064 A 
ATOM     83  C   UNL A   1      48.936  26.908  30.687  1.00  0.00     0.173 A 
ATOM     84  C   UNL A   1      47.989  25.779  32.586  1.00  0.00     0.173 A 
ATOM     85  F   UNL A   1      48.808  27.643  29.571  1.00  0.00    -0.203 F 
ATOM     86  C   UNL A   1      50.203  26.467  31.060  1.00  0.00     0.198 A 
ATOM     87  C   UNL A   1      49.260  25.360  32.970  1.00  0.00     0.198 A 
ATOM     88  F   UNL A   1      46.937  25.427  33.340  1.00  0.00    -0.203 F 
ATOM     89  F   UNL A   1      51.267  26.774  30.305  1.00  0.00    -0.200 F 
ATOM     90  C   UNL A   1      50.364  25.700  32.204  1.00  0.00     0.200 A 
ATOM     91  F   UNL A   1      49.415  24.625  34.080  1.00  0.00    -0.200 F 
ATOM     92  F   UNL A   1      51.586  25.280  32.564  1.00  0.00    -0.200 F 
ENDBRANCH  59  82
ENDBRANCH  33  34
ENDBRANCH  25  28
ENDBRANCH  23  24
ENDBRANCH  22  23
ENDBRANCH  21  22
ENDBRANCH   3  21
TORSDOF 15
ENDMDL
MODEL 2
REMARK VINA RESULT:     -10.7      3.710      7.911
REMARK SMILES CC[C@@H](C)CN(C)C(=O)N1CCC(CC(=O)NCCCNC(=O)c2ccc(-c3c4nc(c(-c5c(F)c(F)c(F)c(F)c5F)c5ccc([nH]5)c(-c5c(F)c(F)c(F)c(F)c5F)c5nc(c(-c6c(F)c(F)c(F)c(F)c6F)c6ccc3[nH]6)C=C5)C=C4)cc2)CC1
REMARK SMILES IDX 15 1 16 2 17 3 14 5 13 6 8 7 9 8 10 9 11 10 88 11 12 12
REMARK SMILES IDX 87 13 6 14 7 15 5 16 3 17 4 18 2 19 1 20 18 21 19 22 20 23
REMARK SMILES IDX 21 24 22 25 23 27 24 28 25 29 86 30 26 31 85 32 27 33 28 34
REMARK SMILES IDX 29 35 79 36 30 37 84 38 78 39 80 40 31 41 83 42 77 43 76 44
REMARK SMILES IDX 32 46 64 47 44 48 63 49 45 50 48 51 62 52 81 53 46 54 47 55
REMARK SMILES IDX 61 57 82 58 49 59 33 60 34 61 42 62 35 63 36 64 40 65 43 66
REMARK SMILES IDX 37 67 38 68 41 69 39 70 65 71 66 72 74 73 67 74 68 75 72 76
REMARK SMILES IDX 75 77 69 78 70 79 73 80 71 81 50 82 51 83 59 84 52 85 53 86
REMARK SMILES IDX 57 87 60 88 54 89 55 90 58 91 56 92
REMARK H PARENT 17 4 21 26 80 45 48 56
REMARK Flexibility Score: inf
ROOT
ATOM      1  C   UNL A   1      34.028  19.852  24.626  1.00  0.00     0.220 C 
ATOM      2  O   UNL A   1      33.162  18.994  24.803  1.00  0.00    -0.275 OA
ATOM      3  N   UNL A   1      35.299  19.570  25.029  1.00  0.00    -0.356 N 
ATOM      4  H   UNL A   1      35.415  18.669  25.409  1.00  0.00     0.163 HD
ENDROOT
BRANCH   1   5
ATOM      5  C   UNL A   1      33.680  21.189  24.002  1.00  0.00     0.103 C 
BRANCH   5   6
ATOM      6  C   UNL A   1      33.025  22.164  24.997  1.00  0.00     0.002 C 
ATOM      7  C   UNL A   1      32.092  25.832  24.453  1.00  0.00     0.319 C 
ATOM      8  O   UNL A   1      32.784  25.684  23.448  1.00  0.00    -0.248 OA
ATOM      9  N   UNL A   1      32.031  24.866  25.444  1.00  0.00    -0.325 N 
ATOM     10  C   UNL A   1      33.277  24.473  26.067  1.00  0.00     0.121 C 
ATOM     11  C   UNL A   1      31.073  23.786  25.279  1.00  0.00     0.121 C 
ATOM     12  C   UNL A   1      33.953  23.349  25.295  1.00  0.00     0.026 C 
ATOM     13  C   UNL A   1      31.669  22.649  24.445  1.00  0.00     0.026 C 
BRANCH   7  14
ATOM     14  N   UNL A   1      31.358  26.977  24.722  1.00  0.00    -0.327 N 
ATOM     15  C   UNL A   1      30.274  27.433  23.867  1.00  0.00     0.148 C 
BRANCH  14  16
ATOM     16  C   UNL A   1      31.644  27.750  25.929  1.00  0.00     0.124 C 
BRANCH  16  17
ATOM     17  C   UNL A   1      32.795  28.768  25.733  1.00  0.00     0.005 C 
ATOM     18  C   UNL A   1      34.027  28.292  26.509  1.00  0.00     0.009 C 
BRANCH  17  19
ATOM     19  C   UNL A   1      32.359  30.186  26.158  1.00  0.00     0.002 C 
ATOM     20  C   UNL A   1      33.212  30.815  27.250  1.00  0.00     0.004 C 
ENDBRANCH  17  19
ENDBRANCH  16  17
ENDBRANCH  14  16
ENDBRANCH   7  14
ENDBRANCH   5   6
ENDBRANCH   1   5
BRANCH   3  21
ATOM     21  C   UNL A   1      36.518  20.368  24.995  1.00  0.00     0.117 C 
BRANCH  21  22
ATOM     22  C   UNL A   1      37.785  19.510  25.001  1.00  0.00     0.042 C 
BRANCH  22  23
ATOM     23  C   UNL A   1      38.970  20.145  25.719  1.00  0.00     0.118 C 
BRANCH  23  24
ATOM     24  N   UNL A   1      40.032  19.186  25.966  1.00  0.00    -0.352 N 
ATOM     25  C   UNL A   1      41.380  19.388  26.151  1.00  0.00     0.251 C 
ATOM     26  H   UNL A   1      39.743  18.246  26.006  1.00  0.00     0.163 HD
ATOM     27  O   UNL A   1      42.140  18.425  26.106  1.00  0.00    -0.269 OA
BRANCH  25  28
ATOM     28  C   UNL A   1      41.936  20.741  26.402  1.00  0.00     0.039 A 
ATOM     29  C   UNL A   1      42.196  21.122  27.724  1.00  0.00     0.014 A 
ATOM     30  C   UNL A   1      42.124  21.667  25.372  1.00  0.00     0.014 A 
ATOM     31  C   UNL A   1      42.668  22.409  28.007  1.00  0.00     0.010 A 
ATOM     32  C   UNL A   1      42.664  22.925  25.647  1.00  0.00     0.010 A 
ATOM     33  C   UNL A   1      42.922  23.318  26.969  1.00  0.00    -0.014 A 
BRANCH  33  34
ATOM     34  C   UNL A   1      43.409  24.696  27.252  1.00  0.00     0.031 A 
ATOM     35  C   UNL A   1      42.462  25.734  27.795  1.00  0.00     0.074 A 
ATOM     36  C   UNL A   1      44.685  25.032  26.986  1.00  0.00     0.049 A 
ATOM     37  N   UNL A   1      42.675  27.003  28.046  1.00  0.00    -0.248 NA
ATOM     38  C   UNL A   1      41.087  25.294  28.072  1.00  0.00     0.031 C 
ATOM     39  C   UNL A   1      45.697  24.134  26.431  1.00  0.00     0.029 A 
ATOM     40  N   UNL A   1      45.347  26.225  27.141  1.00  0.00    -0.354 N 
ATOM     41  C   UNL A   1      41.460  27.513  28.483  1.00  0.00     0.074 A 
ATOM     42  C   UNL A   1      40.502  26.429  28.424  1.00  0.00     0.031 C 
ATOM     43  C   UNL A   1      46.858  24.800  26.315  1.00  0.00     0.029 A 
ATOM     44  C   UNL A   1      46.664  26.179  26.754  1.00  0.00     0.049 A 
ATOM     45  H   UNL A   1      44.918  27.037  27.495  1.00  0.00     0.167 HD
ATOM     46  C   UNL A   1      41.169  28.764  28.914  1.00  0.00     0.037 A 
ATOM     47  C   UNL A   1      47.607  27.140  26.752  1.00  0.00     0.037 A 
ATOM     48  C   UNL A   1      42.128  29.833  29.016  1.00  0.00     0.049 A 
ATOM     49  C   UNL A   1      47.262  28.521  27.240  1.00  0.00     0.074 A 
ATOM     50  C   UNL A   1      41.943  31.115  29.505  1.00  0.00     0.029 A 
ATOM     51  N   UNL A   1      43.454  29.742  28.625  1.00  0.00    -0.354 N 
ATOM     52  N   UNL A   1      46.123  28.975  27.700  1.00  0.00    -0.248 NA
ATOM     53  C   UNL A   1      48.338  29.522  27.210  1.00  0.00     0.031 C 
ATOM     54  C   UNL A   1      43.151  31.810  29.377  1.00  0.00     0.029 A 
ATOM     55  C   UNL A   1      44.097  30.950  28.845  1.00  0.00     0.049 A 
ATOM     56  H   UNL A   1      43.879  28.938  28.246  1.00  0.00     0.167 HD
ATOM     57  C   UNL A   1      46.350  30.302  28.040  1.00  0.00     0.074 A 
ATOM     58  C   UNL A   1      47.739  30.578  27.742  1.00  0.00     0.031 C 
ATOM     59  C   UNL A   1      45.483  31.208  28.553  1.00  0.00     0.037 A 
BRANCH  46  60
ATOM     60  C   UNL A   1      39.751  29.046  29.316  1.00  0.00     0.064 A 
ATOM     61  C   UNL A   1      39.314  28.876  30.638  1.00  0.00     0.173 A 
ATOM     62  C   UNL A   1      38.824  29.517  28.373  1.00  0.00     0.173 A 
ATOM     63  F   UNL A   1      40.158  28.418  31.575  1.00  0.00    -0.203 F 
ATOM     64  C   UNL A   1      37.993  29.138  30.995  1.00  0.00     0.198 A 
ATOM     65  C   UNL A   1      37.512  29.804  28.740  1.00  0.00     0.198 A 
ATOM     66  F   UNL A   1      39.193  29.703  27.097  1.00  0.00    -0.203 F 
ATOM     67  F   UNL A   1      37.586  28.922  32.253  1.00  0.00    -0.200 F 
ATOM     68  C   UNL A   1      37.096  29.606  30.047  1.00  0.00     0.200 A 
ATOM     69  F   UNL A   1      36.648  30.267  27.826  1.00  0.00    -0.200 F 
ATOM     70  F   UNL A   1      35.826  29.862  30.393  1.00  0.00    -0.200 F 
ENDBRANCH  46  60
BRANCH  47  71
ATOM     71  C   UNL A   1      48.986  26.822  26.300  1.00  0.00     0.064 A 
ATOM     72  C   UNL A   1      49.358  27.007  24.960  1.00  0.00     0.173 A 
ATOM     73  C   UNL A   1      49.953  26.329  27.186  1.00  0.00     0.173 A 
ATOM     74  F   UNL A   1      48.459  27.454  24.072  1.00  0.00    -0.203 F 
ATOM     75  C   UNL A   1      50.644  26.697  24.523  1.00  0.00     0.198 A 
ATOM     76  C   UNL A   1      51.245  26.042  26.752  1.00  0.00     0.198 A 
ATOM     77  F   UNL A   1      49.645  26.136  28.477  1.00  0.00    -0.203 F 
ATOM     78  F   UNL A   1      50.963  26.847  23.230  1.00  0.00    -0.200 F 
ATOM     79  C   UNL A   1      51.587  26.221  25.419  1.00  0.00     0.200 A 
ATOM     80  F   UNL A   1      52.158  25.591  27.622  1.00  0.00    -0.200 F 
ATOM     81  F   UNL A   1      52.825  25.926  24.999  1.00  0.00    -0.200 F 
ENDBRANCH  47  71
BRANCH  59  82
ATOM     82  C   UNL A   1      46.019  32.575  28.858  1.00  0.00     0.064 A 
ATOM     83  C   UNL A   1      46.604  32.875  30.096  1.00  0.00     0.173 A 
ATOM     84  C   UNL A   1      45.980  33.586  27.886  1.00  0.00     0.173 A 
ATOM     85  F   UNL A   1      46.649  31.946  31.064  1.00  0.00    -0.203 F 
ATOM     86  C   UNL A   1      47.115  34.143  30.357  1.00  0.00     0.198 A 
ATOM     87  C   UNL A   1      46.513  34.847  28.142  1.00  0.00     0.198 A 
ATOM     88  F   UNL A   1      45.434  33.347  26.684  1.00  0.00    -0.203 F 
ATOM     89  F   UNL A   1      47.634  34.421  31.562  1.00  0.00    -0.200 F 
ATOM     90  C   UNL A   1      47.075  35.125  29.379  1.00  0.00     0.200 A 
ATOM     91  F   UNL A   1      46.481  35.791  27.192  1.00  0.00    -0.200 F 
ATOM     92  F   UNL A   1      47.571  36.345  29.630  1.00  0.00    -0.200 F 
ENDBRANCH  59  82
ENDBRANCH  33  34
ENDBRANCH  25  28
ENDBRANCH  23  24
ENDBRANCH  22  23
ENDBRANCH  21  22
ENDBRANCH   3  21
TORSDOF 15
ENDMDL
MODEL 3
REMARK VINA RESULT:     -10.7      3.478      8.521
REMARK SMILES CC[C@@H](C)CN(C)C(=O)N1CCC(CC(=O)NCCCNC(=O)c2ccc(-c3c4nc(c(-c5c(F)c(F)c(F)c(F)c5F)c5ccc([nH]5)c(-c5c(F)c(F)c(F)c(F)c5F)c5nc(c(-c6c(F)c(F)c(F)c(F)c6F)c6ccc3[nH]6)C=C5)C=C4)cc2)CC1
REMARK SMILES IDX 15 1 16 2 17 3 14 5 13 6 8 7 9 8 10 9 11 10 88 11 12 12
REMARK SMILES IDX 87 13 6 14 7 15 5 16 3 17 4 18 2 19 1 20 18 21 19 22 20 23
REMARK SMILES IDX 21 24 22 25 23 27 24 28 25 29 86 30 26 31 85 32 27 33 28 34
REMARK SMILES IDX 29 35 79 36 30 37 84 38 78 39 80 40 31 41 83 42 77 43 76 44
REMARK SMILES IDX 32 46 64 47 44 48 63 49 45 50 48 51 62 52 81 53 46 54 47 55
REMARK SMILES IDX 61 57 82 58 49 59 33 60 34 61 42 62 35 63 36 64 40 65 43 66
REMARK SMILES IDX 37 67 38 68 41 69 39 70 65 71 66 72 74 73 67 74 68 75 72 76
REMARK SMILES IDX 75 77 69 78 70 79 73 80 71 81 50 82 51 83 59 84 52 85 53 86
REMARK SMILES IDX 57 87 60 88 54 89 55 90 58 91 56 92
REMARK H PARENT 17 4 21 26 80 45 48 56
REMARK Flexibility Score: inf
ROOT
ATOM      1  C   UNL A   1      30.496  29.396  23.910  1.00  0.00     0.220 C 
ATOM      2  O   UNL A   1      30.063  29.562  22.768  1.00  0.00    -0.275 OA
ATOM      3  N   UNL A   1      30.927  30.492  24.595  1.00  0.00    -0.356 N 
ATOM      4  H   UNL A   1      30.823  31.342  24.110  1.00  0.00     0.163 HD
ENDROOT
BRANCH   1   5
ATOM      5  C   UNL A   1      30.567  28.009  24.519  1.00  0.00     0.103 C 
BRANCH   5   6
ATOM      6  C   UNL A   1      31.548  27.080  23.782  1.00  0.00     0.002 C 
ATOM      7  C   UNL A   1      32.821  23.641  24.867  1.00  0.00     0.319 C 
ATOM      8  O   UNL A   1      32.311  23.976  25.934  1.00  0.00    -0.248 OA
ATOM      9  N   UNL A   1      32.962  24.533  23.815  1.00  0.00    -0.325 N 
ATOM     10  C   UNL A   1      33.710  25.746  24.069  1.00  0.00     0.121 C 
ATOM     11  C   UNL A   1      31.837  24.697  22.911  1.00  0.00     0.121 C 
ATOM     12  C   UNL A   1      32.814  26.846  24.616  1.00  0.00     0.026 C 
ATOM     13  C   UNL A   1      30.855  25.744  23.443  1.00  0.00     0.026 C 
BRANCH   7  14
ATOM     14  N   UNL A   1      33.345  22.381  24.624  1.00  0.00    -0.327 N 
ATOM     15  C   UNL A   1      32.779  21.472  23.640  1.00  0.00     0.148 C 
BRANCH  14  16
ATOM     16  C   UNL A   1      34.537  21.944  25.347  1.00  0.00     0.124 C 
BRANCH  16  17
ATOM     17  C   UNL A   1      35.716  21.589  24.407  1.00  0.00     0.005 C 
ATOM     18  C   UNL A   1      36.638  20.587  25.109  1.00  0.00     0.009 C 
BRANCH  17  19
ATOM     19  C   UNL A   1      36.473  22.858  23.965  1.00  0.00     0.002 C 
ATOM     20  C   UNL A   1      36.868  23.793  25.099  1.00  0.00     0.004 C 
ENDBRANCH  17  19
ENDBRANCH  16  17
ENDBRANCH  14  16
ENDBRANCH   7  14
ENDBRANCH   5   6
ENDBRANCH   1   5
BRANCH   3  21
ATOM     21  C   UNL A   1      31.516  30.626  25.922  1.00  0.00     0.117 C 
BRANCH  21  22
ATOM     22  C   UNL A   1      31.379  32.041  26.487  1.00  0.00     0.042 C 
BRANCH  22  23
ATOM     23  C   UNL A   1      32.638  32.572  27.163  1.00  0.00     0.118 C 
BRANCH  23  24
ATOM     24  N   UNL A   1      32.503  33.967  27.544  1.00  0.00    -0.352 N 
ATOM     25  C   UNL A   1      33.084  34.661  28.579  1.00  0.00     0.251 C 
ATOM     26  H   UNL A   1      31.902  34.497  26.973  1.00  0.00     0.163 HD
ATOM     27  O   UNL A   1      32.651  35.773  28.870  1.00  0.00    -0.269 OA
BRANCH  25  28
ATOM     28  C   UNL A   1      34.218  34.097  29.354  1.00  0.00     0.039 A 
ATOM     29  C   UNL A   1      35.522  34.409  28.951  1.00  0.00     0.014 A 
ATOM     30  C   UNL A   1      34.021  33.203  30.410  1.00  0.00     0.014 A 
ATOM     31  C   UNL A   1      36.618  33.853  29.621  1.00  0.00     0.010 A 
ATOM     32  C   UNL A   1      35.114  32.706  31.124  1.00  0.00     0.010 A 
ATOM     33  C   UNL A   1      36.424  33.008  30.725  1.00  0.00    -0.014 A 
BRANCH  33  34
ATOM     34  C   UNL A   1      37.577  32.395  31.438  1.00  0.00     0.031 A 
ATOM     35  C   UNL A   1      38.337  31.257  30.808  1.00  0.00     0.074 A 
ATOM     36  C   UNL A   1      37.921  32.826  32.666  1.00  0.00     0.049 A 
ATOM     37  N   UNL A   1      39.327  30.548  31.294  1.00  0.00    -0.248 NA
ATOM     38  C   UNL A   1      37.914  30.846  29.461  1.00  0.00     0.031 C 
ATOM     39  C   UNL A   1      37.253  33.898  33.404  1.00  0.00     0.029 A 
ATOM     40  N   UNL A   1      38.917  32.409  33.515  1.00  0.00    -0.354 N 
ATOM     41  C   UNL A   1      39.623  29.597  30.327  1.00  0.00     0.074 A 
ATOM     42  C   UNL A   1      38.683  29.789  29.243  1.00  0.00     0.031 C 
ATOM     43  C   UNL A   1      37.872  34.071  34.583  1.00  0.00     0.029 A 
ATOM     44  C   UNL A   1      38.957  33.101  34.700  1.00  0.00     0.049 A 
ATOM     45  H   UNL A   1      39.543  31.682  33.294  1.00  0.00     0.167 HD
ATOM     46  C   UNL A   1      40.602  28.660  30.329  1.00  0.00     0.037 A 
ATOM     47  C   UNL A   1      39.776  32.968  35.761  1.00  0.00     0.037 A 
ATOM     48  C   UNL A   1      41.566  28.493  31.384  1.00  0.00     0.049 A 
ATOM     49  C   UNL A   1      40.858  31.923  35.739  1.00  0.00     0.074 A 
ATOM     50  C   UNL A   1      42.636  27.616  31.445  1.00  0.00     0.029 A 
ATOM     51  N   UNL A   1      41.579  29.222  32.562  1.00  0.00    -0.354 N 
ATOM     52  N   UNL A   1      41.160  31.066  34.795  1.00  0.00    -0.248 NA
ATOM     53  C   UNL A   1      41.715  31.831  36.930  1.00  0.00     0.031 C 
ATOM     54  C   UNL A   1      43.276  27.791  32.677  1.00  0.00     0.029 A 
ATOM     55  C   UNL A   1      42.628  28.804  33.366  1.00  0.00     0.049 A 
ATOM     56  H   UNL A   1      40.938  29.932  32.795  1.00  0.00     0.167 HD
ATOM     57  C   UNL A   1      42.256  30.353  35.264  1.00  0.00     0.074 A 
ATOM     58  C   UNL A   1      42.572  30.884  36.573  1.00  0.00     0.031 C 
ATOM     59  C   UNL A   1      42.937  29.348  34.662  1.00  0.00     0.037 A 
BRANCH  46  60
ATOM     60  C   UNL A   1      40.682  27.741  29.145  1.00  0.00     0.064 A 
ATOM     61  C   UNL A   1      39.812  26.649  29.002  1.00  0.00     0.173 A 
ATOM     62  C   UNL A   1      41.621  27.970  28.128  1.00  0.00     0.173 A 
ATOM     63  F   UNL A   1      38.903  26.381  29.952  1.00  0.00    -0.203 F 
ATOM     64  C   UNL A   1      39.900  25.803  27.898  1.00  0.00     0.198 A 
ATOM     65  C   UNL A   1      41.688  27.138  27.014  1.00  0.00     0.198 A 
ATOM     66  F   UNL A   1      42.471  29.004  28.213  1.00  0.00    -0.203 F 
ATOM     67  F   UNL A   1      39.092  24.739  27.807  1.00  0.00    -0.200 F 
ATOM     68  C   UNL A   1      40.834  26.051  26.904  1.00  0.00     0.200 A 
ATOM     69  F   UNL A   1      42.583  27.385  26.047  1.00  0.00    -0.200 F 
ATOM     70  F   UNL A   1      40.916  25.238  25.841  1.00  0.00    -0.200 F 
ENDBRANCH  46  60
BRANCH  47  71
ATOM     71  C   UNL A   1      39.624  33.873  36.930  1.00  0.00     0.064 A 
ATOM     72  C   UNL A   1      40.271  35.117  36.957  1.00  0.00     0.173 A 
ATOM     73  C   UNL A   1      38.837  33.519  38.034  1.00  0.00     0.173 A 
ATOM     74  F   UNL A   1      41.053  35.487  35.934  1.00  0.00    -0.203 F 
ATOM     75  C   UNL A   1      40.147  35.966  38.055  1.00  0.00     0.198 A 
ATOM     76  C   UNL A   1      38.695  34.380  39.120  1.00  0.00     0.198 A 
ATOM     77  F   UNL A   1      38.198  32.340  38.053  1.00  0.00    -0.203 F 
ATOM     78  F   UNL A   1      40.807  37.133  38.073  1.00  0.00    -0.200 F 
ATOM     79  C   UNL A   1      39.355  35.600  39.132  1.00  0.00     0.200 A 
ATOM     80  F   UNL A   1      37.921  34.028  40.155  1.00  0.00    -0.200 F 
ATOM     81  F   UNL A   1      39.233  36.419  40.185  1.00  0.00    -0.200 F 
ENDBRANCH  47  71
BRANCH  59  82
ATOM     82  C   UNL A   1      44.115  28.780  35.397  1.00  0.00     0.064 A 
ATOM     83  C   UNL A   1      45.401  29.317  35.251  1.00  0.00     0.173 A 
ATOM     84  C   UNL A   1      43.946  27.709  36.287  1.00  0.00     0.173 A 
ATOM     85  F   UNL A   1      45.615  30.332  34.398  1.00  0.00    -0.203 F 
ATOM     86  C   UNL A   1      46.480  28.791  35.955  1.00  0.00     0.198 A 
ATOM     87  C   UNL A   1      45.023  27.200  37.008  1.00  0.00     0.198 A 
ATOM     88  F   UNL A   1      42.733  27.163  36.465  1.00  0.00    -0.203 F 
ATOM     89  F   UNL A   1      47.709  29.293  35.769  1.00  0.00    -0.200 F 
ATOM     90  C   UNL A   1      46.289  27.738  36.837  1.00  0.00     0.200 A 
ATOM     91  F   UNL A   1      44.835  26.188  37.866  1.00  0.00    -0.200 F 
ATOM     92  F   UNL A   1      47.329  27.235  37.517  1.00  0.00    -0.200 F 
ENDBRANCH  59  82
ENDBRANCH  33  34
ENDBRANCH  25  28
ENDBRANCH  23  24
ENDBRANCH  22  23
ENDBRANCH  21  22
ENDBRANCH   3  21
TORSDOF 15
ENDMDL
