MODEL 1
REMARK VINA RESULT:     -12.2      0.000      0.000
REMARK SMILES CC[C@@H](O)C[NH+]1CC(n2cc(C(=O)NCCCNC(=O)c3ccc(-c4c5nc(c(-c6c(F)c(F)c(F)c(F)c6F)c6ccc([nH]6)c(-c6c(F)c(F)c(F)c(F)c6F)c6nc(c(-c7c(F)c(F)c(F)c(F)c7F)c7ccc4[nH]7)C=C6)C=C5)cc3)nn2)C1
REMARK SMILES IDX 15 1 14 2 12 3 13 4 11 6 9 7 10 8 85 9 84 10 8 11 6 12 7 13
REMARK SMILES IDX 86 14 5 16 3 17 2 18 1 19 4 20 16 22 17 23 18 24 19 25 20 27
REMARK SMILES IDX 21 28 22 29 83 30 23 31 82 32 24 33 25 34 26 35 76 36 27 37
REMARK SMILES IDX 81 38 75 39 77 40 28 41 80 42 74 43 73 44 29 46 61 47 41 48
REMARK SMILES IDX 60 49 42 50 45 51 59 52 78 53 43 54 44 55 58 57 79 58 46 59
REMARK SMILES IDX 30 60 31 61 39 62 32 63 33 64 37 65 40 66 34 67 35 68 38 69
REMARK SMILES IDX 36 70 62 71 63 72 71 73 64 74 65 75 69 76 72 77 66 78 67 79
REMARK SMILES IDX 70 80 68 81 47 82 48 83 56 84 49 85 50 86 54 87 57 88 51 89
REMARK SMILES IDX 52 90 55 91 53 92
REMARK H PARENT 14 5 6 15 4 21 18 26 77 45 45 56
REMARK Flexibility Score: inf
ROOT
ATOM      1  C   UNL A   1      41.228  20.167  26.309  1.00  0.00     0.118 C 
ENDROOT
BRANCH   1   2
ATOM      2  N   UNL A   1      41.664  18.785  26.444  1.00  0.00    -0.351 N 
ATOM      3  C   UNL A   1      42.892  18.201  26.183  1.00  0.00     0.273 C 
ATOM      4  O   UNL A   1      43.070  17.060  26.583  1.00  0.00    -0.267 OA
ATOM      5  H   UNL A   1      40.975  18.165  26.775  1.00  0.00     0.163 HD
BRANCH   3   6
ATOM      6  C   UNL A   1      43.922  18.955  25.472  1.00  0.00     0.170 A 
ATOM      7  N   UNL A   1      45.256  20.466  24.665  1.00  0.00    -0.237 N 
ATOM      8  C   UNL A   1      44.050  20.315  25.291  1.00  0.00     0.145 A 
ATOM      9  N   UNL A   1      45.809  19.279  24.390  1.00  0.00    -0.066 NA
ATOM     10  N   UNL A   1      44.980  18.341  24.835  1.00  0.00    -0.125 NA
BRANCH   7  11
ATOM     11  C   UNL A   1      45.901  21.736  24.585  1.00  0.00     0.218 C 
ATOM     12  N   UNL A   1      45.544  23.793  24.699  1.00  0.00    -0.329 N 
ATOM     13  C   UNL A   1      45.759  22.732  25.754  1.00  0.00     0.296 C 
ATOM     14  C   UNL A   1      44.960  22.723  23.859  1.00  0.00     0.296 C 
ATOM     15  H   UNL A   1      46.289  24.398  24.356  1.00  0.00     0.348 HD
BRANCH  12  16
ATOM     16  C   UNL A   1      44.538  24.772  25.144  1.00  0.00     0.294 C 
BRANCH  16  17
ATOM     17  C   UNL A   1      45.015  26.251  25.259  1.00  0.00     0.169 C 
BRANCH  17  18
ATOM     18  C   UNL A   1      45.235  26.706  26.713  1.00  0.00     0.034 C 
ATOM     19  C   UNL A   1      44.289  26.087  27.731  1.00  0.00     0.007 C 
ENDBRANCH  17  18
BRANCH  17  20
ATOM     20  O   UNL A   1      46.255  26.353  24.548  1.00  0.00    -0.387 OA
ATOM     21  H   UNL A   1      46.678  25.480  24.509  1.00  0.00     0.211 HD
ENDBRANCH  17  20
ENDBRANCH  16  17
ENDBRANCH  12  16
ENDBRANCH   7  11
ENDBRANCH   3   6
ENDBRANCH   1   2
BRANCH   1  22
ATOM     22  C   UNL A   1      41.665  21.047  27.487  1.00  0.00     0.042 C 
BRANCH  22  23
ATOM     23  C   UNL A   1      40.578  22.019  27.914  1.00  0.00     0.118 C 
BRANCH  23  24
ATOM     24  N   UNL A   1      39.613  22.312  26.844  1.00  0.00    -0.352 N 
ATOM     25  C   UNL A   1      39.022  23.523  26.519  1.00  0.00     0.251 C 
ATOM     26  H   UNL A   1      39.351  21.546  26.284  1.00  0.00     0.163 HD
ATOM     27  O   UNL A   1      38.010  23.568  25.831  1.00  0.00    -0.269 OA
BRANCH  25  28
ATOM     28  C   UNL A   1      39.645  24.762  27.012  1.00  0.00     0.039 A 
ATOM     29  C   UNL A   1      40.379  25.627  26.194  1.00  0.00     0.014 A 
ATOM     30  C   UNL A   1      39.425  25.067  28.346  1.00  0.00     0.014 A 
ATOM     31  C   UNL A   1      40.826  26.835  26.730  1.00  0.00     0.010 A 
ATOM     32  C   UNL A   1      39.618  26.342  28.779  1.00  0.00     0.010 A 
ATOM     33  C   UNL A   1      40.426  27.181  28.027  1.00  0.00    -0.014 A 
BRANCH  33  34
ATOM     34  C   UNL A   1      40.769  28.445  28.661  1.00  0.00     0.031 A 
ATOM     35  C   UNL A   1      41.977  29.106  28.098  1.00  0.00     0.074 A 
ATOM     36  C   UNL A   1      39.865  29.079  29.444  1.00  0.00     0.049 A 
ATOM     37  N   UNL A   1      43.071  29.423  28.706  1.00  0.00    -0.248 NA
ATOM     38  C   UNL A   1      42.028  29.324  26.640  1.00  0.00     0.031 C 
ATOM     39  C   UNL A   1      38.487  28.665  29.768  1.00  0.00     0.029 A 
ATOM     40  N   UNL A   1      39.936  30.307  30.018  1.00  0.00    -0.354 N 
ATOM     41  C   UNL A   1      43.872  30.055  27.756  1.00  0.00     0.074 A 
ATOM     42  C   UNL A   1      43.269  29.784  26.479  1.00  0.00     0.031 C 
ATOM     43  C   UNL A   1      37.796  29.715  30.260  1.00  0.00     0.029 A 
ATOM     44  C   UNL A   1      38.716  30.815  30.458  1.00  0.00     0.049 A 
ATOM     45  H   UNL A   1      40.783  30.801  30.113  1.00  0.00     0.167 HD
ATOM     46  C   UNL A   1      44.822  30.959  28.125  1.00  0.00     0.037 A 
ATOM     47  C   UNL A   1      38.489  32.072  30.918  1.00  0.00     0.037 A 
ATOM     48  C   UNL A   1      45.114  30.840  29.533  1.00  0.00     0.049 A 
ATOM     49  C   UNL A   1      39.814  32.654  31.256  1.00  0.00     0.074 A 
ATOM     50  C   UNL A   1      45.624  29.837  30.334  1.00  0.00     0.029 A 
ATOM     51  N   UNL A   1      44.502  31.723  30.388  1.00  0.00    -0.354 N 
ATOM     52  N   UNL A   1      40.568  32.216  32.227  1.00  0.00    -0.248 NA
ATOM     53  C   UNL A   1      40.507  33.379  30.202  1.00  0.00     0.031 C 
ATOM     54  C   UNL A   1      44.872  29.914  31.543  1.00  0.00     0.029 A 
ATOM     55  C   UNL A   1      44.008  31.004  31.446  1.00  0.00     0.049 A 
ATOM     56  H   UNL A   1      44.432  32.698  30.265  1.00  0.00     0.167 HD
ATOM     57  C   UNL A   1      41.856  32.234  31.712  1.00  0.00     0.074 A 
ATOM     58  C   UNL A   1      41.763  33.021  30.483  1.00  0.00     0.031 C 
ATOM     59  C   UNL A   1      42.806  31.362  32.165  1.00  0.00     0.037 A 
BRANCH  46  60
ATOM     60  C   UNL A   1      45.212  32.186  27.329  1.00  0.00     0.064 A 
ATOM     61  C   UNL A   1      46.516  32.261  26.794  1.00  0.00     0.173 A 
ATOM     62  C   UNL A   1      44.488  33.398  27.316  1.00  0.00     0.173 A 
ATOM     63  F   UNL A   1      47.302  31.175  26.751  1.00  0.00    -0.203 F 
ATOM     64  C   UNL A   1      47.080  33.471  26.379  1.00  0.00     0.198 A 
ATOM     65  C   UNL A   1      45.036  34.593  26.850  1.00  0.00     0.198 A 
ATOM     66  F   UNL A   1      43.267  33.513  27.846  1.00  0.00    -0.203 F 
ATOM     67  F   UNL A   1      48.366  33.511  26.007  1.00  0.00    -0.200 F 
ATOM     68  C   UNL A   1      46.343  34.638  26.417  1.00  0.00     0.200 A 
ATOM     69  F   UNL A   1      44.306  35.716  26.906  1.00  0.00    -0.200 F 
ATOM     70  F   UNL A   1      46.899  35.809  26.084  1.00  0.00    -0.200 F 
ENDBRANCH  46  60
BRANCH  47  71
ATOM     71  C   UNL A   1      37.269  32.899  30.776  1.00  0.00     0.064 A 
ATOM     72  C   UNL A   1      36.881  33.426  29.534  1.00  0.00     0.173 A 
ATOM     73  C   UNL A   1      36.311  32.958  31.808  1.00  0.00     0.173 A 
ATOM     74  F   UNL A   1      37.717  33.363  28.488  1.00  0.00    -0.203 F 
ATOM     75  C   UNL A   1      35.606  33.966  29.332  1.00  0.00     0.198 A 
ATOM     76  C   UNL A   1      35.039  33.498  31.605  1.00  0.00     0.198 A 
ATOM     77  F   UNL A   1      36.559  32.403  33.004  1.00  0.00    -0.203 F 
ATOM     78  F   UNL A   1      35.252  34.410  28.117  1.00  0.00    -0.200 F 
ATOM     79  C   UNL A   1      34.682  33.993  30.365  1.00  0.00     0.200 A 
ATOM     80  F   UNL A   1      34.141  33.478  32.601  1.00  0.00    -0.200 F 
ATOM     81  F   UNL A   1      33.442  34.453  30.154  1.00  0.00    -0.200 F 
ENDBRANCH  47  71
BRANCH  59  82
ATOM     82  C   UNL A   1      42.484  30.547  33.390  1.00  0.00     0.064 A 
ATOM     83  C   UNL A   1      42.518  31.046  34.704  1.00  0.00     0.173 A 
ATOM     84  C   UNL A   1      41.966  29.258  33.209  1.00  0.00     0.173 A 
ATOM     85  F   UNL A   1      42.905  32.301  34.956  1.00  0.00    -0.203 F 
ATOM     86  C   UNL A   1      42.092  30.277  35.786  1.00  0.00     0.198 A 
ATOM     87  C   UNL A   1      41.506  28.505  34.286  1.00  0.00     0.198 A 
ATOM     88  F   UNL A   1      41.854  28.749  31.972  1.00  0.00    -0.203 F 
ATOM     89  F   UNL A   1      42.143  30.777  37.031  1.00  0.00    -0.200 F 
ATOM     90  C   UNL A   1      41.578  29.010  35.574  1.00  0.00     0.200 A 
ATOM     91  F   UNL A   1      40.961  27.300  34.069  1.00  0.00    -0.200 F 
ATOM     92  F   UNL A   1      41.124  28.285  36.607  1.00  0.00    -0.200 F 
ENDBRANCH  59  82
ENDBRANCH  33  34
ENDBRANCH  25  28
ENDBRANCH  23  24
ENDBRANCH  22  23
ENDBRANCH   1  22
TORSDOF 15
ENDMDL
MODEL 2
REMARK VINA RESULT:     -12.2      4.448     10.350
REMARK SMILES CC[C@@H](O)C[NH+]1CC(n2cc(C(=O)NCCCNC(=O)c3ccc(-c4c5nc(c(-c6c(F)c(F)c(F)c(F)c6F)c6ccc([nH]6)c(-c6c(F)c(F)c(F)c(F)c6F)c6nc(c(-c7c(F)c(F)c(F)c(F)c7F)c7ccc4[nH]7)C=C6)C=C5)cc3)nn2)C1
REMARK SMILES IDX 15 1 14 2 12 3 13 4 11 6 9 7 10 8 85 9 84 10 8 11 6 12 7 13
REMARK SMILES IDX 86 14 5 16 3 17 2 18 1 19 4 20 16 22 17 23 18 24 19 25 20 27
REMARK SMILES IDX 21 28 22 29 83 30 23 31 82 32 24 33 25 34 26 35 76 36 27 37
REMARK SMILES IDX 81 38 75 39 77 40 28 41 80 42 74 43 73 44 29 46 61 47 41 48
REMARK SMILES IDX 60 49 42 50 45 51 59 52 78 53 43 54 44 55 58 57 79 58 46 59
REMARK SMILES IDX 30 60 31 61 39 62 32 63 33 64 37 65 40 66 34 67 35 68 38 69
REMARK SMILES IDX 36 70 62 71 63 72 71 73 64 74 65 75 69 76 72 77 66 78 67 79
REMARK SMILES IDX 70 80 68 81 47 82 48 83 56 84 49 85 50 86 54 87 57 88 51 89
REMARK SMILES IDX 52 90 55 91 53 92
REMARK H PARENT 14 5 6 15 4 21 18 26 77 45 45 56
REMARK Flexibility Score: inf
ROOT
ATOM      1  C   UNL A   1      32.364  27.904  27.511  1.00  0.00     0.118 C 
ENDROOT
BRANCH   1   2
ATOM      2  N   UNL A   1      31.271  27.207  26.849  1.00  0.00    -0.351 N 
ATOM      3  C   UNL A   1      31.214  25.935  26.308  1.00  0.00     0.273 C 
ATOM      4  O   UNL A   1      30.113  25.501  26.001  1.00  0.00    -0.267 OA
ATOM      5  H   UNL A   1      30.437  27.725  26.774  1.00  0.00     0.163 HD
BRANCH   3   6
ATOM      6  C   UNL A   1      32.440  25.156  26.144  1.00  0.00     0.170 A 
ATOM      7  N   UNL A   1      33.959  23.611  26.007  1.00  0.00    -0.237 N 
ATOM      8  C   UNL A   1      32.714  23.858  26.516  1.00  0.00     0.145 A 
ATOM      9  N   UNL A   1      34.472  24.705  25.432  1.00  0.00    -0.066 NA
ATOM     10  N   UNL A   1      33.571  25.675  25.551  1.00  0.00    -0.125 NA
BRANCH   7  11
ATOM     11  C   UNL A   1      34.471  22.283  25.901  1.00  0.00     0.218 C 
ATOM     12  N   UNL A   1      33.890  20.292  25.636  1.00  0.00    -0.329 N 
ATOM     13  C   UNL A   1      34.114  21.431  24.667  1.00  0.00     0.296 C 
ATOM     14  C   UNL A   1      33.504  21.321  26.628  1.00  0.00     0.296 C 
ATOM     15  H   UNL A   1      34.596  19.587  25.841  1.00  0.00     0.348 HD
BRANCH  12  16
ATOM     16  C   UNL A   1      32.748  19.465  25.210  1.00  0.00     0.294 C 
BRANCH  16  17
ATOM     17  C   UNL A   1      33.026  17.942  25.032  1.00  0.00     0.169 C 
BRANCH  17  18
ATOM     18  C   UNL A   1      34.333  17.648  24.275  1.00  0.00     0.034 C 
ATOM     19  C   UNL A   1      34.196  16.684  23.106  1.00  0.00     0.007 C 
ENDBRANCH  17  18
BRANCH  17  20
ATOM     20  O   UNL A   1      33.112  17.370  26.344  1.00  0.00    -0.387 OA
ATOM     21  H   UNL A   1      33.933  16.859  26.420  1.00  0.00     0.211 HD
ENDBRANCH  17  20
ENDBRANCH  16  17
ENDBRANCH  12  16
ENDBRANCH   7  11
ENDBRANCH   3   6
ENDBRANCH   1   2
BRANCH   1  22
ATOM     22  C   UNL A   1      32.522  29.354  27.035  1.00  0.00     0.042 C 
BRANCH  22  23
ATOM     23  C   UNL A   1      33.979  29.751  26.872  1.00  0.00     0.118 C 
BRANCH  23  24
ATOM     24  N   UNL A   1      34.219  31.181  27.117  1.00  0.00    -0.352 N 
ATOM     25  C   UNL A   1      35.190  31.772  27.910  1.00  0.00     0.251 C 
ATOM     26  H   UNL A   1      33.609  31.801  26.656  1.00  0.00     0.163 HD
ATOM     27  O   UNL A   1      35.082  32.934  28.281  1.00  0.00    -0.269 OA
BRANCH  25  28
ATOM     28  C   UNL A   1      36.366  30.974  28.292  1.00  0.00     0.039 A 
ATOM     29  C   UNL A   1      36.507  29.620  27.971  1.00  0.00     0.014 A 
ATOM     30  C   UNL A   1      37.375  31.652  28.957  1.00  0.00     0.014 A 
ATOM     31  C   UNL A   1      37.713  28.985  28.273  1.00  0.00     0.010 A 
ATOM     32  C   UNL A   1      38.624  31.115  28.999  1.00  0.00     0.010 A 
ATOM     33  C   UNL A   1      38.768  29.754  28.780  1.00  0.00    -0.014 A 
BRANCH  33  34
ATOM     34  C   UNL A   1      40.089  29.215  29.062  1.00  0.00     0.031 A 
ATOM     35  C   UNL A   1      40.369  28.999  30.507  1.00  0.00     0.074 A 
ATOM     36  C   UNL A   1      40.824  28.666  28.066  1.00  0.00     0.049 A 
ATOM     37  N   UNL A   1      41.307  29.520  31.226  1.00  0.00    -0.248 NA
ATOM     38  C   UNL A   1      39.401  28.204  31.285  1.00  0.00     0.031 C 
ATOM     39  C   UNL A   1      40.464  28.507  26.646  1.00  0.00     0.029 A 
ATOM     40  N   UNL A   1      42.008  28.005  28.136  1.00  0.00    -0.354 N 
ATOM     41  C   UNL A   1      41.167  28.970  32.499  1.00  0.00     0.074 A 
ATOM     42  C   UNL A   1      39.877  28.338  32.524  1.00  0.00     0.031 C 
ATOM     43  C   UNL A   1      41.280  27.603  26.063  1.00  0.00     0.029 A 
ATOM     44  C   UNL A   1      42.324  27.257  27.005  1.00  0.00     0.049 A 
ATOM     45  H   UNL A   1      42.595  28.049  28.925  1.00  0.00     0.167 HD
ATOM     46  C   UNL A   1      42.234  28.866  33.341  1.00  0.00     0.037 A 
ATOM     47  C   UNL A   1      43.360  26.389  26.880  1.00  0.00     0.037 A 
ATOM     48  C   UNL A   1      43.312  29.717  32.900  1.00  0.00     0.049 A 
ATOM     49  C   UNL A   1      44.310  26.689  27.983  1.00  0.00     0.074 A 
ATOM     50  C   UNL A   1      43.461  31.080  32.731  1.00  0.00     0.029 A 
ATOM     51  N   UNL A   1      44.326  29.140  32.177  1.00  0.00    -0.354 N 
ATOM     52  N   UNL A   1      44.987  27.800  28.069  1.00  0.00    -0.248 NA
ATOM     53  C   UNL A   1      44.119  25.972  29.234  1.00  0.00     0.031 C 
ATOM     54  C   UNL A   1      44.230  31.220  31.538  1.00  0.00     0.029 A 
ATOM     55  C   UNL A   1      44.577  29.943  31.094  1.00  0.00     0.049 A 
ATOM     56  H   UNL A   1      44.792  28.300  32.397  1.00  0.00     0.167 HD
ATOM     57  C   UNL A   1      44.943  28.140  29.414  1.00  0.00     0.074 A 
ATOM     58  C   UNL A   1      44.451  26.941  30.092  1.00  0.00     0.031 C 
ATOM     59  C   UNL A   1      45.021  29.444  29.813  1.00  0.00     0.037 A 
BRANCH  46  60
ATOM     60  C   UNL A   1      42.458  27.739  34.327  1.00  0.00     0.064 A 
ATOM     61  C   UNL A   1      43.011  26.527  33.857  1.00  0.00     0.173 A 
ATOM     62  C   UNL A   1      41.894  27.679  35.619  1.00  0.00     0.173 A 
ATOM     63  F   UNL A   1      43.577  26.458  32.643  1.00  0.00    -0.203 F 
ATOM     64  C   UNL A   1      42.911  25.336  34.582  1.00  0.00     0.198 A 
ATOM     65  C   UNL A   1      41.845  26.499  36.362  1.00  0.00     0.198 A 
ATOM     66  F   UNL A   1      41.270  28.718  36.182  1.00  0.00    -0.203 F 
ATOM     67  F   UNL A   1      43.332  24.189  34.033  1.00  0.00    -0.200 F 
ATOM     68  C   UNL A   1      42.320  25.321  35.829  1.00  0.00     0.200 A 
ATOM     69  F   UNL A   1      41.257  26.505  37.567  1.00  0.00    -0.200 F 
ATOM     70  F   UNL A   1      42.162  24.171  36.497  1.00  0.00    -0.200 F 
ENDBRANCH  46  60
BRANCH  47  71
ATOM     71  C   UNL A   1      43.423  25.135  26.094  1.00  0.00     0.064 A 
ATOM     72  C   UNL A   1      44.485  24.875  25.214  1.00  0.00     0.173 A 
ATOM     73  C   UNL A   1      42.582  24.046  26.401  1.00  0.00     0.173 A 
ATOM     74  F   UNL A   1      45.359  25.845  24.910  1.00  0.00    -0.203 F 
ATOM     75  C   UNL A   1      44.701  23.599  24.682  1.00  0.00     0.198 A 
ATOM     76  C   UNL A   1      42.799  22.773  25.869  1.00  0.00     0.198 A 
ATOM     77  F   UNL A   1      41.594  24.177  27.298  1.00  0.00    -0.203 F 
ATOM     78  F   UNL A   1      45.757  23.374  23.887  1.00  0.00    -0.200 F 
ATOM     79  C   UNL A   1      43.864  22.546  25.018  1.00  0.00     0.200 A 
ATOM     80  F   UNL A   1      42.007  21.755  26.237  1.00  0.00    -0.200 F 
ATOM     81  F   UNL A   1      44.108  21.311  24.558  1.00  0.00    -0.200 F 
ENDBRANCH  47  71
BRANCH  59  82
ATOM     82  C   UNL A   1      45.386  30.475  28.777  1.00  0.00     0.064 A 
ATOM     83  C   UNL A   1      44.451  31.168  27.987  1.00  0.00     0.173 A 
ATOM     84  C   UNL A   1      46.721  30.889  28.698  1.00  0.00     0.173 A 
ATOM     85  F   UNL A   1      43.144  30.905  28.074  1.00  0.00    -0.203 F 
ATOM     86  C   UNL A   1      44.842  32.198  27.132  1.00  0.00     0.198 A 
ATOM     87  C   UNL A   1      47.105  31.942  27.872  1.00  0.00     0.198 A 
ATOM     88  F   UNL A   1      47.650  30.304  29.470  1.00  0.00    -0.203 F 
ATOM     89  F   UNL A   1      43.929  32.837  26.385  1.00  0.00    -0.200 F 
ATOM     90  C   UNL A   1      46.168  32.589  27.082  1.00  0.00     0.200 A 
ATOM     91  F   UNL A   1      48.381  32.350  27.866  1.00  0.00    -0.200 F 
ATOM     92  F   UNL A   1      46.541  33.609  26.296  1.00  0.00    -0.200 F 
ENDBRANCH  59  82
ENDBRANCH  33  34
ENDBRANCH  25  28
ENDBRANCH  23  24
ENDBRANCH  22  23
ENDBRANCH   1  22
TORSDOF 15
ENDMDL
MODEL 3
REMARK VINA RESULT:     -12.1      3.941      6.667
REMARK SMILES CC[C@@H](O)C[NH+]1CC(n2cc(C(=O)NCCCNC(=O)c3ccc(-c4c5nc(c(-c6c(F)c(F)c(F)c(F)c6F)c6ccc([nH]6)c(-c6c(F)c(F)c(F)c(F)c6F)c6nc(c(-c7c(F)c(F)c(F)c(F)c7F)c7ccc4[nH]7)C=C6)C=C5)cc3)nn2)C1
REMARK SMILES IDX 15 1 14 2 12 3 13 4 11 6 9 7 10 8 85 9 84 10 8 11 6 12 7 13
REMARK SMILES IDX 86 14 5 16 3 17 2 18 1 19 4 20 16 22 17 23 18 24 19 25 20 27
REMARK SMILES IDX 21 28 22 29 83 30 23 31 82 32 24 33 25 34 26 35 76 36 27 37
REMARK SMILES IDX 81 38 75 39 77 40 28 41 80 42 74 43 73 44 29 46 61 47 41 48
REMARK SMILES IDX 60 49 42 50 45 51 59 52 78 53 43 54 44 55 58 57 79 58 46 59
REMARK SMILES IDX 30 60 31 61 39 62 32 63 33 64 37 65 40 66 34 67 35 68 38 69
REMARK SMILES IDX 36 70 62 71 63 72 71 73 64 74 65 75 69 76 72 77 66 78 67 79
REMARK SMILES IDX 70 80 68 81 47 82 48 83 56 84 49 85 50 86 54 87 57 88 51 89
REMARK SMILES IDX 52 90 55 91 53 92
REMARK H PARENT 14 5 6 15 4 21 18 26 77 45 45 56
REMARK Flexibility Score: inf
ROOT
ATOM      1  C   UNL A   1      35.555  22.683  25.550  1.00  0.00     0.118 C 
ENDROOT
BRANCH   1   2
ATOM      2  N   UNL A   1      34.502  21.799  25.074  1.00  0.00    -0.351 N 
ATOM      3  C   UNL A   1      33.135  21.997  24.987  1.00  0.00     0.273 C 
ATOM      4  O   UNL A   1      32.486  21.181  24.349  1.00  0.00    -0.267 OA
ATOM      5  H   UNL A   1      34.812  20.917  24.764  1.00  0.00     0.163 HD
BRANCH   3   6
ATOM      6  C   UNL A   1      32.524  23.160  25.626  1.00  0.00     0.170 A 
ATOM      7  N   UNL A   1      31.631  25.080  26.110  1.00  0.00    -0.237 N 
ATOM      8  C   UNL A   1      32.384  24.449  25.158  1.00  0.00     0.145 A 
ATOM      9  N   UNL A   1      31.388  24.271  27.148  1.00  0.00    -0.066 NA
ATOM     10  N   UNL A   1      31.971  23.105  26.888  1.00  0.00    -0.125 NA
BRANCH   7  11
ATOM     11  C   UNL A   1      30.999  26.333  25.852  1.00  0.00     0.218 C 
ATOM     12  N   UNL A   1      30.757  27.802  24.384  1.00  0.00    -0.329 N 
ATOM     13  C   UNL A   1      30.074  26.476  24.627  1.00  0.00     0.296 C 
ATOM     14  C   UNL A   1      31.959  27.204  25.009  1.00  0.00     0.296 C 
ATOM     15  H   UNL A   1      30.375  28.693  24.699  1.00  0.00     0.348 HD
BRANCH  12  16
ATOM     16  C   UNL A   1      30.933  28.039  22.941  1.00  0.00     0.294 C 
BRANCH  16  17
ATOM     17  C   UNL A   1      30.104  29.206  22.326  1.00  0.00     0.169 C 
BRANCH  17  18
ATOM     18  C   UNL A   1      29.338  30.027  23.379  1.00  0.00     0.034 C 
ATOM     19  C   UNL A   1      27.842  30.159  23.128  1.00  0.00     0.007 C 
ENDBRANCH  17  18
BRANCH  17  20
ATOM     20  O   UNL A   1      31.025  30.069  21.646  1.00  0.00    -0.387 OA
ATOM     21  H   UNL A   1      31.916  29.688  21.690  1.00  0.00     0.211 HD
ENDBRANCH  17  20
ENDBRANCH  16  17
ENDBRANCH  12  16
ENDBRANCH   7  11
ENDBRANCH   3   6
ENDBRANCH   1   2
BRANCH   1  22
ATOM     22  C   UNL A   1      36.954  22.064  25.428  1.00  0.00     0.042 C 
BRANCH  22  23
ATOM     23  C   UNL A   1      38.021  22.917  26.092  1.00  0.00     0.118 C 
BRANCH  23  24
ATOM     24  N   UNL A   1      39.278  22.191  26.327  1.00  0.00    -0.352 N 
ATOM     25  C   UNL A   1      40.551  22.705  26.519  1.00  0.00     0.251 C 
ATOM     26  H   UNL A   1      39.206  21.210  26.351  1.00  0.00     0.163 HD
ATOM     27  O   UNL A   1      41.544  22.002  26.382  1.00  0.00    -0.269 OA
BRANCH  25  28
ATOM     28  C   UNL A   1      40.686  24.119  26.904  1.00  0.00     0.039 A 
ATOM     29  C   UNL A   1      39.945  25.147  26.312  1.00  0.00     0.014 A 
ATOM     30  C   UNL A   1      41.567  24.389  27.940  1.00  0.00     0.014 A 
ATOM     31  C   UNL A   1      40.059  26.437  26.832  1.00  0.00     0.010 A 
ATOM     32  C   UNL A   1      41.468  25.569  28.608  1.00  0.00     0.010 A 
ATOM     33  C   UNL A   1      40.822  26.628  27.991  1.00  0.00    -0.014 A 
BRANCH  33  34
ATOM     34  C   UNL A   1      40.952  27.912  28.662  1.00  0.00     0.031 A 
ATOM     35  C   UNL A   1      42.078  28.751  28.171  1.00  0.00     0.074 A 
ATOM     36  C   UNL A   1      39.931  28.393  29.410  1.00  0.00     0.049 A 
ATOM     37  N   UNL A   1      43.087  29.204  28.839  1.00  0.00    -0.248 NA
ATOM     38  C   UNL A   1      42.166  29.008  26.722  1.00  0.00     0.031 C 
ATOM     39  C   UNL A   1      38.612  27.782  29.657  1.00  0.00     0.029 A 
ATOM     40  N   UNL A   1      39.800  29.606  30.007  1.00  0.00    -0.354 N 
ATOM     41  C   UNL A   1      43.833  29.965  27.940  1.00  0.00     0.074 A 
ATOM     42  C   UNL A   1      43.335  29.642  26.631  1.00  0.00     0.031 C 
ATOM     43  C   UNL A   1      37.756  28.712  30.132  1.00  0.00     0.029 A 
ATOM     44  C   UNL A   1      38.500  29.926  30.394  1.00  0.00     0.049 A 
ATOM     45  H   UNL A   1      40.562  30.211  30.153  1.00  0.00     0.167 HD
ATOM     46  C   UNL A   1      44.627  30.985  28.372  1.00  0.00     0.037 A 
ATOM     47  C   UNL A   1      38.076  31.127  30.864  1.00  0.00     0.037 A 
ATOM     48  C   UNL A   1      44.866  30.875  29.790  1.00  0.00     0.049 A 
ATOM     49  C   UNL A   1      39.287  31.881  31.277  1.00  0.00     0.074 A 
ATOM     50  C   UNL A   1      45.476  29.935  30.598  1.00  0.00     0.029 A 
ATOM     51  N   UNL A   1      44.096  31.642  30.628  1.00  0.00    -0.354 N 
ATOM     52  N   UNL A   1      40.049  31.532  32.276  1.00  0.00    -0.248 NA
ATOM     53  C   UNL A   1      39.918  32.722  30.272  1.00  0.00     0.031 C 
ATOM     54  C   UNL A   1      44.664  29.876  31.769  1.00  0.00     0.029 A 
ATOM     55  C   UNL A   1      43.659  30.836  31.648  1.00  0.00     0.049 A 
ATOM     56  H   UNL A   1      43.893  32.600  30.518  1.00  0.00     0.167 HD
ATOM     57  C   UNL A   1      41.344  31.743  31.827  1.00  0.00     0.074 A 
ATOM     58  C   UNL A   1      41.198  32.539  30.609  1.00  0.00     0.031 C 
ATOM     59  C   UNL A   1      42.386  31.004  32.312  1.00  0.00     0.037 A 
BRANCH  46  60
ATOM     60  C   UNL A   1      44.875  32.274  27.616  1.00  0.00     0.064 A 
ATOM     61  C   UNL A   1      46.087  32.421  26.907  1.00  0.00     0.173 A 
ATOM     62  C   UNL A   1      44.135  33.463  27.793  1.00  0.00     0.173 A 
ATOM     63  F   UNL A   1      46.877  31.362  26.675  1.00  0.00    -0.203 F 
ATOM     64  C   UNL A   1      46.563  33.672  26.502  1.00  0.00     0.198 A 
ATOM     65  C   UNL A   1      44.588  34.702  27.339  1.00  0.00     0.198 A 
ATOM     66  F   UNL A   1      43.001  33.508  28.498  1.00  0.00    -0.203 F 
ATOM     67  F   UNL A   1      47.781  33.772  25.954  1.00  0.00    -0.200 F 
ATOM     68  C   UNL A   1      45.818  34.812  26.727  1.00  0.00     0.200 A 
ATOM     69  F   UNL A   1      43.854  35.798  27.577  1.00  0.00    -0.200 F 
ATOM     70  F   UNL A   1      46.299  36.018  26.402  1.00  0.00    -0.200 F 
ENDBRANCH  46  60
BRANCH  47  71
ATOM     71  C   UNL A   1      36.758  31.776  30.675  1.00  0.00     0.064 A 
ATOM     72  C   UNL A   1      35.912  32.046  31.763  1.00  0.00     0.173 A 
ATOM     73  C   UNL A   1      36.425  32.395  29.454  1.00  0.00     0.173 A 
ATOM     74  F   UNL A   1      36.188  31.535  32.971  1.00  0.00    -0.203 F 
ATOM     75  C   UNL A   1      34.806  32.895  31.640  1.00  0.00     0.198 A 
ATOM     76  C   UNL A   1      35.321  33.242  29.332  1.00  0.00     0.198 A 
ATOM     77  F   UNL A   1      37.221  32.266  28.382  1.00  0.00    -0.203 F 
ATOM     78  F   UNL A   1      34.052  33.172  32.713  1.00  0.00    -0.200 F 
ATOM     79  C   UNL A   1      34.517  33.500  30.427  1.00  0.00     0.200 A 
ATOM     80  F   UNL A   1      35.078  33.855  28.164  1.00  0.00    -0.200 F 
ATOM     81  F   UNL A   1      33.496  34.361  30.325  1.00  0.00    -0.200 F 
ENDBRANCH  47  71
BRANCH  59  82
ATOM     82  C   UNL A   1      42.126  30.122  33.505  1.00  0.00     0.064 A 
ATOM     83  C   UNL A   1      41.741  28.772  33.423  1.00  0.00     0.173 A 
ATOM     84  C   UNL A   1      42.436  30.622  34.776  1.00  0.00     0.173 A 
ATOM     85  F   UNL A   1      41.523  28.188  32.241  1.00  0.00    -0.203 F 
ATOM     86  C   UNL A   1      41.635  27.975  34.562  1.00  0.00     0.198 A 
ATOM     87  C   UNL A   1      42.365  29.815  35.909  1.00  0.00     0.198 A 
ATOM     88  F   UNL A   1      42.864  31.887  34.913  1.00  0.00    -0.203 F 
ATOM     89  F   UNL A   1      41.258  26.691  34.453  1.00  0.00    -0.200 F 
ATOM     90  C   UNL A   1      41.956  28.496  35.803  1.00  0.00     0.200 A 
ATOM     91  F   UNL A   1      42.727  30.310  37.100  1.00  0.00    -0.200 F 
ATOM     92  F   UNL A   1      41.898  27.720  36.895  1.00  0.00    -0.200 F 
ENDBRANCH  59  82
ENDBRANCH  33  34
ENDBRANCH  25  28
ENDBRANCH  23  24
ENDBRANCH  22  23
ENDBRANCH   1  22
TORSDOF 15
ENDMDL
