MODEL 1
REMARK VINA RESULT:     -12.4      0.000      0.000
REMARK SMILES CC(=O)N[C@@H](Cc1c(OCC(C)C)ccc2ccccc12)C(=O)NCCCNC(=O)c1ccc(-c2c3nc(c(-c4c(F)c(F)c(F)c(F)c4F)c4ccc([nH]4)c(-c4c(F)c(F)c(F)c(F)c4F)c4nc(c(-c5c(F)c(F)c(F)c(F)c5F)c5ccc2[nH]5)C=C4)C=C3)cc1
REMARK SMILES IDX 22 1 23 2 24 3 5 5 4 6 1 7 2 8 3 9 6 11 7 12 8 13 21 14
REMARK SMILES IDX 14 15 16 16 20 17 15 18 17 19 19 20 18 21 9 22 10 23 11 24
REMARK SMILES IDX 12 25 13 26 25 27 26 28 27 29 28 30 29 31 30 33 31 34 32 35
REMARK SMILES IDX 93 36 33 37 92 38 34 39 35 40 36 41 86 42 37 43 91 44 85 45
REMARK SMILES IDX 87 46 38 47 90 48 84 49 83 50 39 52 71 53 51 54 70 55 52 56
REMARK SMILES IDX 55 57 69 58 88 59 53 60 54 61 68 63 89 64 56 65 40 66 41 67
REMARK SMILES IDX 49 68 42 69 43 70 47 71 50 72 44 73 45 74 48 75 46 76 72 77
REMARK SMILES IDX 73 78 81 79 74 80 75 81 79 82 82 83 76 84 77 85 80 86 78 87
REMARK SMILES IDX 57 88 58 89 66 90 59 91 60 92 64 93 67 94 61 95 62 96 65 97
REMARK SMILES IDX 63 98
REMARK H PARENT 24 4 4 10 28 32 87 51 55 62
REMARK Flexibility Score: inf
ROOT
ATOM      1  C   UNL A   1      33.536  28.782  27.121  1.00  0.00     0.242 C 
ATOM      2  O   UNL A   1      34.572  28.686  27.790  1.00  0.00    -0.273 OA
ATOM      3  N   UNL A   1      32.818  29.932  27.283  1.00  0.00    -0.354 N 
ATOM      4  H   UNL A   1      33.047  30.460  28.083  1.00  0.00     0.163 HD
ENDROOT
BRANCH   1   5
ATOM      5  C   UNL A   1      33.165  27.671  26.104  1.00  0.00     0.175 C 
BRANCH   5   6
ATOM      6  N   UNL A   1      31.739  27.344  26.104  1.00  0.00    -0.344 N 
ATOM      7  C   UNL A   1      32.035  24.928  26.535  1.00  0.00     0.114 C 
ATOM      8  C   UNL A   1      31.161  26.150  26.424  1.00  0.00     0.217 C 
ATOM      9  O   UNL A   1      29.945  26.094  26.593  1.00  0.00    -0.275 OA
ATOM     10  H   UNL A   1      31.126  28.070  25.843  1.00  0.00     0.164 HD
ENDBRANCH   5   6
BRANCH   5  11
ATOM     11  C   UNL A   1      33.776  27.873  24.695  1.00  0.00     0.075 C 
BRANCH  11  12
ATOM     12  C   UNL A   1      33.300  26.938  23.590  1.00  0.00     0.005 A 
ATOM     13  C   UNL A   1      32.373  27.423  22.638  1.00  0.00     0.123 A 
ATOM     14  C   UNL A   1      33.733  25.571  23.517  1.00  0.00    -0.011 A 
ATOM     15  C   UNL A   1      31.767  26.536  21.750  1.00  0.00     0.047 A 
ATOM     16  C   UNL A   1      33.130  24.712  22.561  1.00  0.00    -0.018 A 
ATOM     17  C   UNL A   1      34.756  25.003  24.315  1.00  0.00     0.009 A 
ATOM     18  C   UNL A   1      32.124  25.194  21.727  1.00  0.00     0.012 A 
ATOM     19  C   UNL A   1      33.546  23.380  22.421  1.00  0.00     0.009 A 
ATOM     20  C   UNL A   1      35.180  23.679  24.151  1.00  0.00     0.001 A 
ATOM     21  C   UNL A   1      34.576  22.868  23.201  1.00  0.00     0.001 A 
BRANCH  13  22
ATOM     22  O   UNL A   1      32.177  28.780  22.566  1.00  0.00    -0.493 OA
BRANCH  22  23
ATOM     23  C   UNL A   1      30.874  29.249  22.217  1.00  0.00     0.232 C 
BRANCH  23  24
ATOM     24  C   UNL A   1      29.894  29.340  23.402  1.00  0.00     0.020 C 
ATOM     25  C   UNL A   1      29.155  30.672  23.529  1.00  0.00     0.011 C 
ATOM     26  C   UNL A   1      28.865  28.211  23.292  1.00  0.00     0.011 C 
ENDBRANCH  23  24
ENDBRANCH  22  23
ENDBRANCH  13  22
ENDBRANCH  11  12
ENDBRANCH   5  11
ENDBRANCH   1   5
BRANCH   3  27
ATOM     27  C   UNL A   1      31.769  30.495  26.455  1.00  0.00     0.117 C 
BRANCH  27  28
ATOM     28  C   UNL A   1      31.540  31.985  26.643  1.00  0.00     0.042 C 
BRANCH  28  29
ATOM     29  C   UNL A   1      32.665  32.735  27.343  1.00  0.00     0.118 C 
BRANCH  29  30
ATOM     30  N   UNL A   1      32.332  34.108  27.706  1.00  0.00    -0.352 N 
ATOM     31  C   UNL A   1      32.929  35.008  28.556  1.00  0.00     0.251 C 
ATOM     32  H   UNL A   1      31.528  34.456  27.257  1.00  0.00     0.163 HD
ATOM     33  O   UNL A   1      32.452  36.124  28.700  1.00  0.00    -0.269 OA
BRANCH  31  34
ATOM     34  C   UNL A   1      34.089  34.585  29.364  1.00  0.00     0.039 A 
ATOM     35  C   UNL A   1      33.854  34.042  30.631  1.00  0.00     0.014 A 
ATOM     36  C   UNL A   1      35.378  34.618  28.837  1.00  0.00     0.014 A 
ATOM     37  C   UNL A   1      34.894  33.408  31.310  1.00  0.00     0.010 A 
ATOM     38  C   UNL A   1      36.379  33.887  29.457  1.00  0.00     0.010 A 
ATOM     39  C   UNL A   1      36.144  33.260  30.691  1.00  0.00    -0.014 A 
BRANCH  39  40
ATOM     40  C   UNL A   1      37.227  32.443  31.294  1.00  0.00     0.031 A 
ATOM     41  C   UNL A   1      37.731  32.784  32.668  1.00  0.00     0.074 A 
ATOM     42  C   UNL A   1      37.829  31.483  30.562  1.00  0.00     0.049 A 
ATOM     43  N   UNL A   1      38.780  32.332  33.302  1.00  0.00    -0.248 NA
ATOM     44  C   UNL A   1      36.978  33.811  33.407  1.00  0.00     0.031 C 
ATOM     45  C   UNL A   1      37.471  31.106  29.192  1.00  0.00     0.029 A 
ATOM     46  N   UNL A   1      38.886  30.661  30.863  1.00  0.00    -0.354 N 
ATOM     47  C   UNL A   1      38.834  33.045  34.492  1.00  0.00     0.074 A 
ATOM     48  C   UNL A   1      37.748  34.000  34.468  1.00  0.00     0.031 C 
ATOM     49  C   UNL A   1      38.275  30.111  28.782  1.00  0.00     0.029 A 
ATOM     50  C   UNL A   1      39.233  29.810  29.840  1.00  0.00     0.049 A 
ATOM     51  H   UNL A   1      39.352  30.679  31.729  1.00  0.00     0.167 HD
ATOM     52  C   UNL A   1      39.695  32.896  35.527  1.00  0.00     0.037 A 
ATOM     53  C   UNL A   1      40.220  28.898  29.767  1.00  0.00     0.037 A 
ATOM     54  C   UNL A   1      40.734  31.905  35.566  1.00  0.00     0.049 A 
ATOM     55  C   UNL A   1      41.133  28.721  30.950  1.00  0.00     0.074 A 
ATOM     56  C   UNL A   1      41.627  31.628  36.586  1.00  0.00     0.029 A 
ATOM     57  N   UNL A   1      41.007  31.012  34.539  1.00  0.00    -0.354 N 
ATOM     58  N   UNL A   1      41.145  29.369  32.090  1.00  0.00    -0.248 NA
ATOM     59  C   UNL A   1      42.167  27.683  30.840  1.00  0.00     0.031 C 
ATOM     60  C   UNL A   1      42.453  30.580  36.168  1.00  0.00     0.029 A 
ATOM     61  C   UNL A   1      42.052  30.181  34.903  1.00  0.00     0.049 A 
ATOM     62  H   UNL A   1      40.529  30.976  33.680  1.00  0.00     0.167 HD
ATOM     63  C   UNL A   1      42.159  28.797  32.844  1.00  0.00     0.074 A 
ATOM     64  C   UNL A   1      42.734  27.741  32.036  1.00  0.00     0.031 C 
ATOM     65  C   UNL A   1      42.584  29.119  34.089  1.00  0.00     0.037 A 
BRANCH  52  66
ATOM     66  C   UNL A   1      39.526  33.807  36.706  1.00  0.00     0.064 A 
ATOM     67  C   UNL A   1      38.764  33.427  37.821  1.00  0.00     0.173 A 
ATOM     68  C   UNL A   1      40.152  35.062  36.736  1.00  0.00     0.173 A 
ATOM     69  F   UNL A   1      38.130  32.245  37.835  1.00  0.00    -0.203 F 
ATOM     70  C   UNL A   1      38.612  34.280  38.911  1.00  0.00     0.198 A 
ATOM     71  C   UNL A   1      40.024  35.901  37.841  1.00  0.00     0.198 A 
ATOM     72  F   UNL A   1      40.893  35.474  35.697  1.00  0.00    -0.203 F 
ATOM     73  F   UNL A   1      37.837  33.916  39.941  1.00  0.00    -0.200 F 
ATOM     74  C   UNL A   1      39.247  35.512  38.923  1.00  0.00     0.200 A 
ATOM     75  F   UNL A   1      40.646  37.087  37.856  1.00  0.00    -0.200 F 
ATOM     76  F   UNL A   1      39.106  36.329  39.976  1.00  0.00    -0.200 F 
ENDBRANCH  52  66
BRANCH  53  77
ATOM     77  C   UNL A   1      40.380  28.056  28.551  1.00  0.00     0.064 A 
ATOM     78  C   UNL A   1      39.785  26.790  28.475  1.00  0.00     0.173 A 
ATOM     79  C   UNL A   1      41.142  28.485  27.455  1.00  0.00     0.173 A 
ATOM     80  F   UNL A   1      39.062  26.328  29.506  1.00  0.00    -0.203 F 
ATOM     81  C   UNL A   1      39.970  25.970  27.364  1.00  0.00     0.198 A 
ATOM     82  C   UNL A   1      41.304  27.675  26.331  1.00  0.00     0.198 A 
ATOM     83  F   UNL A   1      41.726  29.692  27.472  1.00  0.00    -0.203 F 
ATOM     84  F   UNL A   1      39.435  24.742  27.343  1.00  0.00    -0.200 F 
ATOM     85  C   UNL A   1      40.728  26.415  26.290  1.00  0.00     0.200 A 
ATOM     86  F   UNL A   1      42.026  28.113  25.290  1.00  0.00    -0.200 F 
ATOM     87  F   UNL A   1      40.909  25.625  25.224  1.00  0.00    -0.200 F 
ENDBRANCH  53  77
BRANCH  65  88
ATOM     88  C   UNL A   1      43.683  28.285  34.673  1.00  0.00     0.064 A 
ATOM     89  C   UNL A   1      45.026  28.679  34.593  1.00  0.00     0.173 A 
ATOM     90  C   UNL A   1      43.381  27.101  35.362  1.00  0.00     0.173 A 
ATOM     91  F   UNL A   1      45.363  29.797  33.931  1.00  0.00    -0.203 F 
ATOM     92  C   UNL A   1      46.032  27.904  35.162  1.00  0.00     0.198 A 
ATOM     93  C   UNL A   1      44.386  26.344  35.954  1.00  0.00     0.198 A 
ATOM     94  F   UNL A   1      42.110  26.687  35.471  1.00  0.00    -0.203 F 
ATOM     95  F   UNL A   1      47.313  28.276  35.037  1.00  0.00    -0.200 F 
ATOM     96  C   UNL A   1      45.711  26.741  35.848  1.00  0.00     0.200 A 
ATOM     97  F   UNL A   1      44.075  25.227  36.626  1.00  0.00    -0.200 F 
ATOM     98  F   UNL A   1      46.680  26.001  36.402  1.00  0.00    -0.200 F 
ENDBRANCH  65  88
ENDBRANCH  39  40
ENDBRANCH  31  34
ENDBRANCH  29  30
ENDBRANCH  28  29
ENDBRANCH  27  28
ENDBRANCH   3  27
TORSDOF 16
ENDMDL
MODEL 2
REMARK VINA RESULT:     -12.3      5.352      9.500
REMARK SMILES CC(=O)N[C@@H](Cc1c(OCC(C)C)ccc2ccccc12)C(=O)NCCCNC(=O)c1ccc(-c2c3nc(c(-c4c(F)c(F)c(F)c(F)c4F)c4ccc([nH]4)c(-c4c(F)c(F)c(F)c(F)c4F)c4nc(c(-c5c(F)c(F)c(F)c(F)c5F)c5ccc2[nH]5)C=C4)C=C3)cc1
REMARK SMILES IDX 22 1 23 2 24 3 5 5 4 6 1 7 2 8 3 9 6 11 7 12 8 13 21 14
REMARK SMILES IDX 14 15 16 16 20 17 15 18 17 19 19 20 18 21 9 22 10 23 11 24
REMARK SMILES IDX 12 25 13 26 25 27 26 28 27 29 28 30 29 31 30 33 31 34 32 35
REMARK SMILES IDX 93 36 33 37 92 38 34 39 35 40 36 41 86 42 37 43 91 44 85 45
REMARK SMILES IDX 87 46 38 47 90 48 84 49 83 50 39 52 71 53 51 54 70 55 52 56
REMARK SMILES IDX 55 57 69 58 88 59 53 60 54 61 68 63 89 64 56 65 40 66 41 67
REMARK SMILES IDX 49 68 42 69 43 70 47 71 50 72 44 73 45 74 48 75 46 76 72 77
REMARK SMILES IDX 73 78 81 79 74 80 75 81 79 82 82 83 76 84 77 85 80 86 78 87
REMARK SMILES IDX 57 88 58 89 66 90 59 91 60 92 64 93 67 94 61 95 62 96 65 97
REMARK SMILES IDX 63 98
REMARK H PARENT 24 4 4 10 28 32 87 51 55 62
REMARK Flexibility Score: inf
ROOT
ATOM      1  C   UNL A   1      34.848  22.846  26.874  1.00  0.00     0.242 C 
ATOM      2  O   UNL A   1      34.426  22.548  27.997  1.00  0.00    -0.273 OA
ATOM      3  N   UNL A   1      36.029  22.269  26.500  1.00  0.00    -0.354 N 
ATOM      4  H   UNL A   1      36.553  21.875  27.235  1.00  0.00     0.163 HD
ENDROOT
BRANCH   1   5
ATOM      5  C   UNL A   1      34.003  23.757  25.945  1.00  0.00     0.175 C 
BRANCH   5   6
ATOM      6  N   UNL A   1      32.675  24.052  26.482  1.00  0.00    -0.344 N 
ATOM      7  C   UNL A   1      31.704  21.834  25.984  1.00  0.00     0.114 C 
ATOM      8  C   UNL A   1      31.635  23.184  26.649  1.00  0.00     0.217 C 
ATOM      9  O   UNL A   1      30.663  23.528  27.316  1.00  0.00    -0.275 OA
ATOM     10  H   UNL A   1      32.512  24.985  26.754  1.00  0.00     0.164 HD
ENDBRANCH   5   6
BRANCH   5  11
ATOM     11  C   UNL A   1      34.766  24.994  25.407  1.00  0.00     0.075 C 
BRANCH  11  12
ATOM     12  C   UNL A   1      33.980  25.974  24.545  1.00  0.00     0.005 A 
ATOM     13  C   UNL A   1      33.869  25.727  23.157  1.00  0.00     0.123 A 
ATOM     14  C   UNL A   1      33.388  27.160  25.098  1.00  0.00    -0.011 A 
ATOM     15  C   UNL A   1      33.340  26.707  22.321  1.00  0.00     0.047 A 
ATOM     16  C   UNL A   1      32.808  28.110  24.217  1.00  0.00    -0.018 A 
ATOM     17  C   UNL A   1      33.304  27.453  26.482  1.00  0.00     0.009 A 
ATOM     18  C   UNL A   1      32.836  27.893  22.841  1.00  0.00     0.012 A 
ATOM     19  C   UNL A   1      32.181  29.264  24.708  1.00  0.00     0.009 A 
ATOM     20  C   UNL A   1      32.654  28.596  26.962  1.00  0.00     0.001 A 
ATOM     21  C   UNL A   1      32.090  29.500  26.074  1.00  0.00     0.001 A 
BRANCH  13  22
ATOM     22  O   UNL A   1      34.208  24.478  22.699  1.00  0.00    -0.493 OA
BRANCH  22  23
ATOM     23  C   UNL A   1      33.211  23.730  22.000  1.00  0.00     0.232 C 
BRANCH  23  24
ATOM     24  C   UNL A   1      32.198  23.015  22.914  1.00  0.00     0.020 C 
ATOM     25  C   UNL A   1      30.881  23.760  23.126  1.00  0.00     0.011 C 
ATOM     26  C   UNL A   1      31.895  21.627  22.340  1.00  0.00     0.011 C 
ENDBRANCH  23  24
ENDBRANCH  22  23
ENDBRANCH  13  22
ENDBRANCH  11  12
ENDBRANCH   5  11
ENDBRANCH   1   5
BRANCH   3  27
ATOM     27  C   UNL A   1      36.626  22.147  25.185  1.00  0.00     0.117 C 
BRANCH  27  28
ATOM     28  C   UNL A   1      37.569  20.967  25.021  1.00  0.00     0.042 C 
BRANCH  28  29
ATOM     29  C   UNL A   1      38.869  21.055  25.810  1.00  0.00     0.118 C 
BRANCH  29  30
ATOM     30  N   UNL A   1      39.692  19.853  25.740  1.00  0.00    -0.352 N 
ATOM     31  C   UNL A   1      41.015  19.624  26.033  1.00  0.00     0.251 C 
ATOM     32  H   UNL A   1      39.208  19.056  25.426  1.00  0.00     0.163 HD
ATOM     33  O   UNL A   1      41.488  18.505  25.890  1.00  0.00    -0.269 OA
BRANCH  31  34
ATOM     34  C   UNL A   1      41.879  20.753  26.427  1.00  0.00     0.039 A 
ATOM     35  C   UNL A   1      42.320  21.631  25.432  1.00  0.00     0.014 A 
ATOM     36  C   UNL A   1      42.157  21.007  27.768  1.00  0.00     0.014 A 
ATOM     37  C   UNL A   1      42.921  22.835  25.796  1.00  0.00     0.010 A 
ATOM     38  C   UNL A   1      42.646  22.252  28.131  1.00  0.00     0.010 A 
ATOM     39  C   UNL A   1      43.017  23.186  27.151  1.00  0.00    -0.014 A 
BRANCH  39  40
ATOM     40  C   UNL A   1      43.485  24.527  27.583  1.00  0.00     0.031 A 
ATOM     41  C   UNL A   1      42.477  25.574  27.961  1.00  0.00     0.074 A 
ATOM     42  C   UNL A   1      44.798  24.830  27.520  1.00  0.00     0.049 A 
ATOM     43  N   UNL A   1      42.651  26.850  28.184  1.00  0.00    -0.248 NA
ATOM     44  C   UNL A   1      41.075  25.134  28.049  1.00  0.00     0.031 C 
ATOM     45  C   UNL A   1      45.865  23.915  27.105  1.00  0.00     0.029 A 
ATOM     46  N   UNL A   1      45.458  26.004  27.787  1.00  0.00    -0.354 N 
ATOM     47  C   UNL A   1      41.381  27.369  28.400  1.00  0.00     0.074 A 
ATOM     48  C   UNL A   1      40.441  26.283  28.224  1.00  0.00     0.031 C 
ATOM     49  C   UNL A   1      47.045  24.553  27.170  1.00  0.00     0.029 A 
ATOM     50  C   UNL A   1      46.816  25.931  27.588  1.00  0.00     0.049 A 
ATOM     51  H   UNL A   1      45.001  26.820  28.092  1.00  0.00     0.167 HD
ATOM     52  C   UNL A   1      41.033  28.630  28.744  1.00  0.00     0.037 A 
ATOM     53  C   UNL A   1      47.764  26.878  27.720  1.00  0.00     0.037 A 
ATOM     54  C   UNL A   1      41.979  29.688  28.974  1.00  0.00     0.049 A 
ATOM     55  C   UNL A   1      47.353  28.260  28.150  1.00  0.00     0.074 A 
ATOM     56  C   UNL A   1      41.741  30.988  29.381  1.00  0.00     0.029 A 
ATOM     57  N   UNL A   1      43.353  29.555  28.833  1.00  0.00    -0.354 N 
ATOM     58  N   UNL A   1      46.154  28.727  28.397  1.00  0.00    -0.248 NA
ATOM     59  C   UNL A   1      48.428  29.247  28.323  1.00  0.00     0.031 C 
ATOM     60  C   UNL A   1      42.971  31.648  29.467  1.00  0.00     0.029 A 
ATOM     61  C   UNL A   1      43.976  30.750  29.149  1.00  0.00     0.049 A 
ATOM     62  H   UNL A   1      43.816  28.734  28.550  1.00  0.00     0.167 HD
ATOM     63  C   UNL A   1      46.330  30.047  28.787  1.00  0.00     0.074 A 
ATOM     64  C   UNL A   1      47.756  30.303  28.755  1.00  0.00     0.031 C 
ATOM     65  C   UNL A   1      45.399  30.967  29.135  1.00  0.00     0.037 A 
BRANCH  52  66
ATOM     66  C   UNL A   1      39.572  28.924  28.919  1.00  0.00     0.064 A 
ATOM     67  C   UNL A   1      38.952  28.829  30.174  1.00  0.00     0.173 A 
ATOM     68  C   UNL A   1      38.789  29.329  27.829  1.00  0.00     0.173 A 
ATOM     69  F   UNL A   1      39.653  28.429  31.245  1.00  0.00    -0.203 F 
ATOM     70  C   UNL A   1      37.595  29.102  30.326  1.00  0.00     0.198 A 
ATOM     71  C   UNL A   1      37.438  29.631  27.990  1.00  0.00     0.198 A 
ATOM     72  F   UNL A   1      39.332  29.437  26.607  1.00  0.00    -0.203 F 
ATOM     73  F   UNL A   1      37.014  28.953  31.524  1.00  0.00    -0.200 F 
ATOM     74  C   UNL A   1      36.842  29.510  29.237  1.00  0.00     0.200 A 
ATOM     75  F   UNL A   1      36.713  30.035  26.938  1.00  0.00    -0.200 F 
ATOM     76  F   UNL A   1      35.538  29.779  29.386  1.00  0.00    -0.200 F 
ENDBRANCH  52  66
BRANCH  53  77
ATOM     77  C   UNL A   1      49.196  26.550  27.480  1.00  0.00     0.064 A 
ATOM     78  C   UNL A   1      49.697  26.452  26.175  1.00  0.00     0.173 A 
ATOM     79  C   UNL A   1      50.083  26.307  28.538  1.00  0.00     0.173 A 
ATOM     80  F   UNL A   1      48.882  26.658  25.129  1.00  0.00    -0.203 F 
ATOM     81  C   UNL A   1      51.022  26.095  25.935  1.00  0.00     0.198 A 
ATOM     82  C   UNL A   1      51.415  25.976  28.298  1.00  0.00     0.198 A 
ATOM     83  F   UNL A   1      49.657  26.396  29.807  1.00  0.00    -0.203 F 
ATOM     84  F   UNL A   1      51.458  25.955  24.676  1.00  0.00    -0.200 F 
ATOM     85  C   UNL A   1      51.882  25.860  26.997  1.00  0.00     0.200 A 
ATOM     86  F   UNL A   1      52.247  25.763  29.328  1.00  0.00    -0.200 F 
ATOM     87  F   UNL A   1      53.154  25.512  26.766  1.00  0.00    -0.200 F 
ENDBRANCH  53  77
BRANCH  65  88
ATOM     88  C   UNL A   1      45.896  32.315  29.561  1.00  0.00     0.064 A 
ATOM     89  C   UNL A   1      46.043  33.367  28.646  1.00  0.00     0.173 A 
ATOM     90  C   UNL A   1      46.184  32.567  30.911  1.00  0.00     0.173 A 
ATOM     91  F   UNL A   1      45.794  33.167  27.343  1.00  0.00    -0.203 F 
ATOM     92  C   UNL A   1      46.484  34.619  29.065  1.00  0.00     0.198 A 
ATOM     93  C   UNL A   1      46.597  33.827  31.329  1.00  0.00     0.198 A 
ATOM     94  F   UNL A   1      46.051  31.593  31.824  1.00  0.00    -0.203 F 
ATOM     95  F   UNL A   1      46.659  35.599  28.167  1.00  0.00    -0.200 F 
ATOM     96  C   UNL A   1      46.753  34.850  30.406  1.00  0.00     0.200 A 
ATOM     97  F   UNL A   1      46.845  34.054  32.627  1.00  0.00    -0.200 F 
ATOM     98  F   UNL A   1      47.169  36.059  30.808  1.00  0.00    -0.200 F 
ENDBRANCH  65  88
ENDBRANCH  39  40
ENDBRANCH  31  34
ENDBRANCH  29  30
ENDBRANCH  28  29
ENDBRANCH  27  28
ENDBRANCH   3  27
TORSDOF 16
ENDMDL
MODEL 3
REMARK VINA RESULT:     -12.2      3.485      5.445
REMARK SMILES CC(=O)N[C@@H](Cc1c(OCC(C)C)ccc2ccccc12)C(=O)NCCCNC(=O)c1ccc(-c2c3nc(c(-c4c(F)c(F)c(F)c(F)c4F)c4ccc([nH]4)c(-c4c(F)c(F)c(F)c(F)c4F)c4nc(c(-c5c(F)c(F)c(F)c(F)c5F)c5ccc2[nH]5)C=C4)C=C3)cc1
REMARK SMILES IDX 22 1 23 2 24 3 5 5 4 6 1 7 2 8 3 9 6 11 7 12 8 13 21 14
REMARK SMILES IDX 14 15 16 16 20 17 15 18 17 19 19 20 18 21 9 22 10 23 11 24
REMARK SMILES IDX 12 25 13 26 25 27 26 28 27 29 28 30 29 31 30 33 31 34 32 35
REMARK SMILES IDX 93 36 33 37 92 38 34 39 35 40 36 41 86 42 37 43 91 44 85 45
REMARK SMILES IDX 87 46 38 47 90 48 84 49 83 50 39 52 71 53 51 54 70 55 52 56
REMARK SMILES IDX 55 57 69 58 88 59 53 60 54 61 68 63 89 64 56 65 40 66 41 67
REMARK SMILES IDX 49 68 42 69 43 70 47 71 50 72 44 73 45 74 48 75 46 76 72 77
REMARK SMILES IDX 73 78 81 79 74 80 75 81 79 82 82 83 76 84 77 85 80 86 78 87
REMARK SMILES IDX 57 88 58 89 66 90 59 91 60 92 64 93 67 94 61 95 62 96 65 97
REMARK SMILES IDX 63 98
REMARK H PARENT 24 4 4 10 28 32 87 51 55 62
REMARK Flexibility Score: inf
ROOT
ATOM      1  C   UNL A   1      33.723  28.455  23.714  1.00  0.00     0.242 C 
ATOM      2  O   UNL A   1      34.473  28.780  22.786  1.00  0.00    -0.273 OA
ATOM      3  N   UNL A   1      33.168  29.479  24.428  1.00  0.00    -0.354 N 
ATOM      4  H   UNL A   1      33.599  30.356  24.306  1.00  0.00     0.163 HD
ENDROOT
BRANCH   1   5
ATOM      5  C   UNL A   1      33.393  26.959  23.956  1.00  0.00     0.175 C 
BRANCH   5   6
ATOM      6  N   UNL A   1      33.603  26.124  22.773  1.00  0.00    -0.344 N 
ATOM      7  C   UNL A   1      31.549  26.837  21.596  1.00  0.00     0.114 C 
ATOM      8  C   UNL A   1      32.876  26.125  21.617  1.00  0.00     0.217 C 
ATOM      9  O   UNL A   1      33.308  25.530  20.633  1.00  0.00    -0.275 OA
ATOM     10  H   UNL A   1      34.355  25.490  22.815  1.00  0.00     0.164 HD
ENDBRANCH   5   6
BRANCH   5  11
ATOM     11  C   UNL A   1      33.995  26.381  25.262  1.00  0.00     0.075 C 
BRANCH  11  12
ATOM     12  C   UNL A   1      33.549  24.984  25.674  1.00  0.00     0.005 A 
ATOM     13  C   UNL A   1      32.361  24.842  26.430  1.00  0.00     0.123 A 
ATOM     14  C   UNL A   1      34.322  23.818  25.353  1.00  0.00    -0.011 A 
ATOM     15  C   UNL A   1      32.045  23.607  26.993  1.00  0.00     0.047 A 
ATOM     16  C   UNL A   1      33.935  22.567  25.902  1.00  0.00    -0.018 A 
ATOM     17  C   UNL A   1      35.445  23.804  24.489  1.00  0.00     0.009 A 
ATOM     18  C   UNL A   1      32.834  22.489  26.752  1.00  0.00     0.012 A 
ATOM     19  C   UNL A   1      34.632  21.391  25.587  1.00  0.00     0.009 A 
ATOM     20  C   UNL A   1      36.118  22.621  24.162  1.00  0.00     0.001 A 
ATOM     21  C   UNL A   1      35.709  21.414  24.709  1.00  0.00     0.001 A 
BRANCH  13  22
ATOM     22  O   UNL A   1      31.512  25.918  26.499  1.00  0.00    -0.493 OA
BRANCH  22  23
ATOM     23  C   UNL A   1      30.187  25.757  25.991  1.00  0.00     0.232 C 
BRANCH  23  24
ATOM     24  C   UNL A   1      30.086  25.815  24.455  1.00  0.00     0.020 C 
ATOM     25  C   UNL A   1      30.256  24.473  23.745  1.00  0.00     0.011 C 
ATOM     26  C   UNL A   1      28.733  26.416  24.063  1.00  0.00     0.011 C 
ENDBRANCH  23  24
ENDBRANCH  22  23
ENDBRANCH  13  22
ENDBRANCH  11  12
ENDBRANCH   5  11
ENDBRANCH   1   5
BRANCH   3  27
ATOM     27  C   UNL A   1      32.040  29.470  25.339  1.00  0.00     0.117 C 
BRANCH  27  28
ATOM     28  C   UNL A   1      32.411  29.436  26.812  1.00  0.00     0.042 C 
BRANCH  28  29
ATOM     29  C   UNL A   1      33.842  29.845  27.134  1.00  0.00     0.118 C 
BRANCH  29  30
ATOM     30  N   UNL A   1      33.950  30.907  28.129  1.00  0.00    -0.352 N 
ATOM     31  C   UNL A   1      34.962  31.267  28.986  1.00  0.00     0.251 C 
ATOM     32  H   UNL A   1      33.147  31.472  28.199  1.00  0.00     0.163 HD
ATOM     33  O   UNL A   1      34.812  32.214  29.746  1.00  0.00    -0.269 OA
BRANCH  31  34
ATOM     34  C   UNL A   1      36.186  30.447  29.051  1.00  0.00     0.039 A 
ATOM     35  C   UNL A   1      37.154  30.617  28.057  1.00  0.00     0.014 A 
ATOM     36  C   UNL A   1      36.427  29.606  30.135  1.00  0.00     0.014 A 
ATOM     37  C   UNL A   1      38.417  30.050  28.223  1.00  0.00     0.010 A 
ATOM     38  C   UNL A   1      37.715  29.142  30.356  1.00  0.00     0.010 A 
ATOM     39  C   UNL A   1      38.728  29.373  29.412  1.00  0.00    -0.014 A 
BRANCH  39  40
ATOM     40  C   UNL A   1      40.104  28.905  29.713  1.00  0.00     0.031 A 
ATOM     41  C   UNL A   1      41.027  29.789  30.501  1.00  0.00     0.074 A 
ATOM     42  C   UNL A   1      40.550  27.750  29.178  1.00  0.00     0.049 A 
ATOM     43  N   UNL A   1      42.311  29.665  30.716  1.00  0.00    -0.248 NA
ATOM     44  C   UNL A   1      40.435  31.004  31.085  1.00  0.00     0.031 C 
ATOM     45  C   UNL A   1      39.766  26.839  28.340  1.00  0.00     0.029 A 
ATOM     46  N   UNL A   1      41.785  27.154  29.243  1.00  0.00    -0.354 N 
ATOM     47  C   UNL A   1      42.683  30.801  31.423  1.00  0.00     0.074 A 
ATOM     48  C   UNL A   1      41.505  31.630  31.551  1.00  0.00     0.031 C 
ATOM     49  C   UNL A   1      40.528  25.789  27.993  1.00  0.00     0.029 A 
ATOM     50  C   UNL A   1      41.865  25.973  28.545  1.00  0.00     0.049 A 
ATOM     51  H   UNL A   1      42.541  27.535  29.744  1.00  0.00     0.167 HD
ATOM     52  C   UNL A   1      43.893  31.111  31.944  1.00  0.00     0.037 A 
ATOM     53  C   UNL A   1      42.908  25.140  28.365  1.00  0.00     0.037 A 
ATOM     54  C   UNL A   1      45.044  30.253  31.862  1.00  0.00     0.049 A 
ATOM     55  C   UNL A   1      44.229  25.486  28.996  1.00  0.00     0.074 A 
ATOM     56  C   UNL A   1      46.303  30.441  32.402  1.00  0.00     0.029 A 
ATOM     57  N   UNL A   1      45.065  29.030  31.206  1.00  0.00    -0.354 N 
ATOM     58  N   UNL A   1      44.558  26.540  29.703  1.00  0.00    -0.248 NA
ATOM     59  C   UNL A   1      45.325  24.525  28.808  1.00  0.00     0.031 C 
ATOM     60  C   UNL A   1      47.093  29.340  32.057  1.00  0.00     0.029 A 
ATOM     61  C   UNL A   1      46.316  28.450  31.333  1.00  0.00     0.049 A 
ATOM     62  H   UNL A   1      44.305  28.634  30.724  1.00  0.00     0.167 HD
ATOM     63  C   UNL A   1      45.882  26.355  30.073  1.00  0.00     0.074 A 
ATOM     64  C   UNL A   1      46.294  25.080  29.521  1.00  0.00     0.031 C 
ATOM     65  C   UNL A   1      46.688  27.167  30.798  1.00  0.00     0.037 A 
BRANCH  52  66
ATOM     66  C   UNL A   1      44.021  32.416  32.673  1.00  0.00     0.064 A 
ATOM     67  C   UNL A   1      44.399  33.591  32.007  1.00  0.00     0.173 A 
ATOM     68  C   UNL A   1      43.738  32.500  34.044  1.00  0.00     0.173 A 
ATOM     69  F   UNL A   1      44.698  33.560  30.700  1.00  0.00    -0.203 F 
ATOM     70  C   UNL A   1      44.517  34.798  32.692  1.00  0.00     0.198 A 
ATOM     71  C   UNL A   1      43.826  33.715  34.721  1.00  0.00     0.198 A 
ATOM     72  F   UNL A   1      43.371  31.406  34.729  1.00  0.00    -0.203 F 
ATOM     73  F   UNL A   1      44.930  35.896  32.045  1.00  0.00    -0.200 F 
ATOM     74  C   UNL A   1      44.223  34.860  34.045  1.00  0.00     0.200 A 
ATOM     75  F   UNL A   1      43.533  33.776  36.026  1.00  0.00    -0.200 F 
ATOM     76  F   UNL A   1      44.329  36.023  34.702  1.00  0.00    -0.200 F 
ENDBRANCH  52  66
BRANCH  53  77
ATOM     77  C   UNL A   1      42.743  23.883  27.586  1.00  0.00     0.064 A 
ATOM     78  C   UNL A   1      43.075  23.838  26.225  1.00  0.00     0.173 A 
ATOM     79  C   UNL A   1      42.235  22.715  28.171  1.00  0.00     0.173 A 
ATOM     80  F   UNL A   1      43.548  24.936  25.615  1.00  0.00    -0.203 F 
ATOM     81  C   UNL A   1      42.877  22.683  25.471  1.00  0.00     0.198 A 
ATOM     82  C   UNL A   1      42.063  21.552  27.423  1.00  0.00     0.198 A 
ATOM     83  F   UNL A   1      41.909  22.702  29.472  1.00  0.00    -0.203 F 
ATOM     84  F   UNL A   1      43.151  22.686  24.159  1.00  0.00    -0.200 F 
ATOM     85  C   UNL A   1      42.373  21.539  26.072  1.00  0.00     0.200 A 
ATOM     86  F   UNL A   1      41.588  20.444  28.010  1.00  0.00    -0.200 F 
ATOM     87  F   UNL A   1      42.178  20.431  25.346  1.00  0.00    -0.200 F 
ENDBRANCH  53  77
BRANCH  65  88
ATOM     88  C   UNL A   1      48.075  26.676  31.082  1.00  0.00     0.064 A 
ATOM     89  C   UNL A   1      49.164  27.048  30.283  1.00  0.00     0.173 A 
ATOM     90  C   UNL A   1      48.320  25.860  32.197  1.00  0.00     0.173 A 
ATOM     91  F   UNL A   1      48.974  27.815  29.198  1.00  0.00    -0.203 F 
ATOM     92  C   UNL A   1      50.450  26.602  30.576  1.00  0.00     0.198 A 
ATOM     93  C   UNL A   1      49.610  25.439  32.503  1.00  0.00     0.198 A 
ATOM     94  F   UNL A   1      47.310  25.484  32.995  1.00  0.00    -0.203 F 
ATOM     95  F   UNL A   1      51.471  26.934  29.775  1.00  0.00    -0.200 F 
ATOM     96  C   UNL A   1      50.672  25.804  31.690  1.00  0.00     0.200 A 
ATOM     97  F   UNL A   1      49.826  24.678  33.585  1.00  0.00    -0.200 F 
ATOM     98  F   UNL A   1      51.911  25.382  31.975  1.00  0.00    -0.200 F 
ENDBRANCH  65  88
ENDBRANCH  39  40
ENDBRANCH  31  34
ENDBRANCH  29  30
ENDBRANCH  28  29
ENDBRANCH  27  28
ENDBRANCH   3  27
TORSDOF 16
ENDMDL
