MODEL 1
REMARK VINA RESULT:     -11.6      0.000      0.000
REMARK SMILES C[C@@H](NS(=O)(=O)c1ccc2c(c1)CCC2)C(=O)NCCCNC(=O)c1ccc(-c2c3nc(c(-c4c(F)c(F)c(F)c(F)c4F)c4ccc([nH]4)c(-c4c(F)c(F)c(F)c(F)c4F)c4nc(c(-c5c(F)c(F)c(F)c(F)c5F)c5ccc2[nH]5)C=C4)C=C3)cc1
REMARK SMILES IDX 19 1 18 2 16 3 17 4 2 6 1 7 3 8 4 10 5 11 6 12 7 13 8 14
REMARK SMILES IDX 12 15 9 16 11 17 10 18 13 19 15 20 14 21 20 22 21 23 22 24
REMARK SMILES IDX 23 25 24 27 25 28 26 29 87 30 27 31 86 32 28 33 29 34 30 35
REMARK SMILES IDX 80 36 31 37 85 38 79 39 81 40 32 41 84 42 78 43 77 44 33 46
REMARK SMILES IDX 65 47 45 48 64 49 46 50 49 51 63 52 82 53 47 54 48 55 62 57
REMARK SMILES IDX 83 58 50 59 34 60 35 61 43 62 36 63 37 64 41 65 44 66 38 67
REMARK SMILES IDX 39 68 42 69 40 70 66 71 67 72 75 73 68 74 69 75 73 76 76 77
REMARK SMILES IDX 70 78 71 79 74 80 72 81 51 82 52 83 60 84 53 85 54 86 58 87
REMARK SMILES IDX 61 88 55 89 56 90 59 91 57 92
REMARK H PARENT 18 5 3 9 22 26 81 45 49 56
REMARK Flexibility Score: inf
ROOT
ATOM      1  C   UNL A   1      33.652  35.164  29.588  1.00  0.00     0.117 C 
ENDROOT
BRANCH   1   2
ATOM      2  N   UNL A   1      32.594  35.330  30.570  1.00  0.00    -0.355 N 
ATOM      3  C   UNL A   1      32.651  35.790  31.856  1.00  0.00     0.237 C 
ATOM      4  O   UNL A   1      31.595  35.859  32.489  1.00  0.00    -0.273 OA
ATOM      5  H   UNL A   1      31.696  35.069  30.262  1.00  0.00     0.163 HD
BRANCH   3   6
ATOM      6  C   UNL A   1      33.984  36.182  32.494  1.00  0.00     0.155 C 
ATOM      7  C   UNL A   1      34.028  37.690  32.743  1.00  0.00     0.036 C 
BRANCH   6   8
ATOM      8  N   UNL A   1      34.219  35.432  33.745  1.00  0.00    -0.199 NA
ATOM      9  H   UNL A   1      33.329  35.388  34.241  1.00  0.00     0.142 HD
BRANCH   8  10
ATOM     10  S   UNL A   1      34.812  33.853  33.655  1.00  0.00     0.241 S 
ATOM     11  O   UNL A   1      35.153  33.453  35.001  1.00  0.00    -0.207 OA
ATOM     12  O   UNL A   1      33.837  33.122  32.877  1.00  0.00    -0.207 OA
BRANCH  10  13
ATOM     13  C   UNL A   1      36.291  33.965  32.683  1.00  0.00     0.082 A 
ATOM     14  C   UNL A   1      37.447  34.531  33.249  1.00  0.00     0.022 A 
ATOM     15  C   UNL A   1      36.274  33.541  31.349  1.00  0.00     0.025 A 
ATOM     16  C   UNL A   1      38.590  34.720  32.469  1.00  0.00     0.005 A 
ATOM     17  C   UNL A   1      37.396  33.790  30.573  1.00  0.00    -0.043 A 
ATOM     18  C   UNL A   1      38.544  34.362  31.132  1.00  0.00    -0.045 A 
ATOM     19  C   UNL A   1      37.555  33.635  29.093  1.00  0.00     0.036 C 
ATOM     20  C   UNL A   1      39.600  34.578  30.092  1.00  0.00     0.036 C 
ATOM     21  C   UNL A   1      39.078  33.713  28.936  1.00  0.00     0.010 C 
ENDBRANCH  10  13
ENDBRANCH   8  10
ENDBRANCH   6   8
ENDBRANCH   3   6
ENDBRANCH   1   2
BRANCH   1  22
ATOM     22  C   UNL A   1      33.272  34.176  28.500  1.00  0.00     0.042 C 
BRANCH  22  23
ATOM     23  C   UNL A   1      34.258  33.027  28.355  1.00  0.00     0.118 C 
BRANCH  23  24
ATOM     24  N   UNL A   1      33.710  31.893  27.626  1.00  0.00    -0.352 N 
ATOM     25  C   UNL A   1      34.247  30.652  27.395  1.00  0.00     0.251 C 
ATOM     26  H   UNL A   1      32.818  32.039  27.236  1.00  0.00     0.163 HD
ATOM     27  O   UNL A   1      33.663  29.865  26.656  1.00  0.00    -0.269 OA
BRANCH  25  28
ATOM     28  C   UNL A   1      35.536  30.273  28.008  1.00  0.00     0.039 A 
ATOM     29  C   UNL A   1      35.528  29.725  29.292  1.00  0.00     0.014 A 
ATOM     30  C   UNL A   1      36.745  30.462  27.333  1.00  0.00     0.014 A 
ATOM     31  C   UNL A   1      36.728  29.326  29.881  1.00  0.00     0.010 A 
ATOM     32  C   UNL A   1      37.927  29.978  27.880  1.00  0.00     0.010 A 
ATOM     33  C   UNL A   1      37.935  29.428  29.170  1.00  0.00    -0.014 A 
BRANCH  33  34
ATOM     34  C   UNL A   1      39.216  29.009  29.787  1.00  0.00     0.031 A 
ATOM     35  C   UNL A   1      39.704  29.687  31.038  1.00  0.00     0.074 A 
ATOM     36  C   UNL A   1      39.952  28.041  29.207  1.00  0.00     0.049 A 
ATOM     37  N   UNL A   1      40.793  29.464  31.731  1.00  0.00    -0.248 NA
ATOM     38  C   UNL A   1      38.875  30.783  31.565  1.00  0.00     0.031 C 
ATOM     39  C   UNL A   1      39.613  27.355  27.959  1.00  0.00     0.029 A 
ATOM     40  N   UNL A   1      41.135  27.467  29.593  1.00  0.00    -0.354 N 
ATOM     41  C   UNL A   1      40.782  30.396  32.760  1.00  0.00     0.074 A 
ATOM     42  C   UNL A   1      39.618  31.231  32.565  1.00  0.00     0.031 C 
ATOM     43  C   UNL A   1      40.548  26.426  27.701  1.00  0.00     0.029 A 
ATOM     44  C   UNL A   1      41.563  26.470  28.749  1.00  0.00     0.049 A 
ATOM     45  H   UNL A   1      41.632  27.742  30.397  1.00  0.00     0.167 HD
ATOM     46  C   UNL A   1      41.647  30.524  33.794  1.00  0.00     0.037 A 
ATOM     47  C   UNL A   1      42.647  25.675  28.825  1.00  0.00     0.037 A 
ATOM     48  C   UNL A   1      42.787  29.670  34.001  1.00  0.00     0.049 A 
ATOM     49  C   UNL A   1      43.574  25.815  30.002  1.00  0.00     0.074 A 
ATOM     50  C   UNL A   1      43.699  29.682  35.041  1.00  0.00     0.029 A 
ATOM     51  N   UNL A   1      43.166  28.646  33.145  1.00  0.00    -0.354 N 
ATOM     52  N   UNL A   1      43.514  26.651  31.011  1.00  0.00    -0.248 NA
ATOM     53  C   UNL A   1      44.709  24.885  30.062  1.00  0.00     0.031 C 
ATOM     54  C   UNL A   1      44.654  28.690  34.795  1.00  0.00     0.029 A 
ATOM     55  C   UNL A   1      44.305  28.024  33.629  1.00  0.00     0.049 A 
ATOM     56  H   UNL A   1      42.696  28.397  32.317  1.00  0.00     0.167 HD
ATOM     57  C   UNL A   1      44.577  26.325  31.841  1.00  0.00     0.074 A 
ATOM     58  C   UNL A   1      45.257  25.205  31.224  1.00  0.00     0.031 C 
ATOM     59  C   UNL A   1      44.958  26.899  33.009  1.00  0.00     0.037 A 
BRANCH  46  60
ATOM     60  C   UNL A   1      41.382  31.621  34.785  1.00  0.00     0.064 A 
ATOM     61  C   UNL A   1      40.471  31.457  35.839  1.00  0.00     0.173 A 
ATOM     62  C   UNL A   1      42.061  32.845  34.691  1.00  0.00     0.173 A 
ATOM     63  F   UNL A   1      39.783  30.312  35.966  1.00  0.00    -0.203 F 
ATOM     64  C   UNL A   1      40.223  32.489  36.742  1.00  0.00     0.198 A 
ATOM     65  C   UNL A   1      41.836  33.863  35.615  1.00  0.00     0.198 A 
ATOM     66  F   UNL A   1      42.945  33.056  33.705  1.00  0.00    -0.203 F 
ATOM     67  F   UNL A   1      39.306  32.328  37.705  1.00  0.00    -0.200 F 
ATOM     68  C   UNL A   1      40.911  33.687  36.634  1.00  0.00     0.200 A 
ATOM     69  F   UNL A   1      42.510  35.018  35.517  1.00  0.00    -0.200 F 
ATOM     70  F   UNL A   1      40.676  34.678  37.505  1.00  0.00    -0.200 F 
ENDBRANCH  46  60
BRANCH  47  71
ATOM     71  C   UNL A   1      42.884  24.640  27.786  1.00  0.00     0.064 A 
ATOM     72  C   UNL A   1      43.505  24.967  26.572  1.00  0.00     0.173 A 
ATOM     73  C   UNL A   1      42.492  23.308  27.979  1.00  0.00     0.173 A 
ATOM     74  F   UNL A   1      43.883  26.232  26.335  1.00  0.00    -0.203 F 
ATOM     75  C   UNL A   1      43.699  24.008  25.580  1.00  0.00     0.198 A 
ATOM     76  C   UNL A   1      42.713  22.343  26.997  1.00  0.00     0.198 A 
ATOM     77  F   UNL A   1      41.903  22.940  29.126  1.00  0.00    -0.203 F 
ATOM     78  F   UNL A   1      44.249  24.361  24.410  1.00  0.00    -0.200 F 
ATOM     79  C   UNL A   1      43.307  22.696  25.795  1.00  0.00     0.200 A 
ATOM     80  F   UNL A   1      42.348  21.072  27.216  1.00  0.00    -0.200 F 
ATOM     81  F   UNL A   1      43.496  21.774  24.842  1.00  0.00    -0.200 F 
ENDBRANCH  47  71
BRANCH  59  82
ATOM     82  C   UNL A   1      46.130  26.290  33.721  1.00  0.00     0.064 A 
ATOM     83  C   UNL A   1      45.974  25.259  34.658  1.00  0.00     0.173 A 
ATOM     84  C   UNL A   1      47.433  26.737  33.446  1.00  0.00     0.173 A 
ATOM     85  F   UNL A   1      44.749  24.806  34.966  1.00  0.00    -0.203 F 
ATOM     86  C   UNL A   1      47.075  24.724  35.324  1.00  0.00     0.198 A 
ATOM     87  C   UNL A   1      48.533  26.176  34.087  1.00  0.00     0.198 A 
ATOM     88  F   UNL A   1      47.638  27.714  32.549  1.00  0.00    -0.203 F 
ATOM     89  F   UNL A   1      46.896  23.783  36.261  1.00  0.00    -0.200 F 
ATOM     90  C   UNL A   1      48.353  25.180  35.034  1.00  0.00     0.200 A 
ATOM     91  F   UNL A   1      49.767  26.608  33.796  1.00  0.00    -0.200 F 
ATOM     92  F   UNL A   1      49.411  24.665  35.676  1.00  0.00    -0.200 F 
ENDBRANCH  59  82
ENDBRANCH  33  34
ENDBRANCH  25  28
ENDBRANCH  23  24
ENDBRANCH  22  23
ENDBRANCH   1  22
TORSDOF 13
ENDMDL
MODEL 2
REMARK VINA RESULT:     -11.5      0.121      2.043
REMARK SMILES C[C@@H](NS(=O)(=O)c1ccc2c(c1)CCC2)C(=O)NCCCNC(=O)c1ccc(-c2c3nc(c(-c4c(F)c(F)c(F)c(F)c4F)c4ccc([nH]4)c(-c4c(F)c(F)c(F)c(F)c4F)c4nc(c(-c5c(F)c(F)c(F)c(F)c5F)c5ccc2[nH]5)C=C4)C=C3)cc1
REMARK SMILES IDX 19 1 18 2 16 3 17 4 2 6 1 7 3 8 4 10 5 11 6 12 7 13 8 14
REMARK SMILES IDX 12 15 9 16 11 17 10 18 13 19 15 20 14 21 20 22 21 23 22 24
REMARK SMILES IDX 23 25 24 27 25 28 26 29 87 30 27 31 86 32 28 33 29 34 30 35
REMARK SMILES IDX 80 36 31 37 85 38 79 39 81 40 32 41 84 42 78 43 77 44 33 46
REMARK SMILES IDX 65 47 45 48 64 49 46 50 49 51 63 52 82 53 47 54 48 55 62 57
REMARK SMILES IDX 83 58 50 59 34 60 35 61 43 62 36 63 37 64 41 65 44 66 38 67
REMARK SMILES IDX 39 68 42 69 40 70 66 71 67 72 75 73 68 74 69 75 73 76 76 77
REMARK SMILES IDX 70 78 71 79 74 80 72 81 51 82 52 83 60 84 53 85 54 86 58 87
REMARK SMILES IDX 61 88 55 89 56 90 59 91 57 92
REMARK H PARENT 18 5 3 9 22 26 81 45 49 56
REMARK Flexibility Score: inf
ROOT
ATOM      1  C   UNL A   1      33.706  35.187  29.650  1.00  0.00     0.117 C 
ENDROOT
BRANCH   1   2
ATOM      2  N   UNL A   1      32.632  35.377  30.609  1.00  0.00    -0.355 N 
ATOM      3  C   UNL A   1      32.669  35.852  31.890  1.00  0.00     0.237 C 
ATOM      4  O   UNL A   1      31.602  35.940  32.501  1.00  0.00    -0.273 OA
ATOM      5  H   UNL A   1      31.736  35.123  30.286  1.00  0.00     0.163 HD
BRANCH   3   6
ATOM      6  C   UNL A   1      33.994  36.236  32.548  1.00  0.00     0.155 C 
ATOM      7  C   UNL A   1      34.028  37.738  32.833  1.00  0.00     0.036 C 
BRANCH   6   8
ATOM      8  N   UNL A   1      34.222  35.458  33.785  1.00  0.00    -0.199 NA
ATOM      9  H   UNL A   1      33.330  35.410  34.277  1.00  0.00     0.142 HD
BRANCH   8  10
ATOM     10  S   UNL A   1      34.806  33.879  33.663  1.00  0.00     0.241 S 
ATOM     11  O   UNL A   1      35.153  33.453  35.000  1.00  0.00    -0.207 OA
ATOM     12  O   UNL A   1      33.823  33.167  32.877  1.00  0.00    -0.207 OA
BRANCH  10  13
ATOM     13  C   UNL A   1      36.280  34.000  32.684  1.00  0.00     0.082 A 
ATOM     14  C   UNL A   1      37.433  34.578  33.243  1.00  0.00     0.022 A 
ATOM     15  C   UNL A   1      36.261  33.572  31.351  1.00  0.00     0.025 A 
ATOM     16  C   UNL A   1      38.571  34.775  32.458  1.00  0.00     0.005 A 
ATOM     17  C   UNL A   1      37.378  33.828  30.570  1.00  0.00    -0.043 A 
ATOM     18  C   UNL A   1      38.523  34.412  31.122  1.00  0.00    -0.045 A 
ATOM     19  C   UNL A   1      37.532  33.669  29.090  1.00  0.00     0.036 C 
ATOM     20  C   UNL A   1      39.573  34.634  30.077  1.00  0.00     0.036 C 
ATOM     21  C   UNL A   1      39.053  33.760  28.926  1.00  0.00     0.010 C 
ENDBRANCH  10  13
ENDBRANCH   8  10
ENDBRANCH   6   8
ENDBRANCH   3   6
ENDBRANCH   1   2
BRANCH   1  22
ATOM     22  C   UNL A   1      33.325  34.210  28.551  1.00  0.00     0.042 C 
BRANCH  22  23
ATOM     23  C   UNL A   1      34.202  32.967  28.516  1.00  0.00     0.118 C 
BRANCH  23  24
ATOM     24  N   UNL A   1      33.677  31.922  27.650  1.00  0.00    -0.352 N 
ATOM     25  C   UNL A   1      34.211  30.704  27.317  1.00  0.00     0.251 C 
ATOM     26  H   UNL A   1      32.805  32.120  27.239  1.00  0.00     0.163 HD
ATOM     27  O   UNL A   1      33.653  30.005  26.476  1.00  0.00    -0.269 OA
BRANCH  25  28
ATOM     28  C   UNL A   1      35.468  30.245  27.944  1.00  0.00     0.039 A 
ATOM     29  C   UNL A   1      36.665  30.429  27.251  1.00  0.00     0.014 A 
ATOM     30  C   UNL A   1      35.470  29.630  29.199  1.00  0.00     0.014 A 
ATOM     31  C   UNL A   1      37.869  30.037  27.835  1.00  0.00     0.010 A 
ATOM     32  C   UNL A   1      36.676  29.328  29.820  1.00  0.00     0.010 A 
ATOM     33  C   UNL A   1      37.886  29.504  29.135  1.00  0.00    -0.014 A 
BRANCH  33  34
ATOM     34  C   UNL A   1      39.160  29.082  29.764  1.00  0.00     0.031 A 
ATOM     35  C   UNL A   1      39.638  29.759  31.020  1.00  0.00     0.074 A 
ATOM     36  C   UNL A   1      39.899  28.112  29.192  1.00  0.00     0.049 A 
ATOM     37  N   UNL A   1      40.719  29.534  31.723  1.00  0.00    -0.248 NA
ATOM     38  C   UNL A   1      38.806  30.858  31.538  1.00  0.00     0.031 C 
ATOM     39  C   UNL A   1      39.571  27.425  27.942  1.00  0.00     0.029 A 
ATOM     40  N   UNL A   1      41.077  27.534  29.590  1.00  0.00    -0.354 N 
ATOM     41  C   UNL A   1      40.700  30.467  32.752  1.00  0.00     0.074 A 
ATOM     42  C   UNL A   1      39.541  31.304  32.545  1.00  0.00     0.031 C 
ATOM     43  C   UNL A   1      40.506  26.494  27.693  1.00  0.00     0.029 A 
ATOM     44  C   UNL A   1      41.511  26.536  28.752  1.00  0.00     0.049 A 
ATOM     45  H   UNL A   1      41.567  27.809  30.399  1.00  0.00     0.167 HD
ATOM     46  C   UNL A   1      41.556  30.593  33.795  1.00  0.00     0.037 A 
ATOM     47  C   UNL A   1      42.592  25.738  28.838  1.00  0.00     0.037 A 
ATOM     48  C   UNL A   1      42.691  29.737  34.013  1.00  0.00     0.049 A 
ATOM     49  C   UNL A   1      43.508  25.878  30.024  1.00  0.00     0.074 A 
ATOM     50  C   UNL A   1      43.593  29.747  35.061  1.00  0.00     0.029 A 
ATOM     51  N   UNL A   1      43.077  28.712  33.161  1.00  0.00    -0.354 N 
ATOM     52  N   UNL A   1      43.440  26.714  31.032  1.00  0.00    -0.248 NA
ATOM     53  C   UNL A   1      44.640  24.944  30.095  1.00  0.00     0.031 C 
ATOM     54  C   UNL A   1      44.548  28.752  34.825  1.00  0.00     0.029 A 
ATOM     55  C   UNL A   1      44.209  28.087  33.657  1.00  0.00     0.049 A 
ATOM     56  H   UNL A   1      42.614  28.463  32.329  1.00  0.00     0.167 HD
ATOM     57  C   UNL A   1      44.494  26.386  31.872  1.00  0.00     0.074 A 
ATOM     58  C   UNL A   1      45.178  25.263  31.263  1.00  0.00     0.031 C 
ATOM     59  C   UNL A   1      44.865  26.960  33.043  1.00  0.00     0.037 A 
BRANCH  46  60
ATOM     60  C   UNL A   1      41.284  31.692  34.782  1.00  0.00     0.064 A 
ATOM     61  C   UNL A   1      41.912  32.943  34.683  1.00  0.00     0.173 A 
ATOM     62  C   UNL A   1      40.371  31.499  35.830  1.00  0.00     0.173 A 
ATOM     63  F   UNL A   1      42.805  33.175  33.709  1.00  0.00    -0.203 F 
ATOM     64  C   UNL A   1      41.662  33.947  35.614  1.00  0.00     0.198 A 
ATOM     65  C   UNL A   1      40.098  32.517  36.740  1.00  0.00     0.198 A 
ATOM     66  F   UNL A   1      39.740  30.324  35.971  1.00  0.00    -0.203 F 
ATOM     67  F   UNL A   1      42.317  35.113  35.532  1.00  0.00    -0.200 F 
ATOM     68  C   UNL A   1      40.750  33.737  36.637  1.00  0.00     0.200 A 
ATOM     69  F   UNL A   1      39.208  32.316  37.722  1.00  0.00    -0.200 F 
ATOM     70  F   UNL A   1      40.507  34.705  37.531  1.00  0.00    -0.200 F 
ENDBRANCH  46  60
BRANCH  47  71
ATOM     71  C   UNL A   1      42.836  24.702  27.802  1.00  0.00     0.064 A 
ATOM     72  C   UNL A   1      42.410  23.380  27.992  1.00  0.00     0.173 A 
ATOM     73  C   UNL A   1      43.503  25.007  26.607  1.00  0.00     0.173 A 
ATOM     74  F   UNL A   1      41.782  23.036  29.126  1.00  0.00    -0.203 F 
ATOM     75  C   UNL A   1      42.668  22.396  27.039  1.00  0.00     0.198 A 
ATOM     76  C   UNL A   1      43.734  24.028  25.642  1.00  0.00     0.198 A 
ATOM     77  F   UNL A   1      43.922  26.259  26.373  1.00  0.00    -0.203 F 
ATOM     78  F   UNL A   1      42.294  21.130  27.270  1.00  0.00    -0.200 F 
ATOM     79  C   UNL A   1      43.325  22.722  25.863  1.00  0.00     0.200 A 
ATOM     80  F   UNL A   1      44.355  24.351  24.499  1.00  0.00    -0.200 F 
ATOM     81  F   UNL A   1      43.570  21.777  24.946  1.00  0.00    -0.200 F 
ENDBRANCH  47  71
BRANCH  59  82
ATOM     82  C   UNL A   1      46.029  26.348  33.767  1.00  0.00     0.064 A 
ATOM     83  C   UNL A   1      47.343  26.797  33.572  1.00  0.00     0.173 A 
ATOM     84  C   UNL A   1      45.820  25.306  34.684  1.00  0.00     0.173 A 
ATOM     85  F   UNL A   1      47.596  27.782  32.696  1.00  0.00    -0.203 F 
ATOM     86  C   UNL A   1      48.410  26.199  34.237  1.00  0.00     0.198 A 
ATOM     87  C   UNL A   1      46.885  24.734  35.373  1.00  0.00     0.198 A 
ATOM     88  F   UNL A   1      44.581  24.846  34.916  1.00  0.00    -0.203 F 
ATOM     89  F   UNL A   1      49.663  26.603  33.987  1.00  0.00    -0.200 F 
ATOM     90  C   UNL A   1      48.180  25.171  35.141  1.00  0.00     0.200 A 
ATOM     91  F   UNL A   1      46.659  23.751  36.256  1.00  0.00    -0.200 F 
ATOM     92  F   UNL A   1      49.208  24.597  35.780  1.00  0.00    -0.200 F 
ENDBRANCH  59  82
ENDBRANCH  33  34
ENDBRANCH  25  28
ENDBRANCH  23  24
ENDBRANCH  22  23
ENDBRANCH   1  22
TORSDOF 13
ENDMDL
MODEL 3
REMARK VINA RESULT:     -11.4      5.454     12.143
REMARK SMILES C[C@@H](NS(=O)(=O)c1ccc2c(c1)CCC2)C(=O)NCCCNC(=O)c1ccc(-c2c3nc(c(-c4c(F)c(F)c(F)c(F)c4F)c4ccc([nH]4)c(-c4c(F)c(F)c(F)c(F)c4F)c4nc(c(-c5c(F)c(F)c(F)c(F)c5F)c5ccc2[nH]5)C=C4)C=C3)cc1
REMARK SMILES IDX 19 1 18 2 16 3 17 4 2 6 1 7 3 8 4 10 5 11 6 12 7 13 8 14
REMARK SMILES IDX 12 15 9 16 11 17 10 18 13 19 15 20 14 21 20 22 21 23 22 24
REMARK SMILES IDX 23 25 24 27 25 28 26 29 87 30 27 31 86 32 28 33 29 34 30 35
REMARK SMILES IDX 80 36 31 37 85 38 79 39 81 40 32 41 84 42 78 43 77 44 33 46
REMARK SMILES IDX 65 47 45 48 64 49 46 50 49 51 63 52 82 53 47 54 48 55 62 57
REMARK SMILES IDX 83 58 50 59 34 60 35 61 43 62 36 63 37 64 41 65 44 66 38 67
REMARK SMILES IDX 39 68 42 69 40 70 66 71 67 72 75 73 68 74 69 75 73 76 76 77
REMARK SMILES IDX 70 78 71 79 74 80 72 81 51 82 52 83 60 84 53 85 54 86 58 87
REMARK SMILES IDX 61 88 55 89 56 90 59 91 57 92
REMARK H PARENT 18 5 3 9 22 26 81 45 49 56
REMARK Flexibility Score: inf
ROOT
ATOM      1  C   UNL A   1      42.790  19.775  26.148  1.00  0.00     0.117 C 
ENDROOT
BRANCH   1   2
ATOM      2  N   UNL A   1      43.345  19.295  24.893  1.00  0.00    -0.355 N 
ATOM      3  C   UNL A   1      44.632  19.323  24.433  1.00  0.00     0.237 C 
ATOM      4  O   UNL A   1      44.857  18.825  23.327  1.00  0.00    -0.273 OA
ATOM      5  H   UNL A   1      42.692  18.887  24.279  1.00  0.00     0.163 HD
BRANCH   3   6
ATOM      6  C   UNL A   1      45.747  19.973  25.250  1.00  0.00     0.155 C 
ATOM      7  C   UNL A   1      46.750  18.915  25.713  1.00  0.00     0.036 C 
BRANCH   6   8
ATOM      8  N   UNL A   1      46.421  21.040  24.482  1.00  0.00    -0.199 NA
ATOM      9  H   UNL A   1      46.599  20.671  23.548  1.00  0.00     0.142 HD
BRANCH   8  10
ATOM     10  S   UNL A   1      45.642  22.525  24.286  1.00  0.00     0.241 S 
ATOM     11  O   UNL A   1      46.579  23.410  23.632  1.00  0.00    -0.207 OA
ATOM     12  O   UNL A   1      44.363  22.210  23.690  1.00  0.00    -0.207 OA
BRANCH  10  13
ATOM     13  C   UNL A   1      45.331  23.111  25.931  1.00  0.00     0.082 A 
ATOM     14  C   UNL A   1      46.375  23.705  26.660  1.00  0.00     0.022 A 
ATOM     15  C   UNL A   1      44.067  22.923  26.503  1.00  0.00     0.025 A 
ATOM     16  C   UNL A   1      46.179  24.080  27.991  1.00  0.00     0.005 A 
ATOM     17  C   UNL A   1      43.905  23.246  27.842  1.00  0.00    -0.043 A 
ATOM     18  C   UNL A   1      44.947  23.829  28.572  1.00  0.00    -0.045 A 
ATOM     19  C   UNL A   1      42.741  22.949  28.734  1.00  0.00     0.036 C 
ATOM     20  C   UNL A   1      44.552  24.038  30.002  1.00  0.00     0.036 C 
ATOM     21  C   UNL A   1      43.027  23.864  29.930  1.00  0.00     0.010 C 
ENDBRANCH  10  13
ENDBRANCH   8  10
ENDBRANCH   6   8
ENDBRANCH   3   6
ENDBRANCH   1   2
BRANCH   1  22
ATOM     22  C   UNL A   1      41.275  19.875  26.101  1.00  0.00     0.042 C 
BRANCH  22  23
ATOM     23  C   UNL A   1      40.746  21.233  26.538  1.00  0.00     0.118 C 
BRANCH  23  24
ATOM     24  N   UNL A   1      39.396  21.498  26.065  1.00  0.00    -0.352 N 
ATOM     25  C   UNL A   1      38.653  22.649  26.124  1.00  0.00     0.251 C 
ATOM     26  H   UNL A   1      38.945  20.733  25.640  1.00  0.00     0.163 HD
ATOM     27  O   UNL A   1      37.481  22.635  25.760  1.00  0.00    -0.269 OA
BRANCH  25  28
ATOM     28  C   UNL A   1      39.249  23.895  26.648  1.00  0.00     0.039 A 
ATOM     29  C   UNL A   1      39.896  24.752  25.756  1.00  0.00     0.014 A 
ATOM     30  C   UNL A   1      39.183  24.215  28.007  1.00  0.00     0.014 A 
ATOM     31  C   UNL A   1      40.438  25.950  26.218  1.00  0.00     0.010 A 
ATOM     32  C   UNL A   1      39.638  25.452  28.450  1.00  0.00     0.010 A 
ATOM     33  C   UNL A   1      40.293  26.321  27.566  1.00  0.00    -0.014 A 
BRANCH  33  34
ATOM     34  C   UNL A   1      40.866  27.592  28.068  1.00  0.00     0.031 A 
ATOM     35  C   UNL A   1      42.349  27.833  27.981  1.00  0.00     0.074 A 
ATOM     36  C   UNL A   1      40.059  28.514  28.628  1.00  0.00     0.049 A 
ATOM     37  N   UNL A   1      43.042  28.877  28.360  1.00  0.00    -0.248 NA
ATOM     38  C   UNL A   1      43.166  26.744  27.423  1.00  0.00     0.031 C 
ATOM     39  C   UNL A   1      38.616  28.367  28.824  1.00  0.00     0.029 A 
ATOM     40  N   UNL A   1      40.339  29.759  29.130  1.00  0.00    -0.354 N 
ATOM     41  C   UNL A   1      44.370  28.563  28.098  1.00  0.00     0.074 A 
ATOM     42  C   UNL A   1      44.394  27.210  27.592  1.00  0.00     0.031 C 
ATOM     43  C   UNL A   1      38.131  29.493  29.372  1.00  0.00     0.029 A 
ATOM     44  C   UNL A   1      39.230  30.428  29.588  1.00  0.00     0.049 A 
ATOM     45  H   UNL A   1      41.247  30.136  29.161  1.00  0.00     0.167 HD
ATOM     46  C   UNL A   1      45.466  29.346  28.235  1.00  0.00     0.037 A 
ATOM     47  C   UNL A   1      39.117  31.663  30.112  1.00  0.00     0.037 A 
ATOM     48  C   UNL A   1      45.432  30.704  28.710  1.00  0.00     0.049 A 
ATOM     49  C   UNL A   1      40.346  32.524  30.223  1.00  0.00     0.074 A 
ATOM     50  C   UNL A   1      46.478  31.601  28.841  1.00  0.00     0.029 A 
ATOM     51  N   UNL A   1      44.285  31.361  29.129  1.00  0.00    -0.354 N 
ATOM     52  N   UNL A   1      41.587  32.245  29.901  1.00  0.00    -0.248 NA
ATOM     53  C   UNL A   1      40.155  33.882  30.749  1.00  0.00     0.031 C 
ATOM     54  C   UNL A   1      45.969  32.788  29.377  1.00  0.00     0.029 A 
ATOM     55  C   UNL A   1      44.598  32.650  29.528  1.00  0.00     0.049 A 
ATOM     56  H   UNL A   1      43.382  30.970  29.140  1.00  0.00     0.167 HD
ATOM     57  C   UNL A   1      42.315  33.399  30.152  1.00  0.00     0.074 A 
ATOM     58  C   UNL A   1      41.374  34.388  30.637  1.00  0.00     0.031 C 
ATOM     59  C   UNL A   1      43.643  33.624  29.993  1.00  0.00     0.037 A 
BRANCH  46  60
ATOM     60  C   UNL A   1      46.792  28.751  27.854  1.00  0.00     0.064 A 
ATOM     61  C   UNL A   1      47.631  28.151  28.806  1.00  0.00     0.173 A 
ATOM     62  C   UNL A   1      47.221  28.763  26.519  1.00  0.00     0.173 A 
ATOM     63  F   UNL A   1      47.276  28.127  30.100  1.00  0.00    -0.203 F 
ATOM     64  C   UNL A   1      48.864  27.617  28.442  1.00  0.00     0.198 A 
ATOM     65  C   UNL A   1      48.440  28.197  26.152  1.00  0.00     0.198 A 
ATOM     66  F   UNL A   1      46.458  29.320  25.567  1.00  0.00    -0.203 F 
ATOM     67  F   UNL A   1      49.673  27.102  29.378  1.00  0.00    -0.200 F 
ATOM     68  C   UNL A   1      49.264  27.633  27.115  1.00  0.00     0.200 A 
ATOM     69  F   UNL A   1      48.821  28.204  24.867  1.00  0.00    -0.200 F 
ATOM     70  F   UNL A   1      50.449  27.115  26.764  1.00  0.00    -0.200 F 
ENDBRANCH  46  60
BRANCH  47  71
ATOM     71  C   UNL A   1      37.785  32.179  30.519  1.00  0.00     0.064 A 
ATOM     72  C   UNL A   1      36.971  32.869  29.609  1.00  0.00     0.173 A 
ATOM     73  C   UNL A   1      37.299  32.001  31.821  1.00  0.00     0.173 A 
ATOM     74  F   UNL A   1      37.399  33.078  28.355  1.00  0.00    -0.203 F 
ATOM     75  C   UNL A   1      35.735  33.385  29.994  1.00  0.00     0.198 A 
ATOM     76  C   UNL A   1      36.051  32.493  32.198  1.00  0.00     0.198 A 
ATOM     77  F   UNL A   1      38.034  31.340  32.728  1.00  0.00    -0.203 F 
ATOM     78  F   UNL A   1      35.002  34.084  29.116  1.00  0.00    -0.200 F 
ATOM     79  C   UNL A   1      35.274  33.193  31.287  1.00  0.00     0.200 A 
ATOM     80  F   UNL A   1      35.601  32.291  33.444  1.00  0.00    -0.200 F 
ATOM     81  F   UNL A   1      34.086  33.688  31.656  1.00  0.00    -0.200 F 
ENDBRANCH  47  71
BRANCH  59  82
ATOM     82  C   UNL A   1      44.145  35.006  30.297  1.00  0.00     0.064 A 
ATOM     83  C   UNL A   1      44.692  35.339  31.544  1.00  0.00     0.173 A 
ATOM     84  C   UNL A   1      44.089  36.008  29.315  1.00  0.00     0.173 A 
ATOM     85  F   UNL A   1      44.755  34.420  32.520  1.00  0.00    -0.203 F 
ATOM     86  C   UNL A   1      45.130  36.633  31.811  1.00  0.00     0.198 A 
ATOM     87  C   UNL A   1      44.560  37.291  29.574  1.00  0.00     0.198 A 
ATOM     88  F   UNL A   1      43.584  35.739  28.101  1.00  0.00    -0.203 F 
ATOM     89  F   UNL A   1      45.592  36.944  33.030  1.00  0.00    -0.200 F 
ATOM     90  C   UNL A   1      45.068  37.607  30.824  1.00  0.00     0.200 A 
ATOM     91  F   UNL A   1      44.512  38.226  28.615  1.00  0.00    -0.200 F 
ATOM     92  F   UNL A   1      45.489  38.852  31.083  1.00  0.00    -0.200 F 
ENDBRANCH  59  82
ENDBRANCH  33  34
ENDBRANCH  25  28
ENDBRANCH  23  24
ENDBRANCH  22  23
ENDBRANCH   1  22
TORSDOF 13
ENDMDL
