MODEL 1
REMARK VINA RESULT:     -12.9      0.000      0.000
REMARK SMILES Cc1ccc(C[C@H](C(=O)NCCCNC(=O)c2ccc(-c3c4nc(c(-c5c(F)c(F)c(F)c(F)c5F)c5ccc([nH]5)c(-c5c(F)c(F)c(F)c(F)c5F)c5nc(c(-c6c(F)c(F)c(F)c(F)c6F)c6ccc3[nH]6)C=C5)C=C4)cc2)[C@@H]2CCCC[C@@H]2O)cc1
REMARK SMILES IDX 12 1 11 2 10 3 8 4 9 5 7 7 6 8 5 9 1 10 2 11 3 12 88 13 4 14
REMARK SMILES IDX 87 15 80 16 81 17 85 18 82 19 84 20 83 21 86 22 13 24 14 25
REMARK SMILES IDX 15 26 16 28 17 29 18 30 79 31 19 32 78 33 20 34 21 35 22 36
REMARK SMILES IDX 72 37 23 38 77 39 71 40 73 41 24 42 76 43 70 44 69 45 25 47
REMARK SMILES IDX 57 48 37 49 56 50 38 51 41 52 55 53 74 54 39 55 40 56 54 58
REMARK SMILES IDX 75 59 42 60 26 61 27 62 35 63 28 64 29 65 33 66 36 67 30 68
REMARK SMILES IDX 31 69 34 70 32 71 58 72 59 73 67 74 60 75 61 76 65 77 68 78
REMARK SMILES IDX 62 79 63 80 66 81 64 82 43 83 44 84 52 85 45 86 46 87 50 88
REMARK SMILES IDX 53 89 47 90 48 91 51 92 49 93
REMARK H PARENT 10 6 86 23 14 27 73 46 41 57
REMARK Flexibility Score: inf
ROOT
ATOM      1  C   UNL A   1      34.506  31.472  27.454  1.00  0.00     0.042 C 
ENDROOT
BRANCH   1   2
ATOM      2  C   UNL A   1      34.024  30.082  27.130  1.00  0.00     0.117 C 
BRANCH   2   3
ATOM      3  N   UNL A   1      32.756  29.661  27.639  1.00  0.00    -0.356 N 
ATOM      4  C   UNL A   1      32.115  28.508  27.280  1.00  0.00     0.223 C 
ATOM      5  O   UNL A   1      31.129  28.203  27.960  1.00  0.00    -0.275 OA
ATOM      6  H   UNL A   1      32.312  30.244  28.296  1.00  0.00     0.163 HD
BRANCH   4   7
ATOM      7  C   UNL A   1      32.548  27.684  26.022  1.00  0.00     0.088 C 
BRANCH   7   8
ATOM      8  C   UNL A   1      32.155  26.170  26.088  1.00  0.00     0.049 C 
BRANCH   8   9
ATOM      9  C   UNL A   1      33.186  25.081  25.856  1.00  0.00    -0.047 A 
ATOM     10  C   UNL A   1      36.318  22.093  25.751  1.00  0.00     0.044 C 
ATOM     11  C   UNL A   1      35.196  23.091  25.702  1.00  0.00    -0.051 A 
ATOM     12  C   UNL A   1      35.409  24.360  25.152  1.00  0.00     0.004 A 
ATOM     13  C   UNL A   1      33.944  22.798  26.254  1.00  0.00     0.004 A 
ATOM     14  C   UNL A   1      34.403  25.337  25.199  1.00  0.00     0.004 A 
ATOM     15  C   UNL A   1      32.947  23.779  26.324  1.00  0.00     0.004 A 
ENDBRANCH   8   9
ENDBRANCH   7   8
BRANCH   7  16
ATOM     16  C   UNL A   1      31.886  28.402  24.764  1.00  0.00     0.030 C 
ATOM     17  C   UNL A   1      30.552  27.828  24.251  1.00  0.00     0.007 C 
ATOM     18  C   UNL A   1      32.859  28.538  23.559  1.00  0.00     0.118 C 
ATOM     19  C   UNL A   1      30.722  26.504  23.518  1.00  0.00     0.001 C 
ATOM     20  C   UNL A   1      33.002  27.242  22.753  1.00  0.00     0.032 C 
ATOM     21  C   UNL A   1      31.655  26.673  22.326  1.00  0.00     0.003 C 
BRANCH  18  22
ATOM     22  O   UNL A   1      34.160  28.953  23.957  1.00  0.00    -0.393 OA
ATOM     23  H   UNL A   1      34.213  29.921  23.923  1.00  0.00     0.210 HD
ENDBRANCH  18  22
ENDBRANCH   7  16
ENDBRANCH   4   7
ENDBRANCH   2   3
ENDBRANCH   1   2
BRANCH   1  24
ATOM     24  C   UNL A   1      34.646  31.739  28.950  1.00  0.00     0.118 C 
BRANCH  24  25
ATOM     25  N   UNL A   1      36.031  31.965  29.403  1.00  0.00    -0.352 N 
ATOM     26  C   UNL A   1      37.229  31.268  29.320  1.00  0.00     0.251 C 
ATOM     27  H   UNL A   1      36.132  32.820  29.882  1.00  0.00     0.163 HD
ATOM     28  O   UNL A   1      38.273  31.837  29.582  1.00  0.00    -0.269 OA
BRANCH  26  29
ATOM     29  C   UNL A   1      37.292  29.890  28.767  1.00  0.00     0.039 A 
ATOM     30  C   UNL A   1      37.282  28.909  29.768  1.00  0.00     0.014 A 
ATOM     31  C   UNL A   1      38.010  29.703  27.604  1.00  0.00     0.014 A 
ATOM     32  C   UNL A   1      38.401  28.105  29.883  1.00  0.00     0.010 A 
ATOM     33  C   UNL A   1      39.159  28.958  27.751  1.00  0.00     0.010 A 
ATOM     34  C   UNL A   1      39.422  28.304  28.970  1.00  0.00    -0.014 A 
BRANCH  34  35
ATOM     35  C   UNL A   1      40.834  28.063  29.260  1.00  0.00     0.031 A 
ATOM     36  C   UNL A   1      41.454  26.851  28.694  1.00  0.00     0.074 A 
ATOM     37  C   UNL A   1      41.600  29.018  29.849  1.00  0.00     0.049 A 
ATOM     38  N   UNL A   1      42.666  26.484  28.916  1.00  0.00    -0.248 NA
ATOM     39  C   UNL A   1      40.716  25.909  27.860  1.00  0.00     0.031 C 
ATOM     40  C   UNL A   1      43.062  29.123  29.816  1.00  0.00     0.029 A 
ATOM     41  N   UNL A   1      41.217  30.015  30.768  1.00  0.00    -0.354 N 
ATOM     42  C   UNL A   1      42.947  25.424  28.089  1.00  0.00     0.074 A 
ATOM     43  C   UNL A   1      41.681  25.056  27.514  1.00  0.00     0.031 C 
ATOM     44  C   UNL A   1      43.476  29.872  30.848  1.00  0.00     0.029 A 
ATOM     45  C   UNL A   1      42.314  30.147  31.666  1.00  0.00     0.049 A 
ATOM     46  H   UNL A   1      40.370  30.516  30.785  1.00  0.00     0.167 HD
ATOM     47  C   UNL A   1      44.249  25.054  27.950  1.00  0.00     0.037 A 
ATOM     48  C   UNL A   1      42.194  29.799  32.983  1.00  0.00     0.037 A 
ATOM     49  C   UNL A   1      45.059  25.648  29.019  1.00  0.00     0.049 A 
ATOM     50  C   UNL A   1      43.062  28.632  33.419  1.00  0.00     0.074 A 
ATOM     51  C   UNL A   1      45.942  26.707  29.132  1.00  0.00     0.029 A 
ATOM     52  N   UNL A   1      44.758  25.269  30.314  1.00  0.00    -0.354 N 
ATOM     53  N   UNL A   1      43.858  27.966  32.628  1.00  0.00    -0.248 NA
ATOM     54  C   UNL A   1      43.011  28.054  34.765  1.00  0.00     0.031 C 
ATOM     55  C   UNL A   1      46.116  26.986  30.526  1.00  0.00     0.029 A 
ATOM     56  C   UNL A   1      45.359  26.081  31.250  1.00  0.00     0.049 A 
ATOM     57  H   UNL A   1      44.180  24.505  30.542  1.00  0.00     0.167 HD
ATOM     58  C   UNL A   1      44.315  26.851  33.279  1.00  0.00     0.074 A 
ATOM     59  C   UNL A   1      43.778  26.960  34.622  1.00  0.00     0.031 C 
ATOM     60  C   UNL A   1      45.039  25.878  32.656  1.00  0.00     0.037 A 
BRANCH  47  61
ATOM     61  C   UNL A   1      44.832  24.231  26.824  1.00  0.00     0.064 A 
ATOM     62  C   UNL A   1      44.473  22.870  26.699  1.00  0.00     0.173 A 
ATOM     63  C   UNL A   1      45.814  24.657  25.903  1.00  0.00     0.173 A 
ATOM     64  F   UNL A   1      43.546  22.317  27.494  1.00  0.00    -0.203 F 
ATOM     65  C   UNL A   1      45.069  22.014  25.767  1.00  0.00     0.198 A 
ATOM     66  C   UNL A   1      46.387  23.808  24.954  1.00  0.00     0.198 A 
ATOM     67  F   UNL A   1      46.301  25.897  25.886  1.00  0.00    -0.203 F 
ATOM     68  F   UNL A   1      44.716  20.721  25.732  1.00  0.00    -0.200 F 
ATOM     69  C   UNL A   1      46.028  22.483  24.894  1.00  0.00     0.200 A 
ATOM     70  F   UNL A   1      47.314  24.292  24.113  1.00  0.00    -0.200 F 
ATOM     71  F   UNL A   1      46.609  21.663  24.010  1.00  0.00    -0.200 F 
ENDBRANCH  47  61
BRANCH  48  72
ATOM     72  C   UNL A   1      40.835  30.092  33.508  1.00  0.00     0.064 A 
ATOM     73  C   UNL A   1      40.510  31.432  33.793  1.00  0.00     0.173 A 
ATOM     74  C   UNL A   1      39.781  29.194  33.306  1.00  0.00     0.173 A 
ATOM     75  F   UNL A   1      41.487  32.329  34.003  1.00  0.00    -0.203 F 
ATOM     76  C   UNL A   1      39.193  31.882  33.732  1.00  0.00     0.198 A 
ATOM     77  C   UNL A   1      38.464  29.646  33.262  1.00  0.00     0.198 A 
ATOM     78  F   UNL A   1      40.033  27.910  33.011  1.00  0.00    -0.203 F 
ATOM     79  F   UNL A   1      38.924  33.186  33.881  1.00  0.00    -0.200 F 
ATOM     80  C   UNL A   1      38.175  30.993  33.429  1.00  0.00     0.200 A 
ATOM     81  F   UNL A   1      37.481  28.792  32.941  1.00  0.00    -0.200 F 
ATOM     82  F   UNL A   1      36.924  31.437  33.253  1.00  0.00    -0.200 F 
ENDBRANCH  48  72
BRANCH  60  83
ATOM     83  C   UNL A   1      45.478  24.619  33.346  1.00  0.00     0.064 A 
ATOM     84  C   UNL A   1      44.611  23.530  33.523  1.00  0.00     0.173 A 
ATOM     85  C   UNL A   1      46.743  24.518  33.961  1.00  0.00     0.173 A 
ATOM     86  F   UNL A   1      43.383  23.542  32.985  1.00  0.00    -0.203 F 
ATOM     87  C   UNL A   1      44.991  22.410  34.266  1.00  0.00     0.198 A 
ATOM     88  C   UNL A   1      47.096  23.427  34.751  1.00  0.00     0.198 A 
ATOM     89  F   UNL A   1      47.680  25.462  33.789  1.00  0.00    -0.203 F 
ATOM     90  F   UNL A   1      44.153  21.370  34.376  1.00  0.00    -0.200 F 
ATOM     91  C   UNL A   1      46.223  22.369  34.899  1.00  0.00     0.200 A 
ATOM     92  F   UNL A   1      48.289  23.409  35.363  1.00  0.00    -0.200 F 
ATOM     93  F   UNL A   1      46.572  21.308  35.639  1.00  0.00    -0.200 F 
ENDBRANCH  60  83
ENDBRANCH  34  35
ENDBRANCH  26  29
ENDBRANCH  24  25
ENDBRANCH   1  24
TORSDOF 14
ENDMDL
MODEL 2
REMARK VINA RESULT:     -12.9      3.863     10.110
REMARK SMILES Cc1ccc(C[C@H](C(=O)NCCCNC(=O)c2ccc(-c3c4nc(c(-c5c(F)c(F)c(F)c(F)c5F)c5ccc([nH]5)c(-c5c(F)c(F)c(F)c(F)c5F)c5nc(c(-c6c(F)c(F)c(F)c(F)c6F)c6ccc3[nH]6)C=C5)C=C4)cc2)[C@@H]2CCCC[C@@H]2O)cc1
REMARK SMILES IDX 12 1 11 2 10 3 8 4 9 5 7 7 6 8 5 9 1 10 2 11 3 12 88 13 4 14
REMARK SMILES IDX 87 15 80 16 81 17 85 18 82 19 84 20 83 21 86 22 13 24 14 25
REMARK SMILES IDX 15 26 16 28 17 29 18 30 79 31 19 32 78 33 20 34 21 35 22 36
REMARK SMILES IDX 72 37 23 38 77 39 71 40 73 41 24 42 76 43 70 44 69 45 25 47
REMARK SMILES IDX 57 48 37 49 56 50 38 51 41 52 55 53 74 54 39 55 40 56 54 58
REMARK SMILES IDX 75 59 42 60 26 61 27 62 35 63 28 64 29 65 33 66 36 67 30 68
REMARK SMILES IDX 31 69 34 70 32 71 58 72 59 73 67 74 60 75 61 76 65 77 68 78
REMARK SMILES IDX 62 79 63 80 66 81 64 82 43 83 44 84 52 85 45 86 46 87 50 88
REMARK SMILES IDX 53 89 47 90 48 91 51 92 49 93
REMARK H PARENT 10 6 86 23 14 27 73 46 41 57
REMARK Flexibility Score: inf
ROOT
ATOM      1  C   UNL A   1      39.450  21.620  26.043  1.00  0.00     0.042 C 
ENDROOT
BRANCH   1   2
ATOM      2  C   UNL A   1      38.107  22.169  25.634  1.00  0.00     0.117 C 
BRANCH   2   3
ATOM      3  N   UNL A   1      37.781  22.216  24.243  1.00  0.00    -0.356 N 
ATOM      4  C   UNL A   1      36.652  22.785  23.726  1.00  0.00     0.223 C 
ATOM      5  O   UNL A   1      36.624  22.914  22.496  1.00  0.00    -0.275 OA
ATOM      6  H   UNL A   1      38.417  21.809  23.611  1.00  0.00     0.163 HD
BRANCH   4   7
ATOM      7  C   UNL A   1      35.430  23.158  24.630  1.00  0.00     0.088 C 
BRANCH   7   8
ATOM      8  C   UNL A   1      34.331  23.998  23.899  1.00  0.00     0.049 C 
BRANCH   8   9
ATOM      9  C   UNL A   1      33.949  25.385  24.386  1.00  0.00    -0.047 A 
ATOM     10  C   UNL A   1      33.435  29.489  25.666  1.00  0.00     0.044 C 
ATOM     11  C   UNL A   1      33.514  28.054  25.227  1.00  0.00    -0.051 A 
ATOM     12  C   UNL A   1      33.756  27.044  26.164  1.00  0.00     0.004 A 
ATOM     13  C   UNL A   1      33.408  27.707  23.875  1.00  0.00     0.004 A 
ATOM     14  C   UNL A   1      33.940  25.716  25.752  1.00  0.00     0.004 A 
ATOM     15  C   UNL A   1      33.617  26.386  23.460  1.00  0.00     0.004 A 
ENDBRANCH   8   9
ENDBRANCH   7   8
BRANCH   7  16
ATOM     16  C   UNL A   1      34.841  21.784  25.179  1.00  0.00     0.030 C 
ATOM     17  C   UNL A   1      33.793  21.071  24.304  1.00  0.00     0.007 C 
ATOM     18  C   UNL A   1      34.282  21.895  26.625  1.00  0.00     0.118 C 
ATOM     19  C   UNL A   1      32.437  21.763  24.327  1.00  0.00     0.001 C 
ATOM     20  C   UNL A   1      32.886  22.524  26.682  1.00  0.00     0.032 C 
ATOM     21  C   UNL A   1      31.899  21.832  25.750  1.00  0.00     0.003 C 
BRANCH  18  22
ATOM     22  O   UNL A   1      35.136  22.644  27.480  1.00  0.00    -0.393 OA
ATOM     23  H   UNL A   1      34.626  22.975  28.236  1.00  0.00     0.210 HD
ENDBRANCH  18  22
ENDBRANCH   7  16
ENDBRANCH   4   7
ENDBRANCH   2   3
ENDBRANCH   1   2
BRANCH   1  24
ATOM     24  C   UNL A   1      39.910  22.088  27.421  1.00  0.00     0.118 C 
BRANCH  24  25
ATOM     25  N   UNL A   1      41.128  22.920  27.408  1.00  0.00    -0.352 N 
ATOM     26  C   UNL A   1      41.414  24.258  27.170  1.00  0.00     0.251 C 
ATOM     27  H   UNL A   1      41.936  22.400  27.622  1.00  0.00     0.163 HD
ATOM     28  O   UNL A   1      42.505  24.702  27.480  1.00  0.00    -0.269 OA
BRANCH  26  29
ATOM     29  C   UNL A   1      40.373  25.204  26.692  1.00  0.00     0.039 A 
ATOM     30  C   UNL A   1      40.909  26.255  25.936  1.00  0.00     0.014 A 
ATOM     31  C   UNL A   1      39.277  25.408  27.505  1.00  0.00     0.014 A 
ATOM     32  C   UNL A   1      40.772  27.536  26.439  1.00  0.00     0.010 A 
ATOM     33  C   UNL A   1      39.194  26.668  28.053  1.00  0.00     0.010 A 
ATOM     34  C   UNL A   1      40.076  27.680  27.626  1.00  0.00    -0.014 A 
BRANCH  34  35
ATOM     35  C   UNL A   1      40.337  28.736  28.601  1.00  0.00     0.031 A 
ATOM     36  C   UNL A   1      39.315  29.784  28.771  1.00  0.00     0.074 A 
ATOM     37  C   UNL A   1      41.380  28.645  29.468  1.00  0.00     0.049 A 
ATOM     38  N   UNL A   1      39.438  30.802  29.546  1.00  0.00    -0.248 NA
ATOM     39  C   UNL A   1      38.067  29.792  28.014  1.00  0.00     0.031 C 
ATOM     40  C   UNL A   1      41.532  29.350  30.744  1.00  0.00     0.029 A 
ATOM     41  N   UNL A   1      42.628  28.017  29.285  1.00  0.00    -0.354 N 
ATOM     42  C   UNL A   1      38.231  31.455  29.585  1.00  0.00     0.074 A 
ATOM     43  C   UNL A   1      37.439  30.836  28.556  1.00  0.00     0.031 C 
ATOM     44  C   UNL A   1      42.830  29.384  31.080  1.00  0.00     0.029 A 
ATOM     45  C   UNL A   1      43.572  28.841  29.962  1.00  0.00     0.049 A 
ATOM     46  H   UNL A   1      42.810  27.184  28.794  1.00  0.00     0.167 HD
ATOM     47  C   UNL A   1      38.047  32.394  30.554  1.00  0.00     0.037 A 
ATOM     48  C   UNL A   1      44.541  29.517  29.274  1.00  0.00     0.037 A 
ATOM     49  C   UNL A   1      39.337  32.773  31.139  1.00  0.00     0.049 A 
ATOM     50  C   UNL A   1      44.434  31.031  29.338  1.00  0.00     0.074 A 
ATOM     51  C   UNL A   1      40.026  32.494  32.306  1.00  0.00     0.029 A 
ATOM     52  N   UNL A   1      40.256  33.367  30.293  1.00  0.00    -0.354 N 
ATOM     53  N   UNL A   1      43.494  31.680  29.969  1.00  0.00    -0.248 NA
ATOM     54  C   UNL A   1      45.323  31.930  28.596  1.00  0.00     0.031 C 
ATOM     55  C   UNL A   1      41.390  32.886  32.115  1.00  0.00     0.029 A 
ATOM     56  C   UNL A   1      41.517  33.421  30.844  1.00  0.00     0.049 A 
ATOM     57  H   UNL A   1      40.034  33.713  29.398  1.00  0.00     0.167 HD
ATOM     58  C   UNL A   1      43.563  33.008  29.643  1.00  0.00     0.074 A 
ATOM     59  C   UNL A   1      44.738  33.122  28.801  1.00  0.00     0.031 C 
ATOM     60  C   UNL A   1      42.615  33.912  30.023  1.00  0.00     0.037 A 
BRANCH  47  61
ATOM     61  C   UNL A   1      36.721  32.923  31.049  1.00  0.00     0.064 A 
ATOM     62  C   UNL A   1      35.971  33.797  30.229  1.00  0.00     0.173 A 
ATOM     63  C   UNL A   1      36.168  32.718  32.332  1.00  0.00     0.173 A 
ATOM     64  F   UNL A   1      36.359  34.085  28.978  1.00  0.00    -0.203 F 
ATOM     65  C   UNL A   1      34.804  34.430  30.668  1.00  0.00     0.198 A 
ATOM     66  C   UNL A   1      34.987  33.328  32.759  1.00  0.00     0.198 A 
ATOM     67  F   UNL A   1      36.747  31.951  33.255  1.00  0.00    -0.203 F 
ATOM     68  F   UNL A   1      34.166  35.284  29.855  1.00  0.00    -0.200 F 
ATOM     69  C   UNL A   1      34.311  34.196  31.935  1.00  0.00     0.200 A 
ATOM     70  F   UNL A   1      34.527  33.079  33.995  1.00  0.00    -0.200 F 
ATOM     71  F   UNL A   1      33.201  34.810  32.363  1.00  0.00    -0.200 F 
ENDBRANCH  47  61
BRANCH  48  72
ATOM     72  C   UNL A   1      45.018  28.747  28.096  1.00  0.00     0.064 A 
ATOM     73  C   UNL A   1      45.881  27.658  28.322  1.00  0.00     0.173 A 
ATOM     74  C   UNL A   1      44.317  28.784  26.885  1.00  0.00     0.173 A 
ATOM     75  F   UNL A   1      46.581  27.584  29.466  1.00  0.00    -0.203 F 
ATOM     76  C   UNL A   1      45.926  26.580  27.441  1.00  0.00     0.198 A 
ATOM     77  C   UNL A   1      44.378  27.710  25.999  1.00  0.00     0.198 A 
ATOM     78  F   UNL A   1      43.466  29.787  26.626  1.00  0.00    -0.203 F 
ATOM     79  F   UNL A   1      46.657  25.498  27.744  1.00  0.00    -0.200 F 
ATOM     80  C   UNL A   1      45.144  26.592  26.298  1.00  0.00     0.200 A 
ATOM     81  F   UNL A   1      43.601  27.708  24.906  1.00  0.00    -0.200 F 
ATOM     82  F   UNL A   1      45.092  25.512  25.507  1.00  0.00    -0.200 F 
ENDBRANCH  48  72
BRANCH  60  83
ATOM     83  C   UNL A   1      42.647  35.353  29.605  1.00  0.00     0.064 A 
ATOM     84  C   UNL A   1      42.033  35.796  28.424  1.00  0.00     0.173 A 
ATOM     85  C   UNL A   1      43.403  36.310  30.314  1.00  0.00     0.173 A 
ATOM     86  F   UNL A   1      41.305  34.954  27.677  1.00  0.00    -0.203 F 
ATOM     87  C   UNL A   1      42.166  37.115  27.985  1.00  0.00     0.198 A 
ATOM     88  C   UNL A   1      43.583  37.608  29.843  1.00  0.00     0.198 A 
ATOM     89  F   UNL A   1      43.963  36.018  31.498  1.00  0.00    -0.203 F 
ATOM     90  F   UNL A   1      41.529  37.514  26.875  1.00  0.00    -0.200 F 
ATOM     91  C   UNL A   1      42.959  38.013  28.681  1.00  0.00     0.200 A 
ATOM     92  F   UNL A   1      44.362  38.460  30.525  1.00  0.00    -0.200 F 
ATOM     93  F   UNL A   1      43.113  39.269  28.239  1.00  0.00    -0.200 F 
ENDBRANCH  60  83
ENDBRANCH  34  35
ENDBRANCH  26  29
ENDBRANCH  24  25
ENDBRANCH   1  24
TORSDOF 14
ENDMDL
MODEL 3
REMARK VINA RESULT:     -12.8      3.804     10.028
REMARK SMILES Cc1ccc(C[C@H](C(=O)NCCCNC(=O)c2ccc(-c3c4nc(c(-c5c(F)c(F)c(F)c(F)c5F)c5ccc([nH]5)c(-c5c(F)c(F)c(F)c(F)c5F)c5nc(c(-c6c(F)c(F)c(F)c(F)c6F)c6ccc3[nH]6)C=C5)C=C4)cc2)[C@@H]2CCCC[C@@H]2O)cc1
REMARK SMILES IDX 12 1 11 2 10 3 8 4 9 5 7 7 6 8 5 9 1 10 2 11 3 12 88 13 4 14
REMARK SMILES IDX 87 15 80 16 81 17 85 18 82 19 84 20 83 21 86 22 13 24 14 25
REMARK SMILES IDX 15 26 16 28 17 29 18 30 79 31 19 32 78 33 20 34 21 35 22 36
REMARK SMILES IDX 72 37 23 38 77 39 71 40 73 41 24 42 76 43 70 44 69 45 25 47
REMARK SMILES IDX 57 48 37 49 56 50 38 51 41 52 55 53 74 54 39 55 40 56 54 58
REMARK SMILES IDX 75 59 42 60 26 61 27 62 35 63 28 64 29 65 33 66 36 67 30 68
REMARK SMILES IDX 31 69 34 70 32 71 58 72 59 73 67 74 60 75 61 76 65 77 68 78
REMARK SMILES IDX 62 79 63 80 66 81 64 82 43 83 44 84 52 85 45 86 46 87 50 88
REMARK SMILES IDX 53 89 47 90 48 91 51 92 49 93
REMARK H PARENT 10 6 86 23 14 27 73 46 41 57
REMARK Flexibility Score: inf
ROOT
ATOM      1  C   UNL A   1      39.337  21.481  26.481  1.00  0.00     0.042 C 
ENDROOT
BRANCH   1   2
ATOM      2  C   UNL A   1      38.116  22.196  25.964  1.00  0.00     0.117 C 
BRANCH   2   3
ATOM      3  N   UNL A   1      37.871  22.202  24.555  1.00  0.00    -0.356 N 
ATOM      4  C   UNL A   1      36.743  22.694  23.961  1.00  0.00     0.223 C 
ATOM      5  O   UNL A   1      36.781  22.801  22.730  1.00  0.00    -0.275 OA
ATOM      6  H   UNL A   1      38.567  21.824  23.970  1.00  0.00     0.163 HD
BRANCH   4   7
ATOM      7  C   UNL A   1      35.449  23.007  24.785  1.00  0.00     0.088 C 
BRANCH   7   8
ATOM      8  C   UNL A   1      34.363  23.800  23.985  1.00  0.00     0.049 C 
BRANCH   8   9
ATOM      9  C   UNL A   1      33.948  25.200  24.401  1.00  0.00    -0.047 A 
ATOM     10  C   UNL A   1      33.349  29.338  25.526  1.00  0.00     0.044 C 
ATOM     11  C   UNL A   1      33.457  27.892  25.132  1.00  0.00    -0.051 A 
ATOM     12  C   UNL A   1      33.608  26.905  26.113  1.00  0.00     0.004 A 
ATOM     13  C   UNL A   1      33.471  27.511  23.786  1.00  0.00     0.004 A 
ATOM     14  C   UNL A   1      33.819  25.567  25.753  1.00  0.00     0.004 A 
ATOM     15  C   UNL A   1      33.707  26.178  23.424  1.00  0.00     0.004 A 
ENDBRANCH   8   9
ENDBRANCH   7   8
BRANCH   7  16
ATOM     16  C   UNL A   1      34.889  21.605  25.292  1.00  0.00     0.030 C 
ATOM     17  C   UNL A   1      34.037  20.790  24.301  1.00  0.00     0.007 C 
ATOM     18  C   UNL A   1      34.116  21.708  26.637  1.00  0.00     0.118 C 
ATOM     19  C   UNL A   1      32.645  21.375  24.102  1.00  0.00     0.001 C 
ATOM     20  C   UNL A   1      32.685  22.226  26.469  1.00  0.00     0.032 C 
ATOM     21  C   UNL A   1      31.900  21.436  25.429  1.00  0.00     0.003 C 
BRANCH  18  22
ATOM     22  O   UNL A   1      34.778  22.543  27.579  1.00  0.00    -0.393 OA
ATOM     23  H   UNL A   1      35.040  22.016  28.349  1.00  0.00     0.210 HD
ENDBRANCH  18  22
ENDBRANCH   7  16
ENDBRANCH   4   7
ENDBRANCH   2   3
ENDBRANCH   1   2
BRANCH   1  24
ATOM     24  C   UNL A   1      40.639  21.943  25.832  1.00  0.00     0.118 C 
BRANCH  24  25
ATOM     25  N   UNL A   1      41.482  22.794  26.692  1.00  0.00    -0.352 N 
ATOM     26  C   UNL A   1      41.389  24.076  27.218  1.00  0.00     0.251 C 
ATOM     27  H   UNL A   1      42.315  22.342  26.961  1.00  0.00     0.163 HD
ATOM     28  O   UNL A   1      42.145  24.415  28.109  1.00  0.00    -0.269 OA
BRANCH  26  29
ATOM     29  C   UNL A   1      40.287  24.997  26.833  1.00  0.00     0.039 A 
ATOM     30  C   UNL A   1      40.725  26.044  26.012  1.00  0.00     0.014 A 
ATOM     31  C   UNL A   1      39.276  25.196  27.750  1.00  0.00     0.014 A 
ATOM     32  C   UNL A   1      40.616  27.331  26.506  1.00  0.00     0.010 A 
ATOM     33  C   UNL A   1      39.226  26.464  28.285  1.00  0.00     0.010 A 
ATOM     34  C   UNL A   1      40.041  27.483  27.756  1.00  0.00    -0.014 A 
BRANCH  34  35
ATOM     35  C   UNL A   1      40.381  28.559  28.684  1.00  0.00     0.031 A 
ATOM     36  C   UNL A   1      39.436  29.684  28.808  1.00  0.00     0.074 A 
ATOM     37  C   UNL A   1      41.418  28.433  29.552  1.00  0.00     0.049 A 
ATOM     38  N   UNL A   1      39.634  30.723  29.538  1.00  0.00    -0.248 NA
ATOM     39  C   UNL A   1      38.189  29.747  28.053  1.00  0.00     0.031 C 
ATOM     40  C   UNL A   1      41.625  29.179  30.797  1.00  0.00     0.029 A 
ATOM     41  N   UNL A   1      42.618  27.710  29.396  1.00  0.00    -0.354 N 
ATOM     42  C   UNL A   1      38.476  31.461  29.550  1.00  0.00     0.074 A 
ATOM     43  C   UNL A   1      37.638  30.855  28.550  1.00  0.00     0.031 C 
ATOM     44  C   UNL A   1      42.924  29.137  31.129  1.00  0.00     0.029 A 
ATOM     45  C   UNL A   1      43.621  28.494  30.035  1.00  0.00     0.049 A 
ATOM     46  H   UNL A   1      42.738  26.846  28.941  1.00  0.00     0.167 HD
ATOM     47  C   UNL A   1      38.364  32.451  30.478  1.00  0.00     0.037 A 
ATOM     48  C   UNL A   1      44.632  29.070  29.317  1.00  0.00     0.037 A 
ATOM     49  C   UNL A   1      39.680  32.764  31.044  1.00  0.00     0.049 A 
ATOM     50  C   UNL A   1      44.633  30.589  29.315  1.00  0.00     0.074 A 
ATOM     51  C   UNL A   1      40.352  32.488  32.221  1.00  0.00     0.029 A 
ATOM     52  N   UNL A   1      40.634  33.254  30.171  1.00  0.00    -0.354 N 
ATOM     53  N   UNL A   1      43.744  31.329  29.918  1.00  0.00    -0.248 NA
ATOM     54  C   UNL A   1      45.579  31.389  28.534  1.00  0.00     0.031 C 
ATOM     55  C   UNL A   1      41.739  32.773  32.011  1.00  0.00     0.029 A 
ATOM     56  C   UNL A   1      41.898  33.242  30.718  1.00  0.00     0.049 A 
ATOM     57  H   UNL A   1      40.433  33.575  29.262  1.00  0.00     0.167 HD
ATOM     58  C   UNL A   1      43.905  32.634  29.534  1.00  0.00     0.074 A 
ATOM     59  C   UNL A   1      45.082  32.627  28.686  1.00  0.00     0.031 C 
ATOM     60  C   UNL A   1      43.025  33.618  29.876  1.00  0.00     0.037 A 
BRANCH  47  61
ATOM     61  C   UNL A   1      37.079  33.095  30.950  1.00  0.00     0.064 A 
ATOM     62  C   UNL A   1      36.645  32.888  32.278  1.00  0.00     0.173 A 
ATOM     63  C   UNL A   1      36.173  33.826  30.152  1.00  0.00     0.173 A 
ATOM     64  F   UNL A   1      37.400  32.221  33.164  1.00  0.00    -0.203 F 
ATOM     65  C   UNL A   1      35.408  33.340  32.748  1.00  0.00     0.198 A 
ATOM     66  C   UNL A   1      34.949  34.301  30.630  1.00  0.00     0.198 A 
ATOM     67  F   UNL A   1      36.393  34.095  28.866  1.00  0.00    -0.203 F 
ATOM     68  F   UNL A   1      35.037  33.069  34.007  1.00  0.00    -0.200 F 
ATOM     69  C   UNL A   1      34.558  34.045  31.923  1.00  0.00     0.200 A 
ATOM     70  F   UNL A   1      34.144  34.990  29.807  1.00  0.00    -0.200 F 
ATOM     71  F   UNL A   1      33.367  34.467  32.365  1.00  0.00    -0.200 F 
ENDBRANCH  47  61
BRANCH  48  72
ATOM     72  C   UNL A   1      45.048  28.217  28.174  1.00  0.00     0.064 A 
ATOM     73  C   UNL A   1      45.792  27.054  28.451  1.00  0.00     0.173 A 
ATOM     74  C   UNL A   1      44.377  28.285  26.948  1.00  0.00     0.173 A 
ATOM     75  F   UNL A   1      46.461  26.947  29.610  1.00  0.00    -0.203 F 
ATOM     76  C   UNL A   1      45.742  25.949  27.605  1.00  0.00     0.198 A 
ATOM     77  C   UNL A   1      44.343  27.182  26.097  1.00  0.00     0.198 A 
ATOM     78  F   UNL A   1      43.637  29.360  26.640  1.00  0.00    -0.203 F 
ATOM     79  F   UNL A   1      46.354  24.809  27.955  1.00  0.00    -0.200 F 
ATOM     80  C   UNL A   1      44.986  26.002  26.446  1.00  0.00     0.200 A 
ATOM     81  F   UNL A   1      43.589  27.223  24.988  1.00  0.00    -0.200 F 
ATOM     82  F   UNL A   1      44.838  24.908  25.687  1.00  0.00    -0.200 F 
ENDBRANCH  48  72
BRANCH  60  83
ATOM     83  C   UNL A   1      43.156  35.034  29.395  1.00  0.00     0.064 A 
ATOM     84  C   UNL A   1      43.445  36.091  30.270  1.00  0.00     0.173 A 
ATOM     85  C   UNL A   1      42.870  35.388  28.060  1.00  0.00     0.173 A 
ATOM     86  F   UNL A   1      43.716  35.851  31.562  1.00  0.00    -0.203 F 
ATOM     87  C   UNL A   1      43.450  37.417  29.834  1.00  0.00     0.198 A 
ATOM     88  C   UNL A   1      42.817  36.715  27.641  1.00  0.00     0.198 A 
ATOM     89  F   UNL A   1      42.662  34.454  27.119  1.00  0.00    -0.203 F 
ATOM     90  F   UNL A   1      43.774  38.397  30.689  1.00  0.00    -0.200 F 
ATOM     91  C   UNL A   1      43.113  37.731  28.527  1.00  0.00     0.200 A 
ATOM     92  F   UNL A   1      42.480  36.999  26.375  1.00  0.00    -0.200 F 
ATOM     93  F   UNL A   1      43.085  39.007  28.119  1.00  0.00    -0.200 F 
ENDBRANCH  60  83
ENDBRANCH  34  35
ENDBRANCH  26  29
ENDBRANCH  24  25
ENDBRANCH   1  24
TORSDOF 14
ENDMDL
