MODEL 1
REMARK VINA RESULT:     -12.5      0.000      0.000
REMARK SMILES CC(C)C[C@H](NC(=O)c1cc(Cl)nnc1Cl)C(=O)NCCCNC(=O)c1ccc(-c2c3nc(c(-c4c(F)c(F)c(F)c(F)c4F)c4ccc([nH]4)c(-c4c(F)c(F)c(F)c(F)c4F)c4nc(c(-c5c(F)c(F)c(F)c(F)c5F)c5ccc2[nH]5)C=C4)C=C3)cc1
REMARK SMILES IDX 21 1 20 2 19 3 17 4 18 5 5 7 4 8 2 9 1 10 3 11 6 12 7 13
REMARK SMILES IDX 8 15 9 16 10 17 15 18 11 19 14 20 16 21 12 22 13 23 22 24
REMARK SMILES IDX 23 25 24 26 25 28 26 29 27 30 88 31 28 32 87 33 29 34 30 35
REMARK SMILES IDX 31 36 81 37 32 38 86 39 80 40 82 41 33 42 85 43 79 44 78 45
REMARK SMILES IDX 34 47 66 48 46 49 65 50 47 51 50 52 64 53 83 54 48 55 49 56
REMARK SMILES IDX 63 58 84 59 51 60 35 61 36 62 44 63 37 64 38 65 42 66 45 67
REMARK SMILES IDX 39 68 40 69 43 70 41 71 67 72 68 73 76 74 69 75 70 76 74 77
REMARK SMILES IDX 77 78 71 79 72 80 75 81 73 82 52 83 53 84 61 85 54 86 55 87
REMARK SMILES IDX 59 88 62 89 56 90 57 91 60 92 58 93
REMARK H PARENT 19 6 6 14 23 27 82 46 50 57
REMARK Flexibility Score: inf
ROOT
ATOM      1  C   UNL A   1      31.394  32.546  26.432  1.00  0.00     0.042 C 
ENDROOT
BRANCH   1   2
ATOM      2  C   UNL A   1      31.253  31.036  26.395  1.00  0.00     0.117 C 
BRANCH   2   3
ATOM      3  N   UNL A   1      32.508  30.384  26.113  1.00  0.00    -0.354 N 
ATOM      4  C   UNL A   1      32.743  29.152  25.592  1.00  0.00     0.242 C 
ATOM      5  O   UNL A   1      33.909  28.891  25.280  1.00  0.00    -0.273 OA
ATOM      6  H   UNL A   1      33.313  30.908  26.329  1.00  0.00     0.163 HD
BRANCH   4   7
ATOM      7  C   UNL A   1      31.607  28.143  25.303  1.00  0.00     0.171 C 
BRANCH   7   8
ATOM      8  C   UNL A   1      31.332  27.152  26.452  1.00  0.00     0.038 C 
BRANCH   8   9
ATOM      9  C   UNL A   1      31.695  25.661  26.318  1.00  0.00    -0.015 C 
ATOM     10  C   UNL A   1      30.829  24.879  25.329  1.00  0.00     0.007 C 
ATOM     11  C   UNL A   1      33.157  25.529  25.867  1.00  0.00     0.007 C 
ENDBRANCH   8   9
ENDBRANCH   7   8
BRANCH   7  12
ATOM     12  N   UNL A   1      31.468  27.769  23.873  1.00  0.00    -0.340 N 
ATOM     13  C   UNL A   1      30.620  27.901  22.816  1.00  0.00     0.255 C 
ATOM     14  H   UNL A   1      32.256  27.249  23.595  1.00  0.00     0.164 HD
ATOM     15  O   UNL A   1      30.832  27.245  21.796  1.00  0.00    -0.269 OA
BRANCH  13  16
ATOM     16  C   UNL A   1      29.414  28.712  22.826  1.00  0.00     0.082 A 
ATOM     17  C   UNL A   1      29.541  30.068  22.509  1.00  0.00     0.060 A 
ATOM     18  C   UNL A   1      28.195  28.239  23.257  1.00  0.00     0.164 A 
ATOM     19  C   UNL A   1      28.400  30.833  22.484  1.00  0.00     0.152 A 
ATOM     20  N   UNL A   1      27.097  29.024  23.235  1.00  0.00    -0.136 NA
ATOM     21  Cl  UNL A   1      27.935  26.672  23.897  1.00  0.00    -0.059 Cl
ATOM     22  Cl  UNL A   1      28.433  32.468  21.990  1.00  0.00    -0.060 Cl
ATOM     23  N   UNL A   1      27.195  30.331  22.810  1.00  0.00    -0.137 NA
ENDBRANCH  13  16
ENDBRANCH   7  12
ENDBRANCH   4   7
ENDBRANCH   2   3
ENDBRANCH   1   2
BRANCH   1  24
ATOM     24  C   UNL A   1      32.522  32.977  27.359  1.00  0.00     0.118 C 
BRANCH  24  25
ATOM     25  N   UNL A   1      32.431  34.400  27.680  1.00  0.00    -0.352 N 
ATOM     26  C   UNL A   1      33.016  35.103  28.705  1.00  0.00     0.251 C 
ATOM     27  H   UNL A   1      31.869  34.932  27.073  1.00  0.00     0.163 HD
ATOM     28  O   UNL A   1      32.598  36.217  29.009  1.00  0.00    -0.269 OA
BRANCH  26  29
ATOM     29  C   UNL A   1      34.138  34.504  29.450  1.00  0.00     0.039 A 
ATOM     30  C   UNL A   1      33.905  33.896  30.686  1.00  0.00     0.014 A 
ATOM     31  C   UNL A   1      35.430  34.559  28.923  1.00  0.00     0.014 A 
ATOM     32  C   UNL A   1      34.963  33.282  31.359  1.00  0.00     0.010 A 
ATOM     33  C   UNL A   1      36.458  33.862  29.540  1.00  0.00     0.010 A 
ATOM     34  C   UNL A   1      36.240  33.235  30.774  1.00  0.00    -0.014 A 
BRANCH  34  35
ATOM     35  C   UNL A   1      37.380  32.583  31.455  1.00  0.00     0.031 A 
ATOM     36  C   UNL A   1      38.092  31.444  30.782  1.00  0.00     0.074 A 
ATOM     37  C   UNL A   1      37.732  32.975  32.694  1.00  0.00     0.049 A 
ATOM     38  N   UNL A   1      39.082  30.711  31.222  1.00  0.00    -0.248 NA
ATOM     39  C   UNL A   1      37.606  31.055  29.447  1.00  0.00     0.031 C 
ATOM     40  C   UNL A   1      37.078  34.033  33.464  1.00  0.00     0.029 A 
ATOM     41  N   UNL A   1      38.725  32.524  33.526  1.00  0.00    -0.354 N 
ATOM     42  C   UNL A   1      39.333  29.783  30.221  1.00  0.00     0.074 A 
ATOM     43  C   UNL A   1      38.347  29.989  29.186  1.00  0.00     0.031 C 
ATOM     44  C   UNL A   1      37.708  34.172  34.642  1.00  0.00     0.029 A 
ATOM     45  C   UNL A   1      38.790  33.195  34.722  1.00  0.00     0.049 A 
ATOM     46  H   UNL A   1      39.334  31.787  33.289  1.00  0.00     0.167 HD
ATOM     47  C   UNL A   1      40.327  28.867  30.154  1.00  0.00     0.037 A 
ATOM     48  C   UNL A   1      39.634  33.041  35.759  1.00  0.00     0.037 A 
ATOM     49  C   UNL A   1      41.322  28.688  31.175  1.00  0.00     0.049 A 
ATOM     50  C   UNL A   1      40.716  31.999  35.671  1.00  0.00     0.074 A 
ATOM     51  C   UNL A   1      42.404  27.827  31.181  1.00  0.00     0.029 A 
ATOM     52  N   UNL A   1      41.354  29.386  32.373  1.00  0.00    -0.354 N 
ATOM     53  N   UNL A   1      40.993  31.177  34.687  1.00  0.00    -0.248 NA
ATOM     54  C   UNL A   1      41.605  31.862  36.834  1.00  0.00     0.031 C 
ATOM     55  C   UNL A   1      43.067  27.973  32.402  1.00  0.00     0.029 A 
ATOM     56  C   UNL A   1      42.425  28.958  33.137  1.00  0.00     0.049 A 
ATOM     57  H   UNL A   1      40.710  30.082  32.640  1.00  0.00     0.167 HD
ATOM     58  C   UNL A   1      42.099  30.446  35.099  1.00  0.00     0.074 A 
ATOM     59  C   UNL A   1      42.451  30.929  36.419  1.00  0.00     0.031 C 
ATOM     60  C   UNL A   1      42.762  29.462  34.444  1.00  0.00     0.037 A 
BRANCH  47  61
ATOM     61  C   UNL A   1      40.406  28.016  28.922  1.00  0.00     0.064 A 
ATOM     62  C   UNL A   1      41.173  28.407  27.814  1.00  0.00     0.173 A 
ATOM     63  C   UNL A   1      39.751  26.777  28.864  1.00  0.00     0.173 A 
ATOM     64  F   UNL A   1      41.806  29.590  27.814  1.00  0.00    -0.203 F 
ATOM     65  C   UNL A   1      41.264  27.599  26.684  1.00  0.00     0.198 A 
ATOM     66  C   UNL A   1      39.868  25.959  27.743  1.00  0.00     0.198 A 
ATOM     67  F   UNL A   1      39.006  26.356  29.897  1.00  0.00    -0.203 F 
ATOM     68  F   UNL A   1      41.968  28.014  25.622  1.00  0.00    -0.200 F 
ATOM     69  C   UNL A   1      40.620  26.372  26.653  1.00  0.00     0.200 A 
ATOM     70  F   UNL A   1      39.254  24.768  27.719  1.00  0.00    -0.200 F 
ATOM     71  F   UNL A   1      40.719  25.589  25.570  1.00  0.00    -0.200 F 
ENDBRANCH  47  61
BRANCH  48  72
ATOM     72  C   UNL A   1      39.522  33.933  36.942  1.00  0.00     0.064 A 
ATOM     73  C   UNL A   1      38.791  33.534  38.069  1.00  0.00     0.173 A 
ATOM     74  C   UNL A   1      40.155  35.183  36.984  1.00  0.00     0.173 A 
ATOM     75  F   UNL A   1      38.153  32.354  38.070  1.00  0.00    -0.203 F 
ATOM     76  C   UNL A   1      38.686  34.357  39.189  1.00  0.00     0.198 A 
ATOM     77  C   UNL A   1      40.070  35.996  38.114  1.00  0.00     0.198 A 
ATOM     78  F   UNL A   1      40.871  35.609  35.934  1.00  0.00    -0.203 F 
ATOM     79  F   UNL A   1      37.954  33.964  40.240  1.00  0.00    -0.200 F 
ATOM     80  C   UNL A   1      39.332  35.583  39.214  1.00  0.00     0.200 A 
ATOM     81  F   UNL A   1      40.705  37.174  38.138  1.00  0.00    -0.200 F 
ATOM     82  F   UNL A   1      39.239  36.371  40.294  1.00  0.00    -0.200 F 
ENDBRANCH  48  72
BRANCH  60  83
ATOM     83  C   UNL A   1      43.945  28.844  35.125  1.00  0.00     0.064 A 
ATOM     84  C   UNL A   1      45.229  29.389  34.994  1.00  0.00     0.173 A 
ATOM     85  C   UNL A   1      43.774  27.761  36.002  1.00  0.00     0.173 A 
ATOM     86  F   UNL A   1      45.443  30.417  34.158  1.00  0.00    -0.203 F 
ATOM     87  C   UNL A   1      46.301  28.874  35.716  1.00  0.00     0.198 A 
ATOM     88  C   UNL A   1      44.842  27.266  36.743  1.00  0.00     0.198 A 
ATOM     89  F   UNL A   1      42.562  27.211  36.169  1.00  0.00    -0.203 F 
ATOM     90  F   UNL A   1      47.524  29.398  35.561  1.00  0.00    -0.200 F 
ATOM     91  C   UNL A   1      46.105  27.823  36.598  1.00  0.00     0.200 A 
ATOM     92  F   UNL A   1      44.647  26.263  37.609  1.00  0.00    -0.200 F 
ATOM     93  F   UNL A   1      47.133  27.346  37.313  1.00  0.00    -0.200 F 
ENDBRANCH  60  83
ENDBRANCH  34  35
ENDBRANCH  26  29
ENDBRANCH  24  25
ENDBRANCH   1  24
TORSDOF 14
ENDMDL
MODEL 2
REMARK VINA RESULT:     -12.4      4.330      7.977
REMARK SMILES CC(C)C[C@H](NC(=O)c1cc(Cl)nnc1Cl)C(=O)NCCCNC(=O)c1ccc(-c2c3nc(c(-c4c(F)c(F)c(F)c(F)c4F)c4ccc([nH]4)c(-c4c(F)c(F)c(F)c(F)c4F)c4nc(c(-c5c(F)c(F)c(F)c(F)c5F)c5ccc2[nH]5)C=C4)C=C3)cc1
REMARK SMILES IDX 21 1 20 2 19 3 17 4 18 5 5 7 4 8 2 9 1 10 3 11 6 12 7 13
REMARK SMILES IDX 8 15 9 16 10 17 15 18 11 19 14 20 16 21 12 22 13 23 22 24
REMARK SMILES IDX 23 25 24 26 25 28 26 29 27 30 88 31 28 32 87 33 29 34 30 35
REMARK SMILES IDX 31 36 81 37 32 38 86 39 80 40 82 41 33 42 85 43 79 44 78 45
REMARK SMILES IDX 34 47 66 48 46 49 65 50 47 51 50 52 64 53 83 54 48 55 49 56
REMARK SMILES IDX 63 58 84 59 51 60 35 61 36 62 44 63 37 64 38 65 42 66 45 67
REMARK SMILES IDX 39 68 40 69 43 70 41 71 67 72 68 73 76 74 69 75 70 76 74 77
REMARK SMILES IDX 77 78 71 79 72 80 75 81 73 82 52 83 53 84 61 85 54 86 55 87
REMARK SMILES IDX 59 88 62 89 56 90 57 91 60 92 58 93
REMARK H PARENT 19 6 6 14 23 27 82 46 50 57
REMARK Flexibility Score: inf
ROOT
ATOM      1  C   UNL A   1      35.875  23.758  24.667  1.00  0.00     0.042 C 
ENDROOT
BRANCH   1   2
ATOM      2  C   UNL A   1      34.531  23.057  24.606  1.00  0.00     0.117 C 
BRANCH   2   3
ATOM      3  N   UNL A   1      34.085  22.865  23.248  1.00  0.00    -0.354 N 
ATOM      4  C   UNL A   1      33.397  23.710  22.437  1.00  0.00     0.242 C 
ATOM      5  O   UNL A   1      33.286  23.381  21.252  1.00  0.00    -0.273 OA
ATOM      6  H   UNL A   1      34.312  21.994  22.849  1.00  0.00     0.163 HD
BRANCH   4   7
ATOM      7  C   UNL A   1      32.851  25.071  22.930  1.00  0.00     0.171 C 
BRANCH   7   8
ATOM      8  C   UNL A   1      31.346  25.067  23.266  1.00  0.00     0.038 C 
BRANCH   8   9
ATOM      9  C   UNL A   1      30.860  25.077  24.727  1.00  0.00    -0.015 C 
ATOM     10  C   UNL A   1      31.918  25.489  25.751  1.00  0.00     0.007 C 
ATOM     11  C   UNL A   1      29.674  26.043  24.864  1.00  0.00     0.007 C 
ENDBRANCH   8   9
ENDBRANCH   7   8
BRANCH   7  12
ATOM     12  N   UNL A   1      33.539  26.252  22.351  1.00  0.00    -0.340 N 
ATOM     13  C   UNL A   1      33.684  27.595  22.531  1.00  0.00     0.255 C 
ATOM     14  H   UNL A   1      34.071  25.970  21.572  1.00  0.00     0.164 HD
ATOM     15  O   UNL A   1      34.249  28.256  21.660  1.00  0.00    -0.269 OA
BRANCH  13  16
ATOM     16  C   UNL A   1      33.143  28.335  23.658  1.00  0.00     0.082 A 
ATOM     17  C   UNL A   1      33.928  28.431  24.810  1.00  0.00     0.060 A 
ATOM     18  C   UNL A   1      31.855  28.823  23.686  1.00  0.00     0.164 A 
ATOM     19  C   UNL A   1      33.436  29.158  25.866  1.00  0.00     0.152 A 
ATOM     20  N   UNL A   1      31.398  29.520  24.748  1.00  0.00    -0.136 NA
ATOM     21  Cl  UNL A   1      30.699  28.579  22.448  1.00  0.00    -0.059 Cl
ATOM     22  Cl  UNL A   1      34.370  29.439  27.269  1.00  0.00    -0.060 Cl
ATOM     23  N   UNL A   1      32.214  29.719  25.842  1.00  0.00    -0.137 NA
ENDBRANCH  13  16
ENDBRANCH   7  12
ENDBRANCH   4   7
ENDBRANCH   2   3
ENDBRANCH   1   2
BRANCH   1  24
ATOM     24  C   UNL A   1      36.479  23.683  26.062  1.00  0.00     0.118 C 
BRANCH  24  25
ATOM     25  N   UNL A   1      37.532  22.671  26.131  1.00  0.00    -0.352 N 
ATOM     26  C   UNL A   1      38.879  22.827  26.346  1.00  0.00     0.251 C 
ATOM     27  H   UNL A   1      37.231  21.743  26.005  1.00  0.00     0.163 HD
ATOM     28  O   UNL A   1      39.659  21.919  26.071  1.00  0.00    -0.269 OA
BRANCH  26  29
ATOM     29  C   UNL A   1      39.387  24.099  26.891  1.00  0.00     0.039 A 
ATOM     30  C   UNL A   1      40.013  25.017  26.045  1.00  0.00     0.014 A 
ATOM     31  C   UNL A   1      39.251  24.374  28.253  1.00  0.00     0.014 A 
ATOM     32  C   UNL A   1      40.440  26.243  26.558  1.00  0.00     0.010 A 
ATOM     33  C   UNL A   1      39.582  25.629  28.741  1.00  0.00     0.010 A 
ATOM     34  C   UNL A   1      40.198  26.568  27.904  1.00  0.00    -0.014 A 
BRANCH  34  35
ATOM     35  C   UNL A   1      40.629  27.862  28.477  1.00  0.00     0.031 A 
ATOM     36  C   UNL A   1      42.076  28.075  28.820  1.00  0.00     0.074 A 
ATOM     37  C   UNL A   1      39.714  28.814  28.743  1.00  0.00     0.049 A 
ATOM     38  N   UNL A   1      42.652  29.113  29.369  1.00  0.00    -0.248 NA
ATOM     39  C   UNL A   1      42.995  26.959  28.538  1.00  0.00     0.031 C 
ATOM     40  C   UNL A   1      38.276  28.695  28.500  1.00  0.00     0.029 A 
ATOM     41  N   UNL A   1      39.859  30.068  29.280  1.00  0.00    -0.354 N 
ATOM     42  C   UNL A   1      43.992  28.774  29.494  1.00  0.00     0.074 A 
ATOM     43  C   UNL A   1      44.135  27.411  29.039  1.00  0.00     0.031 C 
ATOM     44  C   UNL A   1      37.675  29.843  28.857  1.00  0.00     0.029 A 
ATOM     45  C   UNL A   1      38.680  30.765  29.378  1.00  0.00     0.049 A 
ATOM     46  H   UNL A   1      40.726  30.434  29.568  1.00  0.00     0.167 HD
ATOM     47  C   UNL A   1      45.020  29.549  29.910  1.00  0.00     0.037 A 
ATOM     48  C   UNL A   1      38.443  32.010  29.832  1.00  0.00     0.037 A 
ATOM     49  C   UNL A   1      44.875  30.914  30.334  1.00  0.00     0.049 A 
ATOM     50  C   UNL A   1      39.600  32.844  30.314  1.00  0.00     0.074 A 
ATOM     51  C   UNL A   1      45.859  31.804  30.724  1.00  0.00     0.029 A 
ATOM     52  N   UNL A   1      43.664  31.585  30.421  1.00  0.00    -0.354 N 
ATOM     53  N   UNL A   1      40.876  32.540  30.356  1.00  0.00    -0.248 NA
ATOM     54  C   UNL A   1      39.288  34.191  30.809  1.00  0.00     0.031 C 
ATOM     55  C   UNL A   1      45.239  33.002  31.088  1.00  0.00     0.029 A 
ATOM     56  C   UNL A   1      43.874  32.873  30.882  1.00  0.00     0.049 A 
ATOM     57  H   UNL A   1      42.787  31.202  30.191  1.00  0.00     0.167 HD
ATOM     58  C   UNL A   1      41.519  33.664  30.856  1.00  0.00     0.074 A 
ATOM     59  C   UNL A   1      40.496  34.662  31.092  1.00  0.00     0.031 C 
ATOM     60  C   UNL A   1      42.839  33.852  31.099  1.00  0.00     0.037 A 
BRANCH  47  61
ATOM     61  C   UNL A   1      46.394  28.948  29.896  1.00  0.00     0.064 A 
ATOM     62  C   UNL A   1      47.210  29.024  28.757  1.00  0.00     0.173 A 
ATOM     63  C   UNL A   1      46.920  28.334  31.042  1.00  0.00     0.173 A 
ATOM     64  F   UNL A   1      46.748  29.588  27.631  1.00  0.00    -0.203 F 
ATOM     65  C   UNL A   1      48.495  28.488  28.759  1.00  0.00     0.198 A 
ATOM     66  C   UNL A   1      48.216  27.825  31.049  1.00  0.00     0.198 A 
ATOM     67  F   UNL A   1      46.182  28.237  32.157  1.00  0.00    -0.203 F 
ATOM     68  F   UNL A   1      49.240  28.535  27.645  1.00  0.00    -0.200 F 
ATOM     69  C   UNL A   1      49.000  27.898  29.907  1.00  0.00     0.200 A 
ATOM     70  F   UNL A   1      48.708  27.265  32.163  1.00  0.00    -0.200 F 
ATOM     71  F   UNL A   1      50.242  27.395  29.912  1.00  0.00    -0.200 F 
ENDBRANCH  47  61
BRANCH  48  72
ATOM     72  C   UNL A   1      37.063  32.560  29.797  1.00  0.00     0.064 A 
ATOM     73  C   UNL A   1      36.201  32.391  30.889  1.00  0.00     0.173 A 
ATOM     74  C   UNL A   1      36.585  33.278  28.692  1.00  0.00     0.173 A 
ATOM     75  F   UNL A   1      36.608  31.696  31.962  1.00  0.00    -0.203 F 
ATOM     76  C   UNL A   1      34.908  32.910  30.873  1.00  0.00     0.198 A 
ATOM     77  C   UNL A   1      35.299  33.818  28.687  1.00  0.00     0.198 A 
ATOM     78  F   UNL A   1      37.372  33.472  27.625  1.00  0.00    -0.203 F 
ATOM     79  F   UNL A   1      34.094  32.706  31.917  1.00  0.00    -0.200 F 
ATOM     80  C   UNL A   1      34.461  33.630  29.776  1.00  0.00     0.200 A 
ATOM     81  F   UNL A   1      34.875  34.522  27.630  1.00  0.00    -0.200 F 
ATOM     82  F   UNL A   1      33.220  34.137  29.764  1.00  0.00    -0.200 F 
ENDBRANCH  48  72
BRANCH  60  83
ATOM     83  C   UNL A   1      43.268  35.185  31.634  1.00  0.00     0.064 A 
ATOM     84  C   UNL A   1      43.688  36.213  30.780  1.00  0.00     0.173 A 
ATOM     85  C   UNL A   1      43.155  35.469  33.004  1.00  0.00     0.173 A 
ATOM     86  F   UNL A   1      43.822  35.984  29.465  1.00  0.00    -0.203 F 
ATOM     87  C   UNL A   1      43.979  37.479  31.276  1.00  0.00     0.198 A 
ATOM     88  C   UNL A   1      43.421  36.744  33.493  1.00  0.00     0.198 A 
ATOM     89  F   UNL A   1      42.748  34.521  33.861  1.00  0.00    -0.203 F 
ATOM     90  F   UNL A   1      44.397  38.443  30.444  1.00  0.00    -0.200 F 
ATOM     91  C   UNL A   1      43.834  37.747  32.629  1.00  0.00     0.200 A 
ATOM     92  F   UNL A   1      43.262  37.006  34.798  1.00  0.00    -0.200 F 
ATOM     93  F   UNL A   1      44.089  38.975  33.101  1.00  0.00    -0.200 F 
ENDBRANCH  60  83
ENDBRANCH  34  35
ENDBRANCH  26  29
ENDBRANCH  24  25
ENDBRANCH   1  24
TORSDOF 14
ENDMDL
MODEL 3
REMARK VINA RESULT:     -12.4      0.842      7.414
REMARK SMILES CC(C)C[C@H](NC(=O)c1cc(Cl)nnc1Cl)C(=O)NCCCNC(=O)c1ccc(-c2c3nc(c(-c4c(F)c(F)c(F)c(F)c4F)c4ccc([nH]4)c(-c4c(F)c(F)c(F)c(F)c4F)c4nc(c(-c5c(F)c(F)c(F)c(F)c5F)c5ccc2[nH]5)C=C4)C=C3)cc1
REMARK SMILES IDX 21 1 20 2 19 3 17 4 18 5 5 7 4 8 2 9 1 10 3 11 6 12 7 13
REMARK SMILES IDX 8 15 9 16 10 17 15 18 11 19 14 20 16 21 12 22 13 23 22 24
REMARK SMILES IDX 23 25 24 26 25 28 26 29 27 30 88 31 28 32 87 33 29 34 30 35
REMARK SMILES IDX 31 36 81 37 32 38 86 39 80 40 82 41 33 42 85 43 79 44 78 45
REMARK SMILES IDX 34 47 66 48 46 49 65 50 47 51 50 52 64 53 83 54 48 55 49 56
REMARK SMILES IDX 63 58 84 59 51 60 35 61 36 62 44 63 37 64 38 65 42 66 45 67
REMARK SMILES IDX 39 68 40 69 43 70 41 71 67 72 68 73 76 74 69 75 70 76 74 77
REMARK SMILES IDX 77 78 71 79 72 80 75 81 73 82 52 83 53 84 61 85 54 86 55 87
REMARK SMILES IDX 59 88 62 89 56 90 57 91 60 92 58 93
REMARK H PARENT 19 6 6 14 23 27 82 46 50 57
REMARK Flexibility Score: inf
ROOT
ATOM      1  C   UNL A   1      31.255  31.931  26.670  1.00  0.00     0.042 C 
ENDROOT
BRANCH   1   2
ATOM      2  C   UNL A   1      31.367  30.757  25.715  1.00  0.00     0.117 C 
BRANCH   2   3
ATOM      3  N   UNL A   1      32.457  29.880  26.066  1.00  0.00    -0.354 N 
ATOM      4  C   UNL A   1      32.586  28.542  25.870  1.00  0.00     0.242 C 
ATOM      5  O   UNL A   1      33.693  28.048  26.103  1.00  0.00    -0.273 OA
ATOM      6  H   UNL A   1      33.218  30.313  26.514  1.00  0.00     0.163 HD
BRANCH   4   7
ATOM      7  C   UNL A   1      31.443  27.674  25.291  1.00  0.00     0.171 C 
BRANCH   7   8
ATOM      8  C   UNL A   1      31.011  26.507  26.201  1.00  0.00     0.038 C 
BRANCH   8   9
ATOM      9  C   UNL A   1      31.290  25.046  25.803  1.00  0.00    -0.015 C 
ATOM     10  C   UNL A   1      32.694  24.545  26.150  1.00  0.00     0.007 C 
ATOM     11  C   UNL A   1      30.279  24.124  26.501  1.00  0.00     0.007 C 
ENDBRANCH   8   9
ENDBRANCH   7   8
BRANCH   7  12
ATOM     12  N   UNL A   1      31.436  27.580  23.810  1.00  0.00    -0.340 N 
ATOM     13  C   UNL A   1      30.689  27.925  22.725  1.00  0.00     0.255 C 
ATOM     14  H   UNL A   1      32.246  27.107  23.510  1.00  0.00     0.164 HD
ATOM     15  O   UNL A   1      30.993  27.470  21.622  1.00  0.00    -0.269 OA
BRANCH  13  16
ATOM     16  C   UNL A   1      29.488  28.742  22.780  1.00  0.00     0.082 A 
ATOM     17  C   UNL A   1      29.612  30.101  22.474  1.00  0.00     0.060 A 
ATOM     18  C   UNL A   1      28.281  28.271  23.245  1.00  0.00     0.164 A 
ATOM     19  C   UNL A   1      28.476  30.871  22.492  1.00  0.00     0.152 A 
ATOM     20  N   UNL A   1      27.186  29.061  23.265  1.00  0.00    -0.136 NA
ATOM     21  Cl  UNL A   1      28.032  26.700  23.876  1.00  0.00    -0.059 Cl
ATOM     22  Cl  UNL A   1      28.501  32.511  22.012  1.00  0.00    -0.060 Cl
ATOM     23  N   UNL A   1      27.278  30.373  22.849  1.00  0.00    -0.137 NA
ENDBRANCH  13  16
ENDBRANCH   7  12
ENDBRANCH   4   7
ENDBRANCH   2   3
ENDBRANCH   1   2
BRANCH   1  24
ATOM     24  C   UNL A   1      32.625  32.485  27.033  1.00  0.00     0.118 C 
BRANCH  24  25
ATOM     25  N   UNL A   1      32.539  33.885  27.446  1.00  0.00    -0.352 N 
ATOM     26  C   UNL A   1      33.153  34.525  28.494  1.00  0.00     0.251 C 
ATOM     27  H   UNL A   1      31.957  34.452  26.891  1.00  0.00     0.163 HD
ATOM     28  O   UNL A   1      32.740  35.615  28.881  1.00  0.00    -0.269 OA
BRANCH  26  29
ATOM     29  C   UNL A   1      34.299  33.886  29.166  1.00  0.00     0.039 A 
ATOM     30  C   UNL A   1      34.078  32.968  30.196  1.00  0.00     0.014 A 
ATOM     31  C   UNL A   1      35.600  34.212  28.779  1.00  0.00     0.014 A 
ATOM     32  C   UNL A   1      35.168  32.326  30.788  1.00  0.00     0.010 A 
ATOM     33  C   UNL A   1      36.674  33.501  29.295  1.00  0.00     0.010 A 
ATOM     34  C   UNL A   1      36.469  32.567  30.318  1.00  0.00    -0.014 A 
BRANCH  34  35
ATOM     35  C   UNL A   1      37.645  31.896  30.916  1.00  0.00     0.031 A 
ATOM     36  C   UNL A   1      38.109  32.299  32.287  1.00  0.00     0.074 A 
ATOM     37  C   UNL A   1      38.323  30.975  30.207  1.00  0.00     0.049 A 
ATOM     38  N   UNL A   1      39.137  31.870  32.972  1.00  0.00    -0.248 NA
ATOM     39  C   UNL A   1      37.332  33.349  32.969  1.00  0.00     0.031 C 
ATOM     40  C   UNL A   1      37.994  30.545  28.847  1.00  0.00     0.029 A 
ATOM     41  N   UNL A   1      39.434  30.238  30.529  1.00  0.00    -0.354 N 
ATOM     42  C   UNL A   1      39.126  32.593  34.156  1.00  0.00     0.074 A 
ATOM     43  C   UNL A   1      38.041  33.543  34.070  1.00  0.00     0.031 C 
ATOM     44  C   UNL A   1      38.864  29.595  28.465  1.00  0.00     0.029 A 
ATOM     45  C   UNL A   1      39.827  29.371  29.539  1.00  0.00     0.049 A 
ATOM     46  H   UNL A   1      39.906  30.322  31.389  1.00  0.00     0.167 HD
ATOM     47  C   UNL A   1      39.925  32.447  35.239  1.00  0.00     0.037 A 
ATOM     48  C   UNL A   1      40.846  28.492  29.509  1.00  0.00     0.037 A 
ATOM     49  C   UNL A   1      40.984  31.481  35.329  1.00  0.00     0.049 A 
ATOM     50  C   UNL A   1      41.737  28.366  30.716  1.00  0.00     0.074 A 
ATOM     51  C   UNL A   1      41.817  31.213  36.400  1.00  0.00     0.029 A 
ATOM     52  N   UNL A   1      41.353  30.621  34.304  1.00  0.00    -0.354 N 
ATOM     53  N   UNL A   1      41.671  29.002  31.861  1.00  0.00    -0.248 NA
ATOM     54  C   UNL A   1      42.841  27.400  30.630  1.00  0.00     0.031 C 
ATOM     55  C   UNL A   1      42.719  30.220  36.009  1.00  0.00     0.029 A 
ATOM     56  C   UNL A   1      42.418  29.838  34.710  1.00  0.00     0.049 A 
ATOM     57  H   UNL A   1      40.922  30.576  33.420  1.00  0.00     0.167 HD
ATOM     58  C   UNL A   1      42.704  28.497  32.639  1.00  0.00     0.074 A 
ATOM     59  C   UNL A   1      43.376  27.493  31.840  1.00  0.00     0.031 C 
ATOM     60  C   UNL A   1      43.065  28.836  33.901  1.00  0.00     0.037 A 
BRANCH  47  61
ATOM     61  C   UNL A   1      39.662  33.331  36.422  1.00  0.00     0.064 A 
ATOM     62  C   UNL A   1      40.277  34.586  36.543  1.00  0.00     0.173 A 
ATOM     63  C   UNL A   1      38.752  32.946  37.416  1.00  0.00     0.173 A 
ATOM     64  F   UNL A   1      41.167  34.995  35.626  1.00  0.00    -0.203 F 
ATOM     65  C   UNL A   1      40.008  35.414  37.630  1.00  0.00     0.198 A 
ATOM     66  C   UNL A   1      38.463  33.789  38.486  1.00  0.00     0.198 A 
ATOM     67  F   UNL A   1      38.135  31.757  37.346  1.00  0.00    -0.203 F 
ATOM     68  F   UNL A   1      40.641  36.590  37.746  1.00  0.00    -0.200 F 
ATOM     69  C   UNL A   1      39.095  35.019  38.595  1.00  0.00     0.200 A 
ATOM     70  F   UNL A   1      37.571  33.411  39.412  1.00  0.00    -0.200 F 
ATOM     71  F   UNL A   1      38.826  35.822  39.633  1.00  0.00    -0.200 F 
ENDBRANCH  47  61
BRANCH  48  72
ATOM     72  C   UNL A   1      41.041  27.626  28.318  1.00  0.00     0.064 A 
ATOM     73  C   UNL A   1      41.904  28.018  27.285  1.00  0.00     0.173 A 
ATOM     74  C   UNL A   1      40.393  26.389  28.194  1.00  0.00     0.173 A 
ATOM     75  F   UNL A   1      42.532  29.201  27.351  1.00  0.00    -0.203 F 
ATOM     76  C   UNL A   1      42.103  27.210  26.167  1.00  0.00     0.198 A 
ATOM     77  C   UNL A   1      40.612  25.570  27.087  1.00  0.00     0.198 A 
ATOM     78  F   UNL A   1      39.563  25.966  29.157  1.00  0.00    -0.203 F 
ATOM     79  F   UNL A   1      42.908  27.623  25.179  1.00  0.00    -0.200 F 
ATOM     80  C   UNL A   1      41.463  25.984  26.072  1.00  0.00     0.200 A 
ATOM     81  F   UNL A   1      40.001  24.381  27.004  1.00  0.00    -0.200 F 
ATOM     82  F   UNL A   1      41.661  25.202  25.001  1.00  0.00    -0.200 F 
ENDBRANCH  48  72
BRANCH  60  83
ATOM     83  C   UNL A   1      44.227  28.115  34.513  1.00  0.00     0.064 A 
ATOM     84  C   UNL A   1      45.523  28.644  34.460  1.00  0.00     0.173 A 
ATOM     85  C   UNL A   1      44.023  26.938  35.252  1.00  0.00     0.173 A 
ATOM     86  F   UNL A   1      45.768  29.760  33.757  1.00  0.00    -0.203 F 
ATOM     87  C   UNL A   1      46.576  28.022  35.125  1.00  0.00     0.198 A 
ATOM     88  C   UNL A   1      45.072  26.334  35.937  1.00  0.00     0.198 A 
ATOM     89  F   UNL A   1      42.798  26.399  35.340  1.00  0.00    -0.203 F 
ATOM     90  F   UNL A   1      47.811  28.534  35.046  1.00  0.00    -0.200 F 
ATOM     91  C   UNL A   1      46.347  26.877  35.872  1.00  0.00     0.200 A 
ATOM     92  F   UNL A   1      44.846  25.239  36.674  1.00  0.00    -0.200 F 
ATOM     93  F   UNL A   1      47.357  26.295  36.534  1.00  0.00    -0.200 F 
ENDBRANCH  60  83
ENDBRANCH  34  35
ENDBRANCH  26  29
ENDBRANCH  24  25
ENDBRANCH   1  24
TORSDOF 14
ENDMDL
