MODEL 1
REMARK VINA RESULT:     -13.2      0.000      0.000
REMARK SMILES Cc1c(Cl)cc2c(c1C)O[C@H](C(F)(F)F)C(C(=O)NCCCNC(=O)c1ccc(-c3c4nc(c(-c5c(F)c(F)c(F)c(F)c5F)c5ccc([nH]5)c(-c5c(F)c(F)c(F)c(F)c5F)c5nc(c(-c6c(F)c(F)c(F)c(F)c6F)c6ccc3[nH]6)C=C5)C=C4)cc1)=C2
REMARK SMILES IDX 21 1 20 2 19 3 17 4 18 5 16 7 1 8 2 9 3 10 8 11 4 12 5 13
REMARK SMILES IDX 7 14 9 15 6 16 10 17 89 18 11 19 12 20 13 21 14 22 15 23
REMARK SMILES IDX 22 24 23 25 24 26 25 28 26 29 27 30 88 31 28 32 87 33 29 34
REMARK SMILES IDX 30 35 31 36 81 37 32 38 86 39 80 40 82 41 33 42 85 43 79 44
REMARK SMILES IDX 78 45 34 47 66 48 46 49 65 50 47 51 50 52 64 53 83 54 48 55
REMARK SMILES IDX 49 56 63 58 84 59 51 60 35 61 36 62 44 63 37 64 38 65 42 66
REMARK SMILES IDX 45 67 39 68 40 69 43 70 41 71 67 72 68 73 76 74 69 75 70 76
REMARK SMILES IDX 74 77 77 78 71 79 72 80 75 81 73 82 52 83 53 84 61 85 54 86
REMARK SMILES IDX 55 87 59 88 62 89 56 90 57 91 60 92 58 93
REMARK H PARENT 19 6 23 27 82 46 50 57
REMARK Flexibility Score: inf
ROOT
ATOM      1  C   UNL A   1      37.960  19.672  24.988  1.00  0.00     0.042 C 
ENDROOT
BRANCH   1   2
ATOM      2  C   UNL A   1      36.921  20.741  24.690  1.00  0.00     0.118 C 
BRANCH   2   3
ATOM      3  N   UNL A   1      35.850  20.745  25.676  1.00  0.00    -0.352 N 
ATOM      4  C   UNL A   1      34.760  21.497  25.956  1.00  0.00     0.251 C 
ATOM      5  O   UNL A   1      34.099  21.125  26.929  1.00  0.00    -0.270 OA
ATOM      6  H   UNL A   1      35.944  19.999  26.312  1.00  0.00     0.163 HD
BRANCH   4   7
ATOM      7  C   UNL A   1      34.337  22.703  25.189  1.00  0.00     0.067 C 
ATOM      8  C   UNL A   1      33.056  28.679  22.870  1.00  0.00     0.046 C 
ATOM      9  C   UNL A   1      33.410  27.439  23.650  1.00  0.00    -0.026 A 
ATOM     10  C   UNL A   1      33.706  27.490  25.029  1.00  0.00     0.045 A 
ATOM     11  C   UNL A   1      33.423  26.181  23.004  1.00  0.00    -0.004 A 
ATOM     12  Cl  UNL A   1      33.662  28.967  25.929  1.00  0.00    -0.084 Cl
ATOM     13  C   UNL A   1      34.050  26.334  25.742  1.00  0.00     0.032 A 
ATOM     14  C   UNL A   1      33.783  25.037  23.738  1.00  0.00     0.131 A 
ATOM     15  C   UNL A   1      33.065  25.998  21.549  1.00  0.00     0.049 C 
ATOM     16  C   UNL A   1      34.099  25.102  25.096  1.00  0.00     0.019 A 
ATOM     17  O   UNL A   1      33.861  23.861  23.043  1.00  0.00    -0.475 OA
ATOM     18  C   UNL A   1      34.504  23.890  25.800  1.00  0.00     0.025 C 
ATOM     19  C   UNL A   1      33.731  22.646  23.819  1.00  0.00     0.314 C 
BRANCH  19  20
ATOM     20  C   UNL A   1      32.255  22.203  23.834  1.00  0.00     0.429 C 
ATOM     21  F   UNL A   1      32.164  20.865  23.633  1.00  0.00    -0.167 F 
ATOM     22  F   UNL A   1      31.648  22.453  25.019  1.00  0.00    -0.167 F 
ATOM     23  F   UNL A   1      31.514  22.808  22.881  1.00  0.00    -0.167 F 
ENDBRANCH  19  20
ENDBRANCH   4   7
ENDBRANCH   2   3
ENDBRANCH   1   2
BRANCH   1  24
ATOM     24  C   UNL A   1      39.146  20.237  25.758  1.00  0.00     0.118 C 
BRANCH  24  25
ATOM     25  N   UNL A   1      40.199  19.239  25.937  1.00  0.00    -0.352 N 
ATOM     26  C   UNL A   1      41.552  19.396  26.084  1.00  0.00     0.251 C 
ATOM     27  H   UNL A   1      39.885  18.305  25.955  1.00  0.00     0.163 HD
ATOM     28  O   UNL A   1      42.303  18.435  25.934  1.00  0.00    -0.269 OA
BRANCH  26  29
ATOM     29  C   UNL A   1      42.104  20.720  26.418  1.00  0.00     0.039 A 
ATOM     30  C   UNL A   1      42.512  21.575  25.391  1.00  0.00     0.014 A 
ATOM     31  C   UNL A   1      42.238  21.107  27.753  1.00  0.00     0.014 A 
ATOM     32  C   UNL A   1      42.989  22.846  25.708  1.00  0.00     0.010 A 
ATOM     33  C   UNL A   1      42.609  22.407  28.060  1.00  0.00     0.010 A 
ATOM     34  C   UNL A   1      43.006  23.283  27.042  1.00  0.00    -0.014 A 
BRANCH  34  35
ATOM     35  C   UNL A   1      43.473  24.641  27.406  1.00  0.00     0.031 A 
ATOM     36  C   UNL A   1      42.468  25.699  27.767  1.00  0.00     0.074 A 
ATOM     37  C   UNL A   1      44.789  24.926  27.369  1.00  0.00     0.049 A 
ATOM     38  N   UNL A   1      42.664  26.961  28.053  1.00  0.00    -0.248 NA
ATOM     39  C   UNL A   1      41.052  25.295  27.783  1.00  0.00     0.031 C 
ATOM     40  C   UNL A   1      45.848  23.985  27.002  1.00  0.00     0.029 A 
ATOM     41  N   UNL A   1      45.460  26.090  27.647  1.00  0.00    -0.354 N 
ATOM     42  C   UNL A   1      41.402  27.492  28.284  1.00  0.00     0.074 A 
ATOM     43  C   UNL A   1      40.441  26.444  28.027  1.00  0.00     0.031 C 
ATOM     44  C   UNL A   1      47.039  24.594  27.125  1.00  0.00     0.029 A 
ATOM     45  C   UNL A   1      46.825  25.978  27.535  1.00  0.00     0.049 A 
ATOM     46  H   UNL A   1      45.007  26.925  27.902  1.00  0.00     0.167 HD
ATOM     47  C   UNL A   1      41.078  28.733  28.716  1.00  0.00     0.037 A 
ATOM     48  C   UNL A   1      47.790  26.893  27.745  1.00  0.00     0.037 A 
ATOM     49  C   UNL A   1      42.039  29.763  28.993  1.00  0.00     0.049 A 
ATOM     50  C   UNL A   1      47.394  28.281  28.172  1.00  0.00     0.074 A 
ATOM     51  C   UNL A   1      41.818  31.049  29.450  1.00  0.00     0.029 A 
ATOM     52  N   UNL A   1      43.412  29.618  28.847  1.00  0.00    -0.354 N 
ATOM     53  N   UNL A   1      46.201  28.760  28.427  1.00  0.00    -0.248 NA
ATOM     54  C   UNL A   1      48.481  29.257  28.341  1.00  0.00     0.031 C 
ATOM     55  C   UNL A   1      43.051  31.696  29.544  1.00  0.00     0.029 A 
ATOM     56  C   UNL A   1      44.048  30.799  29.192  1.00  0.00     0.049 A 
ATOM     57  H   UNL A   1      43.865  28.799  28.542  1.00  0.00     0.167 HD
ATOM     58  C   UNL A   1      46.394  30.079  28.815  1.00  0.00     0.074 A 
ATOM     59  C   UNL A   1      47.821  30.321  28.778  1.00  0.00     0.031 C 
ATOM     60  C   UNL A   1      45.472  31.008  29.168  1.00  0.00     0.037 A 
BRANCH  47  61
ATOM     61  C   UNL A   1      39.627  29.032  28.953  1.00  0.00     0.064 A 
ATOM     62  C   UNL A   1      38.779  29.399  27.895  1.00  0.00     0.173 A 
ATOM     63  C   UNL A   1      39.061  28.889  30.228  1.00  0.00     0.173 A 
ATOM     64  F   UNL A   1      39.274  29.564  26.660  1.00  0.00    -0.203 F 
ATOM     65  C   UNL A   1      37.423  29.621  28.109  1.00  0.00     0.198 A 
ATOM     66  C   UNL A   1      37.698  29.084  30.432  1.00  0.00     0.198 A 
ATOM     67  F   UNL A   1      39.828  28.540  31.272  1.00  0.00    -0.203 F 
ATOM     68  F   UNL A   1      36.640  30.005  27.091  1.00  0.00    -0.200 F 
ATOM     69  C   UNL A   1      36.880  29.453  29.374  1.00  0.00     0.200 A 
ATOM     70  F   UNL A   1      37.173  28.907  31.653  1.00  0.00    -0.200 F 
ATOM     71  F   UNL A   1      35.570  29.648  29.574  1.00  0.00    -0.200 F 
ENDBRANCH  47  61
BRANCH  48  72
ATOM     72  C   UNL A   1      49.221  26.516  27.605  1.00  0.00     0.064 A 
ATOM     73  C   UNL A   1      50.012  26.288  28.741  1.00  0.00     0.173 A 
ATOM     74  C   UNL A   1      49.830  26.378  26.350  1.00  0.00     0.173 A 
ATOM     75  F   UNL A   1      49.480  26.425  29.965  1.00  0.00    -0.203 F 
ATOM     76  C   UNL A   1      51.360  25.955  28.627  1.00  0.00     0.198 A 
ATOM     77  C   UNL A   1      51.172  26.016  26.236  1.00  0.00     0.198 A 
ATOM     78  F   UNL A   1      49.119  26.579  25.231  1.00  0.00    -0.203 F 
ATOM     79  F   UNL A   1      52.102  25.788  29.730  1.00  0.00    -0.200 F 
ATOM     80  C   UNL A   1      51.938  25.814  27.374  1.00  0.00     0.200 A 
ATOM     81  F   UNL A   1      51.722  25.865  25.024  1.00  0.00    -0.200 F 
ATOM     82  F   UNL A   1      53.233  25.489  27.265  1.00  0.00    -0.200 F 
ENDBRANCH  48  72
BRANCH  60  83
ATOM     83  C   UNL A   1      45.970  32.364  29.573  1.00  0.00     0.064 A 
ATOM     84  C   UNL A   1      46.083  33.409  28.645  1.00  0.00     0.173 A 
ATOM     85  C   UNL A   1      46.250  32.644  30.920  1.00  0.00     0.173 A 
ATOM     86  F   UNL A   1      45.837  33.187  27.345  1.00  0.00    -0.203 F 
ATOM     87  C   UNL A   1      46.470  34.683  29.050  1.00  0.00     0.198 A 
ATOM     88  C   UNL A   1      46.605  33.926  31.325  1.00  0.00     0.198 A 
ATOM     89  F   UNL A   1      46.147  31.680  31.846  1.00  0.00    -0.203 F 
ATOM     90  F   UNL A   1      46.602  35.659  28.142  1.00  0.00    -0.200 F 
ATOM     91  C   UNL A   1      46.718  34.944  30.389  1.00  0.00     0.200 A 
ATOM     92  F   UNL A   1      46.826  34.180  32.621  1.00  0.00    -0.200 F 
ATOM     93  F   UNL A   1      47.068  36.177  30.780  1.00  0.00    -0.200 F 
ENDBRANCH  60  83
ENDBRANCH  34  35
ENDBRANCH  26  29
ENDBRANCH  24  25
ENDBRANCH   1  24
TORSDOF 11
ENDMDL
MODEL 2
REMARK VINA RESULT:     -13.2      5.770     10.673
REMARK SMILES Cc1c(Cl)cc2c(c1C)O[C@H](C(F)(F)F)C(C(=O)NCCCNC(=O)c1ccc(-c3c4nc(c(-c5c(F)c(F)c(F)c(F)c5F)c5ccc([nH]5)c(-c5c(F)c(F)c(F)c(F)c5F)c5nc(c(-c6c(F)c(F)c(F)c(F)c6F)c6ccc3[nH]6)C=C5)C=C4)cc1)=C2
REMARK SMILES IDX 21 1 20 2 19 3 17 4 18 5 16 7 1 8 2 9 3 10 8 11 4 12 5 13
REMARK SMILES IDX 7 14 9 15 6 16 10 17 89 18 11 19 12 20 13 21 14 22 15 23
REMARK SMILES IDX 22 24 23 25 24 26 25 28 26 29 27 30 88 31 28 32 87 33 29 34
REMARK SMILES IDX 30 35 31 36 81 37 32 38 86 39 80 40 82 41 33 42 85 43 79 44
REMARK SMILES IDX 78 45 34 47 66 48 46 49 65 50 47 51 50 52 64 53 83 54 48 55
REMARK SMILES IDX 49 56 63 58 84 59 51 60 35 61 36 62 44 63 37 64 38 65 42 66
REMARK SMILES IDX 45 67 39 68 40 69 43 70 41 71 67 72 68 73 76 74 69 75 70 76
REMARK SMILES IDX 74 77 77 78 71 79 72 80 75 81 73 82 52 83 53 84 61 85 54 86
REMARK SMILES IDX 55 87 59 88 62 89 56 90 57 91 60 92 58 93
REMARK H PARENT 19 6 23 27 82 46 50 57
REMARK Flexibility Score: inf
ROOT
ATOM      1  C   UNL A   1      31.402  32.194  26.641  1.00  0.00     0.042 C 
ENDROOT
BRANCH   1   2
ATOM      2  C   UNL A   1      31.531  30.702  26.383  1.00  0.00     0.118 C 
BRANCH   2   3
ATOM      3  N   UNL A   1      31.252  30.366  24.995  1.00  0.00    -0.352 N 
ATOM      4  C   UNL A   1      31.205  29.249  24.232  1.00  0.00     0.251 C 
ATOM      5  O   UNL A   1      30.915  29.432  23.047  1.00  0.00    -0.270 OA
ATOM      6  H   UNL A   1      31.040  31.170  24.466  1.00  0.00     0.163 HD
BRANCH   4   7
ATOM      7  C   UNL A   1      31.481  27.869  24.724  1.00  0.00     0.067 C 
ATOM      8  C   UNL A   1      33.990  22.258  26.951  1.00  0.00     0.046 C 
ATOM      9  C   UNL A   1      33.686  23.622  26.387  1.00  0.00    -0.026 A 
ATOM     10  C   UNL A   1      34.698  24.445  25.849  1.00  0.00     0.045 A 
ATOM     11  C   UNL A   1      32.352  24.093  26.364  1.00  0.00    -0.004 A 
ATOM     12  Cl  UNL A   1      36.352  23.944  25.774  1.00  0.00    -0.084 Cl
ATOM     13  C   UNL A   1      34.408  25.719  25.343  1.00  0.00     0.032 A 
ATOM     14  C   UNL A   1      32.087  25.380  25.861  1.00  0.00     0.131 A 
ATOM     15  C   UNL A   1      31.181  23.277  26.856  1.00  0.00     0.049 C 
ATOM     16  C   UNL A   1      33.100  26.196  25.356  1.00  0.00     0.019 A 
ATOM     17  O   UNL A   1      30.792  25.815  25.941  1.00  0.00    -0.475 OA
ATOM     18  C   UNL A   1      32.775  27.537  24.882  1.00  0.00     0.025 C 
ATOM     19  C   UNL A   1      30.410  26.863  25.019  1.00  0.00     0.314 C 
BRANCH  19  20
ATOM     20  C   UNL A   1      29.813  26.232  23.746  1.00  0.00     0.429 C 
ATOM     21  F   UNL A   1      28.618  26.805  23.454  1.00  0.00    -0.167 F 
ATOM     22  F   UNL A   1      30.599  26.412  22.658  1.00  0.00    -0.167 F 
ATOM     23  F   UNL A   1      29.607  24.903  23.864  1.00  0.00    -0.167 F 
ENDBRANCH  19  20
ENDBRANCH   4   7
ENDBRANCH   2   3
ENDBRANCH   1   2
BRANCH   1  24
ATOM     24  C   UNL A   1      32.697  32.790  27.174  1.00  0.00     0.118 C 
BRANCH  24  25
ATOM     25  N   UNL A   1      32.526  34.185  27.574  1.00  0.00    -0.352 N 
ATOM     26  C   UNL A   1      33.042  34.869  28.643  1.00  0.00     0.251 C 
ATOM     27  H   UNL A   1      31.949  34.718  26.980  1.00  0.00     0.163 HD
ATOM     28  O   UNL A   1      32.560  35.951  28.973  1.00  0.00    -0.269 OA
BRANCH  26  29
ATOM     29  C   UNL A   1      34.173  34.303  29.400  1.00  0.00     0.039 A 
ATOM     30  C   UNL A   1      33.926  33.578  30.567  1.00  0.00     0.014 A 
ATOM     31  C   UNL A   1      35.483  34.510  28.961  1.00  0.00     0.014 A 
ATOM     32  C   UNL A   1      34.994  33.002  31.254  1.00  0.00     0.010 A 
ATOM     33  C   UNL A   1      36.531  33.849  29.582  1.00  0.00     0.010 A 
ATOM     34  C   UNL A   1      36.299  33.104  30.746  1.00  0.00    -0.014 A 
BRANCH  34  35
ATOM     35  C   UNL A   1      37.449  32.473  31.433  1.00  0.00     0.031 A 
ATOM     36  C   UNL A   1      38.192  31.353  30.761  1.00  0.00     0.074 A 
ATOM     37  C   UNL A   1      37.791  32.879  32.671  1.00  0.00     0.049 A 
ATOM     38  N   UNL A   1      39.182  30.627  31.216  1.00  0.00    -0.248 NA
ATOM     39  C   UNL A   1      37.748  30.978  29.407  1.00  0.00     0.031 C 
ATOM     40  C   UNL A   1      37.120  33.935  33.431  1.00  0.00     0.029 A 
ATOM     41  N   UNL A   1      38.792  32.454  33.508  1.00  0.00    -0.354 N 
ATOM     42  C   UNL A   1      39.475  29.720  30.206  1.00  0.00     0.074 A 
ATOM     43  C   UNL A   1      38.512  29.927  29.149  1.00  0.00     0.031 C 
ATOM     44  C   UNL A   1      37.757  34.108  34.600  1.00  0.00     0.029 A 
ATOM     45  C   UNL A   1      38.852  33.148  34.691  1.00  0.00     0.049 A 
ATOM     46  H   UNL A   1      39.409  31.720  33.281  1.00  0.00     0.167 HD
ATOM     47  C   UNL A   1      40.487  28.824  30.148  1.00  0.00     0.037 A 
ATOM     48  C   UNL A   1      39.701  33.022  35.729  1.00  0.00     0.037 A 
ATOM     49  C   UNL A   1      41.456  28.639  31.192  1.00  0.00     0.049 A 
ATOM     50  C   UNL A   1      40.783  31.978  35.658  1.00  0.00     0.074 A 
ATOM     51  C   UNL A   1      42.531  27.771  31.227  1.00  0.00     0.029 A 
ATOM     52  N   UNL A   1      41.471  29.348  32.386  1.00  0.00    -0.354 N 
ATOM     53  N   UNL A   1      41.077  31.155  34.682  1.00  0.00    -0.248 NA
ATOM     54  C   UNL A   1      41.654  31.847  36.836  1.00  0.00     0.031 C 
ATOM     55  C   UNL A   1      43.174  27.924  32.457  1.00  0.00     0.029 A 
ATOM     56  C   UNL A   1      42.530  28.923  33.170  1.00  0.00     0.049 A 
ATOM     57  H   UNL A   1      40.825  30.046  32.637  1.00  0.00     0.167 HD
ATOM     58  C   UNL A   1      42.182  30.431  35.112  1.00  0.00     0.074 A 
ATOM     59  C   UNL A   1      42.515  30.924  36.431  1.00  0.00     0.031 C 
ATOM     60  C   UNL A   1      42.856  29.444  34.473  1.00  0.00     0.037 A 
BRANCH  47  61
ATOM     61  C   UNL A   1      40.623  28.003  28.900  1.00  0.00     0.064 A 
ATOM     62  C   UNL A   1      39.905  26.807  28.737  1.00  0.00     0.173 A 
ATOM     63  C   UNL A   1      41.418  28.441  27.832  1.00  0.00     0.173 A 
ATOM     64  F   UNL A   1      39.141  26.336  29.734  1.00  0.00    -0.203 F 
ATOM     65  C   UNL A   1      39.989  26.076  27.556  1.00  0.00     0.198 A 
ATOM     66  C   UNL A   1      41.477  27.722  26.641  1.00  0.00     0.198 A 
ATOM     67  F   UNL A   1      42.124  29.578  27.937  1.00  0.00    -0.203 F 
ATOM     68  F   UNL A   1      39.323  24.920  27.437  1.00  0.00    -0.200 F 
ATOM     69  C   UNL A   1      40.766  26.540  26.504  1.00  0.00     0.200 A 
ATOM     70  F   UNL A   1      42.217  28.179  25.621  1.00  0.00    -0.200 F 
ATOM     71  F   UNL A   1      40.830  25.845  25.361  1.00  0.00    -0.200 F 
ENDBRANCH  47  61
BRANCH  48  72
ATOM     72  C   UNL A   1      39.597  33.935  36.897  1.00  0.00     0.064 A 
ATOM     73  C   UNL A   1      38.835  33.574  38.018  1.00  0.00     0.173 A 
ATOM     74  C   UNL A   1      40.244  35.178  36.924  1.00  0.00     0.173 A 
ATOM     75  F   UNL A   1      38.183  32.402  38.034  1.00  0.00    -0.203 F 
ATOM     76  C   UNL A   1      38.710  34.428  39.111  1.00  0.00     0.198 A 
ATOM     77  C   UNL A   1      40.143  36.020  38.031  1.00  0.00     0.198 A 
ATOM     78  F   UNL A   1      40.990  35.571  35.880  1.00  0.00    -0.203 F 
ATOM     79  F   UNL A   1      37.939  34.076  40.149  1.00  0.00    -0.200 F 
ATOM     80  C   UNL A   1      39.369  35.649  39.119  1.00  0.00     0.200 A 
ATOM     81  F   UNL A   1      40.793  37.191  38.041  1.00  0.00    -0.200 F 
ATOM     82  F   UNL A   1      39.252  36.468  40.173  1.00  0.00    -0.200 F 
ENDBRANCH  48  72
BRANCH  60  83
ATOM     83  C   UNL A   1      44.043  28.848  35.170  1.00  0.00     0.064 A 
ATOM     84  C   UNL A   1      45.328  29.386  35.014  1.00  0.00     0.173 A 
ATOM     85  C   UNL A   1      43.877  27.785  36.071  1.00  0.00     0.173 A 
ATOM     86  F   UNL A   1      45.538  30.395  34.155  1.00  0.00    -0.203 F 
ATOM     87  C   UNL A   1      46.407  28.873  35.728  1.00  0.00     0.198 A 
ATOM     88  C   UNL A   1      44.952  27.296  36.806  1.00  0.00     0.198 A 
ATOM     89  F   UNL A   1      42.665  27.243  36.261  1.00  0.00    -0.203 F 
ATOM     90  F   UNL A   1      47.633  29.381  35.541  1.00  0.00    -0.200 F 
ATOM     91  C   UNL A   1      46.217  27.838  36.632  1.00  0.00     0.200 A 
ATOM     92  F   UNL A   1      44.762  26.310  37.692  1.00  0.00    -0.200 F 
ATOM     93  F   UNL A   1      47.253  27.362  37.335  1.00  0.00    -0.200 F 
ENDBRANCH  60  83
ENDBRANCH  34  35
ENDBRANCH  26  29
ENDBRANCH  24  25
ENDBRANCH   1  24
TORSDOF 11
ENDMDL
MODEL 3
REMARK VINA RESULT:     -13.2      0.150      1.598
REMARK SMILES Cc1c(Cl)cc2c(c1C)O[C@H](C(F)(F)F)C(C(=O)NCCCNC(=O)c1ccc(-c3c4nc(c(-c5c(F)c(F)c(F)c(F)c5F)c5ccc([nH]5)c(-c5c(F)c(F)c(F)c(F)c5F)c5nc(c(-c6c(F)c(F)c(F)c(F)c6F)c6ccc3[nH]6)C=C5)C=C4)cc1)=C2
REMARK SMILES IDX 21 1 20 2 19 3 17 4 18 5 16 7 1 8 2 9 3 10 8 11 4 12 5 13
REMARK SMILES IDX 7 14 9 15 6 16 10 17 89 18 11 19 12 20 13 21 14 22 15 23
REMARK SMILES IDX 22 24 23 25 24 26 25 28 26 29 27 30 88 31 28 32 87 33 29 34
REMARK SMILES IDX 30 35 31 36 81 37 32 38 86 39 80 40 82 41 33 42 85 43 79 44
REMARK SMILES IDX 78 45 34 47 66 48 46 49 65 50 47 51 50 52 64 53 83 54 48 55
REMARK SMILES IDX 49 56 63 58 84 59 51 60 35 61 36 62 44 63 37 64 38 65 42 66
REMARK SMILES IDX 45 67 39 68 40 69 43 70 41 71 67 72 68 73 76 74 69 75 70 76
REMARK SMILES IDX 74 77 77 78 71 79 72 80 75 81 73 82 52 83 53 84 61 85 54 86
REMARK SMILES IDX 55 87 59 88 62 89 56 90 57 91 60 92 58 93
REMARK H PARENT 19 6 23 27 82 46 50 57
REMARK Flexibility Score: inf
ROOT
ATOM      1  C   UNL A   1      37.903  19.623  25.001  1.00  0.00     0.042 C 
ENDROOT
BRANCH   1   2
ATOM      2  C   UNL A   1      36.859  20.686  24.697  1.00  0.00     0.118 C 
BRANCH   2   3
ATOM      3  N   UNL A   1      35.795  20.699  25.689  1.00  0.00    -0.352 N 
ATOM      4  C   UNL A   1      34.701  21.446  25.963  1.00  0.00     0.251 C 
ATOM      5  O   UNL A   1      34.048  21.085  26.946  1.00  0.00    -0.270 OA
ATOM      6  H   UNL A   1      35.898  19.963  26.336  1.00  0.00     0.163 HD
BRANCH   4   7
ATOM      7  C   UNL A   1      34.264  22.636  25.179  1.00  0.00     0.067 C 
ATOM      8  C   UNL A   1      32.954  28.563  22.751  1.00  0.00     0.046 C 
ATOM      9  C   UNL A   1      33.322  27.340  23.551  1.00  0.00    -0.026 A 
ATOM     10  C   UNL A   1      33.653  27.421  24.920  1.00  0.00     0.045 A 
ATOM     11  C   UNL A   1      33.311  26.067  22.935  1.00  0.00    -0.004 A 
ATOM     12  Cl  UNL A   1      33.641  28.920  25.785  1.00  0.00    -0.084 Cl
ATOM     13  C   UNL A   1      34.011  26.281  25.651  1.00  0.00     0.032 A 
ATOM     14  C   UNL A   1      33.684  24.938  23.687  1.00  0.00     0.131 A 
ATOM     15  C   UNL A   1      32.914  25.851  21.495  1.00  0.00     0.049 C 
ATOM     16  C   UNL A   1      34.036  25.034  25.034  1.00  0.00     0.019 A 
ATOM     17  O   UNL A   1      33.738  23.745  23.018  1.00  0.00    -0.475 OA
ATOM     18  C   UNL A   1      34.453  23.837  25.756  1.00  0.00     0.025 C 
ATOM     19  C   UNL A   1      33.622  22.550  23.827  1.00  0.00     0.314 C 
BRANCH  19  20
ATOM     20  C   UNL A   1      32.144  22.116  23.891  1.00  0.00     0.429 C 
ATOM     21  F   UNL A   1      32.046  20.767  23.789  1.00  0.00    -0.167 F 
ATOM     22  F   UNL A   1      31.552  22.455  25.061  1.00  0.00    -0.167 F 
ATOM     23  F   UNL A   1      31.395  22.653  22.904  1.00  0.00    -0.167 F 
ENDBRANCH  19  20
ENDBRANCH   4   7
ENDBRANCH   2   3
ENDBRANCH   1   2
BRANCH   1  24
ATOM     24  C   UNL A   1      39.094  20.198  25.753  1.00  0.00     0.118 C 
BRANCH  24  25
ATOM     25  N   UNL A   1      40.157  19.210  25.920  1.00  0.00    -0.352 N 
ATOM     26  C   UNL A   1      41.510  19.379  26.060  1.00  0.00     0.251 C 
ATOM     27  H   UNL A   1      39.853  18.273  25.934  1.00  0.00     0.163 HD
ATOM     28  O   UNL A   1      42.270  18.426  25.901  1.00  0.00    -0.269 OA
BRANCH  26  29
ATOM     29  C   UNL A   1      42.051  20.707  26.399  1.00  0.00     0.039 A 
ATOM     30  C   UNL A   1      42.438  21.575  25.375  1.00  0.00     0.014 A 
ATOM     31  C   UNL A   1      42.195  21.085  27.736  1.00  0.00     0.014 A 
ATOM     32  C   UNL A   1      42.905  22.849  25.697  1.00  0.00     0.010 A 
ATOM     33  C   UNL A   1      42.556  22.386  28.050  1.00  0.00     0.010 A 
ATOM     34  C   UNL A   1      42.932  23.275  27.034  1.00  0.00    -0.014 A 
BRANCH  34  35
ATOM     35  C   UNL A   1      43.388  24.634  27.405  1.00  0.00     0.031 A 
ATOM     36  C   UNL A   1      42.375  25.680  27.779  1.00  0.00     0.074 A 
ATOM     37  C   UNL A   1      44.700  24.933  27.361  1.00  0.00     0.049 A 
ATOM     38  N   UNL A   1      42.560  26.942  28.072  1.00  0.00    -0.248 NA
ATOM     39  C   UNL A   1      40.963  25.262  27.800  1.00  0.00     0.031 C 
ATOM     40  C   UNL A   1      45.767  24.005  26.982  1.00  0.00     0.029 A 
ATOM     41  N   UNL A   1      45.362  26.101  27.643  1.00  0.00    -0.354 N 
ATOM     42  C   UNL A   1      41.294  27.460  28.314  1.00  0.00     0.074 A 
ATOM     43  C   UNL A   1      40.342  26.404  28.056  1.00  0.00     0.031 C 
ATOM     44  C   UNL A   1      46.952  24.624  27.101  1.00  0.00     0.029 A 
ATOM     45  C   UNL A   1      46.727  26.003  27.522  1.00  0.00     0.049 A 
ATOM     46  H   UNL A   1      44.902  26.931  27.906  1.00  0.00     0.167 HD
ATOM     47  C   UNL A   1      40.961  28.694  28.756  1.00  0.00     0.037 A 
ATOM     48  C   UNL A   1      47.684  26.926  27.732  1.00  0.00     0.037 A 
ATOM     49  C   UNL A   1      41.914  29.732  29.034  1.00  0.00     0.049 A 
ATOM     50  C   UNL A   1      47.278  28.307  28.170  1.00  0.00     0.074 A 
ATOM     51  C   UNL A   1      41.683  31.012  29.501  1.00  0.00     0.029 A 
ATOM     52  N   UNL A   1      43.287  29.601  28.878  1.00  0.00    -0.354 N 
ATOM     53  N   UNL A   1      46.082  28.774  28.436  1.00  0.00    -0.248 NA
ATOM     54  C   UNL A   1      48.356  29.293  28.339  1.00  0.00     0.031 C 
ATOM     55  C   UNL A   1      42.910  31.671  29.591  1.00  0.00     0.029 A 
ATOM     56  C   UNL A   1      43.913  30.786  29.228  1.00  0.00     0.049 A 
ATOM     57  H   UNL A   1      43.746  28.788  28.566  1.00  0.00     0.167 HD
ATOM     58  C   UNL A   1      46.264  30.092  28.832  1.00  0.00     0.074 A 
ATOM     59  C   UNL A   1      47.688  30.347  28.787  1.00  0.00     0.031 C 
ATOM     60  C   UNL A   1      45.336  31.009  29.196  1.00  0.00     0.037 A 
BRANCH  47  61
ATOM     61  C   UNL A   1      39.509  28.978  29.004  1.00  0.00     0.064 A 
ATOM     62  C   UNL A   1      38.946  28.817  30.281  1.00  0.00     0.173 A 
ATOM     63  C   UNL A   1      38.688  29.478  27.984  1.00  0.00     0.173 A 
ATOM     64  F   UNL A   1      39.685  28.328  31.288  1.00  0.00    -0.203 F 
ATOM     65  C   UNL A   1      37.613  29.135  30.521  1.00  0.00     0.198 A 
ATOM     66  C   UNL A   1      37.362  29.823  28.236  1.00  0.00     0.198 A 
ATOM     67  F   UNL A   1      39.176  29.651  26.746  1.00  0.00    -0.203 F 
ATOM     68  F   UNL A   1      37.089  28.940  31.739  1.00  0.00    -0.200 F 
ATOM     69  C   UNL A   1      36.825  29.648  29.502  1.00  0.00     0.200 A 
ATOM     70  F   UNL A   1      36.606  30.331  27.253  1.00  0.00    -0.200 F 
ATOM     71  F   UNL A   1      35.547  29.972  29.741  1.00  0.00    -0.200 F 
ENDBRANCH  47  61
BRANCH  48  72
ATOM     72  C   UNL A   1      49.118  26.565  27.581  1.00  0.00     0.064 A 
ATOM     73  C   UNL A   1      49.698  26.467  26.307  1.00  0.00     0.173 A 
ATOM     74  C   UNL A   1      49.937  26.308  28.690  1.00  0.00     0.173 A 
ATOM     75  F   UNL A   1      48.953  26.687  25.214  1.00  0.00    -0.203 F 
ATOM     76  C   UNL A   1      51.035  26.109  26.149  1.00  0.00     0.198 A 
ATOM     77  C   UNL A   1      51.282  25.979  28.531  1.00  0.00     0.198 A 
ATOM     78  F   UNL A   1      49.435  26.393  29.930  1.00  0.00    -0.203 F 
ATOM     79  F   UNL A   1      51.550  25.980  24.918  1.00  0.00    -0.200 F 
ATOM     80  C   UNL A   1      51.828  25.870  27.261  1.00  0.00     0.200 A 
ATOM     81  F   UNL A   1      52.048  25.764  29.609  1.00  0.00    -0.200 F 
ATOM     82  F   UNL A   1      53.115  25.530  27.109  1.00  0.00    -0.200 F 
ENDBRANCH  48  72
BRANCH  60  83
ATOM     83  C   UNL A   1      45.822  32.367  29.607  1.00  0.00     0.064 A 
ATOM     84  C   UNL A   1      45.913  33.421  28.687  1.00  0.00     0.173 A 
ATOM     85  C   UNL A   1      46.115  32.639  30.953  1.00  0.00     0.173 A 
ATOM     86  F   UNL A   1      45.654  33.207  27.388  1.00  0.00    -0.203 F 
ATOM     87  C   UNL A   1      46.290  34.696  29.098  1.00  0.00     0.198 A 
ATOM     88  C   UNL A   1      46.460  33.922  31.364  1.00  0.00     0.198 A 
ATOM     89  F   UNL A   1      46.033  31.666  31.872  1.00  0.00    -0.203 F 
ATOM     90  F   UNL A   1      46.401  35.682  28.197  1.00  0.00    -0.200 F 
ATOM     91  C   UNL A   1      46.551  34.949  30.437  1.00  0.00     0.200 A 
ATOM     92  F   UNL A   1      46.693  34.167  32.661  1.00  0.00    -0.200 F 
ATOM     93  F   UNL A   1      46.891  36.182  30.833  1.00  0.00    -0.200 F 
ENDBRANCH  60  83
ENDBRANCH  34  35
ENDBRANCH  26  29
ENDBRANCH  24  25
ENDBRANCH   1  24
TORSDOF 11
ENDMDL
