MODEL 1
REMARK VINA RESULT:     -12.7      0.000      0.000
REMARK SMILES O=C(NCCCNC(=O)[C@H]1CCCCN1S(=O)(=O)c1cc[nH]c1)c1ccc(-c2c3nc(c(-c4c(F)c(F)c(F)c(F)c4F)c4ccc([nH]4)c(-c4c(F)c(F)c(F)c(F)c4F)c4nc(c(-c5c(F)c(F)c(F)c(F)c5F)c5ccc2[nH]5)C=C4)C=C3)cc1
REMARK SMILES IDX 5 1 4 2 3 3 1 4 2 5 24 7 25 8 86 9 26 10 85 11 27 12 28 13
REMARK SMILES IDX 29 14 79 15 30 16 84 17 78 18 80 19 31 20 83 21 77 22 76 23
REMARK SMILES IDX 32 25 64 26 44 27 63 28 45 29 48 30 62 31 81 32 46 33 47 34
REMARK SMILES IDX 61 36 82 37 49 38 33 39 34 40 42 41 35 42 36 43 40 44 43 45
REMARK SMILES IDX 37 46 38 47 41 48 39 49 65 50 66 51 74 52 67 53 68 54 72 55
REMARK SMILES IDX 75 56 69 57 70 58 73 59 71 60 50 61 51 62 59 63 52 64 53 65
REMARK SMILES IDX 57 66 60 67 54 68 55 69 58 70 56 71 6 72 7 73 8 74 9 76
REMARK SMILES IDX 10 77 11 78 15 79 12 80 14 81 13 82 16 83 17 84 18 85 19 86
REMARK SMILES IDX 20 87 23 88 21 89 22 90
REMARK H PARENT 3 6 80 24 48 35 7 75 22 91
REMARK Flexibility Score: inf
ROOT
ATOM      1  C   UNL A   1      32.947  28.882  26.800  1.00  0.00     0.042 C 
ENDROOT
BRANCH   1   2
ATOM      2  C   UNL A   1      34.429  28.926  27.184  1.00  0.00     0.118 C 
BRANCH   2   3
ATOM      3  N   UNL A   1      34.922  30.232  27.589  1.00  0.00    -0.352 N 
ATOM      4  O   UNL A   1      36.286  31.908  28.139  1.00  0.00    -0.269 OA
ATOM      5  C   UNL A   1      36.169  30.703  27.912  1.00  0.00     0.251 C 
ATOM      6  H   UNL A   1      34.218  30.918  27.642  1.00  0.00     0.163 HD
BRANCH   5   7
ATOM      7  C   UNL A   1      37.371  29.837  28.049  1.00  0.00     0.039 A 
ATOM      8  C   UNL A   1      38.395  29.763  27.101  1.00  0.00     0.014 A 
ATOM      9  C   UNL A   1      37.497  29.104  29.242  1.00  0.00     0.014 A 
ATOM     10  C   UNL A   1      39.503  28.945  27.318  1.00  0.00     0.010 A 
ATOM     11  C   UNL A   1      38.619  28.307  29.481  1.00  0.00     0.010 A 
ATOM     12  C   UNL A   1      39.634  28.240  28.520  1.00  0.00    -0.014 A 
BRANCH  12  13
ATOM     13  C   UNL A   1      40.946  27.614  28.825  1.00  0.00     0.031 A 
ATOM     14  C   UNL A   1      41.045  26.163  28.347  1.00  0.00     0.074 A 
ATOM     15  C   UNL A   1      41.871  28.356  29.495  1.00  0.00     0.049 A 
ATOM     16  N   UNL A   1      41.818  25.202  28.757  1.00  0.00    -0.248 NA
ATOM     17  C   UNL A   1      40.107  25.699  27.291  1.00  0.00     0.031 C 
ATOM     18  C   UNL A   1      41.671  29.762  29.868  1.00  0.00     0.029 A 
ATOM     19  N   UNL A   1      43.140  28.105  29.992  1.00  0.00    -0.354 N 
ATOM     20  C   UNL A   1      41.597  24.102  27.903  1.00  0.00     0.074 A 
ATOM     21  C   UNL A   1      40.456  24.426  27.102  1.00  0.00     0.031 C 
ATOM     22  C   UNL A   1      42.732  30.225  30.557  1.00  0.00     0.029 A 
ATOM     23  C   UNL A   1      43.727  29.178  30.708  1.00  0.00     0.049 A 
ATOM     24  H   UNL A   1      43.601  27.245  29.858  1.00  0.00     0.167 HD
ATOM     25  C   UNL A   1      42.448  23.042  27.801  1.00  0.00     0.037 A 
ATOM     26  C   UNL A   1      44.908  29.228  31.400  1.00  0.00     0.037 A 
ATOM     27  C   UNL A   1      43.526  23.153  28.722  1.00  0.00     0.049 A 
ATOM     28  C   UNL A   1      45.612  27.963  31.113  1.00  0.00     0.074 A 
ATOM     29  C   UNL A   1      43.653  22.954  30.071  1.00  0.00     0.029 A 
ATOM     30  N   UNL A   1      44.681  23.727  28.256  1.00  0.00    -0.354 N 
ATOM     31  N   UNL A   1      46.202  27.689  29.987  1.00  0.00    -0.248 NA
ATOM     32  C   UNL A   1      45.653  26.915  32.140  1.00  0.00     0.031 C 
ATOM     33  C   UNL A   1      44.779  23.722  30.448  1.00  0.00     0.029 A 
ATOM     34  C   UNL A   1      45.292  24.354  29.312  1.00  0.00     0.049 A 
ATOM     35  H   UNL A   1      45.012  23.694  27.330  1.00  0.00     0.167 HD
ATOM     36  C   UNL A   1      46.401  26.329  30.076  1.00  0.00     0.074 A 
ATOM     37  C   UNL A   1      46.340  25.991  31.476  1.00  0.00     0.031 C 
ATOM     38  C   UNL A   1      46.065  25.543  29.024  1.00  0.00     0.037 A 
BRANCH  25  39
ATOM     39  C   UNL A   1      42.558  21.967  26.750  1.00  0.00     0.064 A 
ATOM     40  C   UNL A   1      41.983  20.700  27.025  1.00  0.00     0.173 A 
ATOM     41  C   UNL A   1      43.472  22.010  25.689  1.00  0.00     0.173 A 
ATOM     42  F   UNL A   1      41.072  20.556  28.001  1.00  0.00    -0.203 F 
ATOM     43  C   UNL A   1      42.391  19.542  26.365  1.00  0.00     0.198 A 
ATOM     44  C   UNL A   1      43.839  20.854  24.992  1.00  0.00     0.198 A 
ATOM     45  F   UNL A   1      44.109  23.145  25.368  1.00  0.00    -0.203 F 
ATOM     46  F   UNL A   1      41.919  18.350  26.756  1.00  0.00    -0.200 F 
ATOM     47  C   UNL A   1      43.331  19.619  25.357  1.00  0.00     0.200 A 
ATOM     48  F   UNL A   1      44.750  20.932  24.013  1.00  0.00    -0.200 F 
ATOM     49  F   UNL A   1      43.775  18.503  24.763  1.00  0.00    -0.200 F 
ENDBRANCH  25  39
BRANCH  26  50
ATOM     50  C   UNL A   1      45.614  30.185  32.349  1.00  0.00     0.064 A 
ATOM     51  C   UNL A   1      46.845  30.815  32.124  1.00  0.00     0.173 A 
ATOM     52  C   UNL A   1      44.988  30.581  33.568  1.00  0.00     0.173 A 
ATOM     53  F   UNL A   1      47.615  30.497  31.084  1.00  0.00    -0.203 F 
ATOM     54  C   UNL A   1      47.354  31.812  32.977  1.00  0.00     0.198 A 
ATOM     55  C   UNL A   1      45.472  31.599  34.396  1.00  0.00     0.198 A 
ATOM     56  F   UNL A   1      43.865  29.999  34.007  1.00  0.00    -0.203 F 
ATOM     57  F   UNL A   1      48.533  32.384  32.694  1.00  0.00    -0.200 F 
ATOM     58  C   UNL A   1      46.653  32.227  34.092  1.00  0.00     0.200 A 
ATOM     59  F   UNL A   1      44.765  31.969  35.474  1.00  0.00    -0.200 F 
ATOM     60  F   UNL A   1      47.113  33.216  34.868  1.00  0.00    -0.200 F 
ENDBRANCH  26  50
BRANCH  38  61
ATOM     61  C   UNL A   1      46.094  26.282  27.703  1.00  0.00     0.064 A 
ATOM     62  C   UNL A   1      44.899  26.696  27.099  1.00  0.00     0.173 A 
ATOM     63  C   UNL A   1      47.267  26.456  26.950  1.00  0.00     0.173 A 
ATOM     64  F   UNL A   1      43.736  26.559  27.752  1.00  0.00    -0.203 F 
ATOM     65  C   UNL A   1      44.884  27.246  25.814  1.00  0.00     0.198 A 
ATOM     66  C   UNL A   1      47.259  27.018  25.675  1.00  0.00     0.198 A 
ATOM     67  F   UNL A   1      48.445  26.075  27.440  1.00  0.00    -0.203 F 
ATOM     68  F   UNL A   1      43.723  27.621  25.261  1.00  0.00    -0.200 F 
ATOM     69  C   UNL A   1      46.065  27.407  25.103  1.00  0.00     0.200 A 
ATOM     70  F   UNL A   1      48.412  27.180  25.008  1.00  0.00    -0.200 F 
ATOM     71  F   UNL A   1      46.051  27.941  23.874  1.00  0.00    -0.200 F 
ENDBRANCH  38  61
ENDBRANCH  12  13
ENDBRANCH   5   7
ENDBRANCH   2   3
ENDBRANCH   1   2
BRANCH   1  72
ATOM     72  C   UNL A   1      32.567  29.931  25.758  1.00  0.00     0.117 C 
BRANCH  72  73
ATOM     73  N   UNL A   1      33.256  29.701  24.505  1.00  0.00    -0.355 N 
ATOM     74  C   UNL A   1      33.382  28.583  23.739  1.00  0.00     0.238 C 
ATOM     75  H   UNL A   1      33.716  30.494  24.143  1.00  0.00     0.163 HD
ATOM     76  O   UNL A   1      34.079  28.717  22.729  1.00  0.00    -0.273 OA
BRANCH  74  77
ATOM     77  C   UNL A   1      32.689  27.251  24.096  1.00  0.00     0.162 C 
ATOM     78  C   UNL A   1      31.215  27.266  23.629  1.00  0.00     0.030 C 
ATOM     79  N   UNL A   1      33.426  26.071  23.523  1.00  0.00    -0.185 NA
ATOM     80  C   UNL A   1      31.059  27.178  22.114  1.00  0.00     0.004 C 
ATOM     81  C   UNL A   1      33.214  25.830  22.085  1.00  0.00     0.103 C 
ATOM     82  C   UNL A   1      31.785  25.959  21.585  1.00  0.00     0.017 C 
BRANCH  79  83
ATOM     83  S   UNL A   1      33.741  24.823  24.618  1.00  0.00     0.245 S 
ATOM     84  O   UNL A   1      34.044  25.444  25.888  1.00  0.00    -0.207 OA
ATOM     85  O   UNL A   1      32.665  23.857  24.518  1.00  0.00    -0.207 OA
BRANCH  83  86
ATOM     86  C   UNL A   1      35.175  23.884  24.346  1.00  0.00     0.100 A 
ATOM     87  C   UNL A   1      35.568  23.127  23.214  1.00  0.00     0.041 A 
ATOM     88  C   UNL A   1      36.241  23.853  25.232  1.00  0.00     0.104 A 
ATOM     89  C   UNL A   1      36.844  22.654  23.450  1.00  0.00     0.083 A 
ATOM     90  N   UNL A   1      37.254  23.127  24.667  1.00  0.00    -0.366 N 
ATOM     91  H   UNL A   1      38.139  22.971  25.071  1.00  0.00     0.165 HD
ENDBRANCH  83  86
ENDBRANCH  79  83
ENDBRANCH  74  77
ENDBRANCH  72  73
ENDBRANCH   1  72
TORSDOF 12
ENDMDL
MODEL 2
REMARK VINA RESULT:     -12.6      1.377      2.626
REMARK SMILES O=C(NCCCNC(=O)[C@H]1CCCCN1S(=O)(=O)c1cc[nH]c1)c1ccc(-c2c3nc(c(-c4c(F)c(F)c(F)c(F)c4F)c4ccc([nH]4)c(-c4c(F)c(F)c(F)c(F)c4F)c4nc(c(-c5c(F)c(F)c(F)c(F)c5F)c5ccc2[nH]5)C=C4)C=C3)cc1
REMARK SMILES IDX 5 1 4 2 3 3 1 4 2 5 24 7 25 8 86 9 26 10 85 11 27 12 28 13
REMARK SMILES IDX 29 14 79 15 30 16 84 17 78 18 80 19 31 20 83 21 77 22 76 23
REMARK SMILES IDX 32 25 64 26 44 27 63 28 45 29 48 30 62 31 81 32 46 33 47 34
REMARK SMILES IDX 61 36 82 37 49 38 33 39 34 40 42 41 35 42 36 43 40 44 43 45
REMARK SMILES IDX 37 46 38 47 41 48 39 49 65 50 66 51 74 52 67 53 68 54 72 55
REMARK SMILES IDX 75 56 69 57 70 58 73 59 71 60 50 61 51 62 59 63 52 64 53 65
REMARK SMILES IDX 57 66 60 67 54 68 55 69 58 70 56 71 6 72 7 73 8 74 9 76
REMARK SMILES IDX 10 77 11 78 15 79 12 80 14 81 13 82 16 83 17 84 18 85 19 86
REMARK SMILES IDX 20 87 23 88 21 89 22 90
REMARK H PARENT 3 6 80 24 48 35 7 75 22 91
REMARK Flexibility Score: inf
ROOT
ATOM      1  C   UNL A   1      33.121  28.240  27.081  1.00  0.00     0.042 C 
ENDROOT
BRANCH   1   2
ATOM      2  C   UNL A   1      34.419  28.864  26.558  1.00  0.00     0.118 C 
BRANCH   2   3
ATOM      3  N   UNL A   1      34.793  30.123  27.182  1.00  0.00    -0.352 N 
ATOM      4  O   UNL A   1      35.994  31.764  28.095  1.00  0.00    -0.269 OA
ATOM      5  C   UNL A   1      35.969  30.596  27.704  1.00  0.00     0.251 C 
ATOM      6  H   UNL A   1      34.050  30.767  27.242  1.00  0.00     0.163 HD
BRANCH   5   7
ATOM      7  C   UNL A   1      37.195  29.769  27.865  1.00  0.00     0.039 A 
ATOM      8  C   UNL A   1      38.271  29.780  26.973  1.00  0.00     0.014 A 
ATOM      9  C   UNL A   1      37.285  28.983  29.027  1.00  0.00     0.014 A 
ATOM     10  C   UNL A   1      39.397  28.993  27.212  1.00  0.00     0.010 A 
ATOM     11  C   UNL A   1      38.423  28.217  29.290  1.00  0.00     0.010 A 
ATOM     12  C   UNL A   1      39.491  28.234  28.385  1.00  0.00    -0.014 A 
BRANCH  12  13
ATOM     13  C   UNL A   1      40.808  27.643  28.732  1.00  0.00     0.031 A 
ATOM     14  C   UNL A   1      40.957  26.193  28.263  1.00  0.00     0.074 A 
ATOM     15  C   UNL A   1      41.693  28.409  29.427  1.00  0.00     0.049 A 
ATOM     16  N   UNL A   1      41.741  25.252  28.700  1.00  0.00    -0.248 NA
ATOM     17  C   UNL A   1      40.063  25.702  27.181  1.00  0.00     0.031 C 
ATOM     18  C   UNL A   1      41.447  29.811  29.787  1.00  0.00     0.029 A 
ATOM     19  N   UNL A   1      42.953  28.191  29.963  1.00  0.00    -0.354 N 
ATOM     20  C   UNL A   1      41.573  24.145  27.844  1.00  0.00     0.074 A 
ATOM     21  C   UNL A   1      40.449  24.437  27.008  1.00  0.00     0.031 C 
ATOM     22  C   UNL A   1      42.475  30.303  30.506  1.00  0.00     0.029 A 
ATOM     23  C   UNL A   1      43.491  29.282  30.691  1.00  0.00     0.049 A 
ATOM     24  H   UNL A   1      43.438  27.343  29.846  1.00  0.00     0.167 HD
ATOM     25  C   UNL A   1      42.453  23.106  27.773  1.00  0.00     0.037 A 
ATOM     26  C   UNL A   1      44.649  29.364  31.418  1.00  0.00     0.037 A 
ATOM     27  C   UNL A   1      43.499  23.246  28.726  1.00  0.00     0.049 A 
ATOM     28  C   UNL A   1      45.392  28.115  31.158  1.00  0.00     0.074 A 
ATOM     29  C   UNL A   1      43.590  23.056  30.078  1.00  0.00     0.029 A 
ATOM     30  N   UNL A   1      44.653  23.847  28.292  1.00  0.00    -0.354 N 
ATOM     31  N   UNL A   1      46.022  27.852  30.052  1.00  0.00    -0.248 NA
ATOM     32  C   UNL A   1      45.428  27.072  32.191  1.00  0.00     0.031 C 
ATOM     33  C   UNL A   1      44.685  23.852  30.486  1.00  0.00     0.029 A 
ATOM     34  C   UNL A   1      45.216  24.493  29.363  1.00  0.00     0.049 A 
ATOM     35  H   UNL A   1      45.013  23.819  27.376  1.00  0.00     0.167 HD
ATOM     36  C   UNL A   1      46.253  26.497  30.152  1.00  0.00     0.074 A 
ATOM     37  C   UNL A   1      46.157  26.163  31.551  1.00  0.00     0.031 C 
ATOM     38  C   UNL A   1      45.968  25.700  29.093  1.00  0.00     0.037 A 
BRANCH  25  39
ATOM     39  C   UNL A   1      42.621  22.029  26.731  1.00  0.00     0.064 A 
ATOM     40  C   UNL A   1      42.100  20.741  27.007  1.00  0.00     0.173 A 
ATOM     41  C   UNL A   1      43.543  22.107  25.678  1.00  0.00     0.173 A 
ATOM     42  F   UNL A   1      41.186  20.562  27.975  1.00  0.00    -0.203 F 
ATOM     43  C   UNL A   1      42.566  19.598  26.359  1.00  0.00     0.198 A 
ATOM     44  C   UNL A   1      43.968  20.964  24.993  1.00  0.00     0.198 A 
ATOM     45  F   UNL A   1      44.132  23.266  25.356  1.00  0.00    -0.203 F 
ATOM     46  F   UNL A   1      42.143  18.388  26.754  1.00  0.00    -0.200 F 
ATOM     47  C   UNL A   1      43.511  19.710  25.361  1.00  0.00     0.200 A 
ATOM     48  F   UNL A   1      44.885  21.076  24.022  1.00  0.00    -0.200 F 
ATOM     49  F   UNL A   1      44.010  18.610  24.779  1.00  0.00    -0.200 F 
ENDBRANCH  25  39
BRANCH  26  50
ATOM     50  C   UNL A   1      45.301  30.341  32.384  1.00  0.00     0.064 A 
ATOM     51  C   UNL A   1      44.842  30.665  33.668  1.00  0.00     0.173 A 
ATOM     52  C   UNL A   1      46.537  30.969  32.049  1.00  0.00     0.173 A 
ATOM     53  F   UNL A   1      43.659  30.245  34.115  1.00  0.00    -0.203 F 
ATOM     54  C   UNL A   1      45.589  31.453  34.564  1.00  0.00     0.198 A 
ATOM     55  C   UNL A   1      47.298  31.720  32.949  1.00  0.00     0.198 A 
ATOM     56  F   UNL A   1      47.069  30.872  30.823  1.00  0.00    -0.203 F 
ATOM     57  F   UNL A   1      45.095  31.711  35.783  1.00  0.00    -0.200 F 
ATOM     58  C   UNL A   1      46.828  31.951  34.217  1.00  0.00     0.200 A 
ATOM     59  F   UNL A   1      48.495  32.193  32.573  1.00  0.00    -0.200 F 
ATOM     60  F   UNL A   1      47.560  32.652  35.093  1.00  0.00    -0.200 F 
ENDBRANCH  26  50
BRANCH  38  61
ATOM     61  C   UNL A   1      46.018  26.435  27.771  1.00  0.00     0.064 A 
ATOM     62  C   UNL A   1      44.832  26.811  27.126  1.00  0.00     0.173 A 
ATOM     63  C   UNL A   1      47.210  26.641  27.056  1.00  0.00     0.173 A 
ATOM     64  F   UNL A   1      43.653  26.642  27.742  1.00  0.00    -0.203 F 
ATOM     65  C   UNL A   1      44.844  27.356  25.839  1.00  0.00     0.198 A 
ATOM     66  C   UNL A   1      47.228  27.198  25.779  1.00  0.00     0.198 A 
ATOM     67  F   UNL A   1      48.382  26.297  27.587  1.00  0.00    -0.203 F 
ATOM     68  F   UNL A   1      43.691  27.694  25.247  1.00  0.00    -0.200 F 
ATOM     69  C   UNL A   1      46.042  27.549  25.166  1.00  0.00     0.200 A 
ATOM     70  F   UNL A   1      48.396  27.391  25.149  1.00  0.00    -0.200 F 
ATOM     71  F   UNL A   1      46.053  28.078  23.935  1.00  0.00    -0.200 F 
ENDBRANCH  38  61
ENDBRANCH  12  13
ENDBRANCH   5   7
ENDBRANCH   2   3
ENDBRANCH   1   2
BRANCH   1  72
ATOM     72  C   UNL A   1      32.467  27.293  26.078  1.00  0.00     0.117 C 
BRANCH  72  73
ATOM     73  N   UNL A   1      31.821  26.183  26.749  1.00  0.00    -0.355 N 
ATOM     74  C   UNL A   1      31.987  24.838  26.625  1.00  0.00     0.238 C 
ATOM     75  H   UNL A   1      31.141  26.448  27.410  1.00  0.00     0.163 HD
ATOM     76  O   UNL A   1      31.240  24.152  27.330  1.00  0.00    -0.273 OA
BRANCH  74  77
ATOM     77  C   UNL A   1      33.043  24.214  25.688  1.00  0.00     0.162 C 
ATOM     78  C   UNL A   1      34.287  23.772  26.492  1.00  0.00     0.030 C 
ATOM     79  N   UNL A   1      32.475  23.068  24.896  1.00  0.00    -0.185 NA
ATOM     80  C   UNL A   1      34.038  22.546  27.365  1.00  0.00     0.004 C 
ATOM     81  C   UNL A   1      32.335  21.799  25.631  1.00  0.00     0.103 C 
ATOM     82  C   UNL A   1      33.502  21.407  26.523  1.00  0.00     0.017 C 
BRANCH  79  83
ATOM     83  S   UNL A   1      32.773  23.129  23.234  1.00  0.00     0.245 S 
ATOM     84  O   UNL A   1      34.208  23.159  23.064  1.00  0.00    -0.207 OA
ATOM     85  O   UNL A   1      31.986  22.089  22.600  1.00  0.00    -0.207 OA
BRANCH  83  86
ATOM     86  C   UNL A   1      32.299  24.577  22.404  1.00  0.00     0.100 A 
ATOM     87  C   UNL A   1      31.397  25.599  22.795  1.00  0.00     0.041 A 
ATOM     88  C   UNL A   1      32.879  24.995  21.216  1.00  0.00     0.104 A 
ATOM     89  C   UNL A   1      31.448  26.591  21.835  1.00  0.00     0.083 A 
ATOM     90  N   UNL A   1      32.375  26.226  20.895  1.00  0.00    -0.366 N 
ATOM     91  H   UNL A   1      32.637  26.765  20.113  1.00  0.00     0.165 HD
ENDBRANCH  83  86
ENDBRANCH  79  83
ENDBRANCH  74  77
ENDBRANCH  72  73
ENDBRANCH   1  72
TORSDOF 12
ENDMDL
MODEL 3
REMARK VINA RESULT:     -12.5      4.633      9.531
REMARK SMILES O=C(NCCCNC(=O)[C@H]1CCCCN1S(=O)(=O)c1cc[nH]c1)c1ccc(-c2c3nc(c(-c4c(F)c(F)c(F)c(F)c4F)c4ccc([nH]4)c(-c4c(F)c(F)c(F)c(F)c4F)c4nc(c(-c5c(F)c(F)c(F)c(F)c5F)c5ccc2[nH]5)C=C4)C=C3)cc1
REMARK SMILES IDX 5 1 4 2 3 3 1 4 2 5 24 7 25 8 86 9 26 10 85 11 27 12 28 13
REMARK SMILES IDX 29 14 79 15 30 16 84 17 78 18 80 19 31 20 83 21 77 22 76 23
REMARK SMILES IDX 32 25 64 26 44 27 63 28 45 29 48 30 62 31 81 32 46 33 47 34
REMARK SMILES IDX 61 36 82 37 49 38 33 39 34 40 42 41 35 42 36 43 40 44 43 45
REMARK SMILES IDX 37 46 38 47 41 48 39 49 65 50 66 51 74 52 67 53 68 54 72 55
REMARK SMILES IDX 75 56 69 57 70 58 73 59 71 60 50 61 51 62 59 63 52 64 53 65
REMARK SMILES IDX 57 66 60 67 54 68 55 69 58 70 56 71 6 72 7 73 8 74 9 76
REMARK SMILES IDX 10 77 11 78 15 79 12 80 14 81 13 82 16 83 17 84 18 85 19 86
REMARK SMILES IDX 20 87 23 88 21 89 22 90
REMARK H PARENT 3 6 80 24 48 35 7 75 22 91
REMARK Flexibility Score: inf
ROOT
ATOM      1  C   UNL A   1      36.260  22.768  25.663  1.00  0.00     0.042 C 
ENDROOT
BRANCH   1   2
ATOM      2  C   UNL A   1      37.235  23.854  26.126  1.00  0.00     0.118 C 
BRANCH   2   3
ATOM      3  N   UNL A   1      38.536  23.370  26.560  1.00  0.00    -0.352 N 
ATOM      4  O   UNL A   1      40.488  23.194  27.622  1.00  0.00    -0.269 OA
ATOM      5  C   UNL A   1      39.509  23.897  27.370  1.00  0.00     0.251 C 
ATOM      6  H   UNL A   1      38.765  22.483  26.199  1.00  0.00     0.163 HD
BRANCH   5   7
ATOM      7  C   UNL A   1      39.469  25.279  27.919  1.00  0.00     0.039 A 
ATOM      8  C   UNL A   1      39.035  25.598  29.208  1.00  0.00     0.014 A 
ATOM      9  C   UNL A   1      39.964  26.307  27.097  1.00  0.00     0.014 A 
ATOM     10  C   UNL A   1      39.054  26.918  29.656  1.00  0.00     0.010 A 
ATOM     11  C   UNL A   1      40.017  27.627  27.549  1.00  0.00     0.010 A 
ATOM     12  C   UNL A   1      39.574  27.932  28.841  1.00  0.00    -0.014 A 
BRANCH  12  13
ATOM     13  C   UNL A   1      39.836  29.258  29.455  1.00  0.00     0.031 A 
ATOM     14  C   UNL A   1      38.652  30.221  29.333  1.00  0.00     0.074 A 
ATOM     15  C   UNL A   1      41.059  29.478  30.012  1.00  0.00     0.049 A 
ATOM     16  N   UNL A   1      38.627  31.519  29.371  1.00  0.00    -0.248 NA
ATOM     17  C   UNL A   1      37.301  29.654  29.076  1.00  0.00     0.031 C 
ATOM     18  C   UNL A   1      42.107  28.453  30.103  1.00  0.00     0.029 A 
ATOM     19  N   UNL A   1      41.672  30.570  30.605  1.00  0.00    -0.354 N 
ATOM     20  C   UNL A   1      37.272  31.907  29.336  1.00  0.00     0.074 A 
ATOM     21  C   UNL A   1      36.515  30.730  29.036  1.00  0.00     0.031 C 
ATOM     22  C   UNL A   1      43.221  28.964  30.661  1.00  0.00     0.029 A 
ATOM     23  C   UNL A   1      43.022  30.365  30.988  1.00  0.00     0.049 A 
ATOM     24  H   UNL A   1      41.205  31.425  30.751  1.00  0.00     0.167 HD
ATOM     25  C   UNL A   1      36.831  33.147  29.693  1.00  0.00     0.037 A 
ATOM     26  C   UNL A   1      43.931  31.252  31.502  1.00  0.00     0.037 A 
ATOM     27  C   UNL A   1      37.916  34.008  30.017  1.00  0.00     0.049 A 
ATOM     28  C   UNL A   1      43.186  32.493  31.787  1.00  0.00     0.074 A 
ATOM     29  C   UNL A   1      38.841  34.696  29.280  1.00  0.00     0.029 A 
ATOM     30  N   UNL A   1      38.264  34.091  31.341  1.00  0.00    -0.354 N 
ATOM     31  N   UNL A   1      42.367  32.647  32.785  1.00  0.00    -0.248 NA
ATOM     32  C   UNL A   1      43.343  33.647  30.892  1.00  0.00     0.031 C 
ATOM     33  C   UNL A   1      39.924  34.911  30.164  1.00  0.00     0.029 A 
ATOM     34  C   UNL A   1      39.610  34.347  31.403  1.00  0.00     0.049 A 
ATOM     35  H   UNL A   1      37.657  33.985  32.108  1.00  0.00     0.167 HD
ATOM     36  C   UNL A   1      41.690  33.797  32.445  1.00  0.00     0.074 A 
ATOM     37  C   UNL A   1      42.514  34.497  31.491  1.00  0.00     0.031 C 
ATOM     38  C   UNL A   1      40.337  33.817  32.536  1.00  0.00     0.037 A 
BRANCH  25  39
ATOM     39  C   UNL A   1      35.446  33.640  30.026  1.00  0.00     0.064 A 
ATOM     40  C   UNL A   1      34.764  34.426  29.064  1.00  0.00     0.173 A 
ATOM     41  C   UNL A   1      34.929  33.677  31.328  1.00  0.00     0.173 A 
ATOM     42  F   UNL A   1      35.159  34.436  27.780  1.00  0.00    -0.203 F 
ATOM     43  C   UNL A   1      33.720  35.282  29.411  1.00  0.00     0.198 A 
ATOM     44  C   UNL A   1      33.846  34.497  31.662  1.00  0.00     0.198 A 
ATOM     45  F   UNL A   1      35.519  33.008  32.328  1.00  0.00    -0.203 F 
ATOM     46  F   UNL A   1      33.201  36.108  28.491  1.00  0.00    -0.200 F 
ATOM     47  C   UNL A   1      33.271  35.327  30.715  1.00  0.00     0.200 A 
ATOM     48  F   UNL A   1      33.411  34.538  32.929  1.00  0.00    -0.200 F 
ATOM     49  F   UNL A   1      32.312  36.194  31.068  1.00  0.00    -0.200 F 
ENDBRANCH  25  39
BRANCH  26  50
ATOM     50  C   UNL A   1      45.422  31.282  31.802  1.00  0.00     0.064 A 
ATOM     51  C   UNL A   1      46.014  31.145  33.066  1.00  0.00     0.173 A 
ATOM     52  C   UNL A   1      46.369  31.384  30.741  1.00  0.00     0.173 A 
ATOM     53  F   UNL A   1      45.286  31.132  34.182  1.00  0.00    -0.203 F 
ATOM     54  C   UNL A   1      47.404  31.021  33.242  1.00  0.00     0.198 A 
ATOM     55  C   UNL A   1      47.747  31.222  30.909  1.00  0.00     0.198 A 
ATOM     56  F   UNL A   1      45.992  31.638  29.481  1.00  0.00    -0.203 F 
ATOM     57  F   UNL A   1      47.902  30.878  34.478  1.00  0.00    -0.200 F 
ATOM     58  C   UNL A   1      48.266  31.025  32.164  1.00  0.00     0.200 A 
ATOM     59  F   UNL A   1      48.553  31.239  29.837  1.00  0.00    -0.200 F 
ATOM     60  F   UNL A   1      49.583  30.849  32.332  1.00  0.00    -0.200 F 
ENDBRANCH  26  50
BRANCH  38  61
ATOM     61  C   UNL A   1      39.800  32.830  33.550  1.00  0.00     0.064 A 
ATOM     62  C   UNL A   1      39.229  31.623  33.127  1.00  0.00     0.173 A 
ATOM     63  C   UNL A   1      39.703  33.120  34.921  1.00  0.00     0.173 A 
ATOM     64  F   UNL A   1      39.278  31.276  31.832  1.00  0.00    -0.203 F 
ATOM     65  C   UNL A   1      38.593  30.762  34.026  1.00  0.00     0.198 A 
ATOM     66  C   UNL A   1      39.083  32.258  35.825  1.00  0.00     0.198 A 
ATOM     67  F   UNL A   1      40.204  34.254  35.408  1.00  0.00    -0.203 F 
ATOM     68  F   UNL A   1      38.047  29.621  33.586  1.00  0.00    -0.200 F 
ATOM     69  C   UNL A   1      38.520  31.081  35.375  1.00  0.00     0.200 A 
ATOM     70  F   UNL A   1      39.035  32.575  37.127  1.00  0.00    -0.200 F 
ATOM     71  F   UNL A   1      37.917  30.252  36.238  1.00  0.00    -0.200 F 
ENDBRANCH  38  61
ENDBRANCH  12  13
ENDBRANCH   5   7
ENDBRANCH   2   3
ENDBRANCH   1   2
BRANCH   1  72
ATOM     72  C   UNL A   1      34.907  22.839  26.366  1.00  0.00     0.117 C 
BRANCH  72  73
ATOM     73  N   UNL A   1      33.836  22.404  25.493  1.00  0.00    -0.355 N 
ATOM     74  C   UNL A   1      32.834  23.095  24.885  1.00  0.00     0.238 C 
ATOM     75  H   UNL A   1      33.832  21.437  25.307  1.00  0.00     0.163 HD
ATOM     76  O   UNL A   1      32.051  22.406  24.223  1.00  0.00    -0.273 OA
BRANCH  74  77
ATOM     77  C   UNL A   1      32.695  24.628  24.998  1.00  0.00     0.162 C 
ATOM     78  C   UNL A   1      33.898  25.331  24.329  1.00  0.00     0.030 C 
ATOM     79  N   UNL A   1      31.395  25.112  24.418  1.00  0.00    -0.185 NA
ATOM     80  C   UNL A   1      33.884  25.236  22.807  1.00  0.00     0.004 C 
ATOM     81  C   UNL A   1      31.347  25.187  22.947  1.00  0.00     0.103 C 
ATOM     82  C   UNL A   1      32.574  25.766  22.263  1.00  0.00     0.017 C 
BRANCH  79  83
ATOM     83  S   UNL A   1      30.511  26.156  25.411  1.00  0.00     0.245 S 
ATOM     84  O   UNL A   1      29.482  26.749  24.588  1.00  0.00    -0.207 OA
ATOM     85  O   UNL A   1      30.154  25.432  26.616  1.00  0.00    -0.207 OA
BRANCH  83  86
ATOM     86  C   UNL A   1      31.335  27.566  25.998  1.00  0.00     0.100 A 
ATOM     87  C   UNL A   1      31.572  28.813  25.366  1.00  0.00     0.041 A 
ATOM     88  C   UNL A   1      31.798  27.688  27.299  1.00  0.00     0.104 A 
ATOM     89  C   UNL A   1      32.177  29.641  26.291  1.00  0.00     0.083 A 
ATOM     90  N   UNL A   1      32.281  28.956  27.472  1.00  0.00    -0.366 N 
ATOM     91  H   UNL A   1      32.645  29.319  28.312  1.00  0.00     0.165 HD
ENDBRANCH  83  86
ENDBRANCH  79  83
ENDBRANCH  74  77
ENDBRANCH  72  73
ENDBRANCH   1  72
TORSDOF 12
ENDMDL
