MODEL 1
REMARK VINA RESULT:     -14.6      0.000      0.000
REMARK SMILES Cc1cc(F)cc(-n2c(C)nc3cc(C(=O)NCCCNC(=O)c4ccc(-c5c6nc(c(-c7c(F)c(F)c(F)c(F)c7F)c7ccc([nH]7)c(-c7c(F)c(F)c(F)c(F)c7F)c7nc(c(-c8c(F)c(F)c(F)c(F)c8F)c8ccc5[nH]8)C=C7)C=C6)cc4)ccc32)c1
REMARK SMILES IDX 19 1 18 2 17 3 15 4 16 5 14 7 8 8 9 9 89 10 10 11 11 12
REMARK SMILES IDX 12 13 88 14 13 15 87 16 7 17 1 18 2 19 3 20 90 21 4 22 5 23
REMARK SMILES IDX 6 24 20 25 21 26 22 27 23 29 24 30 25 31 86 32 26 33 85 34
REMARK SMILES IDX 27 35 28 36 29 37 79 38 30 39 84 40 78 41 80 42 31 43 83 44
REMARK SMILES IDX 77 45 76 46 32 48 64 49 44 50 63 51 45 52 48 53 62 54 81 55
REMARK SMILES IDX 46 56 47 57 61 59 82 60 49 61 33 62 34 63 42 64 35 65 36 66
REMARK SMILES IDX 40 67 43 68 37 69 38 70 41 71 39 72 65 73 66 74 74 75 67 76
REMARK SMILES IDX 68 77 72 78 75 79 69 80 70 81 73 82 71 83 50 84 51 85 59 86
REMARK SMILES IDX 52 87 53 88 57 89 60 90 54 91 55 92 58 93 56 94
REMARK H PARENT 17 6 21 28 80 47 48 58
REMARK Flexibility Score: inf
ROOT
ATOM      1  C   UNL A   1      32.193  29.888  26.474  1.00  0.00     0.042 C 
ENDROOT
BRANCH   1   2
ATOM      2  C   UNL A   1      32.365  29.719  24.961  1.00  0.00     0.118 C 
BRANCH   2   3
ATOM      3  N   UNL A   1      31.196  29.102  24.371  1.00  0.00    -0.352 N 
ATOM      4  C   UNL A   1      30.825  27.830  24.028  1.00  0.00     0.251 C 
ATOM      5  O   UNL A   1      29.748  27.756  23.427  1.00  0.00    -0.269 OA
ATOM      6  H   UNL A   1      30.494  29.761  24.164  1.00  0.00     0.163 HD
BRANCH   4   7
ATOM      7  C   UNL A   1      31.560  26.554  24.328  1.00  0.00     0.042 A 
ATOM      8  N   UNL A   1      33.319  23.128  25.953  1.00  0.00    -0.296 N 
ATOM      9  C   UNL A   1      32.596  23.125  27.145  1.00  0.00     0.111 A 
ATOM     10  C   UNL A   1      32.881  24.225  25.218  1.00  0.00     0.073 A 
ATOM     11  C   UNL A   1      32.800  22.186  28.282  1.00  0.00     0.088 C 
ATOM     12  N   UNL A   1      31.767  24.148  27.199  1.00  0.00    -0.233 NA
ATOM     13  C   UNL A   1      31.935  24.835  26.032  1.00  0.00     0.090 A 
ATOM     14  C   UNL A   1      33.148  24.712  23.928  1.00  0.00     0.030 A 
ATOM     15  C   UNL A   1      31.292  26.004  25.599  1.00  0.00     0.044 A 
ATOM     16  C   UNL A   1      32.460  25.874  23.500  1.00  0.00     0.016 A 
BRANCH   8  17
ATOM     17  C   UNL A   1      34.331  22.210  25.576  1.00  0.00     0.051 A 
ATOM     18  C   UNL A   1      38.137  21.953  25.693  1.00  0.00     0.044 C 
ATOM     19  C   UNL A   1      36.691  21.631  25.448  1.00  0.00    -0.046 A 
ATOM     20  C   UNL A   1      36.336  20.373  24.945  1.00  0.00     0.042 A 
ATOM     21  C   UNL A   1      35.681  22.562  25.738  1.00  0.00     0.030 A 
ATOM     22  C   UNL A   1      34.995  20.046  24.769  1.00  0.00     0.125 A 
ATOM     23  F   UNL A   1      34.670  18.840  24.284  1.00  0.00    -0.207 F 
ATOM     24  C   UNL A   1      33.985  20.945  25.094  1.00  0.00     0.066 A 
ENDBRANCH   8  17
ENDBRANCH   4   7
ENDBRANCH   2   3
ENDBRANCH   1   2
BRANCH   1  25
ATOM     25  C   UNL A   1      33.422  29.600  27.337  1.00  0.00     0.118 C 
BRANCH  25  26
ATOM     26  N   UNL A   1      34.023  30.733  28.023  1.00  0.00    -0.352 N 
ATOM     27  C   UNL A   1      35.273  31.068  28.466  1.00  0.00     0.251 C 
ATOM     28  H   UNL A   1      33.363  31.438  28.217  1.00  0.00     0.163 HD
ATOM     29  O   UNL A   1      35.414  32.213  28.909  1.00  0.00    -0.269 OA
BRANCH  27  30
ATOM     30  C   UNL A   1      36.432  30.143  28.545  1.00  0.00     0.039 A 
ATOM     31  C   UNL A   1      36.730  29.287  29.606  1.00  0.00     0.014 A 
ATOM     32  C   UNL A   1      37.269  30.131  27.419  1.00  0.00     0.014 A 
ATOM     33  C   UNL A   1      37.920  28.535  29.601  1.00  0.00     0.010 A 
ATOM     34  C   UNL A   1      38.437  29.377  27.403  1.00  0.00     0.010 A 
ATOM     35  C   UNL A   1      38.804  28.618  28.520  1.00  0.00    -0.014 A 
BRANCH  35  36
ATOM     36  C   UNL A   1      40.122  27.973  28.495  1.00  0.00     0.031 A 
ATOM     37  C   UNL A   1      40.313  26.524  28.218  1.00  0.00     0.074 A 
ATOM     38  C   UNL A   1      41.231  28.692  28.795  1.00  0.00     0.049 A 
ATOM     39  N   UNL A   1      41.243  25.800  28.762  1.00  0.00    -0.248 NA
ATOM     40  C   UNL A   1      39.463  25.772  27.304  1.00  0.00     0.031 C 
ATOM     41  C   UNL A   1      42.618  28.292  28.583  1.00  0.00     0.029 A 
ATOM     42  N   UNL A   1      41.326  29.889  29.524  1.00  0.00    -0.354 N 
ATOM     43  C   UNL A   1      41.308  24.614  28.066  1.00  0.00     0.074 A 
ATOM     44  C   UNL A   1      40.116  24.602  27.243  1.00  0.00     0.031 C 
ATOM     45  C   UNL A   1      43.415  29.029  29.368  1.00  0.00     0.029 A 
ATOM     46  C   UNL A   1      42.565  29.844  30.212  1.00  0.00     0.049 A 
ATOM     47  H   UNL A   1      40.662  30.616  29.553  1.00  0.00     0.167 HD
ATOM     48  C   UNL A   1      42.438  23.845  28.113  1.00  0.00     0.037 A 
ATOM     49  C   UNL A   1      42.682  29.962  31.568  1.00  0.00     0.037 A 
ATOM     50  C   UNL A   1      43.487  24.455  28.917  1.00  0.00     0.049 A 
ATOM     51  C   UNL A   1      43.423  28.853  32.240  1.00  0.00     0.074 A 
ATOM     52  C   UNL A   1      44.568  25.243  28.554  1.00  0.00     0.029 A 
ATOM     53  N   UNL A   1      43.395  24.519  30.302  1.00  0.00    -0.354 N 
ATOM     54  N   UNL A   1      43.583  27.686  31.695  1.00  0.00    -0.248 NA
ATOM     55  C   UNL A   1      43.972  28.933  33.589  1.00  0.00     0.031 C 
ATOM     56  C   UNL A   1      45.143  25.774  29.724  1.00  0.00     0.029 A 
ATOM     57  C   UNL A   1      44.404  25.320  30.802  1.00  0.00     0.049 A 
ATOM     58  H   UNL A   1      42.713  24.062  30.845  1.00  0.00     0.167 HD
ATOM     59  C   UNL A   1      44.244  26.870  32.569  1.00  0.00     0.074 A 
ATOM     60  C   UNL A   1      44.471  27.693  33.742  1.00  0.00     0.031 C 
ATOM     61  C   UNL A   1      44.548  25.588  32.222  1.00  0.00     0.037 A 
BRANCH  48  62
ATOM     62  C   UNL A   1      42.727  22.715  27.143  1.00  0.00     0.064 A 
ATOM     63  C   UNL A   1      42.076  21.463  27.252  1.00  0.00     0.173 A 
ATOM     64  C   UNL A   1      43.668  22.800  26.103  1.00  0.00     0.173 A 
ATOM     65  F   UNL A   1      41.064  21.263  28.105  1.00  0.00    -0.203 F 
ATOM     66  C   UNL A   1      42.440  20.354  26.488  1.00  0.00     0.198 A 
ATOM     67  C   UNL A   1      44.059  21.680  25.359  1.00  0.00     0.198 A 
ATOM     68  F   UNL A   1      44.209  23.978  25.762  1.00  0.00    -0.203 F 
ATOM     69  F   UNL A   1      41.804  19.187  26.664  1.00  0.00    -0.200 F 
ATOM     70  C   UNL A   1      43.459  20.452  25.567  1.00  0.00     0.200 A 
ATOM     71  F   UNL A   1      45.029  21.796  24.442  1.00  0.00    -0.200 F 
ATOM     72  F   UNL A   1      43.847  19.376  24.869  1.00  0.00    -0.200 F 
ENDBRANCH  48  62
BRANCH  49  73
ATOM     73  C   UNL A   1      41.544  30.669  32.195  1.00  0.00     0.064 A 
ATOM     74  C   UNL A   1      41.326  31.987  31.767  1.00  0.00     0.173 A 
ATOM     75  C   UNL A   1      40.448  29.895  32.602  1.00  0.00     0.173 A 
ATOM     76  F   UNL A   1      42.364  32.769  31.438  1.00  0.00    -0.203 F 
ATOM     77  C   UNL A   1      40.044  32.410  31.471  1.00  0.00     0.198 A 
ATOM     78  C   UNL A   1      39.168  30.320  32.292  1.00  0.00     0.198 A 
ATOM     79  F   UNL A   1      40.627  28.661  33.092  1.00  0.00    -0.203 F 
ATOM     80  F   UNL A   1      39.839  33.605  30.901  1.00  0.00    -0.200 F 
ATOM     81  C   UNL A   1      38.987  31.537  31.642  1.00  0.00     0.200 A 
ATOM     82  F   UNL A   1      38.131  29.506  32.524  1.00  0.00    -0.200 F 
ATOM     83  F   UNL A   1      37.809  31.858  31.099  1.00  0.00    -0.200 F 
ENDBRANCH  49  73
BRANCH  61  84
ATOM     84  C   UNL A   1      45.161  24.549  33.115  1.00  0.00     0.064 A 
ATOM     85  C   UNL A   1      44.502  23.377  33.518  1.00  0.00     0.173 A 
ATOM     86  C   UNL A   1      46.512  24.664  33.517  1.00  0.00     0.173 A 
ATOM     87  F   UNL A   1      43.260  23.100  33.098  1.00  0.00    -0.203 F 
ATOM     88  C   UNL A   1      45.123  22.427  34.331  1.00  0.00     0.198 A 
ATOM     89  C   UNL A   1      47.144  23.690  34.287  1.00  0.00     0.198 A 
ATOM     90  F   UNL A   1      47.263  25.716  33.161  1.00  0.00    -0.203 F 
ATOM     91  F   UNL A   1      44.438  21.346  34.729  1.00  0.00    -0.200 F 
ATOM     92  C   UNL A   1      46.445  22.580  34.710  1.00  0.00     0.200 A 
ATOM     93  F   UNL A   1      48.440  23.831  34.604  1.00  0.00    -0.200 F 
ATOM     94  F   UNL A   1      47.046  21.652  35.464  1.00  0.00    -0.200 F 
ENDBRANCH  61  84
ENDBRANCH  35  36
ENDBRANCH  27  30
ENDBRANCH  25  26
ENDBRANCH   1  25
TORSDOF 11
ENDMDL
MODEL 2
REMARK VINA RESULT:     -14.5      0.929      1.730
REMARK SMILES Cc1cc(F)cc(-n2c(C)nc3cc(C(=O)NCCCNC(=O)c4ccc(-c5c6nc(c(-c7c(F)c(F)c(F)c(F)c7F)c7ccc([nH]7)c(-c7c(F)c(F)c(F)c(F)c7F)c7nc(c(-c8c(F)c(F)c(F)c(F)c8F)c8ccc5[nH]8)C=C7)C=C6)cc4)ccc32)c1
REMARK SMILES IDX 19 1 18 2 17 3 15 4 16 5 14 7 8 8 9 9 89 10 10 11 11 12
REMARK SMILES IDX 12 13 88 14 13 15 87 16 7 17 1 18 2 19 3 20 90 21 4 22 5 23
REMARK SMILES IDX 6 24 20 25 21 26 22 27 23 29 24 30 25 31 86 32 26 33 85 34
REMARK SMILES IDX 27 35 28 36 29 37 79 38 30 39 84 40 78 41 80 42 31 43 83 44
REMARK SMILES IDX 77 45 76 46 32 48 64 49 44 50 63 51 45 52 48 53 62 54 81 55
REMARK SMILES IDX 46 56 47 57 61 59 82 60 49 61 33 62 34 63 42 64 35 65 36 66
REMARK SMILES IDX 40 67 43 68 37 69 38 70 41 71 39 72 65 73 66 74 74 75 67 76
REMARK SMILES IDX 68 77 72 78 75 79 69 80 70 81 73 82 71 83 50 84 51 85 59 86
REMARK SMILES IDX 52 87 53 88 57 89 60 90 54 91 55 92 58 93 56 94
REMARK H PARENT 17 6 21 28 80 47 48 58
REMARK Flexibility Score: inf
ROOT
ATOM      1  C   UNL A   1      33.213  29.913  26.048  1.00  0.00     0.042 C 
ENDROOT
BRANCH   1   2
ATOM      2  C   UNL A   1      31.751  30.340  25.891  1.00  0.00     0.118 C 
BRANCH   2   3
ATOM      3  N   UNL A   1      31.291  30.131  24.534  1.00  0.00    -0.352 N 
ATOM      4  C   UNL A   1      31.193  29.062  23.684  1.00  0.00     0.251 C 
ATOM      5  O   UNL A   1      30.837  29.352  22.537  1.00  0.00    -0.269 OA
ATOM      6  H   UNL A   1      30.972  30.965  24.119  1.00  0.00     0.163 HD
BRANCH   4   7
ATOM      7  C   UNL A   1      31.435  27.615  24.008  1.00  0.00     0.042 A 
ATOM      8  N   UNL A   1      31.558  23.728  25.539  1.00  0.00    -0.296 N 
ATOM      9  C   UNL A   1      30.426  23.835  26.345  1.00  0.00     0.111 A 
ATOM     10  C   UNL A   1      31.718  24.954  24.902  1.00  0.00     0.073 A 
ATOM     11  C   UNL A   1      29.927  22.794  27.286  1.00  0.00     0.088 C 
ATOM     12  N   UNL A   1      29.898  25.040  26.261  1.00  0.00    -0.233 NA
ATOM     13  C   UNL A   1      30.681  25.738  25.389  1.00  0.00     0.090 A 
ATOM     14  C   UNL A   1      32.596  25.443  23.920  1.00  0.00     0.030 A 
ATOM     15  C   UNL A   1      30.551  27.067  24.961  1.00  0.00     0.044 A 
ATOM     16  C   UNL A   1      32.422  26.777  23.478  1.00  0.00     0.016 A 
BRANCH   8  17
ATOM     17  C   UNL A   1      32.406  22.597  25.418  1.00  0.00     0.051 A 
ATOM     18  C   UNL A   1      32.495  19.287  23.522  1.00  0.00     0.044 C 
ATOM     19  C   UNL A   1      32.868  20.423  24.430  1.00  0.00    -0.046 A 
ATOM     20  C   UNL A   1      34.111  20.414  25.076  1.00  0.00     0.042 A 
ATOM     21  C   UNL A   1      32.002  21.510  24.627  1.00  0.00     0.030 A 
ATOM     22  C   UNL A   1      34.488  21.490  25.874  1.00  0.00     0.125 A 
ATOM     23  F   UNL A   1      35.679  21.466  26.488  1.00  0.00    -0.207 F 
ATOM     24  C   UNL A   1      33.656  22.591  26.041  1.00  0.00     0.066 A 
ENDBRANCH   8  17
ENDBRANCH   4   7
ENDBRANCH   2   3
ENDBRANCH   1   2
BRANCH   1  25
ATOM     25  C   UNL A   1      33.692  29.631  27.473  1.00  0.00     0.118 C 
BRANCH  25  26
ATOM     26  N   UNL A   1      34.322  30.731  28.184  1.00  0.00    -0.352 N 
ATOM     27  C   UNL A   1      35.582  31.027  28.626  1.00  0.00     0.251 C 
ATOM     28  H   UNL A   1      33.680  31.445  28.402  1.00  0.00     0.163 HD
ATOM     29  O   UNL A   1      35.752  32.156  29.099  1.00  0.00    -0.269 OA
BRANCH  27  30
ATOM     30  C   UNL A   1      36.721  30.075  28.672  1.00  0.00     0.039 A 
ATOM     31  C   UNL A   1      36.987  29.158  29.690  1.00  0.00     0.014 A 
ATOM     32  C   UNL A   1      37.574  30.105  27.557  1.00  0.00     0.014 A 
ATOM     33  C   UNL A   1      38.162  28.382  29.661  1.00  0.00     0.010 A 
ATOM     34  C   UNL A   1      38.727  29.328  27.517  1.00  0.00     0.010 A 
ATOM     35  C   UNL A   1      39.062  28.503  28.598  1.00  0.00    -0.014 A 
BRANCH  35  36
ATOM     36  C   UNL A   1      40.367  27.833  28.556  1.00  0.00     0.031 A 
ATOM     37  C   UNL A   1      40.527  26.384  28.265  1.00  0.00     0.074 A 
ATOM     38  C   UNL A   1      41.492  28.528  28.854  1.00  0.00     0.049 A 
ATOM     39  N   UNL A   1      41.447  25.637  28.795  1.00  0.00    -0.248 NA
ATOM     40  C   UNL A   1      39.655  25.655  27.352  1.00  0.00     0.031 C 
ATOM     41  C   UNL A   1      42.869  28.102  28.626  1.00  0.00     0.029 A 
ATOM     42  N   UNL A   1      41.617  29.716  29.592  1.00  0.00    -0.354 N 
ATOM     43  C   UNL A   1      41.484  24.456  28.088  1.00  0.00     0.074 A 
ATOM     44  C   UNL A   1      40.285  24.474  27.275  1.00  0.00     0.031 C 
ATOM     45  C   UNL A   1      43.687  28.817  29.411  1.00  0.00     0.029 A 
ATOM     46  C   UNL A   1      42.860  29.642  30.269  1.00  0.00     0.049 A 
ATOM     47  H   UNL A   1      40.968  30.456  29.632  1.00  0.00     0.167 HD
ATOM     48  C   UNL A   1      42.598  23.664  28.120  1.00  0.00     0.037 A 
ATOM     49  C   UNL A   1      42.990  29.745  31.625  1.00  0.00     0.037 A 
ATOM     50  C   UNL A   1      43.666  24.247  28.920  1.00  0.00     0.049 A 
ATOM     51  C   UNL A   1      43.715  28.616  32.281  1.00  0.00     0.074 A 
ATOM     52  C   UNL A   1      44.760  25.016  28.555  1.00  0.00     0.029 A 
ATOM     53  N   UNL A   1      43.586  24.300  30.306  1.00  0.00    -0.354 N 
ATOM     54  N   UNL A   1      43.847  27.451  31.724  1.00  0.00    -0.248 NA
ATOM     55  C   UNL A   1      44.276  28.673  33.626  1.00  0.00     0.031 C 
ATOM     56  C   UNL A   1      45.354  25.526  29.724  1.00  0.00     0.029 A 
ATOM     57  C   UNL A   1      44.615  25.077  30.804  1.00  0.00     0.049 A 
ATOM     58  H   UNL A   1      42.900  23.852  30.851  1.00  0.00     0.167 HD
ATOM     59  C   UNL A   1      44.500  26.614  32.586  1.00  0.00     0.074 A 
ATOM     60  C   UNL A   1      44.752  27.423  33.764  1.00  0.00     0.031 C 
ATOM     61  C   UNL A   1      44.776  25.330  32.225  1.00  0.00     0.037 A 
BRANCH  48  62
ATOM     62  C   UNL A   1      42.858  22.538  27.138  1.00  0.00     0.064 A 
ATOM     63  C   UNL A   1      42.203  21.288  27.257  1.00  0.00     0.173 A 
ATOM     64  C   UNL A   1      43.773  22.623  26.075  1.00  0.00     0.173 A 
ATOM     65  F   UNL A   1      41.211  21.089  28.134  1.00  0.00    -0.203 F 
ATOM     66  C   UNL A   1      42.542  20.181  26.479  1.00  0.00     0.198 A 
ATOM     67  C   UNL A   1      44.139  21.504  25.317  1.00  0.00     0.198 A 
ATOM     68  F   UNL A   1      44.311  23.799  25.726  1.00  0.00    -0.203 F 
ATOM     69  F   UNL A   1      41.904  19.016  26.665  1.00  0.00    -0.200 F 
ATOM     70  C   UNL A   1      43.539  20.278  25.533  1.00  0.00     0.200 A 
ATOM     71  F   UNL A   1      45.088  21.620  24.376  1.00  0.00    -0.200 F 
ATOM     72  F   UNL A   1      43.903  19.203  24.822  1.00  0.00    -0.200 F 
ENDBRANCH  48  62
BRANCH  49  73
ATOM     73  C   UNL A   1      41.872  30.468  32.267  1.00  0.00     0.064 A 
ATOM     74  C   UNL A   1      41.686  31.799  31.863  1.00  0.00     0.173 A 
ATOM     75  C   UNL A   1      40.758  29.714  32.663  1.00  0.00     0.173 A 
ATOM     76  F   UNL A   1      42.741  32.561  31.545  1.00  0.00    -0.203 F 
ATOM     77  C   UNL A   1      40.413  32.258  31.578  1.00  0.00     0.198 A 
ATOM     78  C   UNL A   1      39.488  30.176  32.364  1.00  0.00     0.198 A 
ATOM     79  F   UNL A   1      40.907  28.468  33.131  1.00  0.00    -0.203 F 
ATOM     80  F   UNL A   1      40.237  33.468  31.030  1.00  0.00    -0.200 F 
ATOM     81  C   UNL A   1      39.335  31.408  31.736  1.00  0.00     0.200 A 
ATOM     82  F   UNL A   1      38.432  29.384  32.585  1.00  0.00    -0.200 F 
ATOM     83  F   UNL A   1      38.164  31.769  31.203  1.00  0.00    -0.200 F 
ENDBRANCH  49  73
BRANCH  61  84
ATOM     84  C   UNL A   1      45.375  24.271  33.105  1.00  0.00     0.064 A 
ATOM     85  C   UNL A   1      46.661  24.353  33.661  1.00  0.00     0.173 A 
ATOM     86  C   UNL A   1      44.601  23.159  33.508  1.00  0.00     0.173 A 
ATOM     87  F   UNL A   1      47.442  25.422  33.450  1.00  0.00    -0.203 F 
ATOM     88  C   UNL A   1      47.167  23.353  34.495  1.00  0.00     0.198 A 
ATOM     89  C   UNL A   1      45.090  22.188  34.379  1.00  0.00     0.198 A 
ATOM     90  F   UNL A   1      43.342  22.988  33.080  1.00  0.00    -0.203 F 
ATOM     91  F   UNL A   1      48.417  23.452  34.965  1.00  0.00    -0.200 F 
ATOM     92  C   UNL A   1      46.380  22.275  34.859  1.00  0.00     0.200 A 
ATOM     93  F   UNL A   1      44.297  21.176  34.760  1.00  0.00    -0.200 F 
ATOM     94  F   UNL A   1      46.857  21.335  35.683  1.00  0.00    -0.200 F 
ENDBRANCH  61  84
ENDBRANCH  35  36
ENDBRANCH  27  30
ENDBRANCH  25  26
ENDBRANCH   1  25
TORSDOF 11
ENDMDL
MODEL 3
REMARK VINA RESULT:     -14.4      0.789      1.467
REMARK SMILES Cc1cc(F)cc(-n2c(C)nc3cc(C(=O)NCCCNC(=O)c4ccc(-c5c6nc(c(-c7c(F)c(F)c(F)c(F)c7F)c7ccc([nH]7)c(-c7c(F)c(F)c(F)c(F)c7F)c7nc(c(-c8c(F)c(F)c(F)c(F)c8F)c8ccc5[nH]8)C=C7)C=C6)cc4)ccc32)c1
REMARK SMILES IDX 19 1 18 2 17 3 15 4 16 5 14 7 8 8 9 9 89 10 10 11 11 12
REMARK SMILES IDX 12 13 88 14 13 15 87 16 7 17 1 18 2 19 3 20 90 21 4 22 5 23
REMARK SMILES IDX 6 24 20 25 21 26 22 27 23 29 24 30 25 31 86 32 26 33 85 34
REMARK SMILES IDX 27 35 28 36 29 37 79 38 30 39 84 40 78 41 80 42 31 43 83 44
REMARK SMILES IDX 77 45 76 46 32 48 64 49 44 50 63 51 45 52 48 53 62 54 81 55
REMARK SMILES IDX 46 56 47 57 61 59 82 60 49 61 33 62 34 63 42 64 35 65 36 66
REMARK SMILES IDX 40 67 43 68 37 69 38 70 41 71 39 72 65 73 66 74 74 75 67 76
REMARK SMILES IDX 68 77 72 78 75 79 69 80 70 81 73 82 71 83 50 84 51 85 59 86
REMARK SMILES IDX 52 87 53 88 57 89 60 90 54 91 55 92 58 93 56 94
REMARK H PARENT 17 6 21 28 80 47 48 58
REMARK Flexibility Score: inf
ROOT
ATOM      1  C   UNL A   1      32.256  30.143  26.243  1.00  0.00     0.042 C 
ENDROOT
BRANCH   1   2
ATOM      2  C   UNL A   1      32.440  29.717  24.784  1.00  0.00     0.118 C 
BRANCH   2   3
ATOM      3  N   UNL A   1      31.241  29.088  24.271  1.00  0.00    -0.352 N 
ATOM      4  C   UNL A   1      30.848  27.807  23.990  1.00  0.00     0.251 C 
ATOM      5  O   UNL A   1      29.743  27.720  23.445  1.00  0.00    -0.269 OA
ATOM      6  H   UNL A   1      30.533  29.744  24.075  1.00  0.00     0.163 HD
BRANCH   4   7
ATOM      7  C   UNL A   1      31.589  26.537  24.300  1.00  0.00     0.042 A 
ATOM      8  N   UNL A   1      33.359  23.128  25.947  1.00  0.00    -0.296 N 
ATOM      9  C   UNL A   1      32.625  23.121  27.131  1.00  0.00     0.111 A 
ATOM     10  C   UNL A   1      32.919  24.221  25.206  1.00  0.00     0.073 A 
ATOM     11  C   UNL A   1      32.825  22.184  28.272  1.00  0.00     0.088 C 
ATOM     12  N   UNL A   1      31.788  24.137  27.176  1.00  0.00    -0.233 NA
ATOM     13  C   UNL A   1      31.961  24.824  26.010  1.00  0.00     0.090 A 
ATOM     14  C   UNL A   1      33.196  24.708  23.918  1.00  0.00     0.030 A 
ATOM     15  C   UNL A   1      31.314  25.987  25.569  1.00  0.00     0.044 A 
ATOM     16  C   UNL A   1      32.502  25.863  23.482  1.00  0.00     0.016 A 
BRANCH   8  17
ATOM     17  C   UNL A   1      34.382  22.217  25.580  1.00  0.00     0.051 A 
ATOM     18  C   UNL A   1      38.193  22.031  25.645  1.00  0.00     0.044 C 
ATOM     19  C   UNL A   1      36.750  21.677  25.433  1.00  0.00    -0.046 A 
ATOM     20  C   UNL A   1      36.410  20.398  24.972  1.00  0.00     0.042 A 
ATOM     21  C   UNL A   1      35.727  22.598  25.712  1.00  0.00     0.030 A 
ATOM     22  C   UNL A   1      35.073  20.043  24.827  1.00  0.00     0.125 A 
ATOM     23  F   UNL A   1      34.764  18.817  24.383  1.00  0.00    -0.207 F 
ATOM     24  C   UNL A   1      34.052  20.933  25.141  1.00  0.00     0.066 A 
ENDBRANCH   8  17
ENDBRANCH   4   7
ENDBRANCH   2   3
ENDBRANCH   1   2
BRANCH   1  25
ATOM     25  C   UNL A   1      33.381  29.770  27.210  1.00  0.00     0.118 C 
BRANCH  25  26
ATOM     26  N   UNL A   1      33.903  30.834  28.053  1.00  0.00    -0.352 N 
ATOM     27  C   UNL A   1      35.110  31.143  28.615  1.00  0.00     0.251 C 
ATOM     28  H   UNL A   1      33.213  31.500  28.274  1.00  0.00     0.163 HD
ATOM     29  O   UNL A   1      35.191  32.236  29.187  1.00  0.00    -0.269 OA
BRANCH  27  30
ATOM     30  C   UNL A   1      36.286  30.238  28.677  1.00  0.00     0.039 A 
ATOM     31  C   UNL A   1      36.681  29.477  29.778  1.00  0.00     0.014 A 
ATOM     32  C   UNL A   1      37.029  30.137  27.491  1.00  0.00     0.014 A 
ATOM     33  C   UNL A   1      37.878  28.736  29.739  1.00  0.00     0.010 A 
ATOM     34  C   UNL A   1      38.204  29.394  27.443  1.00  0.00     0.010 A 
ATOM     35  C   UNL A   1      38.671  28.735  28.587  1.00  0.00    -0.014 A 
BRANCH  35  36
ATOM     36  C   UNL A   1      39.992  28.100  28.508  1.00  0.00     0.031 A 
ATOM     37  C   UNL A   1      40.182  26.642  28.290  1.00  0.00     0.074 A 
ATOM     38  C   UNL A   1      41.109  28.843  28.703  1.00  0.00     0.049 A 
ATOM     39  N   UNL A   1      41.152  25.953  28.807  1.00  0.00    -0.248 NA
ATOM     40  C   UNL A   1      39.284  25.838  27.469  1.00  0.00     0.031 C 
ATOM     41  C   UNL A   1      42.484  28.444  28.421  1.00  0.00     0.029 A 
ATOM     42  N   UNL A   1      41.236  30.074  29.366  1.00  0.00    -0.354 N 
ATOM     43  C   UNL A   1      41.187  24.735  28.166  1.00  0.00     0.074 A 
ATOM     44  C   UNL A   1      39.945  24.672  27.422  1.00  0.00     0.031 C 
ATOM     45  C   UNL A   1      43.321  29.226  29.118  1.00  0.00     0.029 A 
ATOM     46  C   UNL A   1      42.516  30.074  29.974  1.00  0.00     0.049 A 
ATOM     47  H   UNL A   1      40.567  30.796  29.402  1.00  0.00     0.167 HD
ATOM     48  C   UNL A   1      42.326  23.978  28.178  1.00  0.00     0.037 A 
ATOM     49  C   UNL A   1      42.718  30.258  31.313  1.00  0.00     0.037 A 
ATOM     50  C   UNL A   1      43.418  24.636  28.883  1.00  0.00     0.049 A 
ATOM     51  C   UNL A   1      43.513  29.189  31.989  1.00  0.00     0.074 A 
ATOM     52  C   UNL A   1      44.464  25.414  28.414  1.00  0.00     0.029 A 
ATOM     53  N   UNL A   1      43.412  24.766  30.266  1.00  0.00    -0.354 N 
ATOM     54  N   UNL A   1      43.651  27.999  31.491  1.00  0.00    -0.248 NA
ATOM     55  C   UNL A   1      44.145  29.339  33.295  1.00  0.00     0.031 C 
ATOM     56  C   UNL A   1      45.106  26.006  29.518  1.00  0.00     0.029 A 
ATOM     57  C   UNL A   1      44.442  25.599  30.662  1.00  0.00     0.049 A 
ATOM     58  H   UNL A   1      42.771  24.330  30.873  1.00  0.00     0.167 HD
ATOM     59  C   UNL A   1      44.376  27.232  32.359  1.00  0.00     0.074 A 
ATOM     60  C   UNL A   1      44.667  28.113  33.474  1.00  0.00     0.031 C 
ATOM     61  C   UNL A   1      44.672  25.937  32.055  1.00  0.00     0.037 A 
BRANCH  48  62
ATOM     62  C   UNL A   1      42.567  22.806  27.247  1.00  0.00     0.064 A 
ATOM     63  C   UNL A   1      41.930  21.558  27.451  1.00  0.00     0.173 A 
ATOM     64  C   UNL A   1      43.447  22.845  26.152  1.00  0.00     0.173 A 
ATOM     65  F   UNL A   1      40.970  21.395  28.368  1.00  0.00    -0.203 F 
ATOM     66  C   UNL A   1      42.257  20.416  26.719  1.00  0.00     0.198 A 
ATOM     67  C   UNL A   1      43.801  21.692  25.440  1.00  0.00     0.198 A 
ATOM     68  F   UNL A   1      43.960  24.007  25.726  1.00  0.00    -0.203 F 
ATOM     69  F   UNL A   1      41.639  19.256  26.986  1.00  0.00    -0.200 F 
ATOM     70  C   UNL A   1      43.222  20.473  25.738  1.00  0.00     0.200 A 
ATOM     71  F   UNL A   1      44.718  21.769  24.464  1.00  0.00    -0.200 F 
ATOM     72  F   UNL A   1      43.575  19.367  25.071  1.00  0.00    -0.200 F 
ENDBRANCH  48  62
BRANCH  49  73
ATOM     73  C   UNL A   1      41.614  30.985  31.977  1.00  0.00     0.064 A 
ATOM     74  C   UNL A   1      40.709  30.199  32.706  1.00  0.00     0.173 A 
ATOM     75  C   UNL A   1      41.866  32.299  32.394  1.00  0.00     0.173 A 
ATOM     76  F   UNL A   1      40.399  28.964  32.288  1.00  0.00    -0.203 F 
ATOM     77  C   UNL A   1      40.308  30.604  33.965  1.00  0.00     0.198 A 
ATOM     78  C   UNL A   1      41.471  32.693  33.661  1.00  0.00     0.198 A 
ATOM     79  F   UNL A   1      42.662  33.104  31.678  1.00  0.00    -0.203 F 
ATOM     80  F   UNL A   1      39.583  29.787  34.741  1.00  0.00    -0.200 F 
ATOM     81  C   UNL A   1      40.774  31.802  34.472  1.00  0.00     0.200 A 
ATOM     82  F   UNL A   1      41.859  33.886  34.130  1.00  0.00    -0.200 F 
ATOM     83  F   UNL A   1      40.605  32.045  35.775  1.00  0.00    -0.200 F 
ENDBRANCH  49  73
BRANCH  61  84
ATOM     84  C   UNL A   1      45.352  24.948  32.957  1.00  0.00     0.064 A 
ATOM     85  C   UNL A   1      44.730  23.797  33.466  1.00  0.00     0.173 A 
ATOM     86  C   UNL A   1      46.727  25.086  33.256  1.00  0.00     0.173 A 
ATOM     87  F   UNL A   1      43.463  23.495  33.149  1.00  0.00    -0.203 F 
ATOM     88  C   UNL A   1      45.413  22.893  34.282  1.00  0.00     0.198 A 
ATOM     89  C   UNL A   1      47.418  24.156  34.029  1.00  0.00     0.198 A 
ATOM     90  F   UNL A   1      47.446  26.120  32.793  1.00  0.00    -0.203 F 
ATOM     91  F   UNL A   1      44.764  21.833  34.783  1.00  0.00    -0.200 F 
ATOM     92  C   UNL A   1      46.757  23.069  34.558  1.00  0.00     0.200 A 
ATOM     93  F   UNL A   1      48.732  24.316  34.246  1.00  0.00    -0.200 F 
ATOM     94  F   UNL A   1      47.415  22.182  35.316  1.00  0.00    -0.200 F 
ENDBRANCH  61  84
ENDBRANCH  35  36
ENDBRANCH  27  30
ENDBRANCH  25  26
ENDBRANCH   1  25
TORSDOF 11
ENDMDL
