MODEL 1
REMARK VINA RESULT:     -12.9      0.000      0.000
REMARK SMILES O=C(NCCCNC(=O)c1ccccc1N1CC[N@H+]2CCCC[C@@H]2C1)c1ccc(-c2c3nc(c(-c4c(F)c(F)c(F)c(F)c4F)c4ccc([nH]4)c(-c4c(F)c(F)c(F)c(F)c4F)c4nc(c(-c5c(F)c(F)c(F)c(F)c5F)c5ccc2[nH]5)C=C4)C=C3)cc1
REMARK SMILES IDX 4 1 3 2 1 3 2 4 26 6 27 7 88 8 28 9 87 10 29 11 30 12 31 13
REMARK SMILES IDX 81 14 32 15 86 16 80 17 82 18 33 19 85 20 79 21 78 22 34 24
REMARK SMILES IDX 66 25 46 26 65 27 47 28 50 29 64 30 83 31 48 32 49 33 63 35
REMARK SMILES IDX 84 36 51 37 35 38 36 39 44 40 37 41 38 42 42 43 45 44 39 45
REMARK SMILES IDX 40 46 43 47 41 48 67 49 68 50 76 51 69 52 70 53 74 54 77 55
REMARK SMILES IDX 71 56 72 57 75 58 73 59 52 60 53 61 61 62 54 63 55 64 59 65
REMARK SMILES IDX 62 66 56 67 57 68 60 69 58 70 5 71 6 72 7 73 8 74 9 76 10 77
REMARK SMILES IDX 11 78 15 79 12 80 14 81 13 82 16 83 17 84 25 85 18 86 24 87
REMARK SMILES IDX 19 88 23 89 20 90 22 92 21 93
REMARK H PARENT 3 5 82 23 50 34 7 75 19 91
REMARK Flexibility Score: inf
ROOT
ATOM      1  C   UNL A   1      32.626  32.552  26.844  1.00  0.00     0.118 C 
ENDROOT
BRANCH   1   2
ATOM      2  N   UNL A   1      32.351  33.835  27.479  1.00  0.00    -0.352 N 
ATOM      3  O   UNL A   1      32.652  35.596  28.879  1.00  0.00    -0.269 OA
ATOM      4  C   UNL A   1      33.022  34.500  28.478  1.00  0.00     0.251 C 
ATOM      5  H   UNL A   1      31.555  34.301  27.136  1.00  0.00     0.163 HD
BRANCH   4   6
ATOM      6  C   UNL A   1      34.193  33.883  29.109  1.00  0.00     0.039 A 
ATOM      7  C   UNL A   1      34.028  32.800  29.969  1.00  0.00     0.014 A 
ATOM      8  C   UNL A   1      35.466  34.383  28.816  1.00  0.00     0.014 A 
ATOM      9  C   UNL A   1      35.114  32.331  30.683  1.00  0.00     0.010 A 
ATOM     10  C   UNL A   1      36.575  33.828  29.443  1.00  0.00     0.010 A 
ATOM     11  C   UNL A   1      36.398  32.820  30.404  1.00  0.00    -0.014 A 
BRANCH  11  12
ATOM     12  C   UNL A   1      37.554  32.197  31.074  1.00  0.00     0.031 A 
ATOM     13  C   UNL A   1      38.355  31.140  30.383  1.00  0.00     0.074 A 
ATOM     14  C   UNL A   1      37.861  32.620  32.313  1.00  0.00     0.049 A 
ATOM     15  N   UNL A   1      39.384  30.468  30.825  1.00  0.00    -0.248 NA
ATOM     16  C   UNL A   1      37.937  30.779  29.020  1.00  0.00     0.031 C 
ATOM     17  C   UNL A   1      37.121  33.644  33.055  1.00  0.00     0.029 A 
ATOM     18  N   UNL A   1      38.867  32.254  33.164  1.00  0.00    -0.354 N 
ATOM     19  C   UNL A   1      39.725  29.589  29.807  1.00  0.00     0.074 A 
ATOM     20  C   UNL A   1      38.774  29.791  28.736  1.00  0.00     0.031 C 
ATOM     21  C   UNL A   1      37.715  33.847  34.237  1.00  0.00     0.029 A 
ATOM     22  C   UNL A   1      38.827  32.915  34.366  1.00  0.00     0.049 A 
ATOM     23  H   UNL A   1      39.551  31.583  32.938  1.00  0.00     0.167 HD
ATOM     24  C   UNL A   1      40.745  28.699  29.782  1.00  0.00     0.037 A 
ATOM     25  C   UNL A   1      39.585  32.759  35.464  1.00  0.00     0.037 A 
ATOM     26  C   UNL A   1      41.668  28.521  30.874  1.00  0.00     0.049 A 
ATOM     27  C   UNL A   1      40.686  31.743  35.425  1.00  0.00     0.074 A 
ATOM     28  C   UNL A   1      42.756  27.673  30.959  1.00  0.00     0.029 A 
ATOM     29  N   UNL A   1      41.594  29.202  32.086  1.00  0.00    -0.354 N 
ATOM     30  N   UNL A   1      41.028  30.939  34.447  1.00  0.00    -0.248 NA
ATOM     31  C   UNL A   1      41.509  31.612  36.631  1.00  0.00     0.031 C 
ATOM     32  C   UNL A   1      43.300  27.793  32.242  1.00  0.00     0.029 A 
ATOM     33  C   UNL A   1      42.600  28.770  32.934  1.00  0.00     0.049 A 
ATOM     34  H   UNL A   1      40.926  29.890  32.306  1.00  0.00     0.167 HD
ATOM     35  C   UNL A   1      42.121  30.221  34.906  1.00  0.00     0.074 A 
ATOM     36  C   UNL A   1      42.386  30.691  36.252  1.00  0.00     0.031 C 
ATOM     37  C   UNL A   1      42.842  29.267  34.268  1.00  0.00     0.037 A 
BRANCH  24  38
ATOM     38  C   UNL A   1      40.874  27.827  28.565  1.00  0.00     0.064 A 
ATOM     39  C   UNL A   1      41.676  28.186  27.469  1.00  0.00     0.173 A 
ATOM     40  C   UNL A   1      40.169  26.615  28.484  1.00  0.00     0.173 A 
ATOM     41  F   UNL A   1      42.364  29.337  27.486  1.00  0.00    -0.203 F 
ATOM     42  C   UNL A   1      41.727  27.394  26.324  1.00  0.00     0.198 A 
ATOM     43  C   UNL A   1      40.250  25.808  27.352  1.00  0.00     0.198 A 
ATOM     44  F   UNL A   1      39.390  26.215  29.500  1.00  0.00    -0.203 F 
ATOM     45  F   UNL A   1      42.441  27.798  25.263  1.00  0.00    -0.200 F 
ATOM     46  C   UNL A   1      41.017  26.205  26.267  1.00  0.00     0.200 A 
ATOM     47  F   UNL A   1      39.574  24.651  27.304  1.00  0.00    -0.200 F 
ATOM     48  F   UNL A   1      41.060  25.449  25.161  1.00  0.00    -0.200 F 
ENDBRANCH  24  38
BRANCH  25  49
ATOM     49  C   UNL A   1      39.298  33.584  36.664  1.00  0.00     0.064 A 
ATOM     50  C   UNL A   1      38.533  33.082  37.723  1.00  0.00     0.173 A 
ATOM     51  C   UNL A   1      39.855  34.866  36.809  1.00  0.00     0.173 A 
ATOM     52  F   UNL A   1      37.976  31.867  37.629  1.00  0.00    -0.203 F 
ATOM     53  C   UNL A   1      38.333  33.831  38.882  1.00  0.00     0.198 A 
ATOM     54  C   UNL A   1      39.680  35.599  37.980  1.00  0.00     0.198 A 
ATOM     55  F   UNL A   1      40.612  35.384  35.831  1.00  0.00    -0.203 F 
ATOM     56  F   UNL A   1      37.580  33.336  39.873  1.00  0.00    -0.200 F 
ATOM     57  C   UNL A   1      38.915  35.083  39.013  1.00  0.00     0.200 A 
ATOM     58  F   UNL A   1      40.266  36.797  38.112  1.00  0.00    -0.200 F 
ATOM     59  F   UNL A   1      38.741  35.790  40.138  1.00  0.00    -0.200 F 
ENDBRANCH  25  49
BRANCH  37  60
ATOM     60  C   UNL A   1      44.022  28.700  34.999  1.00  0.00     0.064 A 
ATOM     61  C   UNL A   1      43.921  27.545  35.786  1.00  0.00     0.173 A 
ATOM     62  C   UNL A   1      45.289  29.283  34.840  1.00  0.00     0.173 A 
ATOM     63  F   UNL A   1      42.728  26.964  35.982  1.00  0.00    -0.203 F 
ATOM     64  C   UNL A   1      45.046  26.996  36.394  1.00  0.00     0.198 A 
ATOM     65  C   UNL A   1      46.416  28.714  35.423  1.00  0.00     0.198 A 
ATOM     66  F   UNL A   1      45.436  30.387  34.092  1.00  0.00    -0.203 F 
ATOM     67  F   UNL A   1      44.924  25.910  37.170  1.00  0.00    -0.200 F 
ATOM     68  C   UNL A   1      46.294  27.573  36.202  1.00  0.00     0.200 A 
ATOM     69  F   UNL A   1      47.622  29.263  35.221  1.00  0.00    -0.200 F 
ATOM     70  F   UNL A   1      47.379  27.030  36.770  1.00  0.00    -0.200 F 
ENDBRANCH  37  60
ENDBRANCH  11  12
ENDBRANCH   4   6
ENDBRANCH   1   2
BRANCH   1  71
ATOM     71  C   UNL A   1      31.397  31.721  26.502  1.00  0.00     0.042 C 
BRANCH  71  72
ATOM     72  C   UNL A   1      31.630  30.228  26.365  1.00  0.00     0.118 C 
BRANCH  72  73
ATOM     73  N   UNL A   1      32.504  29.840  25.277  1.00  0.00    -0.352 N 
ATOM     74  C   UNL A   1      32.136  29.328  24.058  1.00  0.00     0.253 C 
ATOM     75  H   UNL A   1      33.469  29.957  25.430  1.00  0.00     0.163 HD
ATOM     76  O   UNL A   1      32.996  29.128  23.202  1.00  0.00    -0.269 OA
BRANCH  74  77
ATOM     77  C   UNL A   1      30.735  28.930  23.805  1.00  0.00     0.063 A 
ATOM     78  C   UNL A   1      29.900  29.997  23.418  1.00  0.00     0.016 A 
ATOM     79  C   UNL A   1      30.258  27.600  23.879  1.00  0.00     0.050 A 
ATOM     80  C   UNL A   1      28.578  29.761  23.066  1.00  0.00     0.001 A 
ATOM     81  C   UNL A   1      28.913  27.406  23.511  1.00  0.00     0.027 A 
ATOM     82  C   UNL A   1      28.085  28.465  23.109  1.00  0.00     0.002 A 
BRANCH  79  83
ATOM     83  N   UNL A   1      31.037  26.518  24.261  1.00  0.00    -0.359 N 
ATOM     84  C   UNL A   1      31.419  26.285  25.661  1.00  0.00     0.178 C 
ATOM     85  C   UNL A   1      31.905  25.837  23.283  1.00  0.00     0.181 C 
ATOM     86  C   UNL A   1      31.566  24.766  25.951  1.00  0.00     0.284 C 
ATOM     87  C   UNL A   1      31.879  24.314  23.568  1.00  0.00     0.203 C 
ATOM     88  N   UNL A   1      32.334  23.988  24.948  1.00  0.00    -0.330 N 
ATOM     89  C   UNL A   1      32.706  23.538  22.539  1.00  0.00     0.067 C 
ATOM     90  C   UNL A   1      32.178  22.549  25.222  1.00  0.00     0.262 C 
ATOM     91  H   UNL A   1      33.321  24.237  25.016  1.00  0.00     0.348 HD
ATOM     92  C   UNL A   1      32.530  22.038  22.758  1.00  0.00     0.012 C 
ATOM     93  C   UNL A   1      32.886  21.664  24.193  1.00  0.00     0.062 C 
ENDBRANCH  79  83
ENDBRANCH  74  77
ENDBRANCH  72  73
ENDBRANCH  71  72
ENDBRANCH   1  71
TORSDOF 11
ENDMDL
MODEL 2
REMARK VINA RESULT:     -12.9      0.184      1.611
REMARK SMILES O=C(NCCCNC(=O)c1ccccc1N1CC[N@H+]2CCCC[C@@H]2C1)c1ccc(-c2c3nc(c(-c4c(F)c(F)c(F)c(F)c4F)c4ccc([nH]4)c(-c4c(F)c(F)c(F)c(F)c4F)c4nc(c(-c5c(F)c(F)c(F)c(F)c5F)c5ccc2[nH]5)C=C4)C=C3)cc1
REMARK SMILES IDX 4 1 3 2 1 3 2 4 26 6 27 7 88 8 28 9 87 10 29 11 30 12 31 13
REMARK SMILES IDX 81 14 32 15 86 16 80 17 82 18 33 19 85 20 79 21 78 22 34 24
REMARK SMILES IDX 66 25 46 26 65 27 47 28 50 29 64 30 83 31 48 32 49 33 63 35
REMARK SMILES IDX 84 36 51 37 35 38 36 39 44 40 37 41 38 42 42 43 45 44 39 45
REMARK SMILES IDX 40 46 43 47 41 48 67 49 68 50 76 51 69 52 70 53 74 54 77 55
REMARK SMILES IDX 71 56 72 57 75 58 73 59 52 60 53 61 61 62 54 63 55 64 59 65
REMARK SMILES IDX 62 66 56 67 57 68 60 69 58 70 5 71 6 72 7 73 8 74 9 76 10 77
REMARK SMILES IDX 11 78 15 79 12 80 14 81 13 82 16 83 17 84 25 85 18 86 24 87
REMARK SMILES IDX 19 88 23 89 20 90 22 92 21 93
REMARK H PARENT 3 5 82 23 50 34 7 75 19 91
REMARK Flexibility Score: inf
ROOT
ATOM      1  C   UNL A   1      32.615  32.543  26.714  1.00  0.00     0.118 C 
ENDROOT
BRANCH   1   2
ATOM      2  N   UNL A   1      32.341  33.819  27.364  1.00  0.00    -0.352 N 
ATOM      3  O   UNL A   1      32.645  35.564  28.783  1.00  0.00    -0.269 OA
ATOM      4  C   UNL A   1      33.014  34.473  28.370  1.00  0.00     0.251 C 
ATOM      5  H   UNL A   1      31.545  34.290  27.027  1.00  0.00     0.163 HD
BRANCH   4   6
ATOM      6  C   UNL A   1      34.185  33.848  28.992  1.00  0.00     0.039 A 
ATOM      7  C   UNL A   1      34.028  32.715  29.787  1.00  0.00     0.014 A 
ATOM      8  C   UNL A   1      35.452  34.393  28.757  1.00  0.00     0.014 A 
ATOM      9  C   UNL A   1      35.109  32.231  30.498  1.00  0.00     0.010 A 
ATOM     10  C   UNL A   1      36.560  33.828  29.378  1.00  0.00     0.010 A 
ATOM     11  C   UNL A   1      36.386  32.765  30.277  1.00  0.00    -0.014 A 
BRANCH  11  12
ATOM     12  C   UNL A   1      37.542  32.132  30.938  1.00  0.00     0.031 A 
ATOM     13  C   UNL A   1      38.342  31.084  30.231  1.00  0.00     0.074 A 
ATOM     14  C   UNL A   1      37.849  32.536  32.183  1.00  0.00     0.049 A 
ATOM     15  N   UNL A   1      39.371  30.406  30.664  1.00  0.00    -0.248 NA
ATOM     16  C   UNL A   1      37.924  30.743  28.863  1.00  0.00     0.031 C 
ATOM     17  C   UNL A   1      37.109  33.550  32.940  1.00  0.00     0.029 A 
ATOM     18  N   UNL A   1      38.855  32.158  33.028  1.00  0.00    -0.354 N 
ATOM     19  C   UNL A   1      39.711  29.541  29.634  1.00  0.00     0.074 A 
ATOM     20  C   UNL A   1      38.761  29.759  28.565  1.00  0.00     0.031 C 
ATOM     21  C   UNL A   1      37.704  33.736  34.124  1.00  0.00     0.029 A 
ATOM     22  C   UNL A   1      38.815  32.802  34.239  1.00  0.00     0.049 A 
ATOM     23  H   UNL A   1      39.538  31.490  32.792  1.00  0.00     0.167 HD
ATOM     24  C   UNL A   1      40.731  28.650  29.596  1.00  0.00     0.037 A 
ATOM     25  C   UNL A   1      39.573  32.630  35.336  1.00  0.00     0.037 A 
ATOM     26  C   UNL A   1      41.654  28.457  30.685  1.00  0.00     0.049 A 
ATOM     27  C   UNL A   1      40.674  31.614  35.282  1.00  0.00     0.074 A 
ATOM     28  C   UNL A   1      42.741  27.607  30.758  1.00  0.00     0.029 A 
ATOM     29  N   UNL A   1      41.581  29.120  31.906  1.00  0.00    -0.354 N 
ATOM     30  N   UNL A   1      41.015  30.824  34.292  1.00  0.00    -0.248 NA
ATOM     31  C   UNL A   1      41.496  31.465  36.486  1.00  0.00     0.031 C 
ATOM     32  C   UNL A   1      43.286  27.708  32.043  1.00  0.00     0.029 A 
ATOM     33  C   UNL A   1      42.586  28.676  32.748  1.00  0.00     0.049 A 
ATOM     34  H   UNL A   1      40.913  29.805  32.136  1.00  0.00     0.167 HD
ATOM     35  C   UNL A   1      42.108  30.099  34.741  1.00  0.00     0.074 A 
ATOM     36  C   UNL A   1      42.373  30.549  36.094  1.00  0.00     0.031 C 
ATOM     37  C   UNL A   1      42.829  29.153  34.090  1.00  0.00     0.037 A 
BRANCH  24  38
ATOM     38  C   UNL A   1      40.860  27.796  28.366  1.00  0.00     0.064 A 
ATOM     39  C   UNL A   1      40.229  26.546  28.254  1.00  0.00     0.173 A 
ATOM     40  C   UNL A   1      41.641  28.228  27.282  1.00  0.00     0.173 A 
ATOM     41  F   UNL A   1      39.478  26.077  29.262  1.00  0.00    -0.203 F 
ATOM     42  C   UNL A   1      40.418  25.743  27.131  1.00  0.00     0.198 A 
ATOM     43  C   UNL A   1      41.799  27.438  26.146  1.00  0.00     0.198 A 
ATOM     44  F   UNL A   1      42.264  29.416  27.327  1.00  0.00    -0.203 F 
ATOM     45  F   UNL A   1      39.866  24.521  27.083  1.00  0.00    -0.200 F 
ATOM     46  C   UNL A   1      41.199  26.190  26.077  1.00  0.00     0.200 A 
ATOM     47  F   UNL A   1      42.544  27.878  25.122  1.00  0.00    -0.200 F 
ATOM     48  F   UNL A   1      41.387  25.412  25.002  1.00  0.00    -0.200 F 
ENDBRANCH  24  38
BRANCH  25  49
ATOM     49  C   UNL A   1      39.286  33.438  36.547  1.00  0.00     0.064 A 
ATOM     50  C   UNL A   1      38.512  32.925  37.593  1.00  0.00     0.173 A 
ATOM     51  C   UNL A   1      39.853  34.712  36.716  1.00  0.00     0.173 A 
ATOM     52  F   UNL A   1      37.945  31.715  37.477  1.00  0.00    -0.203 F 
ATOM     53  C   UNL A   1      38.312  33.656  38.764  1.00  0.00     0.198 A 
ATOM     54  C   UNL A   1      39.677  35.428  37.898  1.00  0.00     0.198 A 
ATOM     55  F   UNL A   1      40.619  35.240  35.750  1.00  0.00    -0.203 F 
ATOM     56  F   UNL A   1      37.550  33.151  39.743  1.00  0.00    -0.200 F 
ATOM     57  C   UNL A   1      38.903  34.901  38.918  1.00  0.00     0.200 A 
ATOM     58  F   UNL A   1      40.272  36.618  38.052  1.00  0.00    -0.200 F 
ATOM     59  F   UNL A   1      38.729  35.592  40.054  1.00  0.00    -0.200 F 
ENDBRANCH  25  49
BRANCH  37  60
ATOM     60  C   UNL A   1      44.008  28.576  34.812  1.00  0.00     0.064 A 
ATOM     61  C   UNL A   1      45.268  29.191  34.785  1.00  0.00     0.173 A 
ATOM     62  C   UNL A   1      43.848  27.432  35.609  1.00  0.00     0.173 A 
ATOM     63  F   UNL A   1      45.473  30.276  34.023  1.00  0.00    -0.203 F 
ATOM     64  C   UNL A   1      46.328  28.675  35.524  1.00  0.00     0.198 A 
ATOM     65  C   UNL A   1      44.902  26.938  36.371  1.00  0.00     0.198 A 
ATOM     66  F   UNL A   1      42.660  26.811  35.671  1.00  0.00    -0.203 F 
ATOM     67  F   UNL A   1      47.533  29.258  35.459  1.00  0.00    -0.200 F 
ATOM     68  C   UNL A   1      46.141  27.558  36.326  1.00  0.00     0.200 A 
ATOM     69  F   UNL A   1      44.714  25.870  37.158  1.00  0.00    -0.200 F 
ATOM     70  F   UNL A   1      47.158  27.077  37.055  1.00  0.00    -0.200 F 
ENDBRANCH  37  60
ENDBRANCH  11  12
ENDBRANCH   4   6
ENDBRANCH   1   2
BRANCH   1  71
ATOM     71  C   UNL A   1      31.401  31.649  26.504  1.00  0.00     0.042 C 
BRANCH  71  72
ATOM     72  C   UNL A   1      31.693  30.167  26.360  1.00  0.00     0.118 C 
BRANCH  72  73
ATOM     73  N   UNL A   1      32.549  29.815  25.246  1.00  0.00    -0.352 N 
ATOM     74  C   UNL A   1      32.163  29.328  24.023  1.00  0.00     0.253 C 
ATOM     75  H   UNL A   1      33.516  29.940  25.382  1.00  0.00     0.163 HD
ATOM     76  O   UNL A   1      33.007  29.157  23.145  1.00  0.00    -0.269 OA
BRANCH  74  77
ATOM     77  C   UNL A   1      30.761  28.919  23.788  1.00  0.00     0.063 A 
ATOM     78  C   UNL A   1      29.919  29.973  23.385  1.00  0.00     0.016 A 
ATOM     79  C   UNL A   1      30.290  27.588  23.894  1.00  0.00     0.050 A 
ATOM     80  C   UNL A   1      28.596  29.725  23.048  1.00  0.00     0.001 A 
ATOM     81  C   UNL A   1      28.943  27.381  23.540  1.00  0.00     0.027 A 
ATOM     82  C   UNL A   1      28.109  28.428  23.122  1.00  0.00     0.002 A 
BRANCH  79  83
ATOM     83  N   UNL A   1      31.077  26.518  24.293  1.00  0.00    -0.359 N 
ATOM     84  C   UNL A   1      31.492  26.330  25.691  1.00  0.00     0.178 C 
ATOM     85  C   UNL A   1      31.920  25.803  23.319  1.00  0.00     0.181 C 
ATOM     86  C   UNL A   1      31.643  24.822  26.028  1.00  0.00     0.284 C 
ATOM     87  C   UNL A   1      31.899  24.290  23.655  1.00  0.00     0.203 C 
ATOM     88  N   UNL A   1      32.386  24.009  25.033  1.00  0.00    -0.330 N 
ATOM     89  C   UNL A   1      32.699  23.478  22.632  1.00  0.00     0.067 C 
ATOM     90  C   UNL A   1      32.235  22.581  25.359  1.00  0.00     0.262 C 
ATOM     91  H   UNL A   1      33.374  24.258  25.069  1.00  0.00     0.348 HD
ATOM     92  C   UNL A   1      32.526  21.987  22.905  1.00  0.00     0.012 C 
ATOM     93  C   UNL A   1      32.916  21.660  24.343  1.00  0.00     0.062 C 
ENDBRANCH  79  83
ENDBRANCH  74  77
ENDBRANCH  72  73
ENDBRANCH  71  72
ENDBRANCH   1  71
TORSDOF 11
ENDMDL
MODEL 3
REMARK VINA RESULT:     -12.9      0.433      7.572
REMARK SMILES O=C(NCCCNC(=O)c1ccccc1N1CC[N@H+]2CCCC[C@@H]2C1)c1ccc(-c2c3nc(c(-c4c(F)c(F)c(F)c(F)c4F)c4ccc([nH]4)c(-c4c(F)c(F)c(F)c(F)c4F)c4nc(c(-c5c(F)c(F)c(F)c(F)c5F)c5ccc2[nH]5)C=C4)C=C3)cc1
REMARK SMILES IDX 4 1 3 2 1 3 2 4 26 6 27 7 88 8 28 9 87 10 29 11 30 12 31 13
REMARK SMILES IDX 81 14 32 15 86 16 80 17 82 18 33 19 85 20 79 21 78 22 34 24
REMARK SMILES IDX 66 25 46 26 65 27 47 28 50 29 64 30 83 31 48 32 49 33 63 35
REMARK SMILES IDX 84 36 51 37 35 38 36 39 44 40 37 41 38 42 42 43 45 44 39 45
REMARK SMILES IDX 40 46 43 47 41 48 67 49 68 50 76 51 69 52 70 53 74 54 77 55
REMARK SMILES IDX 71 56 72 57 75 58 73 59 52 60 53 61 61 62 54 63 55 64 59 65
REMARK SMILES IDX 62 66 56 67 57 68 60 69 58 70 5 71 6 72 7 73 8 74 9 76 10 77
REMARK SMILES IDX 11 78 15 79 12 80 14 81 13 82 16 83 17 84 25 85 18 86 24 87
REMARK SMILES IDX 19 88 23 89 20 90 22 92 21 93
REMARK H PARENT 3 5 82 23 50 34 7 75 19 91
REMARK Flexibility Score: inf
ROOT
ATOM      1  C   UNL A   1      32.647  32.476  26.860  1.00  0.00     0.118 C 
ENDROOT
BRANCH   1   2
ATOM      2  N   UNL A   1      32.426  33.771  27.490  1.00  0.00    -0.352 N 
ATOM      3  O   UNL A   1      32.815  35.534  28.866  1.00  0.00    -0.269 OA
ATOM      4  C   UNL A   1      33.143  34.425  28.465  1.00  0.00     0.251 C 
ATOM      5  H   UNL A   1      31.635  34.257  27.165  1.00  0.00     0.163 HD
BRANCH   4   6
ATOM      6  C   UNL A   1      34.313  33.780  29.069  1.00  0.00     0.039 A 
ATOM      7  C   UNL A   1      34.142  32.692  29.923  1.00  0.00     0.014 A 
ATOM      8  C   UNL A   1      35.590  34.259  28.759  1.00  0.00     0.014 A 
ATOM      9  C   UNL A   1      35.231  32.195  30.613  1.00  0.00     0.010 A 
ATOM     10  C   UNL A   1      36.699  33.676  29.362  1.00  0.00     0.010 A 
ATOM     11  C   UNL A   1      36.519  32.663  30.316  1.00  0.00    -0.014 A 
BRANCH  11  12
ATOM     12  C   UNL A   1      37.675  32.012  30.960  1.00  0.00     0.031 A 
ATOM     13  C   UNL A   1      38.095  32.402  32.341  1.00  0.00     0.074 A 
ATOM     14  C   UNL A   1      38.322  31.059  30.267  1.00  0.00     0.049 A 
ATOM     15  N   UNL A   1      39.096  31.955  33.052  1.00  0.00    -0.248 NA
ATOM     16  C   UNL A   1      37.294  33.438  33.009  1.00  0.00     0.031 C 
ATOM     17  C   UNL A   1      37.974  30.630  28.909  1.00  0.00     0.029 A 
ATOM     18  N   UNL A   1      39.395  30.279  30.598  1.00  0.00    -0.354 N 
ATOM     19  C   UNL A   1      39.062  32.671  34.240  1.00  0.00     0.074 A 
ATOM     20  C   UNL A   1      37.959  33.602  34.144  1.00  0.00     0.031 C 
ATOM     21  C   UNL A   1      38.796  29.642  28.535  1.00  0.00     0.029 A 
ATOM     22  C   UNL A   1      39.774  29.425  29.592  1.00  0.00     0.049 A 
ATOM     23  H   UNL A   1      39.849  30.325  31.469  1.00  0.00     0.167 HD
ATOM     24  C   UNL A   1      39.883  32.550  35.310  1.00  0.00     0.037 A 
ATOM     25  C   UNL A   1      40.820  28.585  29.520  1.00  0.00     0.037 A 
ATOM     26  C   UNL A   1      40.977  31.613  35.366  1.00  0.00     0.049 A 
ATOM     27  C   UNL A   1      41.736  28.492  30.703  1.00  0.00     0.074 A 
ATOM     28  C   UNL A   1      41.863  31.377  36.400  1.00  0.00     0.029 A 
ATOM     29  N   UNL A   1      41.342  30.766  34.324  1.00  0.00    -0.354 N 
ATOM     30  N   UNL A   1      41.678  29.145  31.839  1.00  0.00    -0.248 NA
ATOM     31  C   UNL A   1      42.855  27.551  30.602  1.00  0.00     0.031 C 
ATOM     32  C   UNL A   1      42.800  30.436  35.962  1.00  0.00     0.029 A 
ATOM     33  C   UNL A   1      42.458  30.029  34.681  1.00  0.00     0.049 A 
ATOM     34  H   UNL A   1      40.875  30.701  33.460  1.00  0.00     0.167 HD
ATOM     35  C   UNL A   1      42.737  28.678  32.602  1.00  0.00     0.074 A 
ATOM     36  C   UNL A   1      43.417  27.682  31.796  1.00  0.00     0.031 C 
ATOM     37  C   UNL A   1      43.107  29.036  33.857  1.00  0.00     0.037 A 
BRANCH  24  38
ATOM     38  C   UNL A   1      39.656  33.481  36.468  1.00  0.00     0.064 A 
ATOM     39  C   UNL A   1      38.841  33.134  37.557  1.00  0.00     0.173 A 
ATOM     40  C   UNL A   1      40.253  34.752  36.481  1.00  0.00     0.173 A 
ATOM     41  F   UNL A   1      38.236  31.937  37.594  1.00  0.00    -0.203 F 
ATOM     42  C   UNL A   1      38.592  34.040  38.587  1.00  0.00     0.198 A 
ATOM     43  C   UNL A   1      40.030  35.642  37.529  1.00  0.00     0.198 A 
ATOM     44  F   UNL A   1      41.046  35.139  35.471  1.00  0.00    -0.203 F 
ATOM     45  F   UNL A   1      37.749  33.712  39.577  1.00  0.00    -0.200 F 
ATOM     46  C   UNL A   1      39.188  35.291  38.574  1.00  0.00     0.200 A 
ATOM     47  F   UNL A   1      40.619  36.846  37.522  1.00  0.00    -0.200 F 
ATOM     48  F   UNL A   1      38.940  36.165  39.560  1.00  0.00    -0.200 F 
ENDBRANCH  24  38
BRANCH  25  49
ATOM     49  C   UNL A   1      41.030  27.797  28.280  1.00  0.00     0.064 A 
ATOM     50  C   UNL A   1      41.830  28.281  27.240  1.00  0.00     0.173 A 
ATOM     51  C   UNL A   1      40.499  26.503  28.148  1.00  0.00     0.173 A 
ATOM     52  F   UNL A   1      42.356  29.512  27.317  1.00  0.00    -0.203 F 
ATOM     53  C   UNL A   1      42.091  27.504  26.112  1.00  0.00     0.198 A 
ATOM     54  C   UNL A   1      40.784  25.716  27.035  1.00  0.00     0.198 A 
ATOM     55  F   UNL A   1      39.741  25.985  29.127  1.00  0.00    -0.203 F 
ATOM     56  F   UNL A   1      42.843  27.999  25.121  1.00  0.00    -0.200 F 
ATOM     57  C   UNL A   1      41.576  26.220  26.016  1.00  0.00     0.200 A 
ATOM     58  F   UNL A   1      40.307  24.467  26.959  1.00  0.00    -0.200 F 
ATOM     59  F   UNL A   1      41.847  25.466  24.942  1.00  0.00    -0.200 F 
ENDBRANCH  25  49
BRANCH  37  60
ATOM     60  C   UNL A   1      44.272  28.310  34.459  1.00  0.00     0.064 A 
ATOM     61  C   UNL A   1      45.577  28.818  34.390  1.00  0.00     0.173 A 
ATOM     62  C   UNL A   1      44.060  27.128  35.184  1.00  0.00     0.173 A 
ATOM     63  F   UNL A   1      45.830  29.935  33.692  1.00  0.00    -0.203 F 
ATOM     64  C   UNL A   1      46.630  28.163  35.021  1.00  0.00     0.198 A 
ATOM     65  C   UNL A   1      45.110  26.494  35.840  1.00  0.00     0.198 A 
ATOM     66  F   UNL A   1      42.828  26.605  35.281  1.00  0.00    -0.203 F 
ATOM     67  F   UNL A   1      47.876  28.646  34.916  1.00  0.00    -0.200 F 
ATOM     68  C   UNL A   1      46.394  27.009  35.755  1.00  0.00     0.200 A 
ATOM     69  F   UNL A   1      44.877  25.389  36.563  1.00  0.00    -0.200 F 
ATOM     70  F   UNL A   1      47.406  26.393  36.381  1.00  0.00    -0.200 F 
ENDBRANCH  37  60
ENDBRANCH  11  12
ENDBRANCH   4   6
ENDBRANCH   1   2
BRANCH   1  71
ATOM     71  C   UNL A   1      31.384  31.720  26.469  1.00  0.00     0.042 C 
BRANCH  71  72
ATOM     72  C   UNL A   1      31.549  30.226  26.264  1.00  0.00     0.118 C 
BRANCH  72  73
ATOM     73  N   UNL A   1      32.405  29.849  25.159  1.00  0.00    -0.352 N 
ATOM     74  C   UNL A   1      32.020  29.315  23.955  1.00  0.00     0.253 C 
ATOM     75  H   UNL A   1      33.371  29.991  25.285  1.00  0.00     0.163 HD
ATOM     76  O   UNL A   1      32.862  29.127  23.079  1.00  0.00    -0.269 OA
BRANCH  74  77
ATOM     77  C   UNL A   1      30.623  28.879  23.741  1.00  0.00     0.063 A 
ATOM     78  C   UNL A   1      29.762  29.910  23.320  1.00  0.00     0.016 A 
ATOM     79  C   UNL A   1      30.174  27.544  23.882  1.00  0.00     0.050 A 
ATOM     80  C   UNL A   1      28.440  29.633  22.999  1.00  0.00     0.001 A 
ATOM     81  C   UNL A   1      28.828  27.307  23.544  1.00  0.00     0.027 A 
ATOM     82  C   UNL A   1      27.974  28.331  23.109  1.00  0.00     0.002 A 
BRANCH  79  83
ATOM     83  N   UNL A   1      30.981  26.496  24.300  1.00  0.00    -0.359 N 
ATOM     84  C   UNL A   1      31.410  26.348  25.698  1.00  0.00     0.178 C 
ATOM     85  C   UNL A   1      31.827  25.770  23.335  1.00  0.00     0.181 C 
ATOM     86  C   UNL A   1      31.588  24.851  26.070  1.00  0.00     0.284 C 
ATOM     87  C   UNL A   1      31.832  24.266  23.708  1.00  0.00     0.203 C 
ATOM     88  N   UNL A   1      32.335  24.026  25.088  1.00  0.00    -0.330 N 
ATOM     89  C   UNL A   1      32.636  23.442  22.698  1.00  0.00     0.067 C 
ATOM     90  C   UNL A   1      32.208  22.603  25.449  1.00  0.00     0.262 C 
ATOM     91  H   UNL A   1      33.319  24.290  25.109  1.00  0.00     0.348 HD
ATOM     92  C   UNL A   1      32.488  21.955  23.008  1.00  0.00     0.012 C 
ATOM     93  C   UNL A   1      32.896  21.669  24.450  1.00  0.00     0.062 C 
ENDBRANCH  79  83
ENDBRANCH  74  77
ENDBRANCH  72  73
ENDBRANCH  71  72
ENDBRANCH   1  71
TORSDOF 11
ENDMDL
