MODEL 1
REMARK VINA RESULT:     -13.2      0.000      0.000
REMARK SMILES COc1cc(C(=O)NC2(C(=O)NCCCNC(=O)c3ccc(-c4c5nc(c(-c6c(F)c(F)c(F)c(F)c6F)c6ccc([nH]6)c(-c6c(F)c(F)c(F)c(F)c6F)c6nc(c(-c7c(F)c(F)c(F)c(F)c7F)c7ccc4[nH]7)C=C6)C=C5)cc3)CCCCC2)cc2c1OCCO2
REMARK SMILES IDX 13 1 12 2 10 3 11 4 9 6 82 7 86 8 83 9 85 10 84 11 8 12 6 13
REMARK SMILES IDX 7 14 5 16 3 17 4 18 89 19 88 20 90 21 87 22 93 23 91 24
REMARK SMILES IDX 92 25 2 26 1 27 14 28 15 29 16 30 17 31 18 33 19 34 20 35
REMARK SMILES IDX 81 36 21 37 80 38 22 39 23 40 24 41 74 42 25 43 79 44 73 45
REMARK SMILES IDX 75 46 26 47 78 48 72 49 71 50 27 52 59 53 39 54 58 55 40 56
REMARK SMILES IDX 43 57 57 58 76 59 41 60 42 61 56 63 77 64 44 65 28 66 29 67
REMARK SMILES IDX 37 68 30 69 31 70 35 71 38 72 32 73 33 74 36 75 34 76 60 77
REMARK SMILES IDX 61 78 69 79 62 80 63 81 67 82 70 83 64 84 65 85 68 86 66 87
REMARK SMILES IDX 45 88 46 89 54 90 47 91 48 92 52 93 55 94 49 95 50 96 53 97
REMARK SMILES IDX 51 98
REMARK H PARENT 12 5 8 15 16 32 75 51 43 62
REMARK Flexibility Score: inf
ROOT
ATOM      1  C   UNL A   1      31.403  28.899  24.166  1.00  0.00     0.117 C 
ENDROOT
BRANCH   1   2
ATOM      2  N   UNL A   1      30.235  28.108  23.889  1.00  0.00    -0.354 N 
ATOM      3  C   UNL A   1      29.992  26.783  24.012  1.00  0.00     0.245 C 
ATOM      4  O   UNL A   1      28.855  26.452  23.639  1.00  0.00    -0.272 OA
ATOM      5  H   UNL A   1      29.471  28.627  23.549  1.00  0.00     0.163 HD
BRANCH   3   6
ATOM      6  C   UNL A   1      31.049  25.680  24.431  1.00  0.00     0.119 C 
ATOM      7  C   UNL A   1      32.452  26.095  24.921  1.00  0.00     0.038 C 
ATOM      8  C   UNL A   1      31.171  24.672  23.264  1.00  0.00     0.038 C 
ATOM      9  C   UNL A   1      33.684  26.047  24.011  1.00  0.00     0.003 C 
ATOM     10  C   UNL A   1      32.190  25.057  22.202  1.00  0.00     0.003 C 
ATOM     11  C   UNL A   1      33.591  25.189  22.768  1.00  0.00     0.000 C 
BRANCH   6  12
ATOM     12  N   UNL A   1      30.257  24.967  25.517  1.00  0.00    -0.338 N 
ATOM     13  C   UNL A   1      30.432  23.958  26.435  1.00  0.00     0.252 C 
ATOM     14  O   UNL A   1      29.575  23.811  27.306  1.00  0.00    -0.269 OA
ATOM     15  H   UNL A   1      29.347  25.338  25.582  1.00  0.00     0.164 HD
BRANCH  13  16
ATOM     16  C   UNL A   1      31.523  22.962  26.365  1.00  0.00     0.047 A 
ATOM     17  C   UNL A   1      33.855  22.409  26.525  1.00  0.00     0.165 A 
ATOM     18  C   UNL A   1      32.764  23.168  26.952  1.00  0.00     0.064 A 
ATOM     19  C   UNL A   1      33.653  21.252  25.771  1.00  0.00     0.203 A 
ATOM     20  C   UNL A   1      32.348  20.901  25.408  1.00  0.00     0.166 A 
ATOM     21  O   UNL A   1      34.746  20.487  25.443  1.00  0.00    -0.483 OA
ATOM     22  C   UNL A   1      31.295  21.786  25.639  1.00  0.00     0.064 A 
ATOM     23  O   UNL A   1      32.042  19.709  24.801  1.00  0.00    -0.486 OA
ATOM     24  C   UNL A   1      34.414  19.381  24.596  1.00  0.00     0.271 C 
ATOM     25  C   UNL A   1      33.097  18.764  25.028  1.00  0.00     0.271 C 
BRANCH  17  26
ATOM     26  O   UNL A   1      35.096  22.900  26.847  1.00  0.00    -0.493 OA
ATOM     27  C   UNL A   1      35.640  23.685  25.776  1.00  0.00     0.278 C 
ENDBRANCH  17  26
ENDBRANCH  13  16
ENDBRANCH   6  12
ENDBRANCH   3   6
ENDBRANCH   1   2
BRANCH   1  28
ATOM     28  C   UNL A   1      31.439  29.403  25.597  1.00  0.00     0.042 C 
BRANCH  28  29
ATOM     29  C   UNL A   1      32.771  30.031  25.956  1.00  0.00     0.118 C 
BRANCH  29  30
ATOM     30  N   UNL A   1      32.631  31.423  26.371  1.00  0.00    -0.352 N 
ATOM     31  C   UNL A   1      33.332  32.160  27.293  1.00  0.00     0.251 C 
ATOM     32  H   UNL A   1      31.912  31.917  25.915  1.00  0.00     0.163 HD
ATOM     33  O   UNL A   1      32.905  33.257  27.647  1.00  0.00    -0.269 OA
BRANCH  31  34
ATOM     34  C   UNL A   1      34.581  31.633  27.878  1.00  0.00     0.039 A 
ATOM     35  C   UNL A   1      35.680  32.480  28.031  1.00  0.00     0.014 A 
ATOM     36  C   UNL A   1      34.671  30.300  28.280  1.00  0.00     0.014 A 
ATOM     37  C   UNL A   1      36.835  32.009  28.661  1.00  0.00     0.010 A 
ATOM     38  C   UNL A   1      35.756  29.877  29.031  1.00  0.00     0.010 A 
ATOM     39  C   UNL A   1      36.863  30.717  29.210  1.00  0.00    -0.014 A 
BRANCH  39  40
ATOM     40  C   UNL A   1      38.048  30.199  29.939  1.00  0.00     0.031 A 
ATOM     41  C   UNL A   1      38.304  30.644  31.355  1.00  0.00     0.074 A 
ATOM     42  C   UNL A   1      38.927  29.397  29.307  1.00  0.00     0.049 A 
ATOM     43  N   UNL A   1      39.330  30.397  32.130  1.00  0.00    -0.248 NA
ATOM     44  C   UNL A   1      37.293  31.522  31.970  1.00  0.00     0.031 C 
ATOM     45  C   UNL A   1      38.820  28.949  27.917  1.00  0.00     0.029 A 
ATOM     46  N   UNL A   1      40.093  28.824  29.750  1.00  0.00    -0.354 N 
ATOM     47  C   UNL A   1      39.097  31.105  33.301  1.00  0.00     0.074 A 
ATOM     48  C   UNL A   1      37.875  31.852  33.111  1.00  0.00     0.031 C 
ATOM     49  C   UNL A   1      39.857  28.145  27.632  1.00  0.00     0.029 A 
ATOM     50  C   UNL A   1      40.726  28.058  28.801  1.00  0.00     0.049 A 
ATOM     51  H   UNL A   1      40.443  28.950  30.661  1.00  0.00     0.167 HD
ATOM     52  C   UNL A   1      39.815  31.103  34.448  1.00  0.00     0.037 A 
ATOM     53  C   UNL A   1      41.881  27.369  28.868  1.00  0.00     0.037 A 
ATOM     54  C   UNL A   1      41.007  30.323  34.644  1.00  0.00     0.049 A 
ATOM     55  C   UNL A   1      42.658  27.378  30.158  1.00  0.00     0.074 A 
ATOM     56  C   UNL A   1      41.777  30.197  35.787  1.00  0.00     0.029 A 
ATOM     57  N   UNL A   1      41.598  29.532  33.671  1.00  0.00    -0.354 N 
ATOM     58  N   UNL A   1      42.387  27.994  31.283  1.00  0.00    -0.248 NA
ATOM     59  C   UNL A   1      43.896  26.589  30.188  1.00  0.00     0.031 C 
ATOM     60  C   UNL A   1      42.862  29.368  35.488  1.00  0.00     0.029 A 
ATOM     61  C   UNL A   1      42.736  28.929  34.180  1.00  0.00     0.049 A 
ATOM     62  H   UNL A   1      41.259  29.416  32.754  1.00  0.00     0.167 HD
ATOM     63  C   UNL A   1      43.402  27.642  32.165  1.00  0.00     0.074 A 
ATOM     64  C   UNL A   1      44.283  26.744  31.446  1.00  0.00     0.031 C 
ATOM     65  C   UNL A   1      43.590  28.028  33.450  1.00  0.00     0.037 A 
BRANCH  52  66
ATOM     66  C   UNL A   1      39.321  31.956  35.582  1.00  0.00     0.064 A 
ATOM     67  C   UNL A   1      38.441  31.454  36.554  1.00  0.00     0.173 A 
ATOM     68  C   UNL A   1      39.759  33.283  35.719  1.00  0.00     0.173 A 
ATOM     69  F   UNL A   1      37.981  30.198  36.463  1.00  0.00    -0.203 F 
ATOM     70  C   UNL A   1      37.993  32.256  37.600  1.00  0.00     0.198 A 
ATOM     71  C   UNL A   1      39.336  34.070  36.787  1.00  0.00     0.198 A 
ATOM     72  F   UNL A   1      40.602  33.814  34.822  1.00  0.00    -0.203 F 
ATOM     73  F   UNL A   1      37.109  31.770  38.482  1.00  0.00    -0.200 F 
ATOM     74  C   UNL A   1      38.448  33.559  37.722  1.00  0.00     0.200 A 
ATOM     75  F   UNL A   1      39.787  35.326  36.910  1.00  0.00    -0.200 F 
ATOM     76  F   UNL A   1      38.024  34.327  38.735  1.00  0.00    -0.200 F 
ENDBRANCH  52  66
BRANCH  53  77
ATOM     77  C   UNL A   1      42.361  26.597  27.690  1.00  0.00     0.064 A 
ATOM     78  C   UNL A   1      41.906  25.293  27.449  1.00  0.00     0.173 A 
ATOM     79  C   UNL A   1      43.295  27.135  26.793  1.00  0.00     0.173 A 
ATOM     80  F   UNL A   1      41.025  24.726  28.288  1.00  0.00    -0.203 F 
ATOM     81  C   UNL A   1      42.387  24.547  26.375  1.00  0.00     0.198 A 
ATOM     82  C   UNL A   1      43.750  26.401  25.700  1.00  0.00     0.198 A 
ATOM     83  F   UNL A   1      43.757  28.382  26.970  1.00  0.00    -0.203 F 
ATOM     84  F   UNL A   1      41.976  23.284  26.202  1.00  0.00    -0.200 F 
ATOM     85  C   UNL A   1      43.304  25.104  25.498  1.00  0.00     0.200 A 
ATOM     86  F   UNL A   1      44.624  26.949  24.845  1.00  0.00    -0.200 F 
ATOM     87  F   UNL A   1      43.766  24.387  24.464  1.00  0.00    -0.200 F 
ENDBRANCH  53  77
BRANCH  65  88
ATOM     88  C   UNL A   1      44.769  27.448  34.177  1.00  0.00     0.064 A 
ATOM     89  C   UNL A   1      46.007  28.105  34.218  1.00  0.00     0.173 A 
ATOM     90  C   UNL A   1      44.641  26.240  34.879  1.00  0.00     0.173 A 
ATOM     91  F   UNL A   1      46.183  29.256  33.552  1.00  0.00    -0.203 F 
ATOM     92  C   UNL A   1      47.082  27.558  34.913  1.00  0.00     0.198 A 
ATOM     93  C   UNL A   1      45.708  25.714  35.601  1.00  0.00     0.198 A 
ATOM     94  F   UNL A   1      43.475  25.577  34.879  1.00  0.00    -0.203 F 
ATOM     95  F   UNL A   1      48.271  28.176  34.895  1.00  0.00    -0.200 F 
ATOM     96  C   UNL A   1      46.930  26.369  35.610  1.00  0.00     0.200 A 
ATOM     97  F   UNL A   1      45.553  24.574  36.288  1.00  0.00    -0.200 F 
ATOM     98  F   UNL A   1      47.965  25.850  36.286  1.00  0.00    -0.200 F 
ENDBRANCH  65  88
ENDBRANCH  39  40
ENDBRANCH  31  34
ENDBRANCH  29  30
ENDBRANCH  28  29
ENDBRANCH   1  28
TORSDOF 13
ENDMDL
MODEL 2
REMARK VINA RESULT:     -13.2      2.063      7.748
REMARK SMILES COc1cc(C(=O)NC2(C(=O)NCCCNC(=O)c3ccc(-c4c5nc(c(-c6c(F)c(F)c(F)c(F)c6F)c6ccc([nH]6)c(-c6c(F)c(F)c(F)c(F)c6F)c6nc(c(-c7c(F)c(F)c(F)c(F)c7F)c7ccc4[nH]7)C=C6)C=C5)cc3)CCCCC2)cc2c1OCCO2
REMARK SMILES IDX 13 1 12 2 10 3 11 4 9 6 82 7 86 8 83 9 85 10 84 11 8 12 6 13
REMARK SMILES IDX 7 14 5 16 3 17 4 18 89 19 88 20 90 21 87 22 93 23 91 24
REMARK SMILES IDX 92 25 2 26 1 27 14 28 15 29 16 30 17 31 18 33 19 34 20 35
REMARK SMILES IDX 81 36 21 37 80 38 22 39 23 40 24 41 74 42 25 43 79 44 73 45
REMARK SMILES IDX 75 46 26 47 78 48 72 49 71 50 27 52 59 53 39 54 58 55 40 56
REMARK SMILES IDX 43 57 57 58 76 59 41 60 42 61 56 63 77 64 44 65 28 66 29 67
REMARK SMILES IDX 37 68 30 69 31 70 35 71 38 72 32 73 33 74 36 75 34 76 60 77
REMARK SMILES IDX 61 78 69 79 62 80 63 81 67 82 70 83 64 84 65 85 68 86 66 87
REMARK SMILES IDX 45 88 46 89 54 90 47 91 48 92 52 93 55 94 49 95 50 96 53 97
REMARK SMILES IDX 51 98
REMARK H PARENT 12 5 8 15 16 32 75 51 43 62
REMARK Flexibility Score: inf
ROOT
ATOM      1  C   UNL A   1      31.443  30.859  26.235  1.00  0.00     0.117 C 
ENDROOT
BRANCH   1   2
ATOM      2  N   UNL A   1      31.024  30.443  24.925  1.00  0.00    -0.354 N 
ATOM      3  C   UNL A   1      31.120  29.257  24.281  1.00  0.00     0.245 C 
ATOM      4  O   UNL A   1      30.666  29.284  23.125  1.00  0.00    -0.272 OA
ATOM      5  H   UNL A   1      30.586  31.151  24.400  1.00  0.00     0.163 HD
BRANCH   3   6
ATOM      6  C   UNL A   1      31.861  27.965  24.819  1.00  0.00     0.119 C 
ATOM      7  C   UNL A   1      31.700  27.533  26.290  1.00  0.00     0.038 C 
ATOM      8  C   UNL A   1      33.361  28.099  24.466  1.00  0.00     0.038 C 
ATOM      9  C   UNL A   1      32.763  27.832  27.353  1.00  0.00     0.003 C 
ATOM     10  C   UNL A   1      34.189  28.844  25.503  1.00  0.00     0.003 C 
ATOM     11  C   UNL A   1      34.153  28.173  26.862  1.00  0.00     0.000 C 
BRANCH   6  12
ATOM     12  N   UNL A   1      31.298  26.928  23.858  1.00  0.00    -0.338 N 
ATOM     13  C   UNL A   1      31.409  25.582  23.604  1.00  0.00     0.252 C 
ATOM     14  O   UNL A   1      30.597  25.067  22.835  1.00  0.00    -0.269 OA
ATOM     15  H   UNL A   1      30.665  27.347  23.230  1.00  0.00     0.164 HD
BRANCH  13  16
ATOM     16  C   UNL A   1      32.518  24.739  24.101  1.00  0.00     0.047 A 
ATOM     17  C   UNL A   1      33.724  23.742  25.924  1.00  0.00     0.165 A 
ATOM     18  C   UNL A   1      32.517  24.171  25.368  1.00  0.00     0.064 A 
ATOM     19  C   UNL A   1      34.850  23.579  25.116  1.00  0.00     0.203 A 
ATOM     20  C   UNL A   1      34.761  23.905  23.758  1.00  0.00     0.166 A 
ATOM     21  O   UNL A   1      35.994  23.074  25.685  1.00  0.00    -0.483 OA
ATOM     22  C   UNL A   1      33.627  24.550  23.266  1.00  0.00     0.064 A 
ATOM     23  O   UNL A   1      35.767  23.636  22.864  1.00  0.00    -0.486 OA
ATOM     24  C   UNL A   1      37.098  23.041  24.774  1.00  0.00     0.271 C 
ATOM     25  C   UNL A   1      36.629  22.620  23.394  1.00  0.00     0.271 C 
BRANCH  17  26
ATOM     26  O   UNL A   1      33.728  23.551  27.284  1.00  0.00    -0.493 OA
ATOM     27  C   UNL A   1      33.038  22.346  27.644  1.00  0.00     0.278 C 
ENDBRANCH  17  26
ENDBRANCH  13  16
ENDBRANCH   6  12
ENDBRANCH   3   6
ENDBRANCH   1   2
BRANCH   1  28
ATOM     28  C   UNL A   1      31.403  32.367  26.407  1.00  0.00     0.042 C 
BRANCH  28  29
ATOM     29  C   UNL A   1      32.518  32.876  27.300  1.00  0.00     0.118 C 
BRANCH  29  30
ATOM     30  N   UNL A   1      32.361  34.291  27.625  1.00  0.00    -0.352 N 
ATOM     31  C   UNL A   1      32.958  35.062  28.590  1.00  0.00     0.251 C 
ATOM     32  H   UNL A   1      31.718  34.774  27.056  1.00  0.00     0.163 HD
ATOM     33  O   UNL A   1      32.517  36.184  28.833  1.00  0.00    -0.269 OA
BRANCH  31  34
ATOM     34  C   UNL A   1      34.110  34.543  29.356  1.00  0.00     0.039 A 
ATOM     35  C   UNL A   1      33.899  33.975  30.614  1.00  0.00     0.014 A 
ATOM     36  C   UNL A   1      35.401  34.613  28.834  1.00  0.00     0.014 A 
ATOM     37  C   UNL A   1      34.972  33.407  31.305  1.00  0.00     0.010 A 
ATOM     38  C   UNL A   1      36.434  33.925  29.450  1.00  0.00     0.010 A 
ATOM     39  C   UNL A   1      36.239  33.334  30.706  1.00  0.00    -0.014 A 
BRANCH  39  40
ATOM     40  C   UNL A   1      37.392  32.687  31.381  1.00  0.00     0.031 A 
ATOM     41  C   UNL A   1      38.095  31.535  30.712  1.00  0.00     0.074 A 
ATOM     42  C   UNL A   1      37.753  33.080  32.618  1.00  0.00     0.049 A 
ATOM     43  N   UNL A   1      39.049  30.765  31.172  1.00  0.00    -0.248 NA
ATOM     44  C   UNL A   1      37.637  31.169  29.361  1.00  0.00     0.031 C 
ATOM     45  C   UNL A   1      37.107  34.141  33.394  1.00  0.00     0.029 A 
ATOM     46  N   UNL A   1      38.747  32.623  33.447  1.00  0.00    -0.354 N 
ATOM     47  C   UNL A   1      39.280  29.819  30.182  1.00  0.00     0.074 A 
ATOM     48  C   UNL A   1      38.319  30.060  29.130  1.00  0.00     0.031 C 
ATOM     49  C   UNL A   1      37.742  34.276  34.569  1.00  0.00     0.029 A 
ATOM     50  C   UNL A   1      38.808  33.283  34.650  1.00  0.00     0.049 A 
ATOM     51  H   UNL A   1      39.358  31.892  33.202  1.00  0.00     0.167 HD
ATOM     52  C   UNL A   1      40.233  28.859  30.135  1.00  0.00     0.037 A 
ATOM     53  C   UNL A   1      39.628  33.100  35.702  1.00  0.00     0.037 A 
ATOM     54  C   UNL A   1      41.213  28.654  31.166  1.00  0.00     0.049 A 
ATOM     55  C   UNL A   1      40.685  32.030  35.621  1.00  0.00     0.074 A 
ATOM     56  C   UNL A   1      42.263  27.753  31.192  1.00  0.00     0.029 A 
ATOM     57  N   UNL A   1      41.264  29.365  32.356  1.00  0.00    -0.354 N 
ATOM     58  N   UNL A   1      40.940  31.190  34.648  1.00  0.00    -0.248 NA
ATOM     59  C   UNL A   1      41.572  31.889  36.784  1.00  0.00     0.031 C 
ATOM     60  C   UNL A   1      42.918  27.886  32.419  1.00  0.00     0.029 A 
ATOM     61  C   UNL A   1      42.316  28.910  33.133  1.00  0.00     0.049 A 
ATOM     62  H   UNL A   1      40.644  30.087  32.610  1.00  0.00     0.167 HD
ATOM     63  C   UNL A   1      42.034  30.443  35.065  1.00  0.00     0.074 A 
ATOM     64  C   UNL A   1      42.404  30.944  36.373  1.00  0.00     0.031 C 
ATOM     65  C   UNL A   1      42.675  29.433  34.426  1.00  0.00     0.037 A 
BRANCH  52  66
ATOM     66  C   UNL A   1      40.271  27.973  28.922  1.00  0.00     0.064 A 
ATOM     67  C   UNL A   1      41.003  28.322  27.776  1.00  0.00     0.173 A 
ATOM     68  C   UNL A   1      39.595  26.743  28.917  1.00  0.00     0.173 A 
ATOM     69  F   UNL A   1      41.656  29.492  27.723  1.00  0.00    -0.203 F 
ATOM     70  C   UNL A   1      41.030  27.490  26.660  1.00  0.00     0.198 A 
ATOM     71  C   UNL A   1      39.654  25.897  27.812  1.00  0.00     0.198 A 
ATOM     72  F   UNL A   1      38.882  26.357  29.985  1.00  0.00    -0.203 F 
ATOM     73  F   UNL A   1      41.690  27.872  25.559  1.00  0.00    -0.200 F 
ATOM     74  C   UNL A   1      40.365  26.274  26.682  1.00  0.00     0.200 A 
ATOM     75  F   UNL A   1      39.021  24.717  27.840  1.00  0.00    -0.200 F 
ATOM     76  F   UNL A   1      40.400  25.469  25.611  1.00  0.00    -0.200 F 
ENDBRANCH  52  66
BRANCH  53  77
ATOM     77  C   UNL A   1      39.501  33.961  36.910  1.00  0.00     0.064 A 
ATOM     78  C   UNL A   1      38.750  33.541  38.017  1.00  0.00     0.173 A 
ATOM     79  C   UNL A   1      40.110  35.222  36.978  1.00  0.00     0.173 A 
ATOM     80  F   UNL A   1      38.133  32.350  37.995  1.00  0.00    -0.203 F 
ATOM     81  C   UNL A   1      38.588  34.361  39.132  1.00  0.00     0.198 A 
ATOM     82  C   UNL A   1      39.975  36.027  38.107  1.00  0.00     0.198 A 
ATOM     83  F   UNL A   1      40.848  35.669  35.951  1.00  0.00    -0.203 F 
ATOM     84  F   UNL A   1      37.818  33.957  40.152  1.00  0.00    -0.200 F 
ATOM     85  C   UNL A   1      39.205  35.601  39.178  1.00  0.00     0.200 A 
ATOM     86  F   UNL A   1      40.589  37.217  38.154  1.00  0.00    -0.200 F 
ATOM     87  F   UNL A   1      39.051  36.390  40.250  1.00  0.00    -0.200 F 
ENDBRANCH  53  77
BRANCH  65  88
ATOM     88  C   UNL A   1      43.866  28.831  35.111  1.00  0.00     0.064 A 
ATOM     89  C   UNL A   1      43.747  27.725  35.964  1.00  0.00     0.173 A 
ATOM     90  C   UNL A   1      45.151  29.344  34.873  1.00  0.00     0.173 A 
ATOM     91  F   UNL A   1      42.540  27.207  36.234  1.00  0.00    -0.203 F 
ATOM     92  C   UNL A   1      44.869  27.172  36.577  1.00  0.00     0.198 A 
ATOM     93  C   UNL A   1      46.273  28.767  35.460  1.00  0.00     0.198 A 
ATOM     94  F   UNL A   1      45.320  30.396  34.058  1.00  0.00    -0.203 F 
ATOM     95  F   UNL A   1      44.726  26.147  37.429  1.00  0.00    -0.200 F 
ATOM     96  C   UNL A   1      46.130  27.687  36.317  1.00  0.00     0.200 A 
ATOM     97  F   UNL A   1      47.492  29.255  35.194  1.00  0.00    -0.200 F 
ATOM     98  F   UNL A   1      47.209  27.146  36.901  1.00  0.00    -0.200 F 
ENDBRANCH  65  88
ENDBRANCH  39  40
ENDBRANCH  31  34
ENDBRANCH  29  30
ENDBRANCH  28  29
ENDBRANCH   1  28
TORSDOF 13
ENDMDL
MODEL 3
REMARK VINA RESULT:     -13.2      4.496      8.303
REMARK SMILES COc1cc(C(=O)NC2(C(=O)NCCCNC(=O)c3ccc(-c4c5nc(c(-c6c(F)c(F)c(F)c(F)c6F)c6ccc([nH]6)c(-c6c(F)c(F)c(F)c(F)c6F)c6nc(c(-c7c(F)c(F)c(F)c(F)c7F)c7ccc4[nH]7)C=C6)C=C5)cc3)CCCCC2)cc2c1OCCO2
REMARK SMILES IDX 13 1 12 2 10 3 11 4 9 6 82 7 86 8 83 9 85 10 84 11 8 12 6 13
REMARK SMILES IDX 7 14 5 16 3 17 4 18 89 19 88 20 90 21 87 22 93 23 91 24
REMARK SMILES IDX 92 25 2 26 1 27 14 28 15 29 16 30 17 31 18 33 19 34 20 35
REMARK SMILES IDX 81 36 21 37 80 38 22 39 23 40 24 41 74 42 25 43 79 44 73 45
REMARK SMILES IDX 75 46 26 47 78 48 72 49 71 50 27 52 59 53 39 54 58 55 40 56
REMARK SMILES IDX 43 57 57 58 76 59 41 60 42 61 56 63 77 64 44 65 28 66 29 67
REMARK SMILES IDX 37 68 30 69 31 70 35 71 38 72 32 73 33 74 36 75 34 76 60 77
REMARK SMILES IDX 61 78 69 79 62 80 63 81 67 82 70 83 64 84 65 85 68 86 66 87
REMARK SMILES IDX 45 88 46 89 54 90 47 91 48 92 52 93 55 94 49 95 50 96 53 97
REMARK SMILES IDX 51 98
REMARK H PARENT 12 5 8 15 16 32 75 51 43 62
REMARK Flexibility Score: inf
ROOT
ATOM      1  C   UNL A   1      36.619  20.613  24.993  1.00  0.00     0.117 C 
ENDROOT
BRANCH   1   2
ATOM      2  N   UNL A   1      35.376  19.970  25.325  1.00  0.00    -0.354 N 
ATOM      3  C   UNL A   1      34.122  20.455  25.480  1.00  0.00     0.245 C 
ATOM      4  O   UNL A   1      33.295  19.588  25.805  1.00  0.00    -0.272 OA
ATOM      5  H   UNL A   1      35.452  18.999  25.463  1.00  0.00     0.163 HD
BRANCH   3   6
ATOM      6  C   UNL A   1      33.704  21.981  25.426  1.00  0.00     0.119 C 
ATOM      7  C   UNL A   1      33.862  22.784  24.119  1.00  0.00     0.038 C 
ATOM      8  C   UNL A   1      34.419  22.711  26.587  1.00  0.00     0.038 C 
ATOM      9  C   UNL A   1      35.039  23.737  23.880  1.00  0.00     0.003 C 
ATOM     10  C   UNL A   1      35.813  23.218  26.250  1.00  0.00     0.003 C 
ATOM     11  C   UNL A   1      35.806  24.205  25.098  1.00  0.00     0.000 C 
BRANCH   6  12
ATOM     12  N   UNL A   1      32.245  21.861  25.844  1.00  0.00    -0.338 N 
ATOM     13  C   UNL A   1      31.087  22.599  25.788  1.00  0.00     0.252 C 
ATOM     14  O   UNL A   1      30.028  22.038  26.072  1.00  0.00    -0.269 OA
ATOM     15  H   UNL A   1      32.083  20.996  26.288  1.00  0.00     0.164 HD
BRANCH  13  16
ATOM     16  C   UNL A   1      31.049  24.054  25.530  1.00  0.00     0.047 A 
ATOM     17  C   UNL A   1      31.048  25.899  23.991  1.00  0.00     0.165 A 
ATOM     18  C   UNL A   1      30.684  24.587  24.301  1.00  0.00     0.064 A 
ATOM     19  C   UNL A   1      31.473  26.766  24.999  1.00  0.00     0.203 A 
ATOM     20  C   UNL A   1      31.581  26.280  26.307  1.00  0.00     0.166 A 
ATOM     21  O   UNL A   1      31.740  28.071  24.667  1.00  0.00    -0.483 OA
ATOM     22  C   UNL A   1      31.442  24.917  26.562  1.00  0.00     0.064 A 
ATOM     23  O   UNL A   1      31.845  27.095  27.380  1.00  0.00    -0.486 OA
ATOM     24  C   UNL A   1      32.253  28.830  25.768  1.00  0.00     0.271 C 
ATOM     25  C   UNL A   1      31.530  28.454  27.048  1.00  0.00     0.271 C 
BRANCH  17  26
ATOM     26  O   UNL A   1      31.005  26.240  22.662  1.00  0.00    -0.493 OA
ATOM     27  C   UNL A   1      32.188  25.807  21.974  1.00  0.00     0.278 C 
ENDBRANCH  17  26
ENDBRANCH  13  16
ENDBRANCH   6  12
ENDBRANCH   3   6
ENDBRANCH   1   2
BRANCH   1  28
ATOM     28  C   UNL A   1      37.783  19.640  24.948  1.00  0.00     0.042 C 
BRANCH  28  29
ATOM     29  C   UNL A   1      39.026  20.195  25.615  1.00  0.00     0.118 C 
BRANCH  29  30
ATOM     30  N   UNL A   1      40.034  19.164  25.847  1.00  0.00    -0.352 N 
ATOM     31  C   UNL A   1      41.383  19.264  26.074  1.00  0.00     0.251 C 
ATOM     32  H   UNL A   1      39.688  18.243  25.838  1.00  0.00     0.163 HD
ATOM     33  O   UNL A   1      42.085  18.256  26.025  1.00  0.00    -0.269 OA
BRANCH  31  34
ATOM     34  C   UNL A   1      42.000  20.577  26.352  1.00  0.00     0.039 A 
ATOM     35  C   UNL A   1      42.286  21.440  25.292  1.00  0.00     0.014 A 
ATOM     36  C   UNL A   1      42.298  20.961  27.659  1.00  0.00     0.014 A 
ATOM     37  C   UNL A   1      42.792  22.715  25.556  1.00  0.00     0.010 A 
ATOM     38  C   UNL A   1      42.660  22.271  27.929  1.00  0.00     0.010 A 
ATOM     39  C   UNL A   1      42.936  23.158  26.880  1.00  0.00    -0.014 A 
BRANCH  39  40
ATOM     40  C   UNL A   1      43.413  24.526  27.204  1.00  0.00     0.031 A 
ATOM     41  C   UNL A   1      42.450  25.537  27.769  1.00  0.00     0.074 A 
ATOM     42  C   UNL A   1      44.682  24.880  26.918  1.00  0.00     0.049 A 
ATOM     43  N   UNL A   1      42.633  26.808  28.020  1.00  0.00    -0.248 NA
ATOM     44  C   UNL A   1      41.082  25.067  28.050  1.00  0.00     0.031 C 
ATOM     45  C   UNL A   1      45.690  24.008  26.310  1.00  0.00     0.029 A 
ATOM     46  N   UNL A   1      45.338  26.072  27.092  1.00  0.00    -0.354 N 
ATOM     47  C   UNL A   1      41.406  27.286  28.460  1.00  0.00     0.074 A 
ATOM     48  C   UNL A   1      40.466  26.193  28.370  1.00  0.00     0.031 C 
ATOM     49  C   UNL A   1      46.844  24.684  26.193  1.00  0.00     0.029 A 
ATOM     50  C   UNL A   1      46.646  26.048  26.673  1.00  0.00     0.049 A 
ATOM     51  H   UNL A   1      44.912  26.870  27.479  1.00  0.00     0.167 HD
ATOM     52  C   UNL A   1      41.098  28.516  28.934  1.00  0.00     0.037 A 
ATOM     53  C   UNL A   1      47.578  27.020  26.672  1.00  0.00     0.037 A 
ATOM     54  C   UNL A   1      42.049  29.586  29.061  1.00  0.00     0.049 A 
ATOM     55  C   UNL A   1      47.211  28.378  27.211  1.00  0.00     0.074 A 
ATOM     56  C   UNL A   1      41.860  30.851  29.587  1.00  0.00     0.029 A 
ATOM     57  N   UNL A   1      43.374  29.512  28.658  1.00  0.00    -0.354 N 
ATOM     58  N   UNL A   1      46.066  28.796  27.692  1.00  0.00    -0.248 NA
ATOM     59  C   UNL A   1      48.270  29.396  27.213  1.00  0.00     0.031 C 
ATOM     60  C   UNL A   1      43.058  31.559  29.457  1.00  0.00     0.029 A 
ATOM     61  C   UNL A   1      44.011  30.717  28.906  1.00  0.00     0.049 A 
ATOM     62  H   UNL A   1      43.800  28.721  28.256  1.00  0.00     0.167 HD
ATOM     63  C   UNL A   1      46.273  30.112  28.084  1.00  0.00     0.074 A 
ATOM     64  C   UNL A   1      47.661  30.415  27.799  1.00  0.00     0.031 C 
ATOM     65  C   UNL A   1      45.396  30.992  28.627  1.00  0.00     0.037 A 
BRANCH  52  66
ATOM     66  C   UNL A   1      39.679  28.762  29.365  1.00  0.00     0.064 A 
ATOM     67  C   UNL A   1      39.258  28.524  30.683  1.00  0.00     0.173 A 
ATOM     68  C   UNL A   1      38.737  29.273  28.459  1.00  0.00     0.173 A 
ATOM     69  F   UNL A   1      40.114  28.022  31.586  1.00  0.00    -0.203 F 
ATOM     70  C   UNL A   1      37.941  28.758  31.069  1.00  0.00     0.198 A 
ATOM     71  C   UNL A   1      37.430  29.539  28.858  1.00  0.00     0.198 A 
ATOM     72  F   UNL A   1      39.085  29.521  27.188  1.00  0.00    -0.203 F 
ATOM     73  F   UNL A   1      37.550  28.470  32.318  1.00  0.00    -0.200 F 
ATOM     74  C   UNL A   1      37.031  29.275  30.160  1.00  0.00     0.200 A 
ATOM     75  F   UNL A   1      36.555  30.050  27.982  1.00  0.00    -0.200 F 
ATOM     76  F   UNL A   1      35.766  29.509  30.535  1.00  0.00    -0.200 F 
ENDBRANCH  52  66
BRANCH  53  77
ATOM     77  C   UNL A   1      48.950  26.743  26.166  1.00  0.00     0.064 A 
ATOM     78  C   UNL A   1      49.313  27.069  24.852  1.00  0.00     0.173 A 
ATOM     79  C   UNL A   1      49.919  26.133  26.976  1.00  0.00     0.173 A 
ATOM     80  F   UNL A   1      48.416  27.638  24.032  1.00  0.00    -0.203 F 
ATOM     81  C   UNL A   1      50.581  26.770  24.358  1.00  0.00     0.198 A 
ATOM     82  C   UNL A   1      51.198  25.864  26.491  1.00  0.00     0.198 A 
ATOM     83  F   UNL A   1      49.629  25.808  28.244  1.00  0.00    -0.203 F 
ATOM     84  F   UNL A   1      50.881  27.042  23.080  1.00  0.00    -0.200 F 
ATOM     85  C   UNL A   1      51.523  26.172  25.179  1.00  0.00     0.200 A 
ATOM     86  F   UNL A   1      52.112  25.304  27.294  1.00  0.00    -0.200 F 
ATOM     87  F   UNL A   1      52.743  25.885  24.704  1.00  0.00    -0.200 F 
ENDBRANCH  53  77
BRANCH  65  88
ATOM     88  C   UNL A   1      45.920  32.351  28.989  1.00  0.00     0.064 A 
ATOM     89  C   UNL A   1      46.501  32.610  30.239  1.00  0.00     0.173 A 
ATOM     90  C   UNL A   1      45.881  33.396  28.053  1.00  0.00     0.173 A 
ATOM     91  F   UNL A   1      46.551  31.649  31.173  1.00  0.00    -0.203 F 
ATOM     92  C   UNL A   1      46.996  33.874  30.548  1.00  0.00     0.198 A 
ATOM     93  C   UNL A   1      46.408  34.647  28.352  1.00  0.00     0.198 A 
ATOM     94  F   UNL A   1      45.343  33.197  26.840  1.00  0.00    -0.203 F 
ATOM     95  F   UNL A   1      47.500  34.113  31.766  1.00  0.00    -0.200 F 
ATOM     96  C   UNL A   1      46.958  34.888  29.603  1.00  0.00     0.200 A 
ATOM     97  F   UNL A   1      46.385  35.621  27.432  1.00  0.00    -0.200 F 
ATOM     98  F   UNL A   1      47.445  36.101  29.899  1.00  0.00    -0.200 F 
ENDBRANCH  65  88
ENDBRANCH  39  40
ENDBRANCH  31  34
ENDBRANCH  29  30
ENDBRANCH  28  29
ENDBRANCH   1  28
TORSDOF 13
ENDMDL
