MODEL 1
REMARK VINA RESULT:     -12.0      0.000      0.000
REMARK SMILES CC[NH2+][C@@]1(C(=O)NCCCNC(=O)c2ccc(-c3c4nc(c(-c5c(F)c(F)c(F)c(F)c5F)c5ccc([nH]5)c(-c5c(F)c(F)c(F)c(F)c5F)c5nc(c(-c6c(F)c(F)c(F)c(F)c6F)c6ccc3[nH]6)C=C5)C=C4)cc2)CC[C@@H](Oc2cccc(OC)c2)C1
REMARK SMILES IDX 8 1 7 2 5 3 6 4 4 6 77 7 89 8 78 9 79 10 3 11 2 14 1 15
REMARK SMILES IDX 80 16 81 17 82 18 88 19 83 20 85 21 84 22 86 23 87 24 9 25
REMARK SMILES IDX 10 26 11 27 12 28 13 30 14 31 15 32 76 33 16 34 75 35 17 36
REMARK SMILES IDX 18 37 19 38 69 39 20 40 74 41 68 42 70 43 21 44 73 45 67 46
REMARK SMILES IDX 66 47 22 49 54 50 34 51 53 52 35 53 38 54 52 55 71 56 36 57
REMARK SMILES IDX 37 58 51 60 72 61 39 62 23 63 24 64 32 65 25 66 26 67 30 68
REMARK SMILES IDX 33 69 27 70 28 71 31 72 29 73 55 74 56 75 64 76 57 77 58 78
REMARK SMILES IDX 62 79 65 80 59 81 60 82 63 83 61 84 40 85 41 86 49 87 42 88
REMARK SMILES IDX 43 89 47 90 50 91 44 92 45 93 48 94 46 95
REMARK H PARENT 7 5 3 12 3 13 11 29 70 48 38 59
REMARK Flexibility Score: inf
ROOT
ATOM      1  C   UNL A   1      34.886  22.949  23.636  1.00  0.00     0.118 C 
ENDROOT
BRANCH   1   2
ATOM      2  N   UNL A   1      34.159  24.150  23.996  1.00  0.00    -0.351 N 
ATOM      3  C   UNL A   1      33.280  24.452  24.994  1.00  0.00     0.281 C 
ATOM      4  O   UNL A   1      32.957  25.647  25.033  1.00  0.00    -0.268 OA
ATOM      5  H   UNL A   1      34.337  24.907  23.394  1.00  0.00     0.163 HD
BRANCH   3   6
ATOM      6  C   UNL A   1      32.686  23.384  26.002  1.00  0.00     0.179 C 
ATOM      7  C   UNL A   1      33.763  22.685  26.853  1.00  0.00     0.083 C 
ATOM      8  C   UNL A   1      31.952  22.271  25.223  1.00  0.00     0.124 C 
ATOM      9  C   UNL A   1      33.690  21.187  26.590  1.00  0.00     0.052 C 
ATOM     10  C   UNL A   1      32.752  20.981  25.402  1.00  0.00     0.180 C 
BRANCH   6  11
ATOM     11  N   UNL A   1      31.646  24.059  26.840  1.00  0.00    -0.334 N 
ATOM     12  H   UNL A   1      31.736  23.708  27.793  1.00  0.00     0.347 HD
ATOM     13  H   UNL A   1      31.822  25.059  26.748  1.00  0.00     0.347 HD
BRANCH  11  14
ATOM     14  C   UNL A   1      30.260  23.860  26.418  1.00  0.00     0.257 C 
ATOM     15  C   UNL A   1      29.577  22.840  27.317  1.00  0.00     0.071 C 
ENDBRANCH  11  14
ENDBRANCH   6  11
BRANCH  10  16
ATOM     16  O   UNL A   1      31.977  19.771  25.372  1.00  0.00    -0.490 OA
BRANCH  16  17
ATOM     17  C   UNL A   1      32.524  18.746  24.653  1.00  0.00     0.123 A 
ATOM     18  C   UNL A   1      32.461  18.781  23.261  1.00  0.00     0.047 A 
ATOM     19  C   UNL A   1      33.087  17.653  25.308  1.00  0.00     0.092 A 
ATOM     20  C   UNL A   1      33.065  17.768  22.520  1.00  0.00     0.008 A 
ATOM     21  C   UNL A   1      33.731  16.660  24.574  1.00  0.00     0.122 A 
ATOM     22  C   UNL A   1      33.711  16.718  23.178  1.00  0.00     0.046 A 
BRANCH  21  23
ATOM     23  O   UNL A   1      34.398  15.593  25.111  1.00  0.00    -0.497 OA
ATOM     24  C   UNL A   1      35.747  15.839  25.502  1.00  0.00     0.278 C 
ENDBRANCH  21  23
ENDBRANCH  16  17
ENDBRANCH  10  16
ENDBRANCH   3   6
ENDBRANCH   1   2
BRANCH   1  25
ATOM     25  C   UNL A   1      36.397  23.159  23.577  1.00  0.00     0.042 C 
BRANCH  25  26
ATOM     26  C   UNL A   1      37.018  23.633  24.885  1.00  0.00     0.118 C 
BRANCH  26  27
ATOM     27  N   UNL A   1      37.952  22.658  25.428  1.00  0.00    -0.352 N 
ATOM     28  C   UNL A   1      39.104  22.812  26.158  1.00  0.00     0.251 C 
ATOM     29  H   UNL A   1      37.716  21.722  25.240  1.00  0.00     0.163 HD
ATOM     30  O   UNL A   1      39.848  21.843  26.289  1.00  0.00    -0.269 OA
BRANCH  28  31
ATOM     31  C   UNL A   1      39.471  24.102  26.790  1.00  0.00     0.039 A 
ATOM     32  C   UNL A   1      40.143  25.051  26.009  1.00  0.00     0.014 A 
ATOM     33  C   UNL A   1      39.258  24.358  28.147  1.00  0.00     0.014 A 
ATOM     34  C   UNL A   1      40.568  26.255  26.577  1.00  0.00     0.010 A 
ATOM     35  C   UNL A   1      39.606  25.594  28.693  1.00  0.00     0.010 A 
ATOM     36  C   UNL A   1      40.285  26.545  27.921  1.00  0.00    -0.014 A 
BRANCH  36  37
ATOM     37  C   UNL A   1      40.721  27.831  28.524  1.00  0.00     0.031 A 
ATOM     38  C   UNL A   1      42.171  28.080  28.832  1.00  0.00     0.074 A 
ATOM     39  C   UNL A   1      39.800  28.769  28.814  1.00  0.00     0.049 A 
ATOM     40  N   UNL A   1      42.741  29.150  29.331  1.00  0.00    -0.248 NA
ATOM     41  C   UNL A   1      43.103  26.973  28.573  1.00  0.00     0.031 C 
ATOM     42  C   UNL A   1      38.357  28.621  28.619  1.00  0.00     0.029 A 
ATOM     43  N   UNL A   1      39.940  30.032  29.327  1.00  0.00    -0.354 N 
ATOM     44  C   UNL A   1      44.088  28.838  29.458  1.00  0.00     0.074 A 
ATOM     45  C   UNL A   1      44.244  27.463  29.037  1.00  0.00     0.031 C 
ATOM     46  C   UNL A   1      37.748  29.767  28.965  1.00  0.00     0.029 A 
ATOM     47  C   UNL A   1      38.755  30.718  29.427  1.00  0.00     0.049 A 
ATOM     48  H   UNL A   1      40.808  30.412  29.598  1.00  0.00     0.167 HD
ATOM     49  C   UNL A   1      45.108  29.633  29.863  1.00  0.00     0.037 A 
ATOM     50  C   UNL A   1      38.512  31.980  29.827  1.00  0.00     0.037 A 
ATOM     51  C   UNL A   1      44.955  31.010  30.255  1.00  0.00     0.049 A 
ATOM     52  C   UNL A   1      39.662  32.856  30.235  1.00  0.00     0.074 A 
ATOM     53  C   UNL A   1      45.930  31.921  30.625  1.00  0.00     0.029 A 
ATOM     54  N   UNL A   1      43.739  31.676  30.329  1.00  0.00    -0.354 N 
ATOM     55  N   UNL A   1      40.941  32.573  30.282  1.00  0.00    -0.248 NA
ATOM     56  C   UNL A   1      39.334  34.230  30.634  1.00  0.00     0.031 C 
ATOM     57  C   UNL A   1      45.300  33.127  30.954  1.00  0.00     0.029 A 
ATOM     58  C   UNL A   1      43.937  32.980  30.751  1.00  0.00     0.049 A 
ATOM     59  H   UNL A   1      42.864  31.279  30.112  1.00  0.00     0.167 HD
ATOM     60  C   UNL A   1      41.573  33.736  30.698  1.00  0.00     0.074 A 
ATOM     61  C   UNL A   1      40.537  34.735  30.867  1.00  0.00     0.031 C 
ATOM     62  C   UNL A   1      42.892  33.957  30.923  1.00  0.00     0.037 A 
BRANCH  49  63
ATOM     63  C   UNL A   1      46.482  29.026  29.895  1.00  0.00     0.064 A 
ATOM     64  C   UNL A   1      47.324  29.052  28.772  1.00  0.00     0.173 A 
ATOM     65  C   UNL A   1      46.967  28.416  31.062  1.00  0.00     0.173 A 
ATOM     66  F   UNL A   1      46.904  29.611  27.627  1.00  0.00    -0.203 F 
ATOM     67  C   UNL A   1      48.583  28.457  28.804  1.00  0.00     0.198 A 
ATOM     68  C   UNL A   1      48.238  27.848  31.099  1.00  0.00     0.198 A 
ATOM     69  F   UNL A   1      46.207  28.368  32.167  1.00  0.00    -0.203 F 
ATOM     70  F   UNL A   1      49.343  28.442  27.700  1.00  0.00    -0.200 F 
ATOM     71  C   UNL A   1      49.040  27.859  29.968  1.00  0.00     0.200 A 
ATOM     72  F   UNL A   1      48.684  27.280  32.228  1.00  0.00    -0.200 F 
ATOM     73  F   UNL A   1      50.251  27.284  29.997  1.00  0.00    -0.200 F 
ENDBRANCH  49  63
BRANCH  50  74
ATOM     74  C   UNL A   1      37.123  32.506  29.791  1.00  0.00     0.064 A 
ATOM     75  C   UNL A   1      36.652  33.199  28.668  1.00  0.00     0.173 A 
ATOM     76  C   UNL A   1      36.237  32.306  30.858  1.00  0.00     0.173 A 
ATOM     77  F   UNL A   1      37.470  33.429  27.632  1.00  0.00    -0.203 F 
ATOM     78  C   UNL A   1      35.346  33.682  28.618  1.00  0.00     0.198 A 
ATOM     79  C   UNL A   1      34.925  32.769  30.797  1.00  0.00     0.198 A 
ATOM     80  F   UNL A   1      36.640  31.643  31.952  1.00  0.00    -0.203 F 
ATOM     81  F   UNL A   1      34.929  34.368  27.545  1.00  0.00    -0.200 F 
ATOM     82  C   UNL A   1      34.482  33.461  29.680  1.00  0.00     0.200 A 
ATOM     83  F   UNL A   1      34.088  32.543  31.819  1.00  0.00    -0.200 F 
ATOM     84  F   UNL A   1      33.223  33.918  29.626  1.00  0.00    -0.200 F 
ENDBRANCH  50  74
BRANCH  62  85
ATOM     85  C   UNL A   1      43.280  35.336  31.366  1.00  0.00     0.064 A 
ATOM     86  C   UNL A   1      43.676  36.318  30.445  1.00  0.00     0.173 A 
ATOM     87  C   UNL A   1      43.252  35.683  32.725  1.00  0.00     0.173 A 
ATOM     88  F   UNL A   1      43.735  36.030  29.137  1.00  0.00    -0.203 F 
ATOM     89  C   UNL A   1      44.062  37.585  30.872  1.00  0.00     0.198 A 
ATOM     90  C   UNL A   1      43.612  36.959  33.146  1.00  0.00     0.198 A 
ATOM     91  F   UNL A   1      42.876  34.781  33.645  1.00  0.00    -0.203 F 
ATOM     92  F   UNL A   1      44.490  38.489  29.980  1.00  0.00    -0.200 F 
ATOM     93  C   UNL A   1      44.027  37.906  32.221  1.00  0.00     0.200 A 
ATOM     94  F   UNL A   1      43.568  37.271  34.449  1.00  0.00    -0.200 F 
ATOM     95  F   UNL A   1      44.402  39.125  32.630  1.00  0.00    -0.200 F 
ENDBRANCH  62  85
ENDBRANCH  36  37
ENDBRANCH  28  31
ENDBRANCH  26  27
ENDBRANCH  25  26
ENDBRANCH   1  25
TORSDOF 15
ENDMDL
MODEL 2
REMARK VINA RESULT:     -12.0      2.163      3.095
REMARK SMILES CC[NH2+][C@@]1(C(=O)NCCCNC(=O)c2ccc(-c3c4nc(c(-c5c(F)c(F)c(F)c(F)c5F)c5ccc([nH]5)c(-c5c(F)c(F)c(F)c(F)c5F)c5nc(c(-c6c(F)c(F)c(F)c(F)c6F)c6ccc3[nH]6)C=C5)C=C4)cc2)CC[C@@H](Oc2cccc(OC)c2)C1
REMARK SMILES IDX 8 1 7 2 5 3 6 4 4 6 77 7 89 8 78 9 79 10 3 11 2 14 1 15
REMARK SMILES IDX 80 16 81 17 82 18 88 19 83 20 85 21 84 22 86 23 87 24 9 25
REMARK SMILES IDX 10 26 11 27 12 28 13 30 14 31 15 32 76 33 16 34 75 35 17 36
REMARK SMILES IDX 18 37 19 38 69 39 20 40 74 41 68 42 70 43 21 44 73 45 67 46
REMARK SMILES IDX 66 47 22 49 54 50 34 51 53 52 35 53 38 54 52 55 71 56 36 57
REMARK SMILES IDX 37 58 51 60 72 61 39 62 23 63 24 64 32 65 25 66 26 67 30 68
REMARK SMILES IDX 33 69 27 70 28 71 31 72 29 73 55 74 56 75 64 76 57 77 58 78
REMARK SMILES IDX 62 79 65 80 59 81 60 82 63 83 61 84 40 85 41 86 49 87 42 88
REMARK SMILES IDX 43 89 47 90 50 91 44 92 45 93 48 94 46 95
REMARK H PARENT 7 5 3 12 3 13 11 29 70 48 38 59
REMARK Flexibility Score: inf
ROOT
ATOM      1  C   UNL A   1      35.122  22.704  23.815  1.00  0.00     0.118 C 
ENDROOT
BRANCH   1   2
ATOM      2  N   UNL A   1      34.696  23.997  24.314  1.00  0.00    -0.351 N 
ATOM      3  C   UNL A   1      33.882  24.388  25.335  1.00  0.00     0.281 C 
ATOM      4  O   UNL A   1      33.858  25.613  25.517  1.00  0.00    -0.268 OA
ATOM      5  H   UNL A   1      35.074  24.752  23.808  1.00  0.00     0.163 HD
BRANCH   3   6
ATOM      6  C   UNL A   1      33.012  23.390  26.204  1.00  0.00     0.179 C 
ATOM      7  C   UNL A   1      33.845  22.568  27.206  1.00  0.00     0.083 C 
ATOM      8  C   UNL A   1      32.301  22.371  25.286  1.00  0.00     0.124 C 
ATOM      9  C   UNL A   1      33.651  21.089  26.897  1.00  0.00     0.052 C 
ATOM     10  C   UNL A   1      32.911  20.997  25.565  1.00  0.00     0.180 C 
BRANCH   6  11
ATOM     11  N   UNL A   1      31.927  24.174  26.873  1.00  0.00    -0.334 N 
ATOM     12  H   UNL A   1      31.799  23.794  27.810  1.00  0.00     0.347 HD
ATOM     13  H   UNL A   1      32.238  25.145  26.858  1.00  0.00     0.347 HD
BRANCH  11  14
ATOM     14  C   UNL A   1      30.627  24.163  26.203  1.00  0.00     0.257 C 
ATOM     15  C   UNL A   1      30.268  25.562  25.727  1.00  0.00     0.071 C 
ENDBRANCH  11  14
ENDBRANCH   6  11
BRANCH  10  16
ATOM     16  O   UNL A   1      32.022  19.883  25.377  1.00  0.00    -0.490 OA
BRANCH  16  17
ATOM     17  C   UNL A   1      32.529  18.852  24.639  1.00  0.00     0.123 A 
ATOM     18  C   UNL A   1      32.451  18.906  23.249  1.00  0.00     0.047 A 
ATOM     19  C   UNL A   1      33.066  17.734  25.274  1.00  0.00     0.092 A 
ATOM     20  C   UNL A   1      33.016  17.884  22.489  1.00  0.00     0.008 A 
ATOM     21  C   UNL A   1      33.670  16.731  24.521  1.00  0.00     0.122 A 
ATOM     22  C   UNL A   1      33.637  16.807  23.126  1.00  0.00     0.046 A 
BRANCH  21  23
ATOM     23  O   UNL A   1      34.311  15.638  25.038  1.00  0.00    -0.497 OA
ATOM     24  C   UNL A   1      35.683  15.826  25.376  1.00  0.00     0.278 C 
ENDBRANCH  21  23
ENDBRANCH  16  17
ENDBRANCH  10  16
ENDBRANCH   3   6
ENDBRANCH   1   2
BRANCH   1  25
ATOM     25  C   UNL A   1      36.588  22.402  24.111  1.00  0.00     0.042 C 
BRANCH  25  26
ATOM     26  C   UNL A   1      36.931  22.337  25.593  1.00  0.00     0.118 C 
BRANCH  26  27
ATOM     27  N   UNL A   1      37.917  21.306  25.879  1.00  0.00    -0.352 N 
ATOM     28  C   UNL A   1      39.243  21.387  26.225  1.00  0.00     0.251 C 
ATOM     29  H   UNL A   1      37.573  20.387  25.814  1.00  0.00     0.163 HD
ATOM     30  O   UNL A   1      39.925  20.367  26.174  1.00  0.00    -0.269 OA
BRANCH  28  31
ATOM     31  C   UNL A   1      39.869  22.659  26.658  1.00  0.00     0.039 A 
ATOM     32  C   UNL A   1      39.481  23.839  26.010  1.00  0.00     0.014 A 
ATOM     33  C   UNL A   1      40.890  22.705  27.611  1.00  0.00     0.014 A 
ATOM     34  C   UNL A   1      40.090  25.053  26.337  1.00  0.00     0.010 A 
ATOM     35  C   UNL A   1      41.437  23.929  27.998  1.00  0.00     0.010 A 
ATOM     36  C   UNL A   1      41.060  25.112  27.349  1.00  0.00    -0.014 A 
BRANCH  36  37
ATOM     37  C   UNL A   1      41.697  26.403  27.712  1.00  0.00     0.031 A 
ATOM     38  C   UNL A   1      43.099  26.717  27.268  1.00  0.00     0.074 A 
ATOM     39  C   UNL A   1      41.015  27.288  28.463  1.00  0.00     0.049 A 
ATOM     40  N   UNL A   1      43.808  27.803  27.463  1.00  0.00    -0.248 NA
ATOM     41  C   UNL A   1      43.812  25.664  26.530  1.00  0.00     0.031 C 
ATOM     42  C   UNL A   1      39.673  27.074  29.006  1.00  0.00     0.029 A 
ATOM     43  N   UNL A   1      41.353  28.545  28.893  1.00  0.00    -0.354 N 
ATOM     44  C   UNL A   1      45.047  27.555  26.888  1.00  0.00     0.074 A 
ATOM     45  C   UNL A   1      45.016  26.199  26.386  1.00  0.00     0.031 C 
ATOM     46  C   UNL A   1      39.283  28.180  29.659  1.00  0.00     0.029 A 
ATOM     47  C   UNL A   1      40.355  29.169  29.600  1.00  0.00     0.049 A 
ATOM     48  H   UNL A   1      42.227  28.962  28.713  1.00  0.00     0.167 HD
ATOM     49  C   UNL A   1      46.107  28.391  26.766  1.00  0.00     0.037 A 
ATOM     50  C   UNL A   1      40.304  30.408  30.123  1.00  0.00     0.037 A 
ATOM     51  C   UNL A   1      46.127  29.749  27.243  1.00  0.00     0.049 A 
ATOM     52  C   UNL A   1      41.476  31.331  29.943  1.00  0.00     0.074 A 
ATOM     53  C   UNL A   1      47.127  30.698  27.118  1.00  0.00     0.029 A 
ATOM     54  N   UNL A   1      45.090  30.352  27.941  1.00  0.00    -0.354 N 
ATOM     55  N   UNL A   1      42.615  31.111  29.334  1.00  0.00    -0.248 NA
ATOM     56  C   UNL A   1      41.347  32.678  30.512  1.00  0.00     0.031 C 
ATOM     57  C   UNL A   1      46.707  31.865  27.770  1.00  0.00     0.029 A 
ATOM     58  C   UNL A   1      45.431  31.655  28.266  1.00  0.00     0.049 A 
ATOM     59  H   UNL A   1      44.237  29.918  28.172  1.00  0.00     0.167 HD
ATOM     60  C   UNL A   1      43.333  32.293  29.431  1.00  0.00     0.074 A 
ATOM     61  C   UNL A   1      42.489  33.236  30.137  1.00  0.00     0.031 C 
ATOM     62  C   UNL A   1      44.581  32.575  28.978  1.00  0.00     0.037 A 
BRANCH  49  63
ATOM     63  C   UNL A   1      47.332  27.852  26.083  1.00  0.00     0.064 A 
ATOM     64  C   UNL A   1      48.422  27.352  26.813  1.00  0.00     0.173 A 
ATOM     65  C   UNL A   1      47.417  27.829  24.682  1.00  0.00     0.173 A 
ATOM     66  F   UNL A   1      48.396  27.363  28.155  1.00  0.00    -0.203 F 
ATOM     67  C   UNL A   1      49.565  26.885  26.169  1.00  0.00     0.198 A 
ATOM     68  C   UNL A   1      48.551  27.334  24.041  1.00  0.00     0.198 A 
ATOM     69  F   UNL A   1      46.403  28.289  23.934  1.00  0.00    -0.203 F 
ATOM     70  F   UNL A   1      50.615  26.469  26.890  1.00  0.00    -0.200 F 
ATOM     71  C   UNL A   1      49.627  26.873  24.784  1.00  0.00     0.200 A 
ATOM     72  F   UNL A   1      48.606  27.313  22.702  1.00  0.00    -0.200 F 
ATOM     73  F   UNL A   1      50.729  26.427  24.165  1.00  0.00    -0.200 F 
ENDBRANCH  49  63
BRANCH  50  74
ATOM     74  C   UNL A   1      39.067  30.865  30.807  1.00  0.00     0.064 A 
ATOM     75  C   UNL A   1      38.015  31.430  30.075  1.00  0.00     0.173 A 
ATOM     76  C   UNL A   1      38.901  30.724  32.192  1.00  0.00     0.173 A 
ATOM     77  F   UNL A   1      38.137  31.600  28.751  1.00  0.00    -0.203 F 
ATOM     78  C   UNL A   1      36.844  31.846  30.704  1.00  0.00     0.198 A 
ATOM     79  C   UNL A   1      37.721  31.120  32.816  1.00  0.00     0.198 A 
ATOM     80  F   UNL A   1      39.878  30.183  32.934  1.00  0.00    -0.203 F 
ATOM     81  F   UNL A   1      35.865  32.412  29.985  1.00  0.00    -0.200 F 
ATOM     82  C   UNL A   1      36.696  31.686  32.073  1.00  0.00     0.200 A 
ATOM     83  F   UNL A   1      37.574  30.951  34.138  1.00  0.00    -0.200 F 
ATOM     84  F   UNL A   1      35.565  32.078  32.676  1.00  0.00    -0.200 F 
ENDBRANCH  50  74
BRANCH  62  85
ATOM     85  C   UNL A   1      45.094  33.961  29.230  1.00  0.00     0.064 A 
ATOM     86  C   UNL A   1      44.877  35.001  28.313  1.00  0.00     0.173 A 
ATOM     87  C   UNL A   1      45.807  34.256  30.402  1.00  0.00     0.173 A 
ATOM     88  F   UNL A   1      44.215  34.765  27.171  1.00  0.00    -0.203 F 
ATOM     89  C   UNL A   1      45.384  36.276  28.545  1.00  0.00     0.198 A 
ATOM     90  C   UNL A   1      46.289  35.539  30.643  1.00  0.00     0.198 A 
ATOM     91  F   UNL A   1      46.037  33.297  31.313  1.00  0.00    -0.203 F 
ATOM     92  F   UNL A   1      45.213  37.240  27.629  1.00  0.00    -0.200 F 
ATOM     93  C   UNL A   1      46.086  36.545  29.710  1.00  0.00     0.200 A 
ATOM     94  F   UNL A   1      46.959  35.800  31.774  1.00  0.00    -0.200 F 
ATOM     95  F   UNL A   1      46.578  37.772  29.929  1.00  0.00    -0.200 F 
ENDBRANCH  62  85
ENDBRANCH  36  37
ENDBRANCH  28  31
ENDBRANCH  26  27
ENDBRANCH  25  26
ENDBRANCH   1  25
TORSDOF 15
ENDMDL
MODEL 3
REMARK VINA RESULT:     -11.9      4.122      8.760
REMARK SMILES CC[NH2+][C@@]1(C(=O)NCCCNC(=O)c2ccc(-c3c4nc(c(-c5c(F)c(F)c(F)c(F)c5F)c5ccc([nH]5)c(-c5c(F)c(F)c(F)c(F)c5F)c5nc(c(-c6c(F)c(F)c(F)c(F)c6F)c6ccc3[nH]6)C=C5)C=C4)cc2)CC[C@@H](Oc2cccc(OC)c2)C1
REMARK SMILES IDX 8 1 7 2 5 3 6 4 4 6 77 7 89 8 78 9 79 10 3 11 2 14 1 15
REMARK SMILES IDX 80 16 81 17 82 18 88 19 83 20 85 21 84 22 86 23 87 24 9 25
REMARK SMILES IDX 10 26 11 27 12 28 13 30 14 31 15 32 76 33 16 34 75 35 17 36
REMARK SMILES IDX 18 37 19 38 69 39 20 40 74 41 68 42 70 43 21 44 73 45 67 46
REMARK SMILES IDX 66 47 22 49 54 50 34 51 53 52 35 53 38 54 52 55 71 56 36 57
REMARK SMILES IDX 37 58 51 60 72 61 39 62 23 63 24 64 32 65 25 66 26 67 30 68
REMARK SMILES IDX 33 69 27 70 28 71 31 72 29 73 55 74 56 75 64 76 57 77 58 78
REMARK SMILES IDX 62 79 65 80 59 81 60 82 63 83 61 84 40 85 41 86 49 87 42 88
REMARK SMILES IDX 43 89 47 90 50 91 44 92 45 93 48 94 46 95
REMARK H PARENT 7 5 3 12 3 13 11 29 70 48 38 59
REMARK Flexibility Score: inf
ROOT
ATOM      1  C   UNL A   1      32.220  28.187  23.162  1.00  0.00     0.118 C 
ENDROOT
BRANCH   1   2
ATOM      2  N   UNL A   1      32.761  27.483  22.016  1.00  0.00    -0.351 N 
ATOM      3  C   UNL A   1      32.838  26.166  21.673  1.00  0.00     0.281 C 
ATOM      4  O   UNL A   1      33.281  25.970  20.533  1.00  0.00    -0.268 OA
ATOM      5  H   UNL A   1      33.157  28.083  21.344  1.00  0.00     0.163 HD
BRANCH   3   6
ATOM      6  C   UNL A   1      32.434  24.976  22.637  1.00  0.00     0.179 C 
ATOM      7  C   UNL A   1      30.973  25.051  23.120  1.00  0.00     0.083 C 
ATOM      8  C   UNL A   1      33.316  25.000  23.906  1.00  0.00     0.124 C 
ATOM      9  C   UNL A   1      30.969  25.128  24.640  1.00  0.00     0.052 C 
ATOM     10  C   UNL A   1      32.411  25.353  25.086  1.00  0.00     0.180 C 
BRANCH   6  11
ATOM     11  N   UNL A   1      32.740  23.686  21.943  1.00  0.00    -0.334 N 
ATOM     12  H   UNL A   1      31.899  23.390  21.448  1.00  0.00     0.347 HD
ATOM     13  H   UNL A   1      33.533  23.882  21.333  1.00  0.00     0.347 HD
BRANCH  11  14
ATOM     14  C   UNL A   1      33.165  22.583  22.805  1.00  0.00     0.257 C 
ATOM     15  C   UNL A   1      32.153  21.450  22.747  1.00  0.00     0.071 C 
ENDBRANCH  11  14
ENDBRANCH   6  11
BRANCH  10  16
ATOM     16  O   UNL A   1      32.810  24.795  26.350  1.00  0.00    -0.490 OA
BRANCH  16  17
ATOM     17  C   UNL A   1      33.425  23.578  26.281  1.00  0.00     0.123 A 
ATOM     18  C   UNL A   1      32.659  22.420  26.401  1.00  0.00     0.047 A 
ATOM     19  C   UNL A   1      34.810  23.499  26.150  1.00  0.00     0.092 A 
ATOM     20  C   UNL A   1      33.271  21.175  26.276  1.00  0.00     0.008 A 
ATOM     21  C   UNL A   1      35.421  22.259  25.981  1.00  0.00     0.122 A 
ATOM     22  C   UNL A   1      34.648  21.098  26.052  1.00  0.00     0.046 A 
BRANCH  21  23
ATOM     23  O   UNL A   1      36.756  22.067  25.749  1.00  0.00    -0.497 OA
ATOM     24  C   UNL A   1      37.486  23.219  25.336  1.00  0.00     0.278 C 
ENDBRANCH  21  23
ENDBRANCH  16  17
ENDBRANCH  10  16
ENDBRANCH   3   6
ENDBRANCH   1   2
BRANCH   1  25
ATOM     25  C   UNL A   1      33.264  29.015  23.905  1.00  0.00     0.042 C 
BRANCH  25  26
ATOM     26  C   UNL A   1      33.049  29.096  25.410  1.00  0.00     0.118 C 
BRANCH  26  27
ATOM     27  N   UNL A   1      32.711  30.445  25.840  1.00  0.00    -0.352 N 
ATOM     28  C   UNL A   1      33.229  31.240  26.831  1.00  0.00     0.251 C 
ATOM     29  H   UNL A   1      31.981  30.862  25.328  1.00  0.00     0.163 HD
ATOM     30  O   UNL A   1      32.608  32.248  27.158  1.00  0.00    -0.269 OA
BRANCH  28  31
ATOM     31  C   UNL A   1      34.507  30.921  27.511  1.00  0.00     0.039 A 
ATOM     32  C   UNL A   1      34.687  29.621  28.001  1.00  0.00     0.014 A 
ATOM     33  C   UNL A   1      35.483  31.888  27.762  1.00  0.00     0.014 A 
ATOM     34  C   UNL A   1      35.847  29.290  28.706  1.00  0.00     0.010 A 
ATOM     35  C   UNL A   1      36.678  31.536  28.392  1.00  0.00     0.010 A 
ATOM     36  C   UNL A   1      36.862  30.240  28.890  1.00  0.00    -0.014 A 
BRANCH  36  37
ATOM     37  C   UNL A   1      38.103  29.887  29.625  1.00  0.00     0.031 A 
ATOM     38  C   UNL A   1      38.341  30.400  31.018  1.00  0.00     0.074 A 
ATOM     39  C   UNL A   1      39.030  29.118  29.024  1.00  0.00     0.049 A 
ATOM     40  N   UNL A   1      39.350  30.174  31.825  1.00  0.00    -0.248 NA
ATOM     41  C   UNL A   1      37.327  31.309  31.572  1.00  0.00     0.031 C 
ATOM     42  C   UNL A   1      38.944  28.611  27.653  1.00  0.00     0.029 A 
ATOM     43  N   UNL A   1      40.222  28.624  29.488  1.00  0.00    -0.354 N 
ATOM     44  C   UNL A   1      39.097  30.922  32.967  1.00  0.00     0.074 A 
ATOM     45  C   UNL A   1      37.871  31.652  32.731  1.00  0.00     0.031 C 
ATOM     46  C   UNL A   1      40.014  27.839  27.403  1.00  0.00     0.029 A 
ATOM     47  C   UNL A   1      40.870  27.818  28.585  1.00  0.00     0.049 A 
ATOM     48  H   UNL A   1      40.579  28.827  30.383  1.00  0.00     0.167 HD
ATOM     49  C   UNL A   1      39.808  30.975  34.120  1.00  0.00     0.037 A 
ATOM     50  C   UNL A   1      42.016  27.123  28.706  1.00  0.00     0.037 A 
ATOM     51  C   UNL A   1      41.014  30.227  34.363  1.00  0.00     0.049 A 
ATOM     52  C   UNL A   1      42.768  27.167  30.006  1.00  0.00     0.074 A 
ATOM     53  C   UNL A   1      41.778  30.163  35.516  1.00  0.00     0.029 A 
ATOM     54  N   UNL A   1      41.633  29.408  33.429  1.00  0.00    -0.354 N 
ATOM     55  N   UNL A   1      42.482  27.821  31.105  1.00  0.00    -0.248 NA
ATOM     56  C   UNL A   1      43.996  26.365  30.084  1.00  0.00     0.031 C 
ATOM     57  C   UNL A   1      42.877  29.332  35.267  1.00  0.00     0.029 A 
ATOM     58  C   UNL A   1      42.776  28.846  33.974  1.00  0.00     0.049 A 
ATOM     59  H   UNL A   1      41.307  29.248  32.514  1.00  0.00     0.167 HD
ATOM     60  C   UNL A   1      43.481  27.498  32.011  1.00  0.00     0.074 A 
ATOM     61  C   UNL A   1      44.369  26.570  31.339  1.00  0.00     0.031 C 
ATOM     62  C   UNL A   1      43.652  27.932  33.285  1.00  0.00     0.037 A 
BRANCH  49  63
ATOM     63  C   UNL A   1      39.290  31.875  35.206  1.00  0.00     0.064 A 
ATOM     64  C   UNL A   1      38.494  31.382  36.252  1.00  0.00     0.173 A 
ATOM     65  C   UNL A   1      39.597  33.244  35.206  1.00  0.00     0.173 A 
ATOM     66  F   UNL A   1      38.161  30.083  36.291  1.00  0.00    -0.203 F 
ATOM     67  C   UNL A   1      37.993  32.232  37.234  1.00  0.00     0.198 A 
ATOM     68  C   UNL A   1      39.118  34.086  36.207  1.00  0.00     0.198 A 
ATOM     69  F   UNL A   1      40.358  33.769  34.234  1.00  0.00    -0.203 F 
ATOM     70  F   UNL A   1      37.185  31.748  38.188  1.00  0.00    -0.200 F 
ATOM     71  C   UNL A   1      38.307  33.582  37.214  1.00  0.00     0.200 A 
ATOM     72  F   UNL A   1      39.431  35.389  36.192  1.00  0.00    -0.200 F 
ATOM     73  F   UNL A   1      37.822  34.399  38.158  1.00  0.00    -0.200 F 
ENDBRANCH  49  63
BRANCH  50  74
ATOM     74  C   UNL A   1      42.480  26.273  27.581  1.00  0.00     0.064 A 
ATOM     75  C   UNL A   1      43.420  26.758  26.662  1.00  0.00     0.173 A 
ATOM     76  C   UNL A   1      42.019  24.960  27.415  1.00  0.00     0.173 A 
ATOM     77  F   UNL A   1      43.876  28.014  26.771  1.00  0.00    -0.203 F 
ATOM     78  C   UNL A   1      43.875  25.964  25.612  1.00  0.00     0.198 A 
ATOM     79  C   UNL A   1      42.492  24.159  26.379  1.00  0.00     0.198 A 
ATOM     80  F   UNL A   1      41.124  24.449  28.273  1.00  0.00    -0.203 F 
ATOM     81  F   UNL A   1      44.751  26.462  24.728  1.00  0.00    -0.200 F 
ATOM     82  C   UNL A   1      43.415  24.663  25.475  1.00  0.00     0.200 A 
ATOM     83  F   UNL A   1      42.056  22.897  26.256  1.00  0.00    -0.200 F 
ATOM     84  F   UNL A   1      43.861  23.896  24.470  1.00  0.00    -0.200 F 
ENDBRANCH  50  74
BRANCH  62  85
ATOM     85  C   UNL A   1      44.839  27.396  34.029  1.00  0.00     0.064 A 
ATOM     86  C   UNL A   1      44.764  26.206  34.768  1.00  0.00     0.173 A 
ATOM     87  C   UNL A   1      46.066  28.076  33.998  1.00  0.00     0.173 A 
ATOM     88  F   UNL A   1      43.609  25.529  34.841  1.00  0.00    -0.203 F 
ATOM     89  C   UNL A   1      45.865  25.735  35.478  1.00  0.00     0.198 A 
ATOM     90  C   UNL A   1      47.172  27.587  34.686  1.00  0.00     0.198 A 
ATOM     91  F   UNL A   1      46.190  29.216  33.301  1.00  0.00    -0.203 F 
ATOM     92  F   UNL A   1      45.755  24.627  36.223  1.00  0.00    -0.200 F 
ATOM     93  C   UNL A   1      47.069  26.423  35.434  1.00  0.00     0.200 A 
ATOM     94  F   UNL A   1      48.337  28.248  34.635  1.00  0.00    -0.200 F 
ATOM     95  F   UNL A   1      48.126  25.971  36.121  1.00  0.00    -0.200 F 
ENDBRANCH  62  85
ENDBRANCH  36  37
ENDBRANCH  28  31
ENDBRANCH  26  27
ENDBRANCH  25  26
ENDBRANCH   1  25
TORSDOF 15
ENDMDL
