MODEL 1
REMARK VINA RESULT:     -11.6      0.000      0.000
REMARK SMILES CC(C)COc1ccc(CC(=O)NCCCNC(=O)c2ccc(-c3c4nc(c(-c5c(F)c(F)c(F)c(F)c5F)c5ccc([nH]5)c(-c5c(F)c(F)c(F)c(F)c5F)c5nc(c(-c6c(F)c(F)c(F)c(F)c6F)c6ccc3[nH]6)C=C5)C=C4)cc2)cc1
REMARK SMILES IDX 14 1 13 2 11 3 12 4 10 6 9 7 6 8 7 9 84 10 8 11 83 12 5 13
REMARK SMILES IDX 4 14 2 15 1 16 3 17 15 18 16 19 17 20 18 21 19 23 20 24
REMARK SMILES IDX 21 25 82 26 22 27 81 28 23 29 24 30 25 31 75 32 26 33 80 34
REMARK SMILES IDX 74 35 76 36 27 37 79 38 73 39 72 40 28 42 60 43 40 44 59 45
REMARK SMILES IDX 41 46 44 47 58 48 77 49 42 50 43 51 57 53 78 54 45 55 29 56
REMARK SMILES IDX 30 57 38 58 31 59 32 60 36 61 39 62 33 63 34 64 37 65 35 66
REMARK SMILES IDX 61 67 62 68 70 69 63 70 64 71 68 72 71 73 65 74 66 75 69 76
REMARK SMILES IDX 67 77 46 78 47 79 55 80 48 81 49 82 53 83 56 84 50 85 51 86
REMARK SMILES IDX 54 87 52 88
REMARK H PARENT 13 5 17 22 76 41 44 52
REMARK Flexibility Score: inf
ROOT
ATOM      1  C   UNL A   1      31.765  30.572  26.082  1.00  0.00     0.117 C 
ENDROOT
BRANCH   1   2
ATOM      2  N   UNL A   1      31.801  29.660  27.209  1.00  0.00    -0.356 N 
ATOM      3  C   UNL A   1      31.599  28.310  27.258  1.00  0.00     0.224 C 
ATOM      4  O   UNL A   1      31.633  27.766  28.364  1.00  0.00    -0.275 OA
ATOM      5  H   UNL A   1      32.001  30.081  28.076  1.00  0.00     0.163 HD
BRANCH   3   6
ATOM      6  C   UNL A   1      31.401  27.494  25.990  1.00  0.00     0.135 C 
BRANCH   6   7
ATOM      7  C   UNL A   1      32.277  26.270  25.895  1.00  0.00    -0.038 A 
ATOM      8  C   UNL A   1      33.948  24.045  25.602  1.00  0.00     0.119 A 
ATOM      9  C   UNL A   1      32.629  23.865  26.013  1.00  0.00     0.047 A 
ATOM     10  C   UNL A   1      34.396  25.307  25.253  1.00  0.00     0.047 A 
ATOM     11  C   UNL A   1      31.784  24.977  26.133  1.00  0.00     0.008 A 
ATOM     12  C   UNL A   1      33.610  26.418  25.507  1.00  0.00     0.008 A 
BRANCH   8  13
ATOM     13  O   UNL A   1      34.805  22.989  25.492  1.00  0.00    -0.493 OA
BRANCH  13  14
ATOM     14  C   UNL A   1      36.151  23.340  25.887  1.00  0.00     0.232 C 
BRANCH  14  15
ATOM     15  C   UNL A   1      37.238  22.945  24.852  1.00  0.00     0.020 C 
ATOM     16  C   UNL A   1      37.827  21.547  25.115  1.00  0.00     0.011 C 
ATOM     17  C   UNL A   1      36.659  22.926  23.435  1.00  0.00     0.011 C 
ENDBRANCH  14  15
ENDBRANCH  13  14
ENDBRANCH   8  13
ENDBRANCH   6   7
ENDBRANCH   3   6
ENDBRANCH   1   2
BRANCH   1  18
ATOM     18  C   UNL A   1      31.510  32.016  26.516  1.00  0.00     0.042 C 
BRANCH  18  19
ATOM     19  C   UNL A   1      32.663  32.637  27.297  1.00  0.00     0.118 C 
BRANCH  19  20
ATOM     20  N   UNL A   1      32.427  34.038  27.612  1.00  0.00    -0.352 N 
ATOM     21  C   UNL A   1      33.007  34.848  28.557  1.00  0.00     0.251 C 
ATOM     22  H   UNL A   1      31.741  34.476  27.058  1.00  0.00     0.163 HD
ATOM     23  O   UNL A   1      32.519  35.947  28.795  1.00  0.00    -0.269 OA
BRANCH  21  24
ATOM     24  C   UNL A   1      34.200  34.398  29.304  1.00  0.00     0.039 A 
ATOM     25  C   UNL A   1      34.023  33.807  30.558  1.00  0.00     0.014 A 
ATOM     26  C   UNL A   1      35.486  34.572  28.787  1.00  0.00     0.014 A 
ATOM     27  C   UNL A   1      35.128  33.312  31.255  1.00  0.00     0.010 A 
ATOM     28  C   UNL A   1      36.578  34.016  29.447  1.00  0.00     0.010 A 
ATOM     29  C   UNL A   1      36.408  33.369  30.680  1.00  0.00    -0.014 A 
BRANCH  29  30
ATOM     30  C   UNL A   1      37.572  32.706  31.322  1.00  0.00     0.031 A 
ATOM     31  C   UNL A   1      38.239  31.532  30.668  1.00  0.00     0.074 A 
ATOM     32  C   UNL A   1      37.968  33.117  32.541  1.00  0.00     0.049 A 
ATOM     33  N   UNL A   1      39.208  30.774  31.119  1.00  0.00    -0.248 NA
ATOM     34  C   UNL A   1      37.735  31.142  29.344  1.00  0.00     0.031 C 
ATOM     35  C   UNL A   1      37.377  34.227  33.291  1.00  0.00     0.029 A 
ATOM     36  N   UNL A   1      38.951  32.640  33.373  1.00  0.00    -0.354 N 
ATOM     37  C   UNL A   1      39.418  29.809  30.142  1.00  0.00     0.074 A 
ATOM     38  C   UNL A   1      38.445  30.051  29.097  1.00  0.00     0.031 C 
ATOM     39  C   UNL A   1      38.026  34.364  34.457  1.00  0.00     0.029 A 
ATOM     40  C   UNL A   1      39.040  33.321  34.563  1.00  0.00     0.049 A 
ATOM     41  H   UNL A   1      39.535  31.883  33.139  1.00  0.00     0.167 HD
ATOM     42  C   UNL A   1      40.346  28.823  30.117  1.00  0.00     0.037 A 
ATOM     43  C   UNL A   1      39.840  33.115  35.627  1.00  0.00     0.037 A 
ATOM     44  C   UNL A   1      41.313  28.596  31.161  1.00  0.00     0.049 A 
ATOM     45  C   UNL A   1      40.822  31.977  35.597  1.00  0.00     0.074 A 
ATOM     46  C   UNL A   1      42.343  27.671  31.197  1.00  0.00     0.029 A 
ATOM     47  N   UNL A   1      41.357  29.288  32.363  1.00  0.00    -0.354 N 
ATOM     48  N   UNL A   1      41.071  31.122  34.635  1.00  0.00    -0.248 NA
ATOM     49  C   UNL A   1      41.630  31.772  36.807  1.00  0.00     0.031 C 
ATOM     50  C   UNL A   1      42.963  27.756  32.448  1.00  0.00     0.029 A 
ATOM     51  C   UNL A   1      42.365  28.778  33.168  1.00  0.00     0.049 A 
ATOM     52  H   UNL A   1      40.761  30.031  32.609  1.00  0.00     0.167 HD
ATOM     53  C   UNL A   1      42.080  30.296  35.109  1.00  0.00     0.074 A 
ATOM     54  C   UNL A   1      42.408  30.763  36.441  1.00  0.00     0.031 C 
ATOM     55  C   UNL A   1      42.681  29.248  34.495  1.00  0.00     0.037 A 
BRANCH  42  56
ATOM     56  C   UNL A   1      40.343  27.898  28.932  1.00  0.00     0.064 A 
ATOM     57  C   UNL A   1      41.084  28.173  27.772  1.00  0.00     0.173 A 
ATOM     58  C   UNL A   1      39.598  26.709  28.963  1.00  0.00     0.173 A 
ATOM     59  F   UNL A   1      41.810  29.298  27.685  1.00  0.00    -0.203 F 
ATOM     60  C   UNL A   1      41.043  27.318  26.673  1.00  0.00     0.198 A 
ATOM     61  C   UNL A   1      39.588  25.837  27.877  1.00  0.00     0.198 A 
ATOM     62  F   UNL A   1      38.879  26.388  30.049  1.00  0.00    -0.203 F 
ATOM     63  F   UNL A   1      41.707  27.637  25.554  1.00  0.00    -0.200 F 
ATOM     64  C   UNL A   1      40.299  26.149  26.728  1.00  0.00     0.200 A 
ATOM     65  F   UNL A   1      38.883  24.700  27.938  1.00  0.00    -0.200 F 
ATOM     66  F   UNL A   1      40.262  25.327  25.670  1.00  0.00    -0.200 F 
ENDBRANCH  42  56
BRANCH  43  67
ATOM     67  C   UNL A   1      39.761  34.027  36.797  1.00  0.00     0.064 A 
ATOM     68  C   UNL A   1      40.472  35.235  36.807  1.00  0.00     0.173 A 
ATOM     69  C   UNL A   1      38.972  33.725  37.916  1.00  0.00     0.173 A 
ATOM     70  F   UNL A   1      41.256  35.558  35.768  1.00  0.00    -0.203 F 
ATOM     71  C   UNL A   1      40.406  36.101  37.897  1.00  0.00     0.198 A 
ATOM     72  C   UNL A   1      38.882  34.606  38.993  1.00  0.00     0.198 A 
ATOM     73  F   UNL A   1      38.270  32.583  37.956  1.00  0.00    -0.203 F 
ATOM     74  F   UNL A   1      41.125  37.231  37.896  1.00  0.00    -0.200 F 
ATOM     75  C   UNL A   1      39.605  35.790  38.985  1.00  0.00     0.200 A 
ATOM     76  F   UNL A   1      38.094  34.310  40.035  1.00  0.00    -0.200 F 
ATOM     77  F   UNL A   1      39.533  36.628  40.028  1.00  0.00    -0.200 F 
ENDBRANCH  43  67
BRANCH  55  78
ATOM     78  C   UNL A   1      43.776  28.543  35.244  1.00  0.00     0.064 A 
ATOM     79  C   UNL A   1      43.506  27.476  36.113  1.00  0.00     0.173 A 
ATOM     80  C   UNL A   1      45.118  28.909  35.052  1.00  0.00     0.173 A 
ATOM     81  F   UNL A   1      42.239  27.098  36.347  1.00  0.00    -0.203 F 
ATOM     82  C   UNL A   1      44.536  26.814  36.777  1.00  0.00     0.198 A 
ATOM     83  C   UNL A   1      46.147  28.223  35.691  1.00  0.00     0.198 A 
ATOM     84  F   UNL A   1      45.432  29.920  34.230  1.00  0.00    -0.203 F 
ATOM     85  F   UNL A   1      44.251  25.827  37.638  1.00  0.00    -0.200 F 
ATOM     86  C   UNL A   1      45.856  27.181  36.557  1.00  0.00     0.200 A 
ATOM     87  F   UNL A   1      47.422  28.570  35.465  1.00  0.00    -0.200 F 
ATOM     88  F   UNL A   1      46.847  26.533  37.186  1.00  0.00    -0.200 F 
ENDBRANCH  55  78
ENDBRANCH  29  30
ENDBRANCH  21  24
ENDBRANCH  19  20
ENDBRANCH  18  19
ENDBRANCH   1  18
TORSDOF 14
ENDMDL
MODEL 2
REMARK VINA RESULT:     -11.6      1.013      1.828
REMARK SMILES CC(C)COc1ccc(CC(=O)NCCCNC(=O)c2ccc(-c3c4nc(c(-c5c(F)c(F)c(F)c(F)c5F)c5ccc([nH]5)c(-c5c(F)c(F)c(F)c(F)c5F)c5nc(c(-c6c(F)c(F)c(F)c(F)c6F)c6ccc3[nH]6)C=C5)C=C4)cc2)cc1
REMARK SMILES IDX 14 1 13 2 11 3 12 4 10 6 9 7 6 8 7 9 84 10 8 11 83 12 5 13
REMARK SMILES IDX 4 14 2 15 1 16 3 17 15 18 16 19 17 20 18 21 19 23 20 24
REMARK SMILES IDX 21 25 82 26 22 27 81 28 23 29 24 30 25 31 75 32 26 33 80 34
REMARK SMILES IDX 74 35 76 36 27 37 79 38 73 39 72 40 28 42 60 43 40 44 59 45
REMARK SMILES IDX 41 46 44 47 58 48 77 49 42 50 43 51 57 53 78 54 45 55 29 56
REMARK SMILES IDX 30 57 38 58 31 59 32 60 36 61 39 62 33 63 34 64 37 65 35 66
REMARK SMILES IDX 61 67 62 68 70 69 63 70 64 71 68 72 71 73 65 74 66 75 69 76
REMARK SMILES IDX 67 77 46 78 47 79 55 80 48 81 49 82 53 83 56 84 50 85 51 86
REMARK SMILES IDX 54 87 52 88
REMARK H PARENT 13 5 17 22 76 41 44 52
REMARK Flexibility Score: inf
ROOT
ATOM      1  C   UNL A   1      31.824  30.609  26.012  1.00  0.00     0.117 C 
ENDROOT
BRANCH   1   2
ATOM      2  N   UNL A   1      31.478  29.548  26.937  1.00  0.00    -0.356 N 
ATOM      3  C   UNL A   1      32.169  28.422  27.286  1.00  0.00     0.224 C 
ATOM      4  O   UNL A   1      31.628  27.637  28.069  1.00  0.00    -0.275 OA
ATOM      5  H   UNL A   1      30.607  29.654  27.384  1.00  0.00     0.163 HD
BRANCH   3   6
ATOM      6  C   UNL A   1      33.581  28.173  26.780  1.00  0.00     0.135 C 
BRANCH   6   7
ATOM      7  C   UNL A   1      33.667  27.209  25.624  1.00  0.00    -0.038 A 
ATOM      8  C   UNL A   1      33.946  25.384  23.522  1.00  0.00     0.119 A 
ATOM      9  C   UNL A   1      33.457  26.661  23.261  1.00  0.00     0.047 A 
ATOM     10  C   UNL A   1      34.377  25.055  24.794  1.00  0.00     0.047 A 
ATOM     11  C   UNL A   1      33.342  27.585  24.311  1.00  0.00     0.008 A 
ATOM     12  C   UNL A   1      34.132  25.913  25.853  1.00  0.00     0.008 A 
BRANCH   8  13
ATOM     13  O   UNL A   1      34.052  24.452  22.530  1.00  0.00    -0.493 OA
BRANCH  13  14
ATOM     14  C   UNL A   1      33.744  23.120  23.002  1.00  0.00     0.232 C 
BRANCH  14  15
ATOM     15  C   UNL A   1      32.254  22.719  22.841  1.00  0.00     0.020 C 
ATOM     16  C   UNL A   1      32.076  21.240  22.454  1.00  0.00     0.011 C 
ATOM     17  C   UNL A   1      31.488  22.933  24.148  1.00  0.00     0.011 C 
ENDBRANCH  14  15
ENDBRANCH  13  14
ENDBRANCH   8  13
ENDBRANCH   6   7
ENDBRANCH   3   6
ENDBRANCH   1   2
BRANCH   1  18
ATOM     18  C   UNL A   1      31.513  31.994  26.583  1.00  0.00     0.042 C 
BRANCH  18  19
ATOM     19  C   UNL A   1      32.682  32.630  27.327  1.00  0.00     0.118 C 
BRANCH  19  20
ATOM     20  N   UNL A   1      32.444  34.032  27.636  1.00  0.00    -0.352 N 
ATOM     21  C   UNL A   1      33.018  34.845  28.582  1.00  0.00     0.251 C 
ATOM     22  H   UNL A   1      31.763  34.469  27.076  1.00  0.00     0.163 HD
ATOM     23  O   UNL A   1      32.529  35.945  28.813  1.00  0.00    -0.269 OA
BRANCH  21  24
ATOM     24  C   UNL A   1      34.206  34.397  29.339  1.00  0.00     0.039 A 
ATOM     25  C   UNL A   1      34.017  33.740  30.558  1.00  0.00     0.014 A 
ATOM     26  C   UNL A   1      35.499  34.636  28.866  1.00  0.00     0.014 A 
ATOM     27  C   UNL A   1      35.119  33.247  31.260  1.00  0.00     0.010 A 
ATOM     28  C   UNL A   1      36.591  34.082  29.528  1.00  0.00     0.010 A 
ATOM     29  C   UNL A   1      36.410  33.371  30.724  1.00  0.00    -0.014 A 
BRANCH  29  30
ATOM     30  C   UNL A   1      37.579  32.716  31.364  1.00  0.00     0.031 A 
ATOM     31  C   UNL A   1      38.262  31.554  30.702  1.00  0.00     0.074 A 
ATOM     32  C   UNL A   1      37.965  33.119  32.589  1.00  0.00     0.049 A 
ATOM     33  N   UNL A   1      39.236  30.803  31.150  1.00  0.00    -0.248 NA
ATOM     34  C   UNL A   1      37.768  31.172  29.372  1.00  0.00     0.031 C 
ATOM     35  C   UNL A   1      37.359  34.215  33.346  1.00  0.00     0.029 A 
ATOM     36  N   UNL A   1      38.949  32.644  33.421  1.00  0.00    -0.354 N 
ATOM     37  C   UNL A   1      39.461  29.850  30.164  1.00  0.00     0.074 A 
ATOM     38  C   UNL A   1      38.490  30.091  29.117  1.00  0.00     0.031 C 
ATOM     39  C   UNL A   1      38.001  34.348  34.517  1.00  0.00     0.029 A 
ATOM     40  C   UNL A   1      39.026  33.314  34.617  1.00  0.00     0.049 A 
ATOM     41  H   UNL A   1      39.543  31.896  33.182  1.00  0.00     0.167 HD
ATOM     42  C   UNL A   1      40.400  28.874  30.134  1.00  0.00     0.037 A 
ATOM     43  C   UNL A   1      39.823  33.107  35.682  1.00  0.00     0.037 A 
ATOM     44  C   UNL A   1      41.365  28.647  31.180  1.00  0.00     0.049 A 
ATOM     45  C   UNL A   1      40.818  31.981  35.646  1.00  0.00     0.074 A 
ATOM     46  C   UNL A   1      42.404  27.733  31.212  1.00  0.00     0.029 A 
ATOM     47  N   UNL A   1      41.396  29.328  32.389  1.00  0.00    -0.354 N 
ATOM     48  N   UNL A   1      41.080  31.137  34.677  1.00  0.00    -0.248 NA
ATOM     49  C   UNL A   1      41.623  31.772  36.858  1.00  0.00     0.031 C 
ATOM     50  C   UNL A   1      43.018  27.812  32.467  1.00  0.00     0.029 A 
ATOM     51  C   UNL A   1      42.406  28.821  33.194  1.00  0.00     0.049 A 
ATOM     52  H   UNL A   1      40.790  30.062  32.640  1.00  0.00     0.167 HD
ATOM     53  C   UNL A   1      42.096  30.318  35.148  1.00  0.00     0.074 A 
ATOM     54  C   UNL A   1      42.413  30.775  36.486  1.00  0.00     0.031 C 
ATOM     55  C   UNL A   1      42.711  29.281  34.526  1.00  0.00     0.037 A 
BRANCH  42  56
ATOM     56  C   UNL A   1      40.412  27.960  28.941  1.00  0.00     0.064 A 
ATOM     57  C   UNL A   1      41.145  28.260  27.781  1.00  0.00     0.173 A 
ATOM     58  C   UNL A   1      39.690  26.757  28.961  1.00  0.00     0.173 A 
ATOM     59  F   UNL A   1      41.849  29.400  27.704  1.00  0.00    -0.203 F 
ATOM     60  C   UNL A   1      41.118  27.415  26.675  1.00  0.00     0.198 A 
ATOM     61  C   UNL A   1      39.694  25.895  27.867  1.00  0.00     0.198 A 
ATOM     62  F   UNL A   1      38.979  26.412  30.046  1.00  0.00    -0.203 F 
ATOM     63  F   UNL A   1      41.773  27.757  25.557  1.00  0.00    -0.200 F 
ATOM     64  C   UNL A   1      40.397  26.231  26.720  1.00  0.00     0.200 A 
ATOM     65  F   UNL A   1      39.011  24.744  27.919  1.00  0.00    -0.200 F 
ATOM     66  F   UNL A   1      40.372  25.419  25.655  1.00  0.00    -0.200 F 
ENDBRANCH  42  56
BRANCH  43  67
ATOM     67  C   UNL A   1      39.730  34.007  36.861  1.00  0.00     0.064 A 
ATOM     68  C   UNL A   1      40.435  35.218  36.890  1.00  0.00     0.173 A 
ATOM     69  C   UNL A   1      38.932  33.691  37.970  1.00  0.00     0.173 A 
ATOM     70  F   UNL A   1      41.228  35.555  35.861  1.00  0.00    -0.203 F 
ATOM     71  C   UNL A   1      40.355  36.073  37.988  1.00  0.00     0.198 A 
ATOM     72  C   UNL A   1      38.828  34.560  39.054  1.00  0.00     0.198 A 
ATOM     73  F   UNL A   1      38.234  32.545  37.991  1.00  0.00    -0.203 F 
ATOM     74  F   UNL A   1      41.070  37.205  38.004  1.00  0.00    -0.200 F 
ATOM     75  C   UNL A   1      39.546  35.747  39.065  1.00  0.00     0.200 A 
ATOM     76  F   UNL A   1      38.032  34.250  40.086  1.00  0.00    -0.200 F 
ATOM     77  F   UNL A   1      39.460  36.574  40.116  1.00  0.00    -0.200 F 
ENDBRANCH  43  67
BRANCH  55  78
ATOM     78  C   UNL A   1      43.810  28.581  35.274  1.00  0.00     0.064 A 
ATOM     79  C   UNL A   1      45.142  29.014  35.203  1.00  0.00     0.173 A 
ATOM     80  C   UNL A   1      43.518  27.493  36.111  1.00  0.00     0.173 A 
ATOM     81  F   UNL A   1      45.478  30.038  34.403  1.00  0.00    -0.203 F 
ATOM     82  C   UNL A   1      46.145  28.372  35.926  1.00  0.00     0.198 A 
ATOM     83  C   UNL A   1      44.517  26.875  36.859  1.00  0.00     0.198 A 
ATOM     84  F   UNL A   1      42.261  27.040  36.218  1.00  0.00    -0.203 F 
ATOM     85  F   UNL A   1      47.417  28.775  35.807  1.00  0.00    -0.200 F 
ATOM     86  C   UNL A   1      45.829  27.311  36.761  1.00  0.00     0.200 A 
ATOM     87  F   UNL A   1      44.208  25.859  37.677  1.00  0.00    -0.200 F 
ATOM     88  F   UNL A   1      46.793  26.703  37.468  1.00  0.00    -0.200 F 
ENDBRANCH  55  78
ENDBRANCH  29  30
ENDBRANCH  21  24
ENDBRANCH  19  20
ENDBRANCH  18  19
ENDBRANCH   1  18
TORSDOF 14
ENDMDL
MODEL 3
REMARK VINA RESULT:     -11.5      2.280      4.222
REMARK SMILES CC(C)COc1ccc(CC(=O)NCCCNC(=O)c2ccc(-c3c4nc(c(-c5c(F)c(F)c(F)c(F)c5F)c5ccc([nH]5)c(-c5c(F)c(F)c(F)c(F)c5F)c5nc(c(-c6c(F)c(F)c(F)c(F)c6F)c6ccc3[nH]6)C=C5)C=C4)cc2)cc1
REMARK SMILES IDX 14 1 13 2 11 3 12 4 10 6 9 7 6 8 7 9 84 10 8 11 83 12 5 13
REMARK SMILES IDX 4 14 2 15 1 16 3 17 15 18 16 19 17 20 18 21 19 23 20 24
REMARK SMILES IDX 21 25 82 26 22 27 81 28 23 29 24 30 25 31 75 32 26 33 80 34
REMARK SMILES IDX 74 35 76 36 27 37 79 38 73 39 72 40 28 42 60 43 40 44 59 45
REMARK SMILES IDX 41 46 44 47 58 48 77 49 42 50 43 51 57 53 78 54 45 55 29 56
REMARK SMILES IDX 30 57 38 58 31 59 32 60 36 61 39 62 33 63 34 64 37 65 35 66
REMARK SMILES IDX 61 67 62 68 70 69 63 70 64 71 68 72 71 73 65 74 66 75 69 76
REMARK SMILES IDX 67 77 46 78 47 79 55 80 48 81 49 82 53 83 56 84 50 85 51 86
REMARK SMILES IDX 54 87 52 88
REMARK H PARENT 13 5 17 22 76 41 44 52
REMARK Flexibility Score: inf
ROOT
ATOM      1  C   UNL A   1      32.327  27.789  27.403  1.00  0.00     0.117 C 
ENDROOT
BRANCH   1   2
ATOM      2  N   UNL A   1      33.334  27.258  26.505  1.00  0.00    -0.356 N 
ATOM      3  C   UNL A   1      33.217  26.358  25.484  1.00  0.00     0.224 C 
ATOM      4  O   UNL A   1      34.249  26.024  24.894  1.00  0.00    -0.275 OA
ATOM      5  H   UNL A   1      34.245  27.599  26.655  1.00  0.00     0.163 HD
BRANCH   3   6
ATOM      6  C   UNL A   1      31.860  25.831  25.045  1.00  0.00     0.135 C 
BRANCH   6   7
ATOM      7  C   UNL A   1      31.051  26.804  24.226  1.00  0.00    -0.038 A 
ATOM      8  C   UNL A   1      29.469  28.508  22.669  1.00  0.00     0.119 A 
ATOM      9  C   UNL A   1      30.857  28.602  22.596  1.00  0.00     0.047 A 
ATOM     10  C   UNL A   1      28.883  27.517  23.435  1.00  0.00     0.047 A 
ATOM     11  C   UNL A   1      31.650  27.729  23.356  1.00  0.00     0.008 A 
ATOM     12  C   UNL A   1      29.657  26.752  24.291  1.00  0.00     0.008 A 
BRANCH   8  13
ATOM     13  O   UNL A   1      28.666  29.353  21.959  1.00  0.00    -0.493 OA
BRANCH  13  14
ATOM     14  C   UNL A   1      29.210  30.690  21.893  1.00  0.00     0.232 C 
BRANCH  14  15
ATOM     15  C   UNL A   1      28.843  31.586  23.106  1.00  0.00     0.020 C 
ATOM     16  C   UNL A   1      28.872  33.087  22.766  1.00  0.00     0.011 C 
ATOM     17  C   UNL A   1      27.431  31.270  23.607  1.00  0.00     0.011 C 
ENDBRANCH  14  15
ENDBRANCH  13  14
ENDBRANCH   8  13
ENDBRANCH   6   7
ENDBRANCH   3   6
ENDBRANCH   1   2
BRANCH   1  18
ATOM     18  C   UNL A   1      31.746  29.112  26.899  1.00  0.00     0.042 C 
BRANCH  18  19
ATOM     19  C   UNL A   1      32.755  29.988  26.167  1.00  0.00     0.118 C 
BRANCH  19  20
ATOM     20  N   UNL A   1      32.621  31.395  26.514  1.00  0.00    -0.352 N 
ATOM     21  C   UNL A   1      33.365  32.177  27.362  1.00  0.00     0.251 C 
ATOM     22  H   UNL A   1      31.878  31.862  26.068  1.00  0.00     0.163 HD
ATOM     23  O   UNL A   1      32.959  33.293  27.670  1.00  0.00    -0.269 OA
BRANCH  21  24
ATOM     24  C   UNL A   1      34.638  31.679  27.924  1.00  0.00     0.039 A 
ATOM     25  C   UNL A   1      35.725  32.555  28.002  1.00  0.00     0.014 A 
ATOM     26  C   UNL A   1      34.772  30.357  28.355  1.00  0.00     0.014 A 
ATOM     27  C   UNL A   1      36.918  32.130  28.590  1.00  0.00     0.010 A 
ATOM     28  C   UNL A   1      35.935  29.956  29.005  1.00  0.00     0.010 A 
ATOM     29  C   UNL A   1      37.015  30.842  29.141  1.00  0.00    -0.014 A 
BRANCH  29  30
ATOM     30  C   UNL A   1      38.209  30.420  29.915  1.00  0.00     0.031 A 
ATOM     31  C   UNL A   1      39.188  29.440  29.338  1.00  0.00     0.074 A 
ATOM     32  C   UNL A   1      38.358  30.860  31.179  1.00  0.00     0.049 A 
ATOM     33  N   UNL A   1      40.237  28.891  29.897  1.00  0.00    -0.248 NA
ATOM     34  C   UNL A   1      38.942  29.001  27.957  1.00  0.00     0.031 C 
ATOM     35  C   UNL A   1      37.456  31.790  31.861  1.00  0.00     0.029 A 
ATOM     36  N   UNL A   1      39.315  30.573  32.122  1.00  0.00    -0.354 N 
ATOM     37  C   UNL A   1      40.766  28.030  28.944  1.00  0.00     0.074 A 
ATOM     38  C   UNL A   1      39.896  28.097  27.788  1.00  0.00     0.031 C 
ATOM     39  C   UNL A   1      37.916  32.018  33.101  1.00  0.00     0.029 A 
ATOM     40  C   UNL A   1      39.112  31.213  33.320  1.00  0.00     0.049 A 
ATOM     41  H   UNL A   1      40.073  29.968  31.954  1.00  0.00     0.167 HD
ATOM     42  C   UNL A   1      41.882  27.267  29.025  1.00  0.00     0.037 A 
ATOM     43  C   UNL A   1      39.804  31.143  34.473  1.00  0.00     0.037 A 
ATOM     44  C   UNL A   1      42.744  27.212  30.178  1.00  0.00     0.049 A 
ATOM     45  C   UNL A   1      41.006  30.243  34.554  1.00  0.00     0.074 A 
ATOM     46  C   UNL A   1      43.937  26.529  30.332  1.00  0.00     0.029 A 
ATOM     47  N   UNL A   1      42.493  27.852  31.384  1.00  0.00    -0.354 N 
ATOM     48  N   UNL A   1      41.547  29.497  33.622  1.00  0.00    -0.248 NA
ATOM     49  C   UNL A   1      41.689  30.170  35.853  1.00  0.00     0.031 C 
ATOM     50  C   UNL A   1      44.371  26.697  31.652  1.00  0.00     0.029 A 
ATOM     51  C   UNL A   1      43.483  27.540  32.303  1.00  0.00     0.049 A 
ATOM     52  H   UNL A   1      41.724  28.442  31.561  1.00  0.00     0.167 HD
ATOM     53  C   UNL A   1      42.647  28.889  34.209  1.00  0.00     0.074 A 
ATOM     54  C   UNL A   1      42.705  29.365  35.577  1.00  0.00     0.031 C 
ATOM     55  C   UNL A   1      43.530  28.017  33.663  1.00  0.00     0.037 A 
BRANCH  42  56
ATOM     56  C   UNL A   1      42.221  26.407  27.839  1.00  0.00     0.064 A 
ATOM     57  C   UNL A   1      41.605  25.163  27.622  1.00  0.00     0.173 A 
ATOM     58  C   UNL A   1      43.164  26.840  26.895  1.00  0.00     0.173 A 
ATOM     59  F   UNL A   1      40.700  24.697  28.495  1.00  0.00    -0.203 F 
ATOM     60  C   UNL A   1      41.956  24.369  26.533  1.00  0.00     0.198 A 
ATOM     61  C   UNL A   1      43.486  26.060  25.787  1.00  0.00     0.198 A 
ATOM     62  F   UNL A   1      43.777  28.025  27.044  1.00  0.00    -0.203 F 
ATOM     63  F   UNL A   1      41.402  23.157  26.385  1.00  0.00    -0.200 F 
ATOM     64  C   UNL A   1      42.892  24.819  25.614  1.00  0.00     0.200 A 
ATOM     65  F   UNL A   1      44.378  26.505  24.891  1.00  0.00    -0.200 F 
ATOM     66  F   UNL A   1      43.226  24.053  24.567  1.00  0.00    -0.200 F 
ENDBRANCH  42  56
BRANCH  43  67
ATOM     67  C   UNL A   1      39.391  31.973  35.634  1.00  0.00     0.064 A 
ATOM     68  C   UNL A   1      39.927  33.255  35.821  1.00  0.00     0.173 A 
ATOM     69  C   UNL A   1      38.450  31.518  36.570  1.00  0.00     0.173 A 
ATOM     70  F   UNL A   1      40.846  33.726  34.964  1.00  0.00    -0.203 F 
ATOM     71  C   UNL A   1      39.547  34.045  36.903  1.00  0.00     0.198 A 
ATOM     72  C   UNL A   1      38.048  32.321  37.635  1.00  0.00     0.198 A 
ATOM     73  F   UNL A   1      37.904  30.299  36.436  1.00  0.00    -0.203 F 
ATOM     74  F   UNL A   1      40.104  35.250  37.077  1.00  0.00    -0.200 F 
ATOM     75  C   UNL A   1      38.602  33.580  37.806  1.00  0.00     0.200 A 
ATOM     76  F   UNL A   1      37.122  31.875  38.496  1.00  0.00    -0.200 F 
ATOM     77  F   UNL A   1      38.228  34.345  38.841  1.00  0.00    -0.200 F 
ENDBRANCH  43  67
BRANCH  55  78
ATOM     78  C   UNL A   1      44.654  27.535  34.536  1.00  0.00     0.064 A 
ATOM     79  C   UNL A   1      44.567  26.334  35.254  1.00  0.00     0.173 A 
ATOM     80  C   UNL A   1      45.853  28.260  34.615  1.00  0.00     0.173 A 
ATOM     81  F   UNL A   1      43.436  25.611  35.229  1.00  0.00    -0.203 F 
ATOM     82  C   UNL A   1      45.630  25.886  36.035  1.00  0.00     0.198 A 
ATOM     83  C   UNL A   1      46.926  27.793  35.369  1.00  0.00     0.198 A 
ATOM     84  F   UNL A   1      45.992  29.414  33.945  1.00  0.00    -0.203 F 
ATOM     85  F   UNL A   1      45.507  24.759  36.749  1.00  0.00    -0.200 F 
ATOM     86  C   UNL A   1      46.812  26.610  36.083  1.00  0.00     0.200 A 
ATOM     87  F   UNL A   1      48.073  28.487  35.401  1.00  0.00    -0.200 F 
ATOM     88  F   UNL A   1      47.840  26.171  36.823  1.00  0.00    -0.200 F 
ENDBRANCH  55  78
ENDBRANCH  29  30
ENDBRANCH  21  24
ENDBRANCH  19  20
ENDBRANCH  18  19
ENDBRANCH   1  18
TORSDOF 14
ENDMDL
