MODEL 1
REMARK VINA RESULT:     -13.2      0.000      0.000
REMARK SMILES C[C@H]1CCC[C@](Cc2cn3ccccc3n2)(C(=O)NCCCNC(=O)c2ccc(-c3c4nc(c(-c5c(F)c(F)c(F)c(F)c5F)c5ccc([nH]5)c(-c5c(F)c(F)c(F)c(F)c5F)c5nc(c(-c6c(F)c(F)c(F)c(F)c6F)c6ccc3[nH]6)C=C5)C=C4)cc2)C1
REMARK SMILES IDX 21 1 20 2 19 3 17 4 18 5 6 7 1 8 2 9 3 10 89 11 4 12 5 13
REMARK SMILES IDX 7 14 8 15 9 16 16 17 10 18 15 19 11 20 14 21 12 22 13 23
REMARK SMILES IDX 22 24 23 25 24 26 25 28 26 29 27 30 88 31 28 32 87 33 29 34
REMARK SMILES IDX 30 35 31 36 81 37 32 38 86 39 80 40 82 41 33 42 85 43 79 44
REMARK SMILES IDX 78 45 34 47 66 48 46 49 65 50 47 51 50 52 64 53 83 54 48 55
REMARK SMILES IDX 49 56 63 58 84 59 51 60 35 61 36 62 44 63 37 64 38 65 42 66
REMARK SMILES IDX 45 67 39 68 40 69 43 70 41 71 67 72 68 73 76 74 69 75 70 76
REMARK SMILES IDX 74 77 77 78 71 79 72 80 75 81 73 82 52 83 53 84 61 85 54 86
REMARK SMILES IDX 55 87 59 88 62 89 56 90 57 91 60 92 58 93
REMARK H PARENT 19 6 23 27 82 46 50 57
REMARK Flexibility Score: inf
ROOT
ATOM      1  C   UNL A   1      31.474  31.945  26.654  1.00  0.00     0.042 C 
ENDROOT
BRANCH   1   2
ATOM      2  C   UNL A   1      31.809  30.574  26.105  1.00  0.00     0.117 C 
BRANCH   2   3
ATOM      3  N   UNL A   1      31.612  29.494  27.032  1.00  0.00    -0.356 N 
ATOM      4  C   UNL A   1      31.707  28.146  26.887  1.00  0.00     0.226 C 
ATOM      5  O   UNL A   1      31.714  27.538  27.965  1.00  0.00    -0.274 OA
ATOM      6  H   UNL A   1      31.362  29.783  27.940  1.00  0.00     0.163 HD
BRANCH   4   7
ATOM      7  C   UNL A   1      31.816  27.384  25.515  1.00  0.00     0.055 C 
ATOM      8  C   UNL A   1      34.169  28.916  22.722  1.00  0.00     0.007 C 
ATOM      9  C   UNL A   1      32.953  28.901  23.655  1.00  0.00    -0.013 C 
ATOM     10  C   UNL A   1      31.664  28.784  22.835  1.00  0.00     0.003 C 
ATOM     11  C   UNL A   1      33.092  27.828  24.743  1.00  0.00     0.020 C 
ATOM     12  C   UNL A   1      30.382  28.525  23.621  1.00  0.00     0.001 C 
ATOM     13  C   UNL A   1      30.494  27.470  24.713  1.00  0.00     0.017 C 
BRANCH   7  14
ATOM     14  C   UNL A   1      32.016  25.873  25.964  1.00  0.00     0.074 C 
BRANCH  14  15
ATOM     15  C   UNL A   1      33.174  25.094  25.400  1.00  0.00     0.061 A 
ATOM     16  C   UNL A   1      33.331  24.427  24.201  1.00  0.00     0.116 A 
ATOM     17  N   UNL A   1      34.332  24.986  26.150  1.00  0.00    -0.234 NA
ATOM     18  N   UNL A   1      34.588  23.880  24.230  1.00  0.00    -0.307 N 
ATOM     19  C   UNL A   1      35.167  24.266  25.430  1.00  0.00     0.136 A 
ATOM     20  C   UNL A   1      35.224  23.080  23.285  1.00  0.00     0.093 A 
ATOM     21  C   UNL A   1      36.501  23.830  25.674  1.00  0.00     0.048 A 
ATOM     22  C   UNL A   1      36.476  22.655  23.526  1.00  0.00     0.018 A 
ATOM     23  C   UNL A   1      37.129  23.059  24.763  1.00  0.00     0.005 A 
ENDBRANCH  14  15
ENDBRANCH   7  14
ENDBRANCH   4   7
ENDBRANCH   2   3
ENDBRANCH   1   2
BRANCH   1  24
ATOM     24  C   UNL A   1      32.669  32.629  27.288  1.00  0.00     0.118 C 
BRANCH  24  25
ATOM     25  N   UNL A   1      32.408  34.034  27.602  1.00  0.00    -0.352 N 
ATOM     26  C   UNL A   1      32.967  34.877  28.536  1.00  0.00     0.251 C 
ATOM     27  H   UNL A   1      31.711  34.451  27.047  1.00  0.00     0.163 HD
ATOM     28  O   UNL A   1      32.456  35.968  28.752  1.00  0.00    -0.269 OA
BRANCH  26  29
ATOM     29  C   UNL A   1      34.161  34.459  29.304  1.00  0.00     0.039 A 
ATOM     30  C   UNL A   1      33.994  33.879  30.566  1.00  0.00     0.014 A 
ATOM     31  C   UNL A   1      35.442  34.629  28.782  1.00  0.00     0.014 A 
ATOM     32  C   UNL A   1      35.106  33.376  31.247  1.00  0.00     0.010 A 
ATOM     33  C   UNL A   1      36.523  34.013  29.396  1.00  0.00     0.010 A 
ATOM     34  C   UNL A   1      36.370  33.383  30.638  1.00  0.00    -0.014 A 
BRANCH  34  35
ATOM     35  C   UNL A   1      37.551  32.740  31.268  1.00  0.00     0.031 A 
ATOM     36  C   UNL A   1      38.206  31.559  30.600  1.00  0.00     0.074 A 
ATOM     37  C   UNL A   1      37.963  33.148  32.485  1.00  0.00     0.049 A 
ATOM     38  N   UNL A   1      39.159  30.780  31.045  1.00  0.00    -0.248 NA
ATOM     39  C   UNL A   1      37.696  31.177  29.272  1.00  0.00     0.031 C 
ATOM     40  C   UNL A   1      37.364  34.237  33.261  1.00  0.00     0.029 A 
ATOM     41  N   UNL A   1      38.969  32.683  33.296  1.00  0.00    -0.354 N 
ATOM     42  C   UNL A   1      39.333  29.804  30.072  1.00  0.00     0.074 A 
ATOM     43  C   UNL A   1      38.358  30.055  29.036  1.00  0.00     0.031 C 
ATOM     44  C   UNL A   1      38.024  34.367  34.423  1.00  0.00     0.029 A 
ATOM     45  C   UNL A   1      39.058  33.341  34.499  1.00  0.00     0.049 A 
ATOM     46  H   UNL A   1      39.571  31.947  33.039  1.00  0.00     0.167 HD
ATOM     47  C   UNL A   1      40.242  28.803  30.038  1.00  0.00     0.037 A 
ATOM     48  C   UNL A   1      39.867  33.125  35.554  1.00  0.00     0.037 A 
ATOM     49  C   UNL A   1      41.245  28.595  31.048  1.00  0.00     0.049 A 
ATOM     50  C   UNL A   1      40.877  32.010  35.480  1.00  0.00     0.074 A 
ATOM     51  C   UNL A   1      42.285  27.684  31.052  1.00  0.00     0.029 A 
ATOM     52  N   UNL A   1      41.326  29.305  32.236  1.00  0.00    -0.354 N 
ATOM     53  N   UNL A   1      41.105  31.164  34.505  1.00  0.00    -0.248 NA
ATOM     54  C   UNL A   1      41.744  31.821  36.652  1.00  0.00     0.031 C 
ATOM     55  C   UNL A   1      42.958  27.798  32.272  1.00  0.00     0.029 A 
ATOM     56  C   UNL A   1      42.374  28.822  33.001  1.00  0.00     0.049 A 
ATOM     57  H   UNL A   1      40.729  30.043  32.498  1.00  0.00     0.167 HD
ATOM     58  C   UNL A   1      42.150  30.358  34.936  1.00  0.00     0.074 A 
ATOM     59  C   UNL A   1      42.530  30.833  36.249  1.00  0.00     0.031 C 
ATOM     60  C   UNL A   1      42.738  29.313  34.305  1.00  0.00     0.037 A 
BRANCH  47  61
ATOM     61  C   UNL A   1      40.210  27.855  28.876  1.00  0.00     0.064 A 
ATOM     62  C   UNL A   1      40.924  28.104  27.695  1.00  0.00     0.173 A 
ATOM     63  C   UNL A   1      39.511  26.641  28.975  1.00  0.00     0.173 A 
ATOM     64  F   UNL A   1      41.599  29.254  27.544  1.00  0.00    -0.203 F 
ATOM     65  C   UNL A   1      40.926  27.184  26.650  1.00  0.00     0.198 A 
ATOM     66  C   UNL A   1      39.541  25.709  27.940  1.00  0.00     0.198 A 
ATOM     67  F   UNL A   1      38.814  26.350  30.083  1.00  0.00    -0.203 F 
ATOM     68  F   UNL A   1      41.585  27.462  25.516  1.00  0.00    -0.200 F 
ATOM     69  C   UNL A   1      40.245  25.984  26.778  1.00  0.00     0.200 A 
ATOM     70  F   UNL A   1      38.894  24.543  28.073  1.00  0.00    -0.200 F 
ATOM     71  F   UNL A   1      40.264  25.090  25.779  1.00  0.00    -0.200 F 
ENDBRANCH  47  61
BRANCH  48  72
ATOM     72  C   UNL A   1      39.754  33.969  36.775  1.00  0.00     0.064 A 
ATOM     73  C   UNL A   1      38.934  33.586  37.848  1.00  0.00     0.173 A 
ATOM     74  C   UNL A   1      40.433  35.192  36.883  1.00  0.00     0.173 A 
ATOM     75  F   UNL A   1      38.247  32.436  37.786  1.00  0.00    -0.203 F 
ATOM     76  C   UNL A   1      38.773  34.407  38.962  1.00  0.00     0.198 A 
ATOM     77  C   UNL A   1      40.298  35.996  38.013  1.00  0.00     0.198 A 
ATOM     78  F   UNL A   1      41.235  35.605  35.890  1.00  0.00    -0.203 F 
ATOM     79  F   UNL A   1      37.934  34.044  39.942  1.00  0.00    -0.200 F 
ATOM     80  C   UNL A   1      39.458  35.609  39.045  1.00  0.00     0.200 A 
ATOM     81  F   UNL A   1      40.977  37.149  38.097  1.00  0.00    -0.200 F 
ATOM     82  F   UNL A   1      39.300  36.400  40.116  1.00  0.00    -0.200 F 
ENDBRANCH  48  72
BRANCH  60  83
ATOM     83  C   UNL A   1      43.867  28.624  35.015  1.00  0.00     0.064 A 
ATOM     84  C   UNL A   1      43.645  27.499  35.822  1.00  0.00     0.173 A 
ATOM     85  C   UNL A   1      45.189  29.059  34.838  1.00  0.00     0.173 A 
ATOM     86  F   UNL A   1      42.397  27.056  36.035  1.00  0.00    -0.203 F 
ATOM     87  C   UNL A   1      44.706  26.846  36.442  1.00  0.00     0.198 A 
ATOM     88  C   UNL A   1      46.250  28.382  35.432  1.00  0.00     0.198 A 
ATOM     89  F   UNL A   1      45.454  30.125  34.069  1.00  0.00    -0.203 F 
ATOM     90  F   UNL A   1      44.468  25.798  37.244  1.00  0.00    -0.200 F 
ATOM     91  C   UNL A   1      46.007  27.280  36.238  1.00  0.00     0.200 A 
ATOM     92  F   UNL A   1      47.508  28.793  35.219  1.00  0.00    -0.200 F 
ATOM     93  F   UNL A   1      47.029  26.640  36.822  1.00  0.00    -0.200 F 
ENDBRANCH  60  83
ENDBRANCH  34  35
ENDBRANCH  26  29
ENDBRANCH  24  25
ENDBRANCH   1  24
TORSDOF 12
ENDMDL
MODEL 2
REMARK VINA RESULT:     -13.0      2.393      3.814
REMARK SMILES C[C@H]1CCC[C@](Cc2cn3ccccc3n2)(C(=O)NCCCNC(=O)c2ccc(-c3c4nc(c(-c5c(F)c(F)c(F)c(F)c5F)c5ccc([nH]5)c(-c5c(F)c(F)c(F)c(F)c5F)c5nc(c(-c6c(F)c(F)c(F)c(F)c6F)c6ccc3[nH]6)C=C5)C=C4)cc2)C1
REMARK SMILES IDX 21 1 20 2 19 3 17 4 18 5 6 7 1 8 2 9 3 10 89 11 4 12 5 13
REMARK SMILES IDX 7 14 8 15 9 16 16 17 10 18 15 19 11 20 14 21 12 22 13 23
REMARK SMILES IDX 22 24 23 25 24 26 25 28 26 29 27 30 88 31 28 32 87 33 29 34
REMARK SMILES IDX 30 35 31 36 81 37 32 38 86 39 80 40 82 41 33 42 85 43 79 44
REMARK SMILES IDX 78 45 34 47 66 48 46 49 65 50 47 51 50 52 64 53 83 54 48 55
REMARK SMILES IDX 49 56 63 58 84 59 51 60 35 61 36 62 44 63 37 64 38 65 42 66
REMARK SMILES IDX 45 67 39 68 40 69 43 70 41 71 67 72 68 73 76 74 69 75 70 76
REMARK SMILES IDX 74 77 77 78 71 79 72 80 75 81 73 82 52 83 53 84 61 85 54 86
REMARK SMILES IDX 55 87 59 88 62 89 56 90 57 91 60 92 58 93
REMARK H PARENT 19 6 23 27 82 46 50 57
REMARK Flexibility Score: inf
ROOT
ATOM      1  C   UNL A   1      31.994  28.003  25.515  1.00  0.00     0.042 C 
ENDROOT
BRANCH   1   2
ATOM      2  C   UNL A   1      32.588  26.705  26.022  1.00  0.00     0.117 C 
BRANCH   2   3
ATOM      3  N   UNL A   1      31.630  25.778  26.559  1.00  0.00    -0.356 N 
ATOM      4  C   UNL A   1      31.559  24.422  26.518  1.00  0.00     0.226 C 
ATOM      5  O   UNL A   1      30.727  23.952  27.305  1.00  0.00    -0.274 OA
ATOM      6  H   UNL A   1      30.887  26.204  27.046  1.00  0.00     0.163 HD
BRANCH   4   7
ATOM      7  C   UNL A   1      32.433  23.493  25.596  1.00  0.00     0.055 C 
ATOM      8  C   UNL A   1      36.372  23.820  25.830  1.00  0.00     0.007 C 
ATOM      9  C   UNL A   1      34.957  24.314  25.512  1.00  0.00    -0.013 C 
ATOM     10  C   UNL A   1      34.796  24.507  23.999  1.00  0.00     0.003 C 
ATOM     11  C   UNL A   1      33.890  23.403  26.134  1.00  0.00     0.020 C 
ATOM     12  C   UNL A   1      33.381  24.774  23.497  1.00  0.00     0.001 C 
ATOM     13  C   UNL A   1      32.300  23.889  24.106  1.00  0.00     0.017 C 
BRANCH   7  14
ATOM     14  C   UNL A   1      31.754  22.068  25.784  1.00  0.00     0.074 C 
BRANCH  14  15
ATOM     15  C   UNL A   1      32.465  20.849  25.262  1.00  0.00     0.061 A 
ATOM     16  C   UNL A   1      33.665  20.267  25.620  1.00  0.00     0.116 A 
ATOM     17  N   UNL A   1      31.875  20.116  24.247  1.00  0.00    -0.234 NA
ATOM     18  N   UNL A   1      33.825  19.183  24.795  1.00  0.00    -0.307 N 
ATOM     19  C   UNL A   1      32.697  19.121  23.990  1.00  0.00     0.136 A 
ATOM     20  C   UNL A   1      34.883  18.282  24.718  1.00  0.00     0.093 A 
ATOM     21  C   UNL A   1      32.627  18.047  23.057  1.00  0.00     0.048 A 
ATOM     22  C   UNL A   1      34.823  17.280  23.824  1.00  0.00     0.018 A 
ATOM     23  C   UNL A   1      33.644  17.165  22.976  1.00  0.00     0.005 A 
ENDBRANCH  14  15
ENDBRANCH   7  14
ENDBRANCH   4   7
ENDBRANCH   2   3
ENDBRANCH   1   2
BRANCH   1  24
ATOM     24  C   UNL A   1      33.025  29.105  25.381  1.00  0.00     0.118 C 
BRANCH  24  25
ATOM     25  N   UNL A   1      32.565  30.374  25.947  1.00  0.00    -0.352 N 
ATOM     26  C   UNL A   1      33.087  31.168  26.944  1.00  0.00     0.251 C 
ATOM     27  H   UNL A   1      31.739  30.722  25.544  1.00  0.00     0.163 HD
ATOM     28  O   UNL A   1      32.426  32.096  27.388  1.00  0.00    -0.269 OA
BRANCH  26  29
ATOM     29  C   UNL A   1      34.427  30.885  27.503  1.00  0.00     0.039 A 
ATOM     30  C   UNL A   1      35.323  31.941  27.702  1.00  0.00     0.014 A 
ATOM     31  C   UNL A   1      34.802  29.586  27.840  1.00  0.00     0.014 A 
ATOM     32  C   UNL A   1      36.545  31.701  28.335  1.00  0.00     0.010 A 
ATOM     33  C   UNL A   1      35.953  29.371  28.585  1.00  0.00     0.010 A 
ATOM     34  C   UNL A   1      36.841  30.425  28.838  1.00  0.00    -0.014 A 
BRANCH  34  35
ATOM     35  C   UNL A   1      38.065  30.156  29.634  1.00  0.00     0.031 A 
ATOM     36  C   UNL A   1      39.105  29.202  29.108  1.00  0.00     0.074 A 
ATOM     37  C   UNL A   1      38.187  30.683  30.869  1.00  0.00     0.049 A 
ATOM     38  N   UNL A   1      40.174  28.734  29.702  1.00  0.00    -0.248 NA
ATOM     39  C   UNL A   1      38.896  28.670  27.751  1.00  0.00     0.031 C 
ATOM     40  C   UNL A   1      37.212  31.567  31.513  1.00  0.00     0.029 A 
ATOM     41  N   UNL A   1      39.172  30.537  31.815  1.00  0.00    -0.354 N 
ATOM     42  C   UNL A   1      40.739  27.834  28.806  1.00  0.00     0.074 A 
ATOM     43  C   UNL A   1      39.873  27.781  27.651  1.00  0.00     0.031 C 
ATOM     44  C   UNL A   1      37.656  31.897  32.737  1.00  0.00     0.029 A 
ATOM     45  C   UNL A   1      38.918  31.211  32.986  1.00  0.00     0.049 A 
ATOM     46  H   UNL A   1      39.984  30.000  31.668  1.00  0.00     0.167 HD
ATOM     47  C   UNL A   1      41.890  27.134  28.930  1.00  0.00     0.037 A 
ATOM     48  C   UNL A   1      39.614  31.250  34.138  1.00  0.00     0.037 A 
ATOM     49  C   UNL A   1      42.773  27.237  30.060  1.00  0.00     0.049 A 
ATOM     50  C   UNL A   1      40.899  30.470  34.240  1.00  0.00     0.074 A 
ATOM     51  C   UNL A   1      44.019  26.661  30.232  1.00  0.00     0.029 A 
ATOM     52  N   UNL A   1      42.499  27.958  31.211  1.00  0.00    -0.354 N 
ATOM     53  N   UNL A   1      41.478  29.710  33.342  1.00  0.00    -0.248 NA
ATOM     54  C   UNL A   1      41.628  30.554  35.513  1.00  0.00     0.031 C 
ATOM     55  C   UNL A   1      44.471  26.981  31.515  1.00  0.00     0.029 A 
ATOM     56  C   UNL A   1      43.535  27.805  32.118  1.00  0.00     0.049 A 
ATOM     57  H   UNL A   1      41.691  28.498  31.364  1.00  0.00     0.167 HD
ATOM     58  C   UNL A   1      42.644  29.242  33.933  1.00  0.00     0.074 A 
ATOM     59  C   UNL A   1      42.704  29.826  35.256  1.00  0.00     0.031 C 
ATOM     60  C   UNL A   1      43.578  28.400  33.429  1.00  0.00     0.037 A 
BRANCH  47  61
ATOM     61  C   UNL A   1      42.274  26.199  27.821  1.00  0.00     0.064 A 
ATOM     62  C   UNL A   1      41.703  24.924  27.695  1.00  0.00     0.173 A 
ATOM     63  C   UNL A   1      43.173  26.616  26.827  1.00  0.00     0.173 A 
ATOM     64  F   UNL A   1      40.847  24.472  28.624  1.00  0.00    -0.203 F 
ATOM     65  C   UNL A   1      42.032  24.094  26.626  1.00  0.00     0.198 A 
ATOM     66  C   UNL A   1      43.475  25.795  25.743  1.00  0.00     0.198 A 
ATOM     67  F   UNL A   1      43.745  27.827  26.896  1.00  0.00    -0.203 F 
ATOM     68  F   UNL A   1      41.503  22.864  26.548  1.00  0.00    -0.200 F 
ATOM     69  C   UNL A   1      42.907  24.534  25.646  1.00  0.00     0.200 A 
ATOM     70  F   UNL A   1      44.310  26.230  24.789  1.00  0.00    -0.200 F 
ATOM     71  F   UNL A   1      43.207  23.742  24.607  1.00  0.00    -0.200 F 
ENDBRANCH  47  61
BRANCH  48  72
ATOM     72  C   UNL A   1      39.114  32.046  35.292  1.00  0.00     0.064 A 
ATOM     73  C   UNL A   1      39.382  33.419  35.396  1.00  0.00     0.173 A 
ATOM     74  C   UNL A   1      38.387  31.447  36.332  1.00  0.00     0.173 A 
ATOM     75  F   UNL A   1      40.091  34.036  34.439  1.00  0.00    -0.203 F 
ATOM     76  C   UNL A   1      38.974  34.152  36.509  1.00  0.00     0.198 A 
ATOM     77  C   UNL A   1      37.949  32.188  37.428  1.00  0.00     0.198 A 
ATOM     78  F   UNL A   1      38.096  30.138  36.282  1.00  0.00    -0.203 F 
ATOM     79  F   UNL A   1      39.301  35.448  36.610  1.00  0.00    -0.200 F 
ATOM     80  C   UNL A   1      38.255  33.537  37.522  1.00  0.00     0.200 A 
ATOM     81  F   UNL A   1      37.238  31.593  38.396  1.00  0.00    -0.200 F 
ATOM     82  F   UNL A   1      37.865  34.242  38.593  1.00  0.00    -0.200 F 
ENDBRANCH  48  72
BRANCH  60  83
ATOM     83  C   UNL A   1      44.755  28.073  34.301  1.00  0.00     0.064 A 
ATOM     84  C   UNL A   1      44.723  26.997  35.200  1.00  0.00     0.173 A 
ATOM     85  C   UNL A   1      45.946  28.807  34.192  1.00  0.00     0.173 A 
ATOM     86  F   UNL A   1      43.602  26.276  35.351  1.00  0.00    -0.203 F 
ATOM     87  C   UNL A   1      45.836  26.680  35.973  1.00  0.00     0.198 A 
ATOM     88  C   UNL A   1      47.067  28.464  34.942  1.00  0.00     0.198 A 
ATOM     89  F   UNL A   1      46.029  29.840  33.341  1.00  0.00    -0.203 F 
ATOM     90  F   UNL A   1      45.770  25.675  36.857  1.00  0.00    -0.200 F 
ATOM     91  C   UNL A   1      47.010  27.406  35.835  1.00  0.00     0.200 A 
ATOM     92  F   UNL A   1      48.205  29.157  34.795  1.00  0.00    -0.200 F 
ATOM     93  F   UNL A   1      48.085  27.089  36.569  1.00  0.00    -0.200 F 
ENDBRANCH  60  83
ENDBRANCH  34  35
ENDBRANCH  26  29
ENDBRANCH  24  25
ENDBRANCH   1  24
TORSDOF 12
ENDMDL
MODEL 3
REMARK VINA RESULT:     -13.0      1.908      3.001
REMARK SMILES C[C@H]1CCC[C@](Cc2cn3ccccc3n2)(C(=O)NCCCNC(=O)c2ccc(-c3c4nc(c(-c5c(F)c(F)c(F)c(F)c5F)c5ccc([nH]5)c(-c5c(F)c(F)c(F)c(F)c5F)c5nc(c(-c6c(F)c(F)c(F)c(F)c6F)c6ccc3[nH]6)C=C5)C=C4)cc2)C1
REMARK SMILES IDX 21 1 20 2 19 3 17 4 18 5 6 7 1 8 2 9 3 10 89 11 4 12 5 13
REMARK SMILES IDX 7 14 8 15 9 16 16 17 10 18 15 19 11 20 14 21 12 22 13 23
REMARK SMILES IDX 22 24 23 25 24 26 25 28 26 29 27 30 88 31 28 32 87 33 29 34
REMARK SMILES IDX 30 35 31 36 81 37 32 38 86 39 80 40 82 41 33 42 85 43 79 44
REMARK SMILES IDX 78 45 34 47 66 48 46 49 65 50 47 51 50 52 64 53 83 54 48 55
REMARK SMILES IDX 49 56 63 58 84 59 51 60 35 61 36 62 44 63 37 64 38 65 42 66
REMARK SMILES IDX 45 67 39 68 40 69 43 70 41 71 67 72 68 73 76 74 69 75 70 76
REMARK SMILES IDX 74 77 77 78 71 79 72 80 75 81 73 82 52 83 53 84 61 85 54 86
REMARK SMILES IDX 55 87 59 88 62 89 56 90 57 91 60 92 58 93
REMARK H PARENT 19 6 23 27 82 46 50 57
REMARK Flexibility Score: inf
ROOT
ATOM      1  C   UNL A   1      33.363  29.470  25.208  1.00  0.00     0.042 C 
ENDROOT
BRANCH   1   2
ATOM      2  C   UNL A   1      32.522  28.867  24.102  1.00  0.00     0.117 C 
BRANCH   2   3
ATOM      3  N   UNL A   1      33.266  28.128  23.120  1.00  0.00    -0.356 N 
ATOM      4  C   UNL A   1      33.149  26.853  22.665  1.00  0.00     0.226 C 
ATOM      5  O   UNL A   1      33.803  26.639  21.636  1.00  0.00    -0.274 OA
ATOM      6  H   UNL A   1      33.995  28.639  22.699  1.00  0.00     0.163 HD
BRANCH   4   7
ATOM      7  C   UNL A   1      32.274  25.726  23.330  1.00  0.00     0.055 C 
ATOM      8  C   UNL A   1      28.439  26.482  23.958  1.00  0.00     0.007 C 
ATOM      9  C   UNL A   1      29.943  26.683  24.169  1.00  0.00    -0.013 C 
ATOM     10  C   UNL A   1      30.334  26.265  25.591  1.00  0.00     0.003 C 
ATOM     11  C   UNL A   1      30.762  25.986  23.073  1.00  0.00     0.020 C 
ATOM     12  C   UNL A   1      31.829  26.185  25.886  1.00  0.00     0.001 C 
ATOM     13  C   UNL A   1      32.667  25.505  24.811  1.00  0.00     0.017 C 
BRANCH   7  14
ATOM     14  C   UNL A   1      32.693  24.427  22.517  1.00  0.00     0.074 C 
BRANCH  14  15
ATOM     15  C   UNL A   1      33.659  23.458  23.142  1.00  0.00     0.061 A 
ATOM     16  C   UNL A   1      33.454  22.294  23.857  1.00  0.00     0.116 A 
ATOM     17  N   UNL A   1      35.017  23.696  23.017  1.00  0.00    -0.234 NA
ATOM     18  N   UNL A   1      34.699  21.831  24.198  1.00  0.00    -0.307 N 
ATOM     19  C   UNL A   1      35.620  22.709  23.645  1.00  0.00     0.136 A 
ATOM     20  C   UNL A   1      35.049  20.714  24.951  1.00  0.00     0.093 A 
ATOM     21  C   UNL A   1      36.998  22.414  23.850  1.00  0.00     0.048 A 
ATOM     22  C   UNL A   1      36.350  20.448  25.159  1.00  0.00     0.018 A 
ATOM     23  C   UNL A   1      37.349  21.332  24.574  1.00  0.00     0.005 A 
ENDBRANCH  14  15
ENDBRANCH   7  14
ENDBRANCH   4   7
ENDBRANCH   2   3
ENDBRANCH   1   2
BRANCH   1  24
ATOM     24  C   UNL A   1      32.552  29.803  26.445  1.00  0.00     0.118 C 
BRANCH  24  25
ATOM     25  N   UNL A   1      32.444  31.245  26.671  1.00  0.00    -0.352 N 
ATOM     26  C   UNL A   1      33.247  32.120  27.369  1.00  0.00     0.251 C 
ATOM     27  H   UNL A   1      31.660  31.664  26.249  1.00  0.00     0.163 HD
ATOM     28  O   UNL A   1      32.857  33.258  27.586  1.00  0.00    -0.269 OA
BRANCH  26  29
ATOM     29  C   UNL A   1      34.562  31.680  27.884  1.00  0.00     0.039 A 
ATOM     30  C   UNL A   1      35.608  32.605  27.967  1.00  0.00     0.014 A 
ATOM     31  C   UNL A   1      34.767  30.364  28.294  1.00  0.00     0.014 A 
ATOM     32  C   UNL A   1      36.817  32.230  28.559  1.00  0.00     0.010 A 
ATOM     33  C   UNL A   1      35.915  30.031  28.998  1.00  0.00     0.010 A 
ATOM     34  C   UNL A   1      36.957  30.959  29.136  1.00  0.00    -0.014 A 
BRANCH  34  35
ATOM     35  C   UNL A   1      38.173  30.566  29.891  1.00  0.00     0.031 A 
ATOM     36  C   UNL A   1      39.133  29.569  29.297  1.00  0.00     0.074 A 
ATOM     37  C   UNL A   1      38.354  31.020  31.148  1.00  0.00     0.049 A 
ATOM     38  N   UNL A   1      40.177  28.998  29.844  1.00  0.00    -0.248 NA
ATOM     39  C   UNL A   1      38.864  29.123  27.919  1.00  0.00     0.031 C 
ATOM     40  C   UNL A   1      37.455  31.936  31.855  1.00  0.00     0.029 A 
ATOM     41  N   UNL A   1      39.343  30.757  32.064  1.00  0.00    -0.354 N 
ATOM     42  C   UNL A   1      40.661  28.108  28.893  1.00  0.00     0.074 A 
ATOM     43  C   UNL A   1      39.773  28.174  27.755  1.00  0.00     0.031 C 
ATOM     44  C   UNL A   1      37.942  32.171  33.084  1.00  0.00     0.029 A 
ATOM     45  C   UNL A   1      39.157  31.387  33.272  1.00  0.00     0.049 A 
ATOM     46  H   UNL A   1      40.112  30.173  31.874  1.00  0.00     0.167 HD
ATOM     47  C   UNL A   1      41.761  27.324  28.958  1.00  0.00     0.037 A 
ATOM     48  C   UNL A   1      39.875  31.319  34.410  1.00  0.00     0.037 A 
ATOM     49  C   UNL A   1      42.670  27.308  30.073  1.00  0.00     0.049 A 
ATOM     50  C   UNL A   1      41.102  30.448  34.446  1.00  0.00     0.074 A 
ATOM     51  C   UNL A   1      43.874  26.638  30.190  1.00  0.00     0.029 A 
ATOM     52  N   UNL A   1      42.468  27.987  31.264  1.00  0.00    -0.354 N 
ATOM     53  N   UNL A   1      41.610  29.695  33.499  1.00  0.00    -0.248 NA
ATOM     54  C   UNL A   1      41.858  30.415  35.706  1.00  0.00     0.031 C 
ATOM     55  C   UNL A   1      44.371  26.860  31.477  1.00  0.00     0.029 A 
ATOM     56  C   UNL A   1      43.506  27.716  32.140  1.00  0.00     0.049 A 
ATOM     57  H   UNL A   1      41.702  28.573  31.460  1.00  0.00     0.167 HD
ATOM     58  C   UNL A   1      42.750  29.118  34.042  1.00  0.00     0.074 A 
ATOM     59  C   UNL A   1      42.875  29.628  35.390  1.00  0.00     0.031 C 
ATOM     60  C   UNL A   1      43.614  28.239  33.477  1.00  0.00     0.037 A 
BRANCH  47  61
ATOM     61  C   UNL A   1      42.059  26.422  27.796  1.00  0.00     0.064 A 
ATOM     62  C   UNL A   1      43.011  26.756  26.822  1.00  0.00     0.173 A 
ATOM     63  C   UNL A   1      41.432  25.169  27.698  1.00  0.00     0.173 A 
ATOM     64  F   UNL A   1      43.630  27.946  26.863  1.00  0.00    -0.203 F 
ATOM     65  C   UNL A   1      43.312  25.879  25.784  1.00  0.00     0.198 A 
ATOM     66  C   UNL A   1      41.759  24.282  26.676  1.00  0.00     0.198 A 
ATOM     67  F   UNL A   1      40.517  24.797  28.605  1.00  0.00    -0.203 F 
ATOM     68  F   UNL A   1      44.198  26.237  24.843  1.00  0.00    -0.200 F 
ATOM     69  C   UNL A   1      42.696  24.639  25.718  1.00  0.00     0.200 A 
ATOM     70  F   UNL A   1      41.173  23.078  26.623  1.00  0.00    -0.200 F 
ATOM     71  F   UNL A   1      43.002  23.788  24.729  1.00  0.00    -0.200 F 
ENDBRANCH  47  61
BRANCH  48  72
ATOM     72  C   UNL A   1      39.452  32.088  35.612  1.00  0.00     0.064 A 
ATOM     73  C   UNL A   1      38.536  31.551  36.530  1.00  0.00     0.173 A 
ATOM     74  C   UNL A   1      39.926  33.386  35.853  1.00  0.00     0.173 A 
ATOM     75  F   UNL A   1      38.038  30.322  36.335  1.00  0.00    -0.203 F 
ATOM     76  C   UNL A   1      38.087  32.294  37.620  1.00  0.00     0.198 A 
ATOM     77  C   UNL A   1      39.502  34.115  36.963  1.00  0.00     0.198 A 
ATOM     78  F   UNL A   1      40.807  33.947  35.012  1.00  0.00    -0.203 F 
ATOM     79  F   UNL A   1      37.164  31.779  38.444  1.00  0.00    -0.200 F 
ATOM     80  C   UNL A   1      38.573  33.574  37.837  1.00  0.00     0.200 A 
ATOM     81  F   UNL A   1      39.989  35.346  37.179  1.00  0.00    -0.200 F 
ATOM     82  F   UNL A   1      38.138  34.290  38.884  1.00  0.00    -0.200 F 
ENDBRANCH  48  72
BRANCH  60  83
ATOM     83  C   UNL A   1      44.780  27.787  34.307  1.00  0.00     0.064 A 
ATOM     84  C   UNL A   1      45.979  28.512  34.340  1.00  0.00     0.173 A 
ATOM     85  C   UNL A   1      44.674  26.650  35.121  1.00  0.00     0.173 A 
ATOM     86  F   UNL A   1      46.134  29.597  33.566  1.00  0.00    -0.203 F 
ATOM     87  C   UNL A   1      47.038  28.103  35.145  1.00  0.00     0.198 A 
ATOM     88  C   UNL A   1      45.723  26.265  35.951  1.00  0.00     0.198 A 
ATOM     89  F   UNL A   1      43.545  25.926  35.132  1.00  0.00    -0.203 F 
ATOM     90  F   UNL A   1      48.192  28.787  35.128  1.00  0.00    -0.200 F 
ATOM     91  C   UNL A   1      46.906  26.988  35.958  1.00  0.00     0.200 A 
ATOM     92  F   UNL A   1      45.587  25.196  36.748  1.00  0.00    -0.200 F 
ATOM     93  F   UNL A   1      47.921  26.605  36.744  1.00  0.00    -0.200 F 
ENDBRANCH  60  83
ENDBRANCH  34  35
ENDBRANCH  26  29
ENDBRANCH  24  25
ENDBRANCH   1  24
TORSDOF 12
ENDMDL
