MODEL 1
REMARK VINA RESULT:     -13.6      0.000      0.000
REMARK SMILES COC(=O)c1c(NC(=O)[C@@H]2C[C@@H]2C(=O)NCCCNC(=O)c2ccc(-c3c4nc(c(-c5c(F)c(F)c(F)c(F)c5F)c5ccc([nH]5)c(-c5c(F)c(F)c(F)c(F)c5F)c5nc(c(-c6c(F)c(F)c(F)c(F)c6F)c6ccc3[nH]6)C=C5)C=C4)cc2)sc2c1CC[N@@H+](Cc1ccccc1)C2
REMARK SMILES IDX 16 1 15 2 13 3 14 4 12 6 10 7 11 8 8 9 7 10 9 12 6 13 5 14
REMARK SMILES IDX 87 15 85 16 86 17 88 18 98 19 89 20 90 21 3 23 4 24 2 25
REMARK SMILES IDX 1 26 91 27 92 28 93 29 97 30 94 31 96 32 95 33 17 34 18 35
REMARK SMILES IDX 19 36 20 37 21 39 22 40 23 41 84 42 24 43 83 44 25 45 26 46
REMARK SMILES IDX 27 47 77 48 28 49 82 50 76 51 78 52 29 53 81 54 75 55 74 56
REMARK SMILES IDX 30 58 62 59 42 60 61 61 43 62 46 63 60 64 79 65 44 66 45 67
REMARK SMILES IDX 59 69 80 70 47 71 31 72 32 73 40 74 33 75 34 76 38 77 41 78
REMARK SMILES IDX 35 79 36 80 39 81 37 82 63 83 64 84 72 85 65 86 66 87 70 88
REMARK SMILES IDX 73 89 67 90 68 91 71 92 69 93 48 94 49 95 57 96 50 97 51 98
REMARK SMILES IDX 55 99 58 100 52 101 53 102 56 103 54 104
REMARK H PARENT 15 5 7 11 90 22 19 38 78 57 46 68
REMARK Flexibility Score: inf
ROOT
ATOM      1  C   UNL A   1      33.928  28.718  26.320  1.00  0.00     0.117 C 
ENDROOT
BRANCH   1   2
ATOM      2  N   UNL A   1      34.040  28.988  24.889  1.00  0.00    -0.356 N 
ATOM      3  C   UNL A   1      33.071  28.895  23.921  1.00  0.00     0.223 C 
ATOM      4  O   UNL A   1      33.287  29.212  22.760  1.00  0.00    -0.275 OA
ATOM      5  H   UNL A   1      34.928  29.278  24.578  1.00  0.00     0.163 HD
BRANCH   3   6
ATOM      6  C   UNL A   1      31.724  28.536  24.384  1.00  0.00     0.091 C 
ATOM      7  C   UNL A   1      31.034  27.292  23.888  1.00  0.00     0.092 C 
ATOM      8  C   UNL A   1      30.448  28.672  23.632  1.00  0.00     0.028 C 
BRANCH   7   9
ATOM      9  C   UNL A   1      31.216  26.487  22.674  1.00  0.00     0.228 C 
ATOM     10  N   UNL A   1      31.689  25.203  22.788  1.00  0.00    -0.317 N 
ATOM     11  H   UNL A   1      31.608  24.688  21.952  1.00  0.00     0.170 HD
ATOM     12  O   UNL A   1      30.862  26.919  21.579  1.00  0.00    -0.274 OA
BRANCH  10  13
ATOM     13  C   UNL A   1      32.253  24.476  23.822  1.00  0.00     0.110 A 
ATOM     14  C   UNL A   1      32.178  24.332  25.203  1.00  0.00     0.098 A 
ATOM     15  C   UNL A   1      33.110  23.328  25.672  1.00  0.00    -0.006 A 
ATOM     16  S   UNL A   1      33.468  23.447  23.151  1.00  0.00    -0.116 S 
ATOM     17  C   UNL A   1      33.772  22.705  24.640  1.00  0.00     0.065 A 
ATOM     18  C   UNL A   1      33.279  22.856  27.091  1.00  0.00     0.099 C 
ATOM     19  C   UNL A   1      34.627  21.484  24.797  1.00  0.00     0.310 C 
ATOM     20  C   UNL A   1      34.219  21.630  27.198  1.00  0.00     0.267 C 
ATOM     21  N   UNL A   1      34.296  20.738  26.027  1.00  0.00    -0.326 N 
ATOM     22  H   UNL A   1      35.089  20.121  26.203  1.00  0.00     0.348 HD
BRANCH  14  23
ATOM     23  C   UNL A   1      31.355  25.053  26.155  1.00  0.00     0.341 C 
ATOM     24  O   UNL A   1      31.802  25.910  26.908  1.00  0.00    -0.246 OA
BRANCH  23  25
ATOM     25  O   UNL A   1      30.054  24.640  26.140  1.00  0.00    -0.465 OA
ATOM     26  C   UNL A   1      29.786  23.414  26.828  1.00  0.00     0.282 C 
ENDBRANCH  23  25
ENDBRANCH  14  23
BRANCH  21  27
ATOM     27  C   UNL A   1      33.205  19.756  25.899  1.00  0.00     0.299 C 
BRANCH  27  28
ATOM     28  C   UNL A   1      33.289  18.736  24.781  1.00  0.00     0.006 A 
ATOM     29  C   UNL A   1      32.487  18.859  23.637  1.00  0.00     0.009 A 
ATOM     30  C   UNL A   1      34.202  17.672  24.845  1.00  0.00     0.009 A 
ATOM     31  C   UNL A   1      32.662  17.997  22.550  1.00  0.00     0.001 A 
ATOM     32  C   UNL A   1      34.392  16.826  23.752  1.00  0.00     0.001 A 
ATOM     33  C   UNL A   1      33.628  16.995  22.601  1.00  0.00     0.000 A 
ENDBRANCH  27  28
ENDBRANCH  21  27
ENDBRANCH  10  13
ENDBRANCH   7   9
ENDBRANCH   3   6
ENDBRANCH   1   2
BRANCH   1  34
ATOM     34  C   UNL A   1      33.627  29.967  27.149  1.00  0.00     0.042 C 
BRANCH  34  35
ATOM     35  C   UNL A   1      34.874  30.669  27.662  1.00  0.00     0.118 C 
BRANCH  35  36
ATOM     36  N   UNL A   1      34.595  31.739  28.629  1.00  0.00    -0.352 N 
ATOM     37  C   UNL A   1      35.111  31.887  29.906  1.00  0.00     0.251 C 
ATOM     38  H   UNL A   1      33.965  32.436  28.333  1.00  0.00     0.163 HD
ATOM     39  O   UNL A   1      34.556  32.586  30.744  1.00  0.00    -0.269 OA
BRANCH  37  40
ATOM     40  C   UNL A   1      36.360  31.181  30.234  1.00  0.00     0.039 A 
ATOM     41  C   UNL A   1      36.403  29.810  30.504  1.00  0.00     0.014 A 
ATOM     42  C   UNL A   1      37.524  31.934  30.172  1.00  0.00     0.014 A 
ATOM     43  C   UNL A   1      37.646  29.189  30.613  1.00  0.00     0.010 A 
ATOM     44  C   UNL A   1      38.722  31.290  30.055  1.00  0.00     0.010 A 
ATOM     45  C   UNL A   1      38.806  29.936  30.362  1.00  0.00    -0.014 A 
BRANCH  45  46
ATOM     46  C   UNL A   1      40.131  29.324  30.315  1.00  0.00     0.031 A 
ATOM     47  C   UNL A   1      40.793  29.146  31.638  1.00  0.00     0.074 A 
ATOM     48  C   UNL A   1      40.587  28.722  29.191  1.00  0.00     0.049 A 
ATOM     49  N   UNL A   1      41.922  29.637  32.033  1.00  0.00    -0.248 NA
ATOM     50  C   UNL A   1      40.063  28.420  32.693  1.00  0.00     0.031 C 
ATOM     51  C   UNL A   1      39.891  28.548  27.906  1.00  0.00     0.029 A 
ATOM     52  N   UNL A   1      41.729  28.011  28.995  1.00  0.00    -0.354 N 
ATOM     53  C   UNL A   1      42.141  29.126  33.311  1.00  0.00     0.074 A 
ATOM     54  C   UNL A   1      40.897  28.537  33.730  1.00  0.00     0.031 C 
ATOM     55  C   UNL A   1      40.493  27.579  27.187  1.00  0.00     0.029 A 
ATOM     56  C   UNL A   1      41.717  27.202  27.864  1.00  0.00     0.049 A 
ATOM     57  H   UNL A   1      42.501  28.064  29.604  1.00  0.00     0.167 HD
ATOM     58  C   UNL A   1      43.403  29.006  33.811  1.00  0.00     0.037 A 
ATOM     59  C   UNL A   1      42.635  26.265  27.522  1.00  0.00     0.037 A 
ATOM     60  C   UNL A   1      44.335  29.817  33.068  1.00  0.00     0.049 A 
ATOM     61  C   UNL A   1      43.864  26.559  28.298  1.00  0.00     0.074 A 
ATOM     62  C   UNL A   1      44.444  31.167  32.795  1.00  0.00     0.029 A 
ATOM     63  N   UNL A   1      45.142  29.190  32.151  1.00  0.00    -0.354 N 
ATOM     64  N   UNL A   1      44.597  27.623  28.117  1.00  0.00    -0.248 NA
ATOM     65  C   UNL A   1      44.009  25.911  29.592  1.00  0.00     0.031 C 
ATOM     66  C   UNL A   1      44.891  31.231  31.440  1.00  0.00     0.029 A 
ATOM     67  C   UNL A   1      45.099  29.926  30.996  1.00  0.00     0.049 A 
ATOM     68  H   UNL A   1      45.657  28.364  32.297  1.00  0.00     0.167 HD
ATOM     69  C   UNL A   1      44.947  28.028  29.397  1.00  0.00     0.074 A 
ATOM     70  C   UNL A   1      44.630  26.888  30.257  1.00  0.00     0.031 C 
ATOM     71  C   UNL A   1      45.179  29.344  29.678  1.00  0.00     0.037 A 
BRANCH  58  72
ATOM     72  C   UNL A   1      43.869  27.873  34.698  1.00  0.00     0.064 A 
ATOM     73  C   UNL A   1      43.759  26.548  34.228  1.00  0.00     0.173 A 
ATOM     74  C   UNL A   1      44.111  28.006  36.082  1.00  0.00     0.173 A 
ATOM     75  F   UNL A   1      43.519  26.300  32.931  1.00  0.00    -0.203 F 
ATOM     76  C   UNL A   1      43.791  25.451  35.094  1.00  0.00     0.198 A 
ATOM     77  C   UNL A   1      44.196  26.906  36.935  1.00  0.00     0.198 A 
ATOM     78  F   UNL A   1      44.157  29.197  36.688  1.00  0.00    -0.203 F 
ATOM     79  F   UNL A   1      43.541  24.223  34.621  1.00  0.00    -0.200 F 
ATOM     80  C   UNL A   1      43.999  25.632  36.448  1.00  0.00     0.200 A 
ATOM     81  F   UNL A   1      44.383  27.105  38.247  1.00  0.00    -0.200 F 
ATOM     82  F   UNL A   1      43.960  24.591  37.290  1.00  0.00    -0.200 F 
ENDBRANCH  58  72
BRANCH  59  83
ATOM     83  C   UNL A   1      42.421  24.976  26.822  1.00  0.00     0.064 A 
ATOM     84  C   UNL A   1      43.075  24.690  25.614  1.00  0.00     0.173 A 
ATOM     85  C   UNL A   1      41.793  23.890  27.465  1.00  0.00     0.173 A 
ATOM     86  F   UNL A   1      43.735  25.658  24.961  1.00  0.00    -0.203 F 
ATOM     87  C   UNL A   1      43.124  23.391  25.094  1.00  0.00     0.198 A 
ATOM     88  C   UNL A   1      41.836  22.596  26.943  1.00  0.00     0.198 A 
ATOM     89  F   UNL A   1      41.208  24.046  28.662  1.00  0.00    -0.203 F 
ATOM     90  F   UNL A   1      43.814  23.146  23.971  1.00  0.00    -0.200 F 
ATOM     91  C   UNL A   1      42.514  22.345  25.765  1.00  0.00     0.200 A 
ATOM     92  F   UNL A   1      41.275  21.585  27.620  1.00  0.00    -0.200 F 
ATOM     93  F   UNL A   1      42.616  21.091  25.301  1.00  0.00    -0.200 F 
ENDBRANCH  59  83
BRANCH  71  94
ATOM     94  C   UNL A   1      45.298  30.298  28.520  1.00  0.00     0.064 A 
ATOM     95  C   UNL A   1      44.209  30.961  27.925  1.00  0.00     0.173 A 
ATOM     96  C   UNL A   1      46.581  30.664  28.095  1.00  0.00     0.173 A 
ATOM     97  F   UNL A   1      42.958  30.747  28.342  1.00  0.00    -0.203 F 
ATOM     98  C   UNL A   1      44.398  31.908  26.919  1.00  0.00     0.198 A 
ATOM     99  C   UNL A   1      46.769  31.637  27.117  1.00  0.00     0.198 A 
ATOM    100  F   UNL A   1      47.660  30.109  28.665  1.00  0.00    -0.203 F 
ATOM    101  F   UNL A   1      43.340  32.516  26.360  1.00  0.00    -0.200 F 
ATOM    102  C   UNL A   1      45.677  32.251  26.521  1.00  0.00     0.200 A 
ATOM    103  F   UNL A   1      48.011  32.001  26.771  1.00  0.00    -0.200 F 
ATOM    104  F   UNL A   1      45.863  33.190  25.584  1.00  0.00    -0.200 F 
ENDBRANCH  71  94
ENDBRANCH  45  46
ENDBRANCH  37  40
ENDBRANCH  35  36
ENDBRANCH  34  35
ENDBRANCH   1  34
TORSDOF 16
ENDMDL
MODEL 2
REMARK VINA RESULT:     -13.3      2.603      6.996
REMARK SMILES COC(=O)c1c(NC(=O)[C@@H]2C[C@@H]2C(=O)NCCCNC(=O)c2ccc(-c3c4nc(c(-c5c(F)c(F)c(F)c(F)c5F)c5ccc([nH]5)c(-c5c(F)c(F)c(F)c(F)c5F)c5nc(c(-c6c(F)c(F)c(F)c(F)c6F)c6ccc3[nH]6)C=C5)C=C4)cc2)sc2c1CC[N@@H+](Cc1ccccc1)C2
REMARK SMILES IDX 16 1 15 2 13 3 14 4 12 6 10 7 11 8 8 9 7 10 9 12 6 13 5 14
REMARK SMILES IDX 87 15 85 16 86 17 88 18 98 19 89 20 90 21 3 23 4 24 2 25
REMARK SMILES IDX 1 26 91 27 92 28 93 29 97 30 94 31 96 32 95 33 17 34 18 35
REMARK SMILES IDX 19 36 20 37 21 39 22 40 23 41 84 42 24 43 83 44 25 45 26 46
REMARK SMILES IDX 27 47 77 48 28 49 82 50 76 51 78 52 29 53 81 54 75 55 74 56
REMARK SMILES IDX 30 58 62 59 42 60 61 61 43 62 46 63 60 64 79 65 44 66 45 67
REMARK SMILES IDX 59 69 80 70 47 71 31 72 32 73 40 74 33 75 34 76 38 77 41 78
REMARK SMILES IDX 35 79 36 80 39 81 37 82 63 83 64 84 72 85 65 86 66 87 70 88
REMARK SMILES IDX 73 89 67 90 68 91 71 92 69 93 48 94 49 95 57 96 50 97 51 98
REMARK SMILES IDX 55 99 58 100 52 101 53 102 56 103 54 104
REMARK H PARENT 15 5 7 11 90 22 19 38 78 57 46 68
REMARK Flexibility Score: inf
ROOT
ATOM      1  C   UNL A   1      31.484  30.506  25.639  1.00  0.00     0.117 C 
ENDROOT
BRANCH   1   2
ATOM      2  N   UNL A   1      30.782  30.687  24.371  1.00  0.00    -0.356 N 
ATOM      3  C   UNL A   1      30.140  29.746  23.605  1.00  0.00     0.223 C 
ATOM      4  O   UNL A   1      29.537  30.048  22.584  1.00  0.00    -0.275 OA
ATOM      5  H   UNL A   1      30.765  31.607  24.021  1.00  0.00     0.163 HD
BRANCH   3   6
ATOM      6  C   UNL A   1      30.094  28.385  24.153  1.00  0.00     0.091 C 
ATOM      7  C   UNL A   1      31.301  27.484  24.109  1.00  0.00     0.092 C 
ATOM      8  C   UNL A   1      30.013  27.110  23.391  1.00  0.00     0.028 C 
BRANCH   7   9
ATOM      9  C   UNL A   1      32.489  27.477  23.247  1.00  0.00     0.228 C 
ATOM     10  N   UNL A   1      33.396  26.454  23.367  1.00  0.00    -0.317 N 
ATOM     11  H   UNL A   1      34.056  26.437  22.635  1.00  0.00     0.170 HD
ATOM     12  O   UNL A   1      32.624  28.321  22.363  1.00  0.00    -0.274 OA
BRANCH  10  13
ATOM     13  C   UNL A   1      33.585  25.441  24.292  1.00  0.00     0.110 A 
ATOM     14  C   UNL A   1      33.212  25.079  25.582  1.00  0.00     0.098 A 
ATOM     15  C   UNL A   1      33.806  23.814  25.958  1.00  0.00    -0.006 A 
ATOM     16  S   UNL A   1      34.669  24.285  23.605  1.00  0.00    -0.116 S 
ATOM     17  C   UNL A   1      34.515  23.241  24.927  1.00  0.00     0.065 A 
ATOM     18  C   UNL A   1      33.593  23.072  27.249  1.00  0.00     0.099 C 
ATOM     19  C   UNL A   1      35.053  21.842  24.943  1.00  0.00     0.310 C 
ATOM     20  C   UNL A   1      34.221  21.656  27.229  1.00  0.00     0.267 C 
ATOM     21  N   UNL A   1      34.341  20.993  25.919  1.00  0.00    -0.326 N 
ATOM     22  H   UNL A   1      34.939  20.182  26.074  1.00  0.00     0.348 HD
BRANCH  14  23
ATOM     23  C   UNL A   1      32.384  25.797  26.532  1.00  0.00     0.341 C 
ATOM     24  O   UNL A   1      31.270  25.413  26.868  1.00  0.00    -0.246 OA
BRANCH  23  25
ATOM     25  O   UNL A   1      32.967  26.951  26.967  1.00  0.00    -0.465 OA
ATOM     26  C   UNL A   1      32.098  27.867  27.641  1.00  0.00     0.282 C 
ENDBRANCH  23  25
ENDBRANCH  14  23
BRANCH  21  27
ATOM     27  C   UNL A   1      33.118  20.341  25.417  1.00  0.00     0.299 C 
BRANCH  27  28
ATOM     28  C   UNL A   1      33.269  19.118  24.537  1.00  0.00     0.006 A 
ATOM     29  C   UNL A   1      32.412  18.909  23.446  1.00  0.00     0.009 A 
ATOM     30  C   UNL A   1      34.297  18.190  24.765  1.00  0.00     0.009 A 
ATOM     31  C   UNL A   1      32.637  17.855  22.556  1.00  0.00     0.001 A 
ATOM     32  C   UNL A   1      34.535  17.150  23.865  1.00  0.00     0.001 A 
ATOM     33  C   UNL A   1      33.710  16.989  22.755  1.00  0.00     0.000 A 
ENDBRANCH  27  28
ENDBRANCH  21  27
ENDBRANCH  10  13
ENDBRANCH   7   9
ENDBRANCH   3   6
ENDBRANCH   1   2
BRANCH   1  34
ATOM     34  C   UNL A   1      31.216  31.629  26.643  1.00  0.00     0.042 C 
BRANCH  34  35
ATOM     35  C   UNL A   1      32.466  32.398  27.038  1.00  0.00     0.118 C 
BRANCH  35  36
ATOM     36  N   UNL A   1      32.217  33.813  27.345  1.00  0.00    -0.352 N 
ATOM     37  C   UNL A   1      32.834  34.595  28.308  1.00  0.00     0.251 C 
ATOM     38  H   UNL A   1      31.529  34.260  26.800  1.00  0.00     0.163 HD
ATOM     39  O   UNL A   1      32.319  35.626  28.723  1.00  0.00    -0.269 OA
BRANCH  37  40
ATOM     40  C   UNL A   1      34.141  34.158  28.822  1.00  0.00     0.039 A 
ATOM     41  C   UNL A   1      34.278  33.410  29.995  1.00  0.00     0.014 A 
ATOM     42  C   UNL A   1      35.242  34.447  28.027  1.00  0.00     0.014 A 
ATOM     43  C   UNL A   1      35.528  32.874  30.305  1.00  0.00     0.010 A 
ATOM     44  C   UNL A   1      36.395  33.741  28.212  1.00  0.00     0.010 A 
ATOM     45  C   UNL A   1      36.580  33.026  29.389  1.00  0.00    -0.014 A 
BRANCH  45  46
ATOM     46  C   UNL A   1      37.872  32.371  29.575  1.00  0.00     0.031 A 
ATOM     47  C   UNL A   1      37.949  30.969  29.077  1.00  0.00     0.074 A 
ATOM     48  C   UNL A   1      38.975  33.079  29.918  1.00  0.00     0.049 A 
ATOM     49  N   UNL A   1      38.221  29.901  29.753  1.00  0.00    -0.248 NA
ATOM     50  C   UNL A   1      37.573  30.702  27.678  1.00  0.00     0.031 C 
ATOM     51  C   UNL A   1      39.096  34.531  30.124  1.00  0.00     0.029 A 
ATOM     52  N   UNL A   1      40.266  32.667  30.024  1.00  0.00    -0.354 N 
ATOM     53  C   UNL A   1      38.244  28.855  28.832  1.00  0.00     0.074 A 
ATOM     54  C   UNL A   1      37.669  29.372  27.619  1.00  0.00     0.031 C 
ATOM     55  C   UNL A   1      40.393  34.895  30.059  1.00  0.00     0.029 A 
ATOM     56  C   UNL A   1      41.202  33.696  30.003  1.00  0.00     0.049 A 
ATOM     57  H   UNL A   1      40.518  31.719  30.107  1.00  0.00     0.167 HD
ATOM     58  C   UNL A   1      38.972  27.728  29.070  1.00  0.00     0.037 A 
ATOM     59  C   UNL A   1      42.549  33.571  29.916  1.00  0.00     0.037 A 
ATOM     60  C   UNL A   1      39.311  27.615  30.466  1.00  0.00     0.049 A 
ATOM     61  C   UNL A   1      42.881  32.176  30.300  1.00  0.00     0.074 A 
ATOM     62  C   UNL A   1      38.585  27.536  31.640  1.00  0.00     0.029 A 
ATOM     63  N   UNL A   1      40.587  27.954  30.846  1.00  0.00    -0.354 N 
ATOM     64  N   UNL A   1      42.720  31.700  31.504  1.00  0.00    -0.248 NA
ATOM     65  C   UNL A   1      42.941  31.187  29.237  1.00  0.00     0.031 C 
ATOM     66  C   UNL A   1      39.322  28.317  32.580  1.00  0.00     0.029 A 
ATOM     67  C   UNL A   1      40.485  28.760  31.950  1.00  0.00     0.049 A 
ATOM     68  H   UNL A   1      41.420  27.669  30.407  1.00  0.00     0.167 HD
ATOM     69  C   UNL A   1      42.220  30.421  31.309  1.00  0.00     0.074 A 
ATOM     70  C   UNL A   1      42.460  30.130  29.896  1.00  0.00     0.031 C 
ATOM     71  C   UNL A   1      41.397  29.841  32.232  1.00  0.00     0.037 A 
BRANCH  58  72
ATOM     72  C   UNL A   1      39.711  26.945  28.008  1.00  0.00     0.064 A 
ATOM     73  C   UNL A   1      39.687  25.535  28.058  1.00  0.00     0.173 A 
ATOM     74  C   UNL A   1      40.686  27.504  27.154  1.00  0.00     0.173 A 
ATOM     75  F   UNL A   1      38.810  24.894  28.844  1.00  0.00    -0.203 F 
ATOM     76  C   UNL A   1      40.630  24.756  27.382  1.00  0.00     0.198 A 
ATOM     77  C   UNL A   1      41.590  26.721  26.438  1.00  0.00     0.198 A 
ATOM     78  F   UNL A   1      40.884  28.824  27.064  1.00  0.00    -0.203 F 
ATOM     79  F   UNL A   1      40.656  23.430  27.571  1.00  0.00    -0.200 F 
ATOM     80  C   UNL A   1      41.587  25.351  26.580  1.00  0.00     0.200 A 
ATOM     81  F   UNL A   1      42.520  27.318  25.679  1.00  0.00    -0.200 F 
ATOM     82  F   UNL A   1      42.535  24.613  25.988  1.00  0.00    -0.200 F 
ENDBRANCH  58  72
BRANCH  59  83
ATOM     83  C   UNL A   1      43.517  34.463  29.234  1.00  0.00     0.064 A 
ATOM     84  C   UNL A   1      44.518  35.132  29.954  1.00  0.00     0.173 A 
ATOM     85  C   UNL A   1      43.654  34.456  27.831  1.00  0.00     0.173 A 
ATOM     86  F   UNL A   1      44.486  35.147  31.295  1.00  0.00    -0.203 F 
ATOM     87  C   UNL A   1      45.608  35.733  29.313  1.00  0.00     0.198 A 
ATOM     88  C   UNL A   1      44.738  35.062  27.192  1.00  0.00     0.198 A 
ATOM     89  F   UNL A   1      42.791  33.779  27.060  1.00  0.00    -0.203 F 
ATOM     90  F   UNL A   1      46.577  36.306  30.039  1.00  0.00    -0.200 F 
ATOM     91  C   UNL A   1      45.722  35.687  27.934  1.00  0.00     0.200 A 
ATOM     92  F   UNL A   1      44.857  34.979  25.859  1.00  0.00    -0.200 F 
ATOM     93  F   UNL A   1      46.797  36.206  27.325  1.00  0.00    -0.200 F 
ENDBRANCH  59  83
BRANCH  71  94
ATOM     94  C   UNL A   1      41.258  30.515  33.570  1.00  0.00     0.064 A 
ATOM     95  C   UNL A   1      40.281  31.481  33.872  1.00  0.00     0.173 A 
ATOM     96  C   UNL A   1      42.054  30.058  34.627  1.00  0.00     0.173 A 
ATOM     97  F   UNL A   1      39.413  31.899  32.946  1.00  0.00    -0.203 F 
ATOM     98  C   UNL A   1      40.144  31.996  35.161  1.00  0.00     0.198 A 
ATOM     99  C   UNL A   1      41.890  30.545  35.921  1.00  0.00     0.198 A 
ATOM    100  F   UNL A   1      42.965  29.096  34.413  1.00  0.00    -0.203 F 
ATOM    101  F   UNL A   1      39.211  32.926  35.418  1.00  0.00    -0.200 F 
ATOM    102  C   UNL A   1      40.943  31.523  36.185  1.00  0.00     0.200 A 
ATOM    103  F   UNL A   1      42.633  30.047  36.918  1.00  0.00    -0.200 F 
ATOM    104  F   UNL A   1      40.785  31.986  37.433  1.00  0.00    -0.200 F 
ENDBRANCH  71  94
ENDBRANCH  45  46
ENDBRANCH  37  40
ENDBRANCH  35  36
ENDBRANCH  34  35
ENDBRANCH   1  34
TORSDOF 16
ENDMDL
MODEL 3
REMARK VINA RESULT:     -13.3      3.335      9.078
REMARK SMILES COC(=O)c1c(NC(=O)[C@@H]2C[C@@H]2C(=O)NCCCNC(=O)c2ccc(-c3c4nc(c(-c5c(F)c(F)c(F)c(F)c5F)c5ccc([nH]5)c(-c5c(F)c(F)c(F)c(F)c5F)c5nc(c(-c6c(F)c(F)c(F)c(F)c6F)c6ccc3[nH]6)C=C5)C=C4)cc2)sc2c1CC[N@@H+](Cc1ccccc1)C2
REMARK SMILES IDX 16 1 15 2 13 3 14 4 12 6 10 7 11 8 8 9 7 10 9 12 6 13 5 14
REMARK SMILES IDX 87 15 85 16 86 17 88 18 98 19 89 20 90 21 3 23 4 24 2 25
REMARK SMILES IDX 1 26 91 27 92 28 93 29 97 30 94 31 96 32 95 33 17 34 18 35
REMARK SMILES IDX 19 36 20 37 21 39 22 40 23 41 84 42 24 43 83 44 25 45 26 46
REMARK SMILES IDX 27 47 77 48 28 49 82 50 76 51 78 52 29 53 81 54 75 55 74 56
REMARK SMILES IDX 30 58 62 59 42 60 61 61 43 62 46 63 60 64 79 65 44 66 45 67
REMARK SMILES IDX 59 69 80 70 47 71 31 72 32 73 40 74 33 75 34 76 38 77 41 78
REMARK SMILES IDX 35 79 36 80 39 81 37 82 63 83 64 84 72 85 65 86 66 87 70 88
REMARK SMILES IDX 73 89 67 90 68 91 71 92 69 93 48 94 49 95 57 96 50 97 51 98
REMARK SMILES IDX 55 99 58 100 52 101 53 102 56 103 54 104
REMARK H PARENT 15 5 7 11 90 22 19 38 78 57 46 68
REMARK Flexibility Score: inf
ROOT
ATOM      1  C   UNL A   1      36.548  23.682  26.021  1.00  0.00     0.117 C 
ENDROOT
BRANCH   1   2
ATOM      2  N   UNL A   1      35.630  23.007  26.934  1.00  0.00    -0.356 N 
ATOM      3  C   UNL A   1      34.841  21.908  26.700  1.00  0.00     0.223 C 
ATOM      4  O   UNL A   1      34.156  21.406  27.581  1.00  0.00    -0.275 OA
ATOM      5  H   UNL A   1      35.570  23.390  27.839  1.00  0.00     0.163 HD
BRANCH   3   6
ATOM      6  C   UNL A   1      34.977  21.283  25.378  1.00  0.00     0.091 C 
ATOM      7  C   UNL A   1      33.788  21.118  24.467  1.00  0.00     0.092 C 
ATOM      8  C   UNL A   1      34.556  19.911  24.985  1.00  0.00     0.028 C 
BRANCH   7   9
ATOM      9  C   UNL A   1      32.347  21.068  24.734  1.00  0.00     0.228 C 
ATOM     10  N   UNL A   1      31.598  22.208  24.583  1.00  0.00    -0.317 N 
ATOM     11  H   UNL A   1      30.628  22.038  24.608  1.00  0.00     0.170 HD
ATOM     12  O   UNL A   1      31.797  20.000  24.997  1.00  0.00    -0.274 OA
BRANCH  10  13
ATOM     13  C   UNL A   1      31.910  23.545  24.402  1.00  0.00     0.110 A 
ATOM     14  C   UNL A   1      32.716  24.366  23.621  1.00  0.00     0.098 A 
ATOM     15  C   UNL A   1      32.541  25.757  23.978  1.00  0.00    -0.006 A 
ATOM     16  S   UNL A   1      31.019  24.463  25.562  1.00  0.00    -0.116 S 
ATOM     17  C   UNL A   1      31.565  25.934  24.932  1.00  0.00     0.065 A 
ATOM     18  C   UNL A   1      33.199  26.940  23.321  1.00  0.00     0.099 C 
ATOM     19  C   UNL A   1      31.010  27.266  25.338  1.00  0.00     0.310 C 
ATOM     20  C   UNL A   1      32.626  28.290  23.823  1.00  0.00     0.267 C 
ATOM     21  N   UNL A   1      31.232  28.292  24.299  1.00  0.00    -0.326 N 
ATOM     22  H   UNL A   1      31.100  29.191  24.761  1.00  0.00     0.348 HD
BRANCH  14  23
ATOM     23  C   UNL A   1      33.669  24.000  22.590  1.00  0.00     0.341 C 
ATOM     24  O   UNL A   1      33.333  23.554  21.500  1.00  0.00    -0.246 OA
BRANCH  23  25
ATOM     25  O   UNL A   1      34.963  24.171  22.988  1.00  0.00    -0.465 OA
ATOM     26  C   UNL A   1      35.870  23.132  22.607  1.00  0.00     0.282 C 
ENDBRANCH  23  25
ENDBRANCH  14  23
BRANCH  21  27
ATOM     27  C   UNL A   1      30.198  28.365  23.252  1.00  0.00     0.299 C 
BRANCH  27  28
ATOM     28  C   UNL A   1      29.636  29.727  22.896  1.00  0.00     0.006 A 
ATOM     29  C   UNL A   1      29.264  30.027  21.577  1.00  0.00     0.009 A 
ATOM     30  C   UNL A   1      29.431  30.701  23.884  1.00  0.00     0.009 A 
ATOM     31  C   UNL A   1      28.621  31.230  21.275  1.00  0.00     0.001 A 
ATOM     32  C   UNL A   1      28.769  31.893  23.587  1.00  0.00     0.001 A 
ATOM     33  C   UNL A   1      28.355  32.152  22.284  1.00  0.00     0.000 A 
ENDBRANCH  27  28
ENDBRANCH  21  27
ENDBRANCH  10  13
ENDBRANCH   7   9
ENDBRANCH   3   6
ENDBRANCH   1   2
BRANCH   1  34
ATOM     34  C   UNL A   1      37.849  22.910  25.794  1.00  0.00     0.042 C 
BRANCH  34  35
ATOM     35  C   UNL A   1      39.008  23.417  26.638  1.00  0.00     0.118 C 
BRANCH  35  36
ATOM     36  N   UNL A   1      40.297  22.796  26.304  1.00  0.00    -0.352 N 
ATOM     37  C   UNL A   1      41.503  23.429  26.045  1.00  0.00     0.251 C 
ATOM     38  H   UNL A   1      40.306  21.813  26.259  1.00  0.00     0.163 HD
ATOM     39  O   UNL A   1      42.403  22.866  25.436  1.00  0.00    -0.269 OA
BRANCH  37  40
ATOM     40  C   UNL A   1      41.681  24.806  26.532  1.00  0.00     0.039 A 
ATOM     41  C   UNL A   1      41.152  25.915  25.866  1.00  0.00     0.014 A 
ATOM     42  C   UNL A   1      42.329  24.947  27.751  1.00  0.00     0.014 A 
ATOM     43  C   UNL A   1      41.201  27.158  26.495  1.00  0.00     0.010 A 
ATOM     44  C   UNL A   1      42.173  26.107  28.452  1.00  0.00     0.010 A 
ATOM     45  C   UNL A   1      41.694  27.241  27.806  1.00  0.00    -0.014 A 
BRANCH  45  46
ATOM     46  C   UNL A   1      41.642  28.477  28.580  1.00  0.00     0.031 A 
ATOM     47  C   UNL A   1      42.720  29.461  28.276  1.00  0.00     0.074 A 
ATOM     48  C   UNL A   1      40.547  28.806  29.306  1.00  0.00     0.049 A 
ATOM     49  N   UNL A   1      43.606  29.942  29.084  1.00  0.00    -0.248 NA
ATOM     50  C   UNL A   1      42.908  29.882  26.876  1.00  0.00     0.031 C 
ATOM     51  C   UNL A   1      39.282  28.066  29.429  1.00  0.00     0.029 A 
ATOM     52  N   UNL A   1      40.276  29.950  29.989  1.00  0.00    -0.354 N 
ATOM     53  C   UNL A   1      44.338  30.872  28.349  1.00  0.00     0.074 A 
ATOM     54  C   UNL A   1      43.986  30.665  26.970  1.00  0.00     0.031 C 
ATOM     55  C   UNL A   1      38.317  28.883  29.900  1.00  0.00     0.029 A 
ATOM     56  C   UNL A   1      38.931  30.135  30.291  1.00  0.00     0.049 A 
ATOM     57  H   UNL A   1      40.974  30.595  30.247  1.00  0.00     0.167 HD
ATOM     58  C   UNL A   1      44.978  31.905  28.964  1.00  0.00     0.037 A 
ATOM     59  C   UNL A   1      38.356  31.251  30.802  1.00  0.00     0.037 A 
ATOM     60  C   UNL A   1      45.132  31.653  30.375  1.00  0.00     0.049 A 
ATOM     61  C   UNL A   1      39.444  32.064  31.400  1.00  0.00     0.074 A 
ATOM     62  C   UNL A   1      45.749  30.670  31.124  1.00  0.00     0.029 A 
ATOM     63  N   UNL A   1      44.273  32.287  31.239  1.00  0.00    -0.354 N 
ATOM     64  N   UNL A   1      40.125  31.700  32.451  1.00  0.00    -0.248 NA
ATOM     65  C   UNL A   1      40.086  33.052  30.547  1.00  0.00     0.031 C 
ATOM     66  C   UNL A   1      44.870  30.442  32.225  1.00  0.00     0.029 A 
ATOM     67  C   UNL A   1      43.813  31.347  32.124  1.00  0.00     0.049 A 
ATOM     68  H   UNL A   1      44.031  33.241  31.224  1.00  0.00     0.167 HD
ATOM     69  C   UNL A   1      41.432  32.061  32.162  1.00  0.00     0.074 A 
ATOM     70  C   UNL A   1      41.334  32.965  31.017  1.00  0.00     0.031 C 
ATOM     71  C   UNL A   1      42.484  31.364  32.684  1.00  0.00     0.037 A 
BRANCH  58  72
ATOM     72  C   UNL A   1      45.108  33.298  28.389  1.00  0.00     0.064 A 
ATOM     73  C   UNL A   1      46.391  33.873  28.274  1.00  0.00     0.173 A 
ATOM     74  C   UNL A   1      44.027  34.196  28.250  1.00  0.00     0.173 A 
ATOM     75  F   UNL A   1      47.492  33.117  28.400  1.00  0.00    -0.203 F 
ATOM     76  C   UNL A   1      46.573  35.251  28.132  1.00  0.00     0.198 A 
ATOM     77  C   UNL A   1      44.213  35.563  28.053  1.00  0.00     0.198 A 
ATOM     78  F   UNL A   1      42.756  33.815  28.415  1.00  0.00    -0.203 F 
ATOM     79  F   UNL A   1      47.809  35.766  28.169  1.00  0.00    -0.200 F 
ATOM     80  C   UNL A   1      45.483  36.097  28.031  1.00  0.00     0.200 A 
ATOM     81  F   UNL A   1      43.144  36.368  27.975  1.00  0.00    -0.200 F 
ATOM     82  F   UNL A   1      45.653  37.423  27.966  1.00  0.00    -0.200 F 
ENDBRANCH  58  72
BRANCH  59  83
ATOM     83  C   UNL A   1      37.005  31.799  30.533  1.00  0.00     0.064 A 
ATOM     84  C   UNL A   1      36.050  31.906  31.556  1.00  0.00     0.173 A 
ATOM     85  C   UNL A   1      36.719  32.487  29.337  1.00  0.00     0.173 A 
ATOM     86  F   UNL A   1      36.266  31.318  32.742  1.00  0.00    -0.203 F 
ATOM     87  C   UNL A   1      34.892  32.678  31.404  1.00  0.00     0.198 A 
ATOM     88  C   UNL A   1      35.561  33.252  29.183  1.00  0.00     0.198 A 
ATOM     89  F   UNL A   1      37.604  32.510  28.330  1.00  0.00    -0.203 F 
ATOM     90  F   UNL A   1      34.036  32.808  32.426  1.00  0.00    -0.200 F 
ATOM     91  C   UNL A   1      34.655  33.358  30.222  1.00  0.00     0.200 A 
ATOM     92  F   UNL A   1      35.360  33.936  28.048  1.00  0.00    -0.200 F 
ATOM     93  F   UNL A   1      33.580  34.149  30.099  1.00  0.00    -0.200 F 
ENDBRANCH  59  83
BRANCH  71  94
ATOM     94  C   UNL A   1      42.195  30.368  33.775  1.00  0.00     0.064 A 
ATOM     95  C   UNL A   1      41.826  29.030  33.548  1.00  0.00     0.173 A 
ATOM     96  C   UNL A   1      42.441  30.749  35.100  1.00  0.00     0.173 A 
ATOM     97  F   UNL A   1      41.671  28.557  32.307  1.00  0.00    -0.203 F 
ATOM     98  C   UNL A   1      41.667  28.132  34.602  1.00  0.00     0.198 A 
ATOM     99  C   UNL A   1      42.319  29.841  36.148  1.00  0.00     0.198 A 
ATOM    100  F   UNL A   1      42.851  31.996  35.374  1.00  0.00    -0.203 F 
ATOM    101  F   UNL A   1      41.304  26.864  34.357  1.00  0.00    -0.200 F 
ATOM    102  C   UNL A   1      41.920  28.536  35.901  1.00  0.00     0.200 A 
ATOM    103  F   UNL A   1      42.613  30.224  37.398  1.00  0.00    -0.200 F 
ATOM    104  F   UNL A   1      41.808  27.664  36.912  1.00  0.00    -0.200 F 
ENDBRANCH  71  94
ENDBRANCH  45  46
ENDBRANCH  37  40
ENDBRANCH  35  36
ENDBRANCH  34  35
ENDBRANCH   1  34
TORSDOF 16
ENDMDL
