MODEL 1
REMARK VINA RESULT:     -12.1      0.000      0.000
REMARK SMILES COc1ccc(-c2sc(C(=O)NCCCNC(=O)c3ccc(-c4c5nc(c(-c6c(F)c(F)c(F)c(F)c6F)c6ccc([nH]6)c(-c6c(F)c(F)c(F)c(F)c6F)c6nc(c(-c7c(F)c(F)c(F)c(F)c7F)c7ccc4[nH]7)C=C6)C=C5)cc3)cc2C)c(OC)c1
REMARK SMILES IDX 14 1 13 2 12 3 10 4 11 5 9 7 7 8 8 9 83 10 82 11 84 12 6 13
REMARK SMILES IDX 3 14 4 15 88 16 5 17 85 18 2 19 1 20 86 21 87 22 15 23 16 24
REMARK SMILES IDX 17 25 18 27 19 28 20 29 81 30 21 31 80 32 22 33 23 34 24 35
REMARK SMILES IDX 74 36 25 37 79 38 73 39 75 40 26 41 78 42 72 43 71 44 27 46
REMARK SMILES IDX 59 47 39 48 58 49 40 50 43 51 57 52 76 53 41 54 42 55 56 57
REMARK SMILES IDX 77 58 44 59 28 60 29 61 37 62 30 63 31 64 35 65 38 66 32 67
REMARK SMILES IDX 33 68 36 69 34 70 60 71 61 72 69 73 62 74 63 75 67 76 70 77
REMARK SMILES IDX 64 78 65 79 68 80 66 81 45 82 46 83 54 84 47 85 48 86 52 87
REMARK SMILES IDX 55 88 49 89 50 90 53 91 51 92
REMARK H PARENT 12 6 16 26 75 45 43 56
REMARK Flexibility Score: inf
ROOT
ATOM      1  C   UNL A   1      32.323  28.210  25.361  1.00  0.00     0.042 C 
ENDROOT
BRANCH   1   2
ATOM      2  C   UNL A   1      32.424  26.988  26.273  1.00  0.00     0.118 C 
BRANCH   2   3
ATOM      3  N   UNL A   1      31.136  26.353  26.481  1.00  0.00    -0.351 N 
ATOM      4  C   UNL A   1      30.642  25.111  26.160  1.00  0.00     0.261 C 
ATOM      5  O   UNL A   1      29.517  24.875  26.619  1.00  0.00    -0.268 OA
ATOM      6  H   UNL A   1      30.485  26.926  26.946  1.00  0.00     0.163 HD
BRANCH   4   7
ATOM      7  C   UNL A   1      31.367  24.113  25.385  1.00  0.00     0.093 A 
ATOM      8  C   UNL A   1      32.512  22.120  24.446  1.00  0.00     0.042 A 
ATOM      9  S   UNL A   1      31.756  22.545  25.920  1.00  0.00    -0.130 S 
ATOM     10  C   UNL A   1      32.598  23.199  23.582  1.00  0.00    -0.031 A 
ATOM     11  C   UNL A   1      31.934  24.340  24.140  1.00  0.00     0.029 A 
ATOM     12  C   UNL A   1      33.279  23.210  22.254  1.00  0.00     0.046 C 
BRANCH   8  13
ATOM     13  C   UNL A   1      32.985  20.741  24.285  1.00  0.00     0.034 A 
ATOM     14  C   UNL A   1      33.773  18.061  24.004  1.00  0.00     0.122 A 
ATOM     15  C   UNL A   1      32.550  18.488  23.491  1.00  0.00     0.047 A 
ATOM     16  C   UNL A   1      34.624  18.981  24.625  1.00  0.00     0.093 A 
ATOM     17  C   UNL A   1      32.154  19.817  23.634  1.00  0.00     0.017 A 
ATOM     18  C   UNL A   1      34.243  20.325  24.765  1.00  0.00     0.131 A 
BRANCH  14  19
ATOM     19  O   UNL A   1      34.036  16.731  23.820  1.00  0.00    -0.497 OA
ATOM     20  C   UNL A   1      33.309  15.822  24.638  1.00  0.00     0.278 C 
ENDBRANCH  14  19
BRANCH  18  21
ATOM     21  O   UNL A   1      35.013  21.291  25.362  1.00  0.00    -0.496 OA
ATOM     22  C   UNL A   1      36.151  21.762  24.655  1.00  0.00     0.278 C 
ENDBRANCH  18  21
ENDBRANCH   8  13
ENDBRANCH   4   7
ENDBRANCH   2   3
ENDBRANCH   1   2
BRANCH   1  23
ATOM     23  C   UNL A   1      33.502  29.178  25.484  1.00  0.00     0.118 C 
BRANCH  23  24
ATOM     24  N   UNL A   1      33.099  30.480  25.995  1.00  0.00    -0.352 N 
ATOM     25  C   UNL A   1      33.577  31.229  27.035  1.00  0.00     0.251 C 
ATOM     26  H   UNL A   1      32.352  30.894  25.506  1.00  0.00     0.163 HD
ATOM     27  O   UNL A   1      32.934  32.214  27.399  1.00  0.00    -0.269 OA
BRANCH  25  28
ATOM     28  C   UNL A   1      34.838  30.894  27.734  1.00  0.00     0.039 A 
ATOM     29  C   UNL A   1      34.925  29.652  28.375  1.00  0.00     0.014 A 
ATOM     30  C   UNL A   1      35.890  31.808  27.857  1.00  0.00     0.014 A 
ATOM     31  C   UNL A   1      36.064  29.317  29.109  1.00  0.00     0.010 A 
ATOM     32  C   UNL A   1      37.053  31.450  28.541  1.00  0.00     0.010 A 
ATOM     33  C   UNL A   1      37.146  30.209  29.187  1.00  0.00    -0.014 A 
BRANCH  33  34
ATOM     34  C   UNL A   1      38.365  29.840  29.950  1.00  0.00     0.031 A 
ATOM     35  C   UNL A   1      38.593  30.362  31.339  1.00  0.00     0.074 A 
ATOM     36  C   UNL A   1      39.289  29.050  29.372  1.00  0.00     0.049 A 
ATOM     37  N   UNL A   1      39.579  30.115  32.166  1.00  0.00    -0.248 NA
ATOM     38  C   UNL A   1      37.596  31.308  31.862  1.00  0.00     0.031 C 
ATOM     39  C   UNL A   1      39.222  28.540  28.002  1.00  0.00     0.029 A 
ATOM     40  N   UNL A   1      40.466  28.544  29.861  1.00  0.00    -0.354 N 
ATOM     41  C   UNL A   1      39.330  30.883  33.294  1.00  0.00     0.074 A 
ATOM     42  C   UNL A   1      38.125  31.641  33.031  1.00  0.00     0.031 C 
ATOM     43  C   UNL A   1      40.300  27.775  27.767  1.00  0.00     0.029 A 
ATOM     44  C   UNL A   1      41.136  27.752  28.964  1.00  0.00     0.049 A 
ATOM     45  H   UNL A   1      40.798  28.730  30.770  1.00  0.00     0.167 HD
ATOM     46  C   UNL A   1      40.031  30.939  34.453  1.00  0.00     0.037 A 
ATOM     47  C   UNL A   1      42.290  27.069  29.094  1.00  0.00     0.037 A 
ATOM     48  C   UNL A   1      41.214  30.163  34.725  1.00  0.00     0.049 A 
ATOM     49  C   UNL A   1      43.011  27.083  30.412  1.00  0.00     0.074 A 
ATOM     50  C   UNL A   1      41.952  30.091  35.894  1.00  0.00     0.029 A 
ATOM     51  N   UNL A   1      41.833  29.324  33.810  1.00  0.00    -0.354 N 
ATOM     52  N   UNL A   1      42.716  27.741  31.507  1.00  0.00    -0.248 NA
ATOM     53  C   UNL A   1      44.211  26.243  30.519  1.00  0.00     0.031 C 
ATOM     54  C   UNL A   1      43.036  29.233  35.676  1.00  0.00     0.029 A 
ATOM     55  C   UNL A   1      42.952  28.740  34.383  1.00  0.00     0.049 A 
ATOM     56  H   UNL A   1      41.522  29.166  32.889  1.00  0.00     0.167 HD
ATOM     57  C   UNL A   1      43.680  27.384  32.438  1.00  0.00     0.074 A 
ATOM     58  C   UNL A   1      44.561  26.437  31.784  1.00  0.00     0.031 C 
ATOM     59  C   UNL A   1      43.822  27.803  33.720  1.00  0.00     0.037 A 
BRANCH  46  60
ATOM     60  C   UNL A   1      39.530  31.873  35.515  1.00  0.00     0.064 A 
ATOM     61  C   UNL A   1      39.989  33.196  35.607  1.00  0.00     0.173 A 
ATOM     62  C   UNL A   1      38.570  31.446  36.444  1.00  0.00     0.173 A 
ATOM     63  F   UNL A   1      40.914  33.651  34.748  1.00  0.00    -0.203 F 
ATOM     64  C   UNL A   1      39.534  34.046  36.613  1.00  0.00     0.198 A 
ATOM     65  C   UNL A   1      38.097  32.306  37.433  1.00  0.00     0.198 A 
ATOM     66  F   UNL A   1      38.092  30.193  36.397  1.00  0.00    -0.203 F 
ATOM     67  F   UNL A   1      40.027  35.287  36.714  1.00  0.00    -0.200 F 
ATOM     68  C   UNL A   1      38.586  33.600  37.521  1.00  0.00     0.200 A 
ATOM     69  F   UNL A   1      37.173  31.879  38.305  1.00  0.00    -0.200 F 
ATOM     70  F   UNL A   1      38.151  34.417  38.492  1.00  0.00    -0.200 F 
ENDBRANCH  46  60
BRANCH  47  71
ATOM     71  C   UNL A   1      42.789  26.268  27.951  1.00  0.00     0.064 A 
ATOM     72  C   UNL A   1      42.353  24.951  27.752  1.00  0.00     0.173 A 
ATOM     73  C   UNL A   1      43.670  26.817  27.009  1.00  0.00     0.173 A 
ATOM     74  F   UNL A   1      41.522  24.380  28.636  1.00  0.00    -0.203 F 
ATOM     75  C   UNL A   1      42.784  24.210  26.654  1.00  0.00     0.198 A 
ATOM     76  C   UNL A   1      44.084  26.083  25.901  1.00  0.00     0.198 A 
ATOM     77  F   UNL A   1      44.106  28.077  27.154  1.00  0.00    -0.203 F 
ATOM     78  F   UNL A   1      42.370  22.946  26.497  1.00  0.00    -0.200 F 
ATOM     79  C   UNL A   1      43.643  24.780  25.725  1.00  0.00     0.200 A 
ATOM     80  F   UNL A   1      44.902  26.640  24.998  1.00  0.00    -0.200 F 
ATOM     81  F   UNL A   1      44.045  24.072  24.661  1.00  0.00    -0.200 F 
ENDBRANCH  47  71
BRANCH  59  82
ATOM     82  C   UNL A   1      44.963  27.229  34.503  1.00  0.00     0.064 A 
ATOM     83  C   UNL A   1      44.826  26.037  35.230  1.00  0.00     0.173 A 
ATOM     84  C   UNL A   1      46.215  27.861  34.505  1.00  0.00     0.173 A 
ATOM     85  F   UNL A   1      43.643  25.403  35.271  1.00  0.00    -0.203 F 
ATOM     86  C   UNL A   1      45.895  25.512  35.950  1.00  0.00     0.198 A 
ATOM     87  C   UNL A   1      47.288  27.321  35.208  1.00  0.00     0.198 A 
ATOM     88  F   UNL A   1      46.398  29.001  33.823  1.00  0.00    -0.203 F 
ATOM     89  F   UNL A   1      45.731  24.395  36.672  1.00  0.00    -0.200 F 
ATOM     90  C   UNL A   1      47.127  26.151  35.934  1.00  0.00     0.200 A 
ATOM     91  F   UNL A   1      48.480  27.935  35.186  1.00  0.00    -0.200 F 
ATOM     92  F   UNL A   1      48.155  25.643  36.627  1.00  0.00    -0.200 F 
ENDBRANCH  59  82
ENDBRANCH  33  34
ENDBRANCH  25  28
ENDBRANCH  23  24
ENDBRANCH   1  23
TORSDOF 13
ENDMDL
MODEL 2
REMARK VINA RESULT:     -12.1      1.065      2.040
REMARK SMILES COc1ccc(-c2sc(C(=O)NCCCNC(=O)c3ccc(-c4c5nc(c(-c6c(F)c(F)c(F)c(F)c6F)c6ccc([nH]6)c(-c6c(F)c(F)c(F)c(F)c6F)c6nc(c(-c7c(F)c(F)c(F)c(F)c7F)c7ccc4[nH]7)C=C6)C=C5)cc3)cc2C)c(OC)c1
REMARK SMILES IDX 14 1 13 2 12 3 10 4 11 5 9 7 7 8 8 9 83 10 82 11 84 12 6 13
REMARK SMILES IDX 3 14 4 15 88 16 5 17 85 18 2 19 1 20 86 21 87 22 15 23 16 24
REMARK SMILES IDX 17 25 18 27 19 28 20 29 81 30 21 31 80 32 22 33 23 34 24 35
REMARK SMILES IDX 74 36 25 37 79 38 73 39 75 40 26 41 78 42 72 43 71 44 27 46
REMARK SMILES IDX 59 47 39 48 58 49 40 50 43 51 57 52 76 53 41 54 42 55 56 57
REMARK SMILES IDX 77 58 44 59 28 60 29 61 37 62 30 63 31 64 35 65 38 66 32 67
REMARK SMILES IDX 33 68 36 69 34 70 60 71 61 72 69 73 62 74 63 75 67 76 70 77
REMARK SMILES IDX 64 78 65 79 68 80 66 81 45 82 46 83 54 84 47 85 48 86 52 87
REMARK SMILES IDX 55 88 49 89 50 90 53 91 51 92
REMARK H PARENT 12 6 16 26 75 45 43 56
REMARK Flexibility Score: inf
ROOT
ATOM      1  C   UNL A   1      32.331  28.060  25.428  1.00  0.00     0.042 C 
ENDROOT
BRANCH   1   2
ATOM      2  C   UNL A   1      31.590  27.546  24.193  1.00  0.00     0.118 C 
BRANCH   2   3
ATOM      3  N   UNL A   1      32.496  27.245  23.100  1.00  0.00    -0.351 N 
ATOM      4  C   UNL A   1      32.991  26.067  22.593  1.00  0.00     0.261 C 
ATOM      5  O   UNL A   1      33.651  26.197  21.554  1.00  0.00    -0.268 OA
ATOM      6  H   UNL A   1      32.821  28.044  22.626  1.00  0.00     0.163 HD
BRANCH   4   7
ATOM      7  C   UNL A   1      32.744  24.754  23.173  1.00  0.00     0.093 A 
ATOM      8  C   UNL A   1      32.616  22.356  23.803  1.00  0.00     0.042 A 
ATOM      9  S   UNL A   1      33.301  23.277  22.536  1.00  0.00    -0.130 S 
ATOM     10  C   UNL A   1      31.845  23.136  24.648  1.00  0.00    -0.031 A 
ATOM     11  C   UNL A   1      31.929  24.517  24.270  1.00  0.00     0.029 A 
ATOM     12  C   UNL A   1      31.029  22.646  25.798  1.00  0.00     0.046 C 
BRANCH   8  13
ATOM     13  C   UNL A   1      32.883  20.913  23.831  1.00  0.00     0.034 A 
ATOM     14  C   UNL A   1      33.269  18.133  23.874  1.00  0.00     0.122 A 
ATOM     15  C   UNL A   1      32.350  18.699  22.992  1.00  0.00     0.047 A 
ATOM     16  C   UNL A   1      34.026  18.960  24.711  1.00  0.00     0.093 A 
ATOM     17  C   UNL A   1      32.152  20.078  22.972  1.00  0.00     0.017 A 
ATOM     18  C   UNL A   1      33.846  20.351  24.692  1.00  0.00     0.131 A 
BRANCH  14  19
ATOM     19  O   UNL A   1      33.354  16.768  23.813  1.00  0.00    -0.497 OA
ATOM     20  C   UNL A   1      34.332  16.157  24.645  1.00  0.00     0.278 C 
ENDBRANCH  14  19
BRANCH  18  21
ATOM     21  O   UNL A   1      34.542  21.234  25.480  1.00  0.00    -0.496 OA
ATOM     22  C   UNL A   1      35.957  21.257  25.359  1.00  0.00     0.278 C 
ENDBRANCH  18  21
ENDBRANCH   8  13
ENDBRANCH   4   7
ENDBRANCH   2   3
ENDBRANCH   1   2
BRANCH   1  23
ATOM     23  C   UNL A   1      33.266  29.239  25.148  1.00  0.00     0.118 C 
BRANCH  23  24
ATOM     24  N   UNL A   1      32.785  30.480  25.738  1.00  0.00    -0.352 N 
ATOM     25  C   UNL A   1      33.207  31.181  26.834  1.00  0.00     0.251 C 
ATOM     26  H   UNL A   1      32.023  30.886  25.265  1.00  0.00     0.163 HD
ATOM     27  O   UNL A   1      32.506  32.103  27.251  1.00  0.00    -0.269 OA
BRANCH  25  28
ATOM     28  C   UNL A   1      34.475  30.868  27.531  1.00  0.00     0.039 A 
ATOM     29  C   UNL A   1      34.626  29.586  28.073  1.00  0.00     0.014 A 
ATOM     30  C   UNL A   1      35.465  31.830  27.749  1.00  0.00     0.014 A 
ATOM     31  C   UNL A   1      35.772  29.262  28.803  1.00  0.00     0.010 A 
ATOM     32  C   UNL A   1      36.637  31.489  28.427  1.00  0.00     0.010 A 
ATOM     33  C   UNL A   1      36.795  30.208  28.975  1.00  0.00    -0.014 A 
BRANCH  33  34
ATOM     34  C   UNL A   1      38.022  29.853  29.732  1.00  0.00     0.031 A 
ATOM     35  C   UNL A   1      38.247  30.372  31.123  1.00  0.00     0.074 A 
ATOM     36  C   UNL A   1      38.955  29.079  29.148  1.00  0.00     0.049 A 
ATOM     37  N   UNL A   1      39.239  30.135  31.946  1.00  0.00    -0.248 NA
ATOM     38  C   UNL A   1      37.238  31.302  31.653  1.00  0.00     0.031 C 
ATOM     39  C   UNL A   1      38.891  28.573  27.776  1.00  0.00     0.029 A 
ATOM     40  N   UNL A   1      40.141  28.587  29.631  1.00  0.00    -0.354 N 
ATOM     41  C   UNL A   1      38.983  30.895  33.078  1.00  0.00     0.074 A 
ATOM     42  C   UNL A   1      37.766  31.637  32.822  1.00  0.00     0.031 C 
ATOM     43  C   UNL A   1      39.978  27.825  27.534  1.00  0.00     0.029 A 
ATOM     44  C   UNL A   1      40.819  27.808  28.729  1.00  0.00     0.049 A 
ATOM     45  H   UNL A   1      40.473  28.774  30.539  1.00  0.00     0.167 HD
ATOM     46  C   UNL A   1      39.687  30.955  34.235  1.00  0.00     0.037 A 
ATOM     47  C   UNL A   1      41.983  27.142  28.852  1.00  0.00     0.037 A 
ATOM     48  C   UNL A   1      40.881  30.195  34.500  1.00  0.00     0.049 A 
ATOM     49  C   UNL A   1      42.707  27.160  30.168  1.00  0.00     0.074 A 
ATOM     50  C   UNL A   1      41.624  30.128  35.666  1.00  0.00     0.029 A 
ATOM     51  N   UNL A   1      41.509  29.369  33.579  1.00  0.00    -0.354 N 
ATOM     52  N   UNL A   1      42.407  27.809  31.266  1.00  0.00    -0.248 NA
ATOM     53  C   UNL A   1      43.920  26.337  30.267  1.00  0.00     0.031 C 
ATOM     54  C   UNL A   1      42.720  29.287  35.441  1.00  0.00     0.029 A 
ATOM     55  C   UNL A   1      42.638  28.799  34.146  1.00  0.00     0.049 A 
ATOM     56  H   UNL A   1      41.198  29.211  32.659  1.00  0.00     0.167 HD
ATOM     57  C   UNL A   1      43.379  27.461  32.193  1.00  0.00     0.074 A 
ATOM     58  C   UNL A   1      44.271  26.529  31.532  1.00  0.00     0.031 C 
ATOM     59  C   UNL A   1      43.519  27.877  33.476  1.00  0.00     0.037 A 
BRANCH  46  60
ATOM     60  C   UNL A   1      39.176  31.878  35.303  1.00  0.00     0.064 A 
ATOM     61  C   UNL A   1      39.452  33.253  35.280  1.00  0.00     0.173 A 
ATOM     62  C   UNL A   1      38.390  31.384  36.354  1.00  0.00     0.173 A 
ATOM     63  F   UNL A   1      40.207  33.775  34.301  1.00  0.00    -0.203 F 
ATOM     64  C   UNL A   1      38.992  34.095  36.291  1.00  0.00     0.198 A 
ATOM     65  C   UNL A   1      37.909  32.232  37.349  1.00  0.00     0.198 A 
ATOM     66  F   UNL A   1      38.091  30.078  36.421  1.00  0.00    -0.203 F 
ATOM     67  F   UNL A   1      39.315  35.395  36.277  1.00  0.00    -0.200 F 
ATOM     68  C   UNL A   1      38.219  33.583  37.321  1.00  0.00     0.200 A 
ATOM     69  F   UNL A   1      37.153  31.740  38.341  1.00  0.00    -0.200 F 
ATOM     70  F   UNL A   1      37.779  34.393  38.296  1.00  0.00    -0.200 F 
ENDBRANCH  46  60
BRANCH  47  71
ATOM     71  C   UNL A   1      42.489  26.352  27.703  1.00  0.00     0.064 A 
ATOM     72  C   UNL A   1      43.443  26.889  26.828  1.00  0.00     0.173 A 
ATOM     73  C   UNL A   1      42.069  25.032  27.488  1.00  0.00     0.173 A 
ATOM     74  F   UNL A   1      43.861  28.153  26.987  1.00  0.00    -0.203 F 
ATOM     75  C   UNL A   1      43.955  26.134  25.775  1.00  0.00     0.198 A 
ATOM     76  C   UNL A   1      42.597  24.272  26.448  1.00  0.00     0.198 A 
ATOM     77  F   UNL A   1      41.165  24.474  28.306  1.00  0.00    -0.203 F 
ATOM     78  F   UNL A   1      44.850  26.677  24.939  1.00  0.00    -0.200 F 
ATOM     79  C   UNL A   1      43.537  24.824  25.591  1.00  0.00     0.200 A 
ATOM     80  F   UNL A   1      42.202  23.003  26.281  1.00  0.00    -0.200 F 
ATOM     81  F   UNL A   1      44.042  24.095  24.587  1.00  0.00    -0.200 F 
ENDBRANCH  47  71
BRANCH  59  82
ATOM     82  C   UNL A   1      44.671  27.315  34.253  1.00  0.00     0.064 A 
ATOM     83  C   UNL A   1      45.912  27.967  34.297  1.00  0.00     0.173 A 
ATOM     84  C   UNL A   1      44.524  26.128  34.986  1.00  0.00     0.173 A 
ATOM     85  F   UNL A   1      46.106  29.097  33.600  1.00  0.00    -0.203 F 
ATOM     86  C   UNL A   1      46.972  27.436  35.026  1.00  0.00     0.198 A 
ATOM     87  C   UNL A   1      45.579  25.613  35.733  1.00  0.00     0.198 A 
ATOM     88  F   UNL A   1      43.355  25.470  34.979  1.00  0.00    -0.203 F 
ATOM     89  F   UNL A   1      48.163  28.052  35.020  1.00  0.00    -0.200 F 
ATOM     90  C   UNL A   1      46.803  26.263  35.748  1.00  0.00     0.200 A 
ATOM     91  F   UNL A   1      45.413  24.483  36.436  1.00  0.00    -0.200 F 
ATOM     92  F   UNL A   1      47.825  25.755  36.450  1.00  0.00    -0.200 F 
ENDBRANCH  59  82
ENDBRANCH  33  34
ENDBRANCH  25  28
ENDBRANCH  23  24
ENDBRANCH   1  23
TORSDOF 13
ENDMDL
MODEL 3
REMARK VINA RESULT:     -12.0      1.994      3.487
REMARK SMILES COc1ccc(-c2sc(C(=O)NCCCNC(=O)c3ccc(-c4c5nc(c(-c6c(F)c(F)c(F)c(F)c6F)c6ccc([nH]6)c(-c6c(F)c(F)c(F)c(F)c6F)c6nc(c(-c7c(F)c(F)c(F)c(F)c7F)c7ccc4[nH]7)C=C6)C=C5)cc3)cc2C)c(OC)c1
REMARK SMILES IDX 14 1 13 2 12 3 10 4 11 5 9 7 7 8 8 9 83 10 82 11 84 12 6 13
REMARK SMILES IDX 3 14 4 15 88 16 5 17 85 18 2 19 1 20 86 21 87 22 15 23 16 24
REMARK SMILES IDX 17 25 18 27 19 28 20 29 81 30 21 31 80 32 22 33 23 34 24 35
REMARK SMILES IDX 74 36 25 37 79 38 73 39 75 40 26 41 78 42 72 43 71 44 27 46
REMARK SMILES IDX 59 47 39 48 58 49 40 50 43 51 57 52 76 53 41 54 42 55 56 57
REMARK SMILES IDX 77 58 44 59 28 60 29 61 37 62 30 63 31 64 35 65 38 66 32 67
REMARK SMILES IDX 33 68 36 69 34 70 60 71 61 72 69 73 62 74 63 75 67 76 70 77
REMARK SMILES IDX 64 78 65 79 68 80 66 81 45 82 46 83 54 84 47 85 48 86 52 87
REMARK SMILES IDX 55 88 49 89 50 90 53 91 51 92
REMARK H PARENT 12 6 16 26 75 45 43 56
REMARK Flexibility Score: inf
ROOT
ATOM      1  C   UNL A   1      31.459  32.110  26.876  1.00  0.00     0.042 C 
ENDROOT
BRANCH   1   2
ATOM      2  C   UNL A   1      31.743  30.608  26.867  1.00  0.00     0.118 C 
BRANCH   2   3
ATOM      3  N   UNL A   1      33.092  30.305  27.308  1.00  0.00    -0.351 N 
ATOM      4  C   UNL A   1      34.034  29.400  26.882  1.00  0.00     0.261 C 
ATOM      5  O   UNL A   1      35.139  29.519  27.427  1.00  0.00    -0.268 OA
ATOM      6  H   UNL A   1      33.392  30.858  28.064  1.00  0.00     0.163 HD
BRANCH   4   7
ATOM      7  C   UNL A   1      33.805  28.400  25.848  1.00  0.00     0.093 A 
ATOM      8  C   UNL A   1      33.344  26.391  24.463  1.00  0.00     0.042 A 
ATOM      9  S   UNL A   1      33.528  26.744  26.126  1.00  0.00    -0.130 S 
ATOM     10  C   UNL A   1      33.623  27.492  23.670  1.00  0.00    -0.031 A 
ATOM     11  C   UNL A   1      33.888  28.641  24.485  1.00  0.00     0.029 A 
ATOM     12  C   UNL A   1      33.653  27.516  22.177  1.00  0.00     0.046 C 
BRANCH   8  13
ATOM     13  C   UNL A   1      32.962  25.026  24.084  1.00  0.00     0.034 A 
ATOM     14  C   UNL A   1      32.331  22.412  23.279  1.00  0.00     0.122 A 
ATOM     15  C   UNL A   1      33.657  22.771  23.514  1.00  0.00     0.047 A 
ATOM     16  C   UNL A   1      31.312  23.348  23.484  1.00  0.00     0.093 A 
ATOM     17  C   UNL A   1      33.974  24.070  23.908  1.00  0.00     0.017 A 
ATOM     18  C   UNL A   1      31.616  24.656  23.893  1.00  0.00     0.131 A 
BRANCH  14  19
ATOM     19  O   UNL A   1      32.153  21.116  22.876  1.00  0.00    -0.497 OA
ATOM     20  C   UNL A   1      32.527  20.107  23.806  1.00  0.00     0.278 C 
ENDBRANCH  14  19
BRANCH  18  21
ATOM     21  O   UNL A   1      30.681  25.636  24.114  1.00  0.00    -0.496 OA
ATOM     22  C   UNL A   1      29.931  25.577  25.317  1.00  0.00     0.278 C 
ENDBRANCH  18  21
ENDBRANCH   8  13
ENDBRANCH   4   7
ENDBRANCH   2   3
ENDBRANCH   1   2
BRANCH   1  23
ATOM     23  C   UNL A   1      32.717  32.982  26.891  1.00  0.00     0.118 C 
BRANCH  23  24
ATOM     24  N   UNL A   1      32.508  34.243  27.588  1.00  0.00    -0.352 N 
ATOM     25  C   UNL A   1      33.046  34.734  28.746  1.00  0.00     0.251 C 
ATOM     26  H   UNL A   1      31.868  34.848  27.148  1.00  0.00     0.163 HD
ATOM     27  O   UNL A   1      32.556  35.750  29.240  1.00  0.00    -0.269 OA
BRANCH  25  28
ATOM     28  C   UNL A   1      34.193  34.086  29.420  1.00  0.00     0.039 A 
ATOM     29  C   UNL A   1      35.483  34.455  29.021  1.00  0.00     0.014 A 
ATOM     30  C   UNL A   1      34.028  33.060  30.355  1.00  0.00     0.014 A 
ATOM     31  C   UNL A   1      36.599  33.821  29.573  1.00  0.00     0.010 A 
ATOM     32  C   UNL A   1      35.144  32.468  30.951  1.00  0.00     0.010 A 
ATOM     33  C   UNL A   1      36.439  32.830  30.554  1.00  0.00    -0.014 A 
BRANCH  33  34
ATOM     34  C   UNL A   1      37.628  32.175  31.155  1.00  0.00     0.031 A 
ATOM     35  C   UNL A   1      38.099  32.547  32.532  1.00  0.00     0.074 A 
ATOM     36  C   UNL A   1      38.305  31.258  30.441  1.00  0.00     0.049 A 
ATOM     37  N   UNL A   1      39.093  32.053  33.229  1.00  0.00    -0.248 NA
ATOM     38  C   UNL A   1      37.378  33.636  33.207  1.00  0.00     0.031 C 
ATOM     39  C   UNL A   1      37.994  30.864  29.066  1.00  0.00     0.029 A 
ATOM     40  N   UNL A   1      39.396  30.495  30.770  1.00  0.00    -0.354 N 
ATOM     41  C   UNL A   1      39.124  32.778  34.411  1.00  0.00     0.074 A 
ATOM     42  C   UNL A   1      38.080  33.777  34.322  1.00  0.00     0.031 C 
ATOM     43  C   UNL A   1      38.862  29.918  28.675  1.00  0.00     0.029 A 
ATOM     44  C   UNL A   1      39.794  29.647  29.767  1.00  0.00     0.049 A 
ATOM     45  H   UNL A   1      39.851  30.549  31.641  1.00  0.00     0.167 HD
ATOM     46  C   UNL A   1      39.937  32.614  35.484  1.00  0.00     0.037 A 
ATOM     47  C   UNL A   1      40.789  28.741  29.734  1.00  0.00     0.037 A 
ATOM     48  C   UNL A   1      40.956  31.601  35.584  1.00  0.00     0.049 A 
ATOM     49  C   UNL A   1      41.629  28.522  30.960  1.00  0.00     0.074 A 
ATOM     50  C   UNL A   1      41.780  31.305  36.657  1.00  0.00     0.029 A 
ATOM     51  N   UNL A   1      41.293  30.719  34.568  1.00  0.00    -0.354 N 
ATOM     52  N   UNL A   1      41.590  29.150  32.110  1.00  0.00    -0.248 NA
ATOM     53  C   UNL A   1      42.636  27.454  30.892  1.00  0.00     0.031 C 
ATOM     54  C   UNL A   1      42.636  30.264  36.278  1.00  0.00     0.029 A 
ATOM     55  C   UNL A   1      42.320  29.886  34.982  1.00  0.00     0.049 A 
ATOM     56  H   UNL A   1      40.863  30.689  33.682  1.00  0.00     0.167 HD
ATOM     57  C   UNL A   1      42.550  28.546  32.908  1.00  0.00     0.074 A 
ATOM     58  C   UNL A   1      43.145  27.488  32.116  1.00  0.00     0.031 C 
ATOM     59  C   UNL A   1      42.906  28.842  34.183  1.00  0.00     0.037 A 
BRANCH  46  60
ATOM     60  C   UNL A   1      39.750  33.556  36.637  1.00  0.00     0.064 A 
ATOM     61  C   UNL A   1      38.913  33.239  37.717  1.00  0.00     0.173 A 
ATOM     62  C   UNL A   1      40.427  34.784  36.671  1.00  0.00     0.173 A 
ATOM     63  F   UNL A   1      38.236  32.080  37.729  1.00  0.00    -0.203 F 
ATOM     64  C   UNL A   1      38.729  34.132  38.770  1.00  0.00     0.198 A 
ATOM     65  C   UNL A   1      40.262  35.665  37.737  1.00  0.00     0.198 A 
ATOM     66  F   UNL A   1      41.245  35.134  35.667  1.00  0.00    -0.203 F 
ATOM     67  F   UNL A   1      37.882  33.831  39.763  1.00  0.00    -0.200 F 
ATOM     68  C   UNL A   1      39.406  35.342  38.780  1.00  0.00     0.200 A 
ATOM     69  F   UNL A   1      40.925  36.830  37.753  1.00  0.00    -0.200 F 
ATOM     70  F   UNL A   1      39.227  36.204  39.792  1.00  0.00    -0.200 F 
ENDBRANCH  46  60
BRANCH  47  71
ATOM     71  C   UNL A   1      40.993  27.935  28.506  1.00  0.00     0.064 A 
ATOM     72  C   UNL A   1      40.296  26.735  28.311  1.00  0.00     0.173 A 
ATOM     73  C   UNL A   1      41.848  28.372  27.484  1.00  0.00     0.173 A 
ATOM     74  F   UNL A   1      39.480  26.272  29.268  1.00  0.00    -0.203 F 
ATOM     75  C   UNL A   1      40.450  25.998  27.139  1.00  0.00     0.198 A 
ATOM     76  C   UNL A   1      41.985  27.645  26.305  1.00  0.00     0.198 A 
ATOM     77  F   UNL A   1      42.528  29.519  27.623  1.00  0.00    -0.203 F 
ATOM     78  F   UNL A   1      39.789  24.843  26.984  1.00  0.00    -0.200 F 
ATOM     79  C   UNL A   1      41.289  26.458  26.134  1.00  0.00     0.200 A 
ATOM     80  F   UNL A   1      42.785  28.099  25.330  1.00  0.00    -0.200 F 
ATOM     81  F   UNL A   1      41.425  25.756  25.001  1.00  0.00    -0.200 F 
ENDBRANCH  47  71
BRANCH  59  82
ATOM     82  C   UNL A   1      43.979  27.999  34.804  1.00  0.00     0.064 A 
ATOM     83  C   UNL A   1      43.675  26.807  35.478  1.00  0.00     0.173 A 
ATOM     84  C   UNL A   1      45.327  28.373  34.701  1.00  0.00     0.173 A 
ATOM     85  F   UNL A   1      42.399  26.416  35.617  1.00  0.00    -0.203 F 
ATOM     86  C   UNL A   1      44.682  26.032  36.048  1.00  0.00     0.198 A 
ATOM     87  C   UNL A   1      46.332  27.583  35.251  1.00  0.00     0.198 A 
ATOM     88  F   UNL A   1      45.668  29.502  34.062  1.00  0.00    -0.203 F 
ATOM     89  F   UNL A   1      44.366  24.919  36.725  1.00  0.00    -0.200 F 
ATOM     90  C   UNL A   1      46.009  26.418  35.929  1.00  0.00     0.200 A 
ATOM     91  F   UNL A   1      47.615  27.953  35.130  1.00  0.00    -0.200 F 
ATOM     92  F   UNL A   1      46.976  25.670  36.477  1.00  0.00    -0.200 F 
ENDBRANCH  59  82
ENDBRANCH  33  34
ENDBRANCH  25  28
ENDBRANCH  23  24
ENDBRANCH   1  23
TORSDOF 13
ENDMDL
