MODEL 1
REMARK VINA RESULT:     -11.0      0.000      0.000
REMARK SMILES COC[C@@H](C)CC(=O)N1CCCC[C@@H]1CC(=O)NCCCNC(=O)c1ccc(-c2c3nc(c(-c4c(F)c(F)c(F)c(F)c4F)c4ccc([nH]4)c(-c4c(F)c(F)c(F)c(F)c4F)c4nc(c(-c5c(F)c(F)c(F)c(F)c5F)c5ccc2[nH]5)C=C4)C=C3)cc1
REMARK SMILES IDX 16 1 17 2 18 3 15 5 14 6 9 7 10 8 11 9 13 10 12 11 7 12 8 13
REMARK SMILES IDX 6 14 4 15 5 16 3 17 2 18 1 19 19 20 20 21 21 22 22 23 23 24
REMARK SMILES IDX 24 26 25 27 26 28 87 29 27 30 86 31 28 32 29 33 30 34 80 35
REMARK SMILES IDX 31 36 85 37 79 38 81 39 32 40 84 41 78 42 77 43 33 45 65 46
REMARK SMILES IDX 45 47 64 48 46 49 49 50 63 51 82 52 47 53 48 54 62 56 83 57
REMARK SMILES IDX 50 58 34 59 35 60 43 61 36 62 37 63 41 64 44 65 38 66 39 67
REMARK SMILES IDX 42 68 40 69 66 70 67 71 75 72 68 73 69 74 73 75 76 76 70 77
REMARK SMILES IDX 71 78 74 79 72 80 51 81 52 82 60 83 53 84 54 85 58 86 61 87
REMARK SMILES IDX 55 88 56 89 59 90 57 91
REMARK H PARENT 18 4 22 25 81 44 49 55
REMARK Flexibility Score: inf
ROOT
ATOM      1  C   UNL A   1      36.844  23.211  25.745  1.00  0.00     0.222 C 
ATOM      2  O   UNL A   1      37.524  24.106  26.248  1.00  0.00    -0.275 OA
ATOM      3  N   UNL A   1      37.266  21.921  25.876  1.00  0.00    -0.356 N 
ATOM      4  H   UNL A   1      37.833  21.728  26.657  1.00  0.00     0.163 HD
ENDROOT
BRANCH   1   5
ATOM      5  C   UNL A   1      35.530  23.487  25.049  1.00  0.00     0.125 C 
BRANCH   5   6
ATOM      6  C   UNL A   1      34.485  24.129  25.980  1.00  0.00     0.094 C 
ATOM      7  N   UNL A   1      33.319  23.230  26.184  1.00  0.00    -0.339 N 
ATOM      8  C   UNL A   1      32.036  23.831  26.528  1.00  0.00     0.120 C 
ATOM      9  C   UNL A   1      31.671  25.006  25.641  1.00  0.00     0.022 C 
ATOM     10  C   UNL A   1      34.084  25.464  25.293  1.00  0.00     0.026 C 
ATOM     11  C   UNL A   1      32.759  26.062  25.730  1.00  0.00     0.004 C 
BRANCH   7  12
ATOM     12  C   UNL A   1      33.412  21.874  26.499  1.00  0.00     0.223 C 
ATOM     13  O   UNL A   1      34.300  21.454  27.243  1.00  0.00    -0.275 OA
BRANCH  12  14
ATOM     14  C   UNL A   1      32.530  20.900  25.723  1.00  0.00     0.106 C 
BRANCH  14  15
ATOM     15  C   UNL A   1      33.099  20.487  24.358  1.00  0.00     0.021 C 
ATOM     16  C   UNL A   1      32.522  21.326  23.212  1.00  0.00     0.010 C 
BRANCH  15  17
ATOM     17  C   UNL A   1      32.807  19.004  24.082  1.00  0.00     0.163 C 
BRANCH  17  18
ATOM     18  O   UNL A   1      32.207  18.436  25.245  1.00  0.00    -0.384 OA
ATOM     19  C   UNL A   1      32.524  17.056  25.378  1.00  0.00     0.194 C 
ENDBRANCH  17  18
ENDBRANCH  15  17
ENDBRANCH  14  15
ENDBRANCH  12  14
ENDBRANCH   7  12
ENDBRANCH   5   6
ENDBRANCH   1   5
BRANCH   3  20
ATOM     20  C   UNL A   1      36.978  20.797  25.001  1.00  0.00     0.117 C 
BRANCH  20  21
ATOM     21  C   UNL A   1      38.150  19.819  25.006  1.00  0.00     0.042 C 
BRANCH  21  22
ATOM     22  C   UNL A   1      39.180  20.155  26.078  1.00  0.00     0.118 C 
BRANCH  22  23
ATOM     23  N   UNL A   1      40.240  19.161  26.115  1.00  0.00    -0.352 N 
ATOM     24  C   UNL A   1      41.592  19.351  26.041  1.00  0.00     0.251 C 
ATOM     25  H   UNL A   1      39.945  18.225  26.205  1.00  0.00     0.163 HD
ATOM     26  O   UNL A   1      42.332  18.400  25.757  1.00  0.00    -0.269 OA
BRANCH  24  27
ATOM     27  C   UNL A   1      42.179  20.680  26.305  1.00  0.00     0.039 A 
ATOM     28  C   UNL A   1      42.385  21.083  27.627  1.00  0.00     0.014 A 
ATOM     29  C   UNL A   1      42.461  21.557  25.252  1.00  0.00     0.014 A 
ATOM     30  C   UNL A   1      42.880  22.361  27.891  1.00  0.00     0.010 A 
ATOM     31  C   UNL A   1      43.036  22.796  25.513  1.00  0.00     0.010 A 
ATOM     32  C   UNL A   1      43.212  23.226  26.835  1.00  0.00    -0.014 A 
BRANCH  32  33
ATOM     33  C   UNL A   1      43.662  24.614  27.101  1.00  0.00     0.031 A 
ATOM     34  C   UNL A   1      42.680  25.630  27.621  1.00  0.00     0.074 A 
ATOM     35  C   UNL A   1      44.933  24.971  26.842  1.00  0.00     0.049 A 
ATOM     36  N   UNL A   1      42.860  26.900  27.887  1.00  0.00    -0.248 NA
ATOM     37  C   UNL A   1      41.299  25.166  27.836  1.00  0.00     0.031 C 
ATOM     38  C   UNL A   1      45.959  24.094  26.276  1.00  0.00     0.029 A 
ATOM     39  N   UNL A   1      45.576  26.169  27.016  1.00  0.00    -0.354 N 
ATOM     40  C   UNL A   1      41.618  27.383  28.276  1.00  0.00     0.074 A 
ATOM     41  C   UNL A   1      40.679  26.291  28.153  1.00  0.00     0.031 C 
ATOM     42  C   UNL A   1      47.110  24.778  26.172  1.00  0.00     0.029 A 
ATOM     43  C   UNL A   1      46.897  26.142  26.644  1.00  0.00     0.049 A 
ATOM     44  H   UNL A   1      45.133  26.972  27.374  1.00  0.00     0.167 HD
ATOM     45  C   UNL A   1      41.292  28.619  28.724  1.00  0.00     0.037 A 
ATOM     46  C   UNL A   1      47.831  27.111  26.689  1.00  0.00     0.037 A 
ATOM     47  C   UNL A   1      42.238  29.690  28.888  1.00  0.00     0.049 A 
ATOM     48  C   UNL A   1      47.463  28.457  27.249  1.00  0.00     0.074 A 
ATOM     49  C   UNL A   1      42.030  30.960  29.394  1.00  0.00     0.029 A 
ATOM     50  N   UNL A   1      43.582  29.608  28.552  1.00  0.00    -0.354 N 
ATOM     51  N   UNL A   1      46.300  28.884  27.678  1.00  0.00    -0.248 NA
ATOM     52  C   UNL A   1      48.541  29.451  27.347  1.00  0.00     0.031 C 
ATOM     53  C   UNL A   1      43.243  31.657  29.338  1.00  0.00     0.029 A 
ATOM     54  C   UNL A   1      44.214  30.808  28.833  1.00  0.00     0.049 A 
ATOM     55  H   UNL A   1      44.022  28.814  28.171  1.00  0.00     0.167 HD
ATOM     56  C   UNL A   1      46.508  30.186  28.114  1.00  0.00     0.074 A 
ATOM     57  C   UNL A   1      47.914  30.471  27.916  1.00  0.00     0.031 C 
ATOM     58  C   UNL A   1      45.616  31.067  28.628  1.00  0.00     0.037 A 
BRANCH  45  59
ATOM     59  C   UNL A   1      39.855  28.868  29.079  1.00  0.00     0.064 A 
ATOM     60  C   UNL A   1      38.926  29.306  28.121  1.00  0.00     0.173 A 
ATOM     61  C   UNL A   1      39.397  28.663  30.388  1.00  0.00     0.173 A 
ATOM     62  F   UNL A   1      39.316  29.532  26.857  1.00  0.00    -0.203 F 
ATOM     63  C   UNL A   1      37.603  29.565  28.470  1.00  0.00     0.198 A 
ATOM     64  C   UNL A   1      38.065  28.894  30.726  1.00  0.00     0.198 A 
ATOM     65  F   UNL A   1      40.241  28.242  31.342  1.00  0.00    -0.203 F 
ATOM     66  F   UNL A   1      36.752  30.040  27.551  1.00  0.00    -0.200 F 
ATOM     67  C   UNL A   1      37.173  29.354  29.771  1.00  0.00     0.200 A 
ATOM     68  F   UNL A   1      37.648  28.679  31.982  1.00  0.00    -0.200 F 
ATOM     69  F   UNL A   1      35.899  29.605  30.105  1.00  0.00    -0.200 F 
ENDBRANCH  45  59
BRANCH  46  70
ATOM     70  C   UNL A   1      49.214  26.819  26.233  1.00  0.00     0.064 A 
ATOM     71  C   UNL A   1      50.177  26.330  27.125  1.00  0.00     0.173 A 
ATOM     72  C   UNL A   1      49.593  27.003  24.897  1.00  0.00     0.173 A 
ATOM     73  F   UNL A   1      49.864  26.155  28.418  1.00  0.00    -0.203 F 
ATOM     74  C   UNL A   1      51.474  26.050  26.701  1.00  0.00     0.198 A 
ATOM     75  C   UNL A   1      50.884  26.699  24.468  1.00  0.00     0.198 A 
ATOM     76  F   UNL A   1      48.704  27.461  24.002  1.00  0.00    -0.203 F 
ATOM     77  F   UNL A   1      52.386  25.616  27.582  1.00  0.00    -0.200 F 
ATOM     78  C   UNL A   1      51.824  26.228  25.372  1.00  0.00     0.200 A 
ATOM     79  F   UNL A   1      51.214  26.859  23.179  1.00  0.00    -0.200 F 
ATOM     80  F   UNL A   1      53.069  25.949  24.961  1.00  0.00    -0.200 F 
ENDBRANCH  46  70
BRANCH  58  81
ATOM     81  C   UNL A   1      46.141  32.414  29.028  1.00  0.00     0.064 A 
ATOM     82  C   UNL A   1      46.142  33.494  28.133  1.00  0.00     0.173 A 
ATOM     83  C   UNL A   1      46.620  32.633  30.327  1.00  0.00     0.173 A 
ATOM     84  F   UNL A   1      45.707  33.328  26.875  1.00  0.00    -0.203 F 
ATOM     85  C   UNL A   1      46.630  34.739  28.518  1.00  0.00     0.198 A 
ATOM     86  C   UNL A   1      47.082  33.886  30.717  1.00  0.00     0.198 A 
ATOM     87  F   UNL A   1      46.632  31.632  31.221  1.00  0.00    -0.203 F 
ATOM     88  F   UNL A   1      46.665  35.745  27.634  1.00  0.00    -0.200 F 
ATOM     89  C   UNL A   1      47.094  34.936  29.811  1.00  0.00     0.200 A 
ATOM     90  F   UNL A   1      47.521  34.078  31.969  1.00  0.00    -0.200 F 
ATOM     91  F   UNL A   1      47.561  36.136  30.180  1.00  0.00    -0.200 F 
ENDBRANCH  58  81
ENDBRANCH  32  33
ENDBRANCH  24  27
ENDBRANCH  22  23
ENDBRANCH  21  22
ENDBRANCH  20  21
ENDBRANCH   3  20
TORSDOF 16
ENDMDL
MODEL 2
REMARK VINA RESULT:     -10.9      6.026     11.251
REMARK SMILES COC[C@@H](C)CC(=O)N1CCCC[C@@H]1CC(=O)NCCCNC(=O)c1ccc(-c2c3nc(c(-c4c(F)c(F)c(F)c(F)c4F)c4ccc([nH]4)c(-c4c(F)c(F)c(F)c(F)c4F)c4nc(c(-c5c(F)c(F)c(F)c(F)c5F)c5ccc2[nH]5)C=C4)C=C3)cc1
REMARK SMILES IDX 16 1 17 2 18 3 15 5 14 6 9 7 10 8 11 9 13 10 12 11 7 12 8 13
REMARK SMILES IDX 6 14 4 15 5 16 3 17 2 18 1 19 19 20 20 21 21 22 22 23 23 24
REMARK SMILES IDX 24 26 25 27 26 28 87 29 27 30 86 31 28 32 29 33 30 34 80 35
REMARK SMILES IDX 31 36 85 37 79 38 81 39 32 40 84 41 78 42 77 43 33 45 65 46
REMARK SMILES IDX 45 47 64 48 46 49 49 50 63 51 82 52 47 53 48 54 62 56 83 57
REMARK SMILES IDX 50 58 34 59 35 60 43 61 36 62 37 63 41 64 44 65 38 66 39 67
REMARK SMILES IDX 42 68 40 69 66 70 67 71 75 72 68 73 69 74 73 75 76 76 70 77
REMARK SMILES IDX 71 78 74 79 72 80 51 81 52 82 60 83 53 84 54 85 58 86 61 87
REMARK SMILES IDX 55 88 56 89 59 90 57 91
REMARK H PARENT 18 4 22 25 81 44 49 55
REMARK Flexibility Score: inf
ROOT
ATOM      1  C   UNL A   1      33.528  28.912  26.464  1.00  0.00     0.222 C 
ATOM      2  O   UNL A   1      34.558  28.794  27.127  1.00  0.00    -0.275 OA
ATOM      3  N   UNL A   1      33.064  30.165  26.198  1.00  0.00    -0.356 N 
ATOM      4  H   UNL A   1      33.737  30.884  26.193  1.00  0.00     0.163 HD
ENDROOT
BRANCH   1   5
ATOM      5  C   UNL A   1      32.800  27.720  25.882  1.00  0.00     0.125 C 
BRANCH   5   6
ATOM      6  C   UNL A   1      33.637  26.964  24.833  1.00  0.00     0.094 C 
ATOM      7  N   UNL A   1      32.978  26.983  23.501  1.00  0.00    -0.339 N 
ATOM      8  C   UNL A   1      33.280  25.904  22.567  1.00  0.00     0.120 C 
ATOM      9  C   UNL A   1      33.197  24.528  23.197  1.00  0.00     0.022 C 
ATOM     10  C   UNL A   1      33.794  25.521  25.391  1.00  0.00     0.026 C 
ATOM     11  C   UNL A   1      34.155  24.454  24.374  1.00  0.00     0.004 C 
BRANCH   7  12
ATOM     12  C   UNL A   1      32.446  28.123  22.898  1.00  0.00     0.223 C 
ATOM     13  O   UNL A   1      33.033  29.205  22.957  1.00  0.00    -0.275 OA
BRANCH  12  14
ATOM     14  C   UNL A   1      31.019  28.047  22.363  1.00  0.00     0.106 C 
BRANCH  14  15
ATOM     15  C   UNL A   1      29.935  28.148  23.446  1.00  0.00     0.021 C 
ATOM     16  C   UNL A   1      29.272  26.795  23.730  1.00  0.00     0.010 C 
BRANCH  15  17
ATOM     17  C   UNL A   1      28.851  29.152  23.028  1.00  0.00     0.163 C 
BRANCH  17  18
ATOM     18  O   UNL A   1      29.043  29.481  21.653  1.00  0.00    -0.384 OA
ATOM     19  C   UNL A   1      28.192  30.543  21.243  1.00  0.00     0.194 C 
ENDBRANCH  17  18
ENDBRANCH  15  17
ENDBRANCH  14  15
ENDBRANCH  12  14
ENDBRANCH   7  12
ENDBRANCH   5   6
ENDBRANCH   1   5
BRANCH   3  20
ATOM     20  C   UNL A   1      31.696  30.568  25.921  1.00  0.00     0.117 C 
BRANCH  20  21
ATOM     21  C   UNL A   1      31.432  31.954  26.503  1.00  0.00     0.042 C 
BRANCH  21  22
ATOM     22  C   UNL A   1      32.633  32.500  27.265  1.00  0.00     0.118 C 
BRANCH  22  23
ATOM     23  N   UNL A   1      32.488  33.924  27.522  1.00  0.00    -0.352 N 
ATOM     24  C   UNL A   1      33.024  34.667  28.536  1.00  0.00     0.251 C 
ATOM     25  H   UNL A   1      31.928  34.419  26.881  1.00  0.00     0.163 HD
ATOM     26  O   UNL A   1      32.547  35.778  28.803  1.00  0.00    -0.269 OA
BRANCH  24  27
ATOM     27  C   UNL A   1      34.174  34.161  29.313  1.00  0.00     0.039 A 
ATOM     28  C   UNL A   1      35.468  34.382  28.837  1.00  0.00     0.014 A 
ATOM     29  C   UNL A   1      33.973  33.405  30.474  1.00  0.00     0.014 A 
ATOM     30  C   UNL A   1      36.559  33.854  29.528  1.00  0.00     0.010 A 
ATOM     31  C   UNL A   1      35.064  32.954  31.209  1.00  0.00     0.010 A 
ATOM     32  C   UNL A   1      36.365  33.138  30.721  1.00  0.00    -0.014 A 
BRANCH  32  33
ATOM     33  C   UNL A   1      37.507  32.502  31.422  1.00  0.00     0.031 A 
ATOM     34  C   UNL A   1      38.253  31.373  30.761  1.00  0.00     0.074 A 
ATOM     35  C   UNL A   1      37.849  32.910  32.658  1.00  0.00     0.049 A 
ATOM     36  N   UNL A   1      39.255  30.662  31.214  1.00  0.00    -0.248 NA
ATOM     37  C   UNL A   1      37.785  30.963  29.427  1.00  0.00     0.031 C 
ATOM     38  C   UNL A   1      37.163  33.949  33.426  1.00  0.00     0.029 A 
ATOM     39  N   UNL A   1      38.859  32.492  33.486  1.00  0.00    -0.354 N 
ATOM     40  C   UNL A   1      39.518  29.714  30.234  1.00  0.00     0.074 A 
ATOM     41  C   UNL A   1      38.534  29.898  29.191  1.00  0.00     0.031 C 
ATOM     42  C   UNL A   1      37.786  34.104  34.605  1.00  0.00     0.029 A 
ATOM     43  C   UNL A   1      38.901  33.165  34.682  1.00  0.00     0.049 A 
ATOM     44  H   UNL A   1      39.495  31.779  33.246  1.00  0.00     0.167 HD
ATOM     45  C   UNL A   1      40.509  28.792  30.192  1.00  0.00     0.037 A 
ATOM     46  C   UNL A   1      39.750  33.040  35.719  1.00  0.00     0.037 A 
ATOM     47  C   UNL A   1      41.513  28.643  31.210  1.00  0.00     0.049 A 
ATOM     48  C   UNL A   1      40.881  32.053  35.623  1.00  0.00     0.074 A 
ATOM     49  C   UNL A   1      42.599  27.787  31.238  1.00  0.00     0.029 A 
ATOM     50  N   UNL A   1      41.555  29.382  32.384  1.00  0.00    -0.354 N 
ATOM     51  N   UNL A   1      41.161  31.208  34.662  1.00  0.00    -0.248 NA
ATOM     52  C   UNL A   1      41.824  32.015  36.750  1.00  0.00     0.031 C 
ATOM     53  C   UNL A   1      43.283  27.987  32.443  1.00  0.00     0.029 A 
ATOM     54  C   UNL A   1      42.645  28.995  33.148  1.00  0.00     0.049 A 
ATOM     55  H   UNL A   1      40.907  30.078  32.637  1.00  0.00     0.167 HD
ATOM     56  C   UNL A   1      42.320  30.551  35.055  1.00  0.00     0.074 A 
ATOM     57  C   UNL A   1      42.701  31.112  36.336  1.00  0.00     0.031 C 
ATOM     58  C   UNL A   1      43.004  29.570  34.419  1.00  0.00     0.037 A 
BRANCH  45  59
ATOM     59  C   UNL A   1      40.556  27.885  28.997  1.00  0.00     0.064 A 
ATOM     60  C   UNL A   1      39.806  26.699  28.943  1.00  0.00     0.173 A 
ATOM     61  C   UNL A   1      41.356  28.203  27.889  1.00  0.00     0.173 A 
ATOM     62  F   UNL A   1      39.036  26.341  29.982  1.00  0.00    -0.203 F 
ATOM     63  C   UNL A   1      39.883  25.849  27.843  1.00  0.00     0.198 A 
ATOM     64  C   UNL A   1      41.407  27.365  26.778  1.00  0.00     0.198 A 
ATOM     65  F   UNL A   1      42.091  29.325  27.886  1.00  0.00    -0.203 F 
ATOM     66  F   UNL A   1      39.203  24.694  27.843  1.00  0.00    -0.200 F 
ATOM     67  C   UNL A   1      40.680  26.185  26.759  1.00  0.00     0.200 A 
ATOM     68  F   UNL A   1      42.170  27.696  25.726  1.00  0.00    -0.200 F 
ATOM     69  F   UNL A   1      40.754  25.365  25.701  1.00  0.00    -0.200 F 
ENDBRANCH  45  59
BRANCH  46  70
ATOM     70  C   UNL A   1      39.587  33.909  36.911  1.00  0.00     0.064 A 
ATOM     71  C   UNL A   1      38.868  33.468  38.030  1.00  0.00     0.173 A 
ATOM     72  C   UNL A   1      40.162  35.186  36.965  1.00  0.00     0.173 A 
ATOM     73  F   UNL A   1      38.285  32.260  38.017  1.00  0.00    -0.203 F 
ATOM     74  C   UNL A   1      38.717  34.278  39.153  1.00  0.00     0.198 A 
ATOM     75  C   UNL A   1      40.031  35.986  38.099  1.00  0.00     0.198 A 
ATOM     76  F   UNL A   1      40.867  35.651  35.922  1.00  0.00    -0.203 F 
ATOM     77  F   UNL A   1      37.995  33.845  40.196  1.00  0.00    -0.200 F 
ATOM     78  C   UNL A   1      39.304  35.533  39.189  1.00  0.00     0.200 A 
ATOM     79  F   UNL A   1      40.612  37.193  38.135  1.00  0.00    -0.200 F 
ATOM     80  F   UNL A   1      39.167  36.309  40.274  1.00  0.00    -0.200 F 
ENDBRANCH  46  70
BRANCH  58  81
ATOM     81  C   UNL A   1      44.243  29.057  35.089  1.00  0.00     0.064 A 
ATOM     82  C   UNL A   1      45.500  29.628  34.840  1.00  0.00     0.173 A 
ATOM     83  C   UNL A   1      44.168  28.004  36.012  1.00  0.00     0.173 A 
ATOM     84  F   UNL A   1      45.622  30.628  33.954  1.00  0.00    -0.203 F 
ATOM     85  C   UNL A   1      46.642  29.144  35.470  1.00  0.00     0.198 A 
ATOM     86  C   UNL A   1      45.308  27.540  36.661  1.00  0.00     0.198 A 
ATOM     87  F   UNL A   1      42.988  27.429  36.289  1.00  0.00    -0.203 F 
ATOM     88  F   UNL A   1      47.838  29.673  35.184  1.00  0.00    -0.200 F 
ATOM     89  C   UNL A   1      46.545  28.104  36.385  1.00  0.00     0.200 A 
ATOM     90  F   UNL A   1      45.212  26.543  37.551  1.00  0.00    -0.200 F 
ATOM     91  F   UNL A   1      47.645  27.642  36.993  1.00  0.00    -0.200 F 
ENDBRANCH  58  81
ENDBRANCH  32  33
ENDBRANCH  24  27
ENDBRANCH  22  23
ENDBRANCH  21  22
ENDBRANCH  20  21
ENDBRANCH   3  20
TORSDOF 16
ENDMDL
MODEL 3
REMARK VINA RESULT:     -10.8      6.116     10.324
REMARK SMILES COC[C@@H](C)CC(=O)N1CCCC[C@@H]1CC(=O)NCCCNC(=O)c1ccc(-c2c3nc(c(-c4c(F)c(F)c(F)c(F)c4F)c4ccc([nH]4)c(-c4c(F)c(F)c(F)c(F)c4F)c4nc(c(-c5c(F)c(F)c(F)c(F)c5F)c5ccc2[nH]5)C=C4)C=C3)cc1
REMARK SMILES IDX 16 1 17 2 18 3 15 5 14 6 9 7 10 8 11 9 13 10 12 11 7 12 8 13
REMARK SMILES IDX 6 14 4 15 5 16 3 17 2 18 1 19 19 20 20 21 21 22 22 23 23 24
REMARK SMILES IDX 24 26 25 27 26 28 87 29 27 30 86 31 28 32 29 33 30 34 80 35
REMARK SMILES IDX 31 36 85 37 79 38 81 39 32 40 84 41 78 42 77 43 33 45 65 46
REMARK SMILES IDX 45 47 64 48 46 49 49 50 63 51 82 52 47 53 48 54 62 56 83 57
REMARK SMILES IDX 50 58 34 59 35 60 43 61 36 62 37 63 41 64 44 65 38 66 39 67
REMARK SMILES IDX 42 68 40 69 66 70 67 71 75 72 68 73 69 74 73 75 76 76 70 77
REMARK SMILES IDX 71 78 74 79 72 80 51 81 52 82 60 83 53 84 54 85 58 86 61 87
REMARK SMILES IDX 55 88 56 89 59 90 57 91
REMARK H PARENT 18 4 22 25 81 44 49 55
REMARK Flexibility Score: inf
ROOT
ATOM      1  C   UNL A   1      33.012  29.038  26.332  1.00  0.00     0.222 C 
ATOM      2  O   UNL A   1      34.063  28.762  26.909  1.00  0.00    -0.275 OA
ATOM      3  N   UNL A   1      32.623  30.344  26.276  1.00  0.00    -0.356 N 
ATOM      4  H   UNL A   1      33.342  31.012  26.334  1.00  0.00     0.163 HD
ENDROOT
BRANCH   1   5
ATOM      5  C   UNL A   1      32.175  27.991  25.631  1.00  0.00     0.125 C 
BRANCH   5   6
ATOM      6  C   UNL A   1      32.418  27.954  24.110  1.00  0.00     0.094 C 
ATOM      7  N   UNL A   1      31.187  27.558  23.377  1.00  0.00    -0.339 N 
ATOM      8  C   UNL A   1      31.335  26.930  22.069  1.00  0.00     0.120 C 
ATOM      9  C   UNL A   1      32.362  25.815  22.056  1.00  0.00     0.022 C 
ATOM     10  C   UNL A   1      33.578  26.941  23.901  1.00  0.00     0.026 C 
ATOM     11  C   UNL A   1      33.706  26.361  22.505  1.00  0.00     0.004 C 
BRANCH   7  12
ATOM     12  C   UNL A   1      29.922  28.099  23.606  1.00  0.00     0.223 C 
ATOM     13  O   UNL A   1      28.951  27.373  23.829  1.00  0.00    -0.275 OA
BRANCH  12  14
ATOM     14  C   UNL A   1      29.727  29.591  23.350  1.00  0.00     0.106 C 
BRANCH  14  15
ATOM     15  C   UNL A   1      28.310  29.970  22.893  1.00  0.00     0.021 C 
ATOM     16  C   UNL A   1      28.211  30.116  21.370  1.00  0.00     0.010 C 
BRANCH  15  17
ATOM     17  C   UNL A   1      27.873  31.290  23.546  1.00  0.00     0.163 C 
BRANCH  17  18
ATOM     18  O   UNL A   1      29.024  32.115  23.718  1.00  0.00    -0.384 OA
ATOM     19  C   UNL A   1      28.887  33.357  23.039  1.00  0.00     0.194 C 
ENDBRANCH  17  18
ENDBRANCH  15  17
ENDBRANCH  14  15
ENDBRANCH  12  14
ENDBRANCH   7  12
ENDBRANCH   5   6
ENDBRANCH   1   5
BRANCH   3  20
ATOM     20  C   UNL A   1      31.273  30.865  26.142  1.00  0.00     0.117 C 
BRANCH  20  21
ATOM     21  C   UNL A   1      31.252  32.352  26.486  1.00  0.00     0.042 C 
BRANCH  21  22
ATOM     22  C   UNL A   1      32.506  32.791  27.233  1.00  0.00     0.118 C 
BRANCH  22  23
ATOM     23  N   UNL A   1      32.433  34.197  27.597  1.00  0.00    -0.352 N 
ATOM     24  C   UNL A   1      33.055  34.844  28.628  1.00  0.00     0.251 C 
ATOM     25  H   UNL A   1      31.858  34.757  27.026  1.00  0.00     0.163 HD
ATOM     26  O   UNL A   1      32.639  35.950  28.999  1.00  0.00    -0.269 OA
BRANCH  24  27
ATOM     27  C   UNL A   1      34.224  34.242  29.298  1.00  0.00     0.039 A 
ATOM     28  C   UNL A   1      35.506  34.529  28.822  1.00  0.00     0.014 A 
ATOM     29  C   UNL A   1      34.054  33.335  30.351  1.00  0.00     0.014 A 
ATOM     30  C   UNL A   1      36.615  33.916  29.407  1.00  0.00     0.010 A 
ATOM     31  C   UNL A   1      35.165  32.792  30.989  1.00  0.00     0.010 A 
ATOM     32  C   UNL A   1      36.452  33.045  30.497  1.00  0.00    -0.014 A 
BRANCH  32  33
ATOM     33  C   UNL A   1      37.612  32.324  31.074  1.00  0.00     0.031 A 
ATOM     34  C   UNL A   1      38.098  32.676  32.455  1.00  0.00     0.074 A 
ATOM     35  C   UNL A   1      38.249  31.385  30.350  1.00  0.00     0.049 A 
ATOM     36  N   UNL A   1      39.111  32.191  33.129  1.00  0.00    -0.248 NA
ATOM     37  C   UNL A   1      37.370  33.744  33.160  1.00  0.00     0.031 C 
ATOM     38  C   UNL A   1      37.913  31.003  28.978  1.00  0.00     0.029 A 
ATOM     39  N   UNL A   1      39.318  30.587  30.668  1.00  0.00    -0.354 N 
ATOM     40  C   UNL A   1      39.151  32.907  34.318  1.00  0.00     0.074 A 
ATOM     41  C   UNL A   1      38.103  33.901  34.250  1.00  0.00     0.031 C 
ATOM     42  C   UNL A   1      38.744  30.026  28.581  1.00  0.00     0.029 A 
ATOM     43  C   UNL A   1      39.680  29.729  29.660  1.00  0.00     0.049 A 
ATOM     44  H   UNL A   1      39.780  30.624  31.537  1.00  0.00     0.167 HD
ATOM     45  C   UNL A   1      39.968  32.734  35.384  1.00  0.00     0.037 A 
ATOM     46  C   UNL A   1      40.655  28.801  29.618  1.00  0.00     0.037 A 
ATOM     47  C   UNL A   1      40.980  31.714  35.465  1.00  0.00     0.049 A 
ATOM     48  C   UNL A   1      41.510  28.583  30.837  1.00  0.00     0.074 A 
ATOM     49  C   UNL A   1      41.818  31.409  36.521  1.00  0.00     0.029 A 
ATOM     50  N   UNL A   1      41.281  30.826  34.443  1.00  0.00    -0.354 N 
ATOM     51  N   UNL A   1      41.495  29.221  31.982  1.00  0.00    -0.248 NA
ATOM     52  C   UNL A   1      42.505  27.505  30.763  1.00  0.00     0.031 C 
ATOM     53  C   UNL A   1      42.648  30.352  36.127  1.00  0.00     0.029 A 
ATOM     54  C   UNL A   1      42.300  29.975  34.840  1.00  0.00     0.049 A 
ATOM     55  H   UNL A   1      40.837  30.802  33.564  1.00  0.00     0.167 HD
ATOM     56  C   UNL A   1      42.462  28.612  32.771  1.00  0.00     0.074 A 
ATOM     57  C   UNL A   1      43.030  27.540  31.980  1.00  0.00     0.031 C 
ATOM     58  C   UNL A   1      42.848  28.915  34.034  1.00  0.00     0.037 A 
BRANCH  45  59
ATOM     59  C   UNL A   1      39.788  33.663  36.549  1.00  0.00     0.064 A 
ATOM     60  C   UNL A   1      38.935  33.344  37.618  1.00  0.00     0.173 A 
ATOM     61  C   UNL A   1      40.477  34.883  36.603  1.00  0.00     0.173 A 
ATOM     62  F   UNL A   1      38.241  32.196  37.608  1.00  0.00    -0.203 F 
ATOM     63  C   UNL A   1      38.751  34.229  38.678  1.00  0.00     0.198 A 
ATOM     64  C   UNL A   1      40.313  35.751  37.680  1.00  0.00     0.198 A 
ATOM     65  F   UNL A   1      41.307  35.236  35.610  1.00  0.00    -0.203 F 
ATOM     66  F   UNL A   1      37.885  33.927  39.656  1.00  0.00    -0.200 F 
ATOM     67  C   UNL A   1      39.444  35.429  38.711  1.00  0.00     0.200 A 
ATOM     68  F   UNL A   1      40.993  36.907  37.715  1.00  0.00    -0.200 F 
ATOM     69  F   UNL A   1      39.265  36.279  39.731  1.00  0.00    -0.200 F 
ENDBRANCH  45  59
BRANCH  46  70
ATOM     70  C   UNL A   1      40.836  27.980  28.395  1.00  0.00     0.064 A 
ATOM     71  C   UNL A   1      41.655  28.422  27.347  1.00  0.00     0.173 A 
ATOM     72  C   UNL A   1      40.214  26.732  28.258  1.00  0.00     0.173 A 
ATOM     73  F   UNL A   1      42.256  29.618  27.427  1.00  0.00    -0.203 F 
ATOM     74  C   UNL A   1      41.832  27.652  26.199  1.00  0.00     0.198 A 
ATOM     75  C   UNL A   1      40.412  25.951  27.120  1.00  0.00     0.198 A 
ATOM     76  F   UNL A   1      39.428  26.261  29.238  1.00  0.00    -0.203 F 
ATOM     77  F   UNL A   1      42.592  28.113  25.197  1.00  0.00    -0.200 F 
ATOM     78  C   UNL A   1      41.216  26.415  26.090  1.00  0.00     0.200 A 
ATOM     79  F   UNL A   1      39.827  24.750  27.025  1.00  0.00    -0.200 F 
ATOM     80  F   UNL A   1      41.394  25.670  24.991  1.00  0.00    -0.200 F 
ENDBRANCH  46  70
BRANCH  58  81
ATOM     81  C   UNL A   1      43.922  28.062  34.642  1.00  0.00     0.064 A 
ATOM     82  C   UNL A   1      45.275  28.426  34.566  1.00  0.00     0.173 A 
ATOM     83  C   UNL A   1      43.591  26.888  35.332  1.00  0.00     0.173 A 
ATOM     84  F   UNL A   1      45.640  29.533  33.903  1.00  0.00    -0.203 F 
ATOM     85  C   UNL A   1      46.261  27.627  35.136  1.00  0.00     0.198 A 
ATOM     86  C   UNL A   1      44.578  26.105  35.924  1.00  0.00     0.198 A 
ATOM     87  F   UNL A   1      42.311  26.502  35.437  1.00  0.00    -0.203 F 
ATOM     88  F   UNL A   1      47.550  27.967  35.012  1.00  0.00    -0.200 F 
ATOM     89  C   UNL A   1      45.912  26.470  35.819  1.00  0.00     0.200 A 
ATOM     90  F   UNL A   1      44.239  24.994  36.592  1.00  0.00    -0.200 F 
ATOM     91  F   UNL A   1      46.863  25.704  36.370  1.00  0.00    -0.200 F 
ENDBRANCH  58  81
ENDBRANCH  32  33
ENDBRANCH  24  27
ENDBRANCH  22  23
ENDBRANCH  21  22
ENDBRANCH  20  21
ENDBRANCH   3  20
TORSDOF 16
ENDMDL
