MODEL 1
REMARK VINA RESULT:     -13.3      0.000      0.000
REMARK SMILES Cc1ccc(-c2cncc(C#N)c2)cc1C(=O)NCCCNC(=O)c1ccc(-c2c3nc(c(-c4c(F)c(F)c(F)c(F)c4F)c4ccc([nH]4)c(-c4c(F)c(F)c(F)c(F)c4F)c4nc(c(-c5c(F)c(F)c(F)c(F)c5F)c5ccc2[nH]5)C=C4)C=C3)cc1
REMARK SMILES IDX 20 1 19 2 18 3 16 4 17 5 15 7 1 8 2 9 3 10 4 11 14 12 5 13
REMARK SMILES IDX 6 14 7 15 13 16 8 17 10 18 9 19 11 20 12 21 21 22 22 23
REMARK SMILES IDX 23 24 24 26 25 27 26 28 87 29 27 30 86 31 28 32 29 33 30 34
REMARK SMILES IDX 80 35 31 36 85 37 79 38 81 39 32 40 84 41 78 42 77 43 33 45
REMARK SMILES IDX 65 46 45 47 64 48 46 49 49 50 63 51 82 52 47 53 48 54 62 56
REMARK SMILES IDX 83 57 50 58 34 59 35 60 43 61 36 62 37 63 41 64 44 65 38 66
REMARK SMILES IDX 39 67 42 68 40 69 66 70 67 71 75 72 68 73 69 74 73 75 76 76
REMARK SMILES IDX 70 77 71 78 74 79 72 80 51 81 52 82 60 83 53 84 54 85 58 86
REMARK SMILES IDX 61 87 55 88 56 89 59 90 57 91
REMARK H PARENT 18 6 22 25 81 44 49 55
REMARK Flexibility Score: inf
ROOT
ATOM      1  C   UNL A   1      34.803  30.737  27.374  1.00  0.00     0.042 C 
ENDROOT
BRANCH   1   2
ATOM      2  C   UNL A   1      34.648  29.250  27.065  1.00  0.00     0.118 C 
BRANCH   2   3
ATOM      3  N   UNL A   1      33.441  28.732  27.677  1.00  0.00    -0.352 N 
ATOM      4  C   UNL A   1      32.282  28.165  27.216  1.00  0.00     0.251 C 
ATOM      5  O   UNL A   1      31.466  27.905  28.110  1.00  0.00    -0.269 OA
ATOM      6  H   UNL A   1      33.458  28.806  28.659  1.00  0.00     0.163 HD
BRANCH   4   7
ATOM      7  C   UNL A   1      31.937  27.765  25.797  1.00  0.00     0.043 A 
ATOM      8  C   UNL A   1      33.831  26.120  25.097  1.00  0.00     0.045 C 
ATOM      9  C   UNL A   1      32.525  26.818  24.932  1.00  0.00    -0.038 A 
ATOM     10  C   UNL A   1      31.940  26.547  23.680  1.00  0.00     0.005 A 
ATOM     11  C   UNL A   1      30.923  27.332  23.180  1.00  0.00     0.009 A 
ATOM     12  C   UNL A   1      30.899  28.563  25.240  1.00  0.00     0.023 A 
ATOM     13  C   UNL A   1      30.430  28.398  23.926  1.00  0.00    -0.016 A 
BRANCH  13  14
ATOM     14  C   UNL A   1      29.531  29.345  23.267  1.00  0.00     0.001 A 
ATOM     15  C   UNL A   1      28.762  28.965  22.165  1.00  0.00     0.119 A 
ATOM     16  C   UNL A   1      29.546  30.710  23.590  1.00  0.00     0.031 A 
ATOM     17  N   UNL A   1      28.072  29.820  21.378  1.00  0.00    -0.263 NA
ATOM     18  C   UNL A   1      28.851  31.622  22.791  1.00  0.00     0.071 A 
ATOM     19  C   UNL A   1      28.145  31.132  21.702  1.00  0.00     0.130 A 
BRANCH  18  20
ATOM     20  C   UNL A   1      28.897  33.021  23.047  1.00  0.00     0.101 C 
ATOM     21  N   UNL A   1      28.928  34.170  23.246  1.00  0.00    -0.192 NA
ENDBRANCH  18  20
ENDBRANCH  13  14
ENDBRANCH   4   7
ENDBRANCH   2   3
ENDBRANCH   1   2
BRANCH   1  22
ATOM     22  C   UNL A   1      34.897  31.110  28.830  1.00  0.00     0.118 C 
BRANCH  22  23
ATOM     23  N   UNL A   1      36.115  31.839  29.176  1.00  0.00    -0.352 N 
ATOM     24  C   UNL A   1      37.422  31.387  29.290  1.00  0.00     0.251 C 
ATOM     25  H   UNL A   1      35.989  32.799  29.356  1.00  0.00     0.163 HD
ATOM     26  O   UNL A   1      38.332  32.186  29.495  1.00  0.00    -0.269 OA
BRANCH  24  27
ATOM     27  C   UNL A   1      37.738  29.972  28.960  1.00  0.00     0.039 A 
ATOM     28  C   UNL A   1      37.942  29.144  30.068  1.00  0.00     0.014 A 
ATOM     29  C   UNL A   1      38.388  29.708  27.766  1.00  0.00     0.014 A 
ATOM     30  C   UNL A   1      39.097  28.384  30.120  1.00  0.00     0.010 A 
ATOM     31  C   UNL A   1      39.620  29.112  27.866  1.00  0.00     0.010 A 
ATOM     32  C   UNL A   1      40.003  28.535  29.079  1.00  0.00    -0.014 A 
BRANCH  32  33
ATOM     33  C   UNL A   1      41.320  27.946  29.078  1.00  0.00     0.031 A 
ATOM     34  C   UNL A   1      41.324  26.515  28.746  1.00  0.00     0.074 A 
ATOM     35  C   UNL A   1      42.415  28.711  29.285  1.00  0.00     0.049 A 
ATOM     36  N   UNL A   1      42.228  25.689  29.118  1.00  0.00    -0.248 NA
ATOM     37  C   UNL A   1      40.205  25.863  28.062  1.00  0.00     0.031 C 
ATOM     38  C   UNL A   1      43.814  28.376  29.043  1.00  0.00     0.029 A 
ATOM     39  N   UNL A   1      42.477  29.970  29.917  1.00  0.00    -0.354 N 
ATOM     40  C   UNL A   1      41.989  24.501  28.460  1.00  0.00     0.074 A 
ATOM     41  C   UNL A   1      40.645  24.608  27.964  1.00  0.00     0.031 C 
ATOM     42  C   UNL A   1      44.594  29.210  29.755  1.00  0.00     0.029 A 
ATOM     43  C   UNL A   1      43.726  30.016  30.594  1.00  0.00     0.049 A 
ATOM     44  H   UNL A   1      41.791  30.676  29.894  1.00  0.00     0.167 HD
ATOM     45  C   UNL A   1      43.043  23.659  28.283  1.00  0.00     0.037 A 
ATOM     46  C   UNL A   1      43.780  30.057  31.965  1.00  0.00     0.037 A 
ATOM     47  C   UNL A   1      44.207  24.203  28.994  1.00  0.00     0.049 A 
ATOM     48  C   UNL A   1      44.222  28.753  32.573  1.00  0.00     0.074 A 
ATOM     49  C   UNL A   1      45.270  25.000  28.605  1.00  0.00     0.029 A 
ATOM     50  N   UNL A   1      44.131  24.325  30.372  1.00  0.00    -0.354 N 
ATOM     51  N   UNL A   1      44.481  27.676  31.889  1.00  0.00    -0.248 NA
ATOM     52  C   UNL A   1      44.283  28.544  34.014  1.00  0.00     0.031 C 
ATOM     53  C   UNL A   1      45.808  25.622  29.774  1.00  0.00     0.029 A 
ATOM     54  C   UNL A   1      45.104  25.167  30.876  1.00  0.00     0.049 A 
ATOM     55  H   UNL A   1      43.460  23.865  30.928  1.00  0.00     0.167 HD
ATOM     56  C   UNL A   1      44.748  26.649  32.746  1.00  0.00     0.074 A 
ATOM     57  C   UNL A   1      44.529  27.227  34.065  1.00  0.00     0.031 C 
ATOM     58  C   UNL A   1      45.129  25.409  32.313  1.00  0.00     0.037 A 
BRANCH  45  59
ATOM     59  C   UNL A   1      43.122  22.525  27.280  1.00  0.00     0.064 A 
ATOM     60  C   UNL A   1      42.263  21.415  27.427  1.00  0.00     0.173 A 
ATOM     61  C   UNL A   1      44.026  22.417  26.203  1.00  0.00     0.173 A 
ATOM     62  F   UNL A   1      41.306  21.393  28.365  1.00  0.00    -0.203 F 
ATOM     63  C   UNL A   1      42.351  20.276  26.621  1.00  0.00     0.198 A 
ATOM     64  C   UNL A   1      44.129  21.269  25.407  1.00  0.00     0.198 A 
ATOM     65  F   UNL A   1      44.828  23.417  25.836  1.00  0.00    -0.203 F 
ATOM     66  F   UNL A   1      41.515  19.249  26.831  1.00  0.00    -0.200 F 
ATOM     67  C   UNL A   1      43.296  20.194  25.621  1.00  0.00     0.200 A 
ATOM     68  F   UNL A   1      45.044  21.221  24.428  1.00  0.00    -0.200 F 
ATOM     69  F   UNL A   1      43.391  19.099  24.857  1.00  0.00    -0.200 F 
ENDBRANCH  45  59
BRANCH  46  70
ATOM     70  C   UNL A   1      42.734  30.938  32.573  1.00  0.00     0.064 A 
ATOM     71  C   UNL A   1      41.673  30.231  33.161  1.00  0.00     0.173 A 
ATOM     72  C   UNL A   1      43.152  32.128  33.178  1.00  0.00     0.173 A 
ATOM     73  F   UNL A   1      41.133  29.177  32.531  1.00  0.00    -0.203 F 
ATOM     74  C   UNL A   1      41.418  30.412  34.509  1.00  0.00     0.198 A 
ATOM     75  C   UNL A   1      42.812  32.368  34.499  1.00  0.00     0.198 A 
ATOM     76  F   UNL A   1      44.032  32.937  32.573  1.00  0.00    -0.203 F 
ATOM     77  F   UNL A   1      40.695  29.505  35.179  1.00  0.00    -0.200 F 
ATOM     78  C   UNL A   1      42.058  31.432  35.191  1.00  0.00     0.200 A 
ATOM     79  F   UNL A   1      43.321  33.434  35.129  1.00  0.00    -0.200 F 
ATOM     80  F   UNL A   1      42.009  31.452  36.524  1.00  0.00    -0.200 F 
ENDBRANCH  46  70
BRANCH  58  81
ATOM     81  C   UNL A   1      45.513  24.294  33.253  1.00  0.00     0.064 A 
ATOM     82  C   UNL A   1      44.617  23.285  33.637  1.00  0.00     0.173 A 
ATOM     83  C   UNL A   1      46.787  24.224  33.859  1.00  0.00     0.173 A 
ATOM     84  F   UNL A   1      43.310  23.368  33.350  1.00  0.00    -0.203 F 
ATOM     85  C   UNL A   1      45.027  22.176  34.373  1.00  0.00     0.198 A 
ATOM     86  C   UNL A   1      47.177  23.152  34.652  1.00  0.00     0.198 A 
ATOM     87  F   UNL A   1      47.710  25.182  33.715  1.00  0.00    -0.203 F 
ATOM     88  F   UNL A   1      44.162  21.180  34.602  1.00  0.00    -0.200 F 
ATOM     89  C   UNL A   1      46.314  22.102  34.867  1.00  0.00     0.200 A 
ATOM     90  F   UNL A   1      48.404  23.145  35.191  1.00  0.00    -0.200 F 
ATOM     91  F   UNL A   1      46.713  21.037  35.572  1.00  0.00    -0.200 F 
ENDBRANCH  58  81
ENDBRANCH  32  33
ENDBRANCH  24  27
ENDBRANCH  22  23
ENDBRANCH   1  22
TORSDOF 12
ENDMDL
MODEL 2
REMARK VINA RESULT:     -13.3      4.635     10.284
REMARK SMILES Cc1ccc(-c2cncc(C#N)c2)cc1C(=O)NCCCNC(=O)c1ccc(-c2c3nc(c(-c4c(F)c(F)c(F)c(F)c4F)c4ccc([nH]4)c(-c4c(F)c(F)c(F)c(F)c4F)c4nc(c(-c5c(F)c(F)c(F)c(F)c5F)c5ccc2[nH]5)C=C4)C=C3)cc1
REMARK SMILES IDX 20 1 19 2 18 3 16 4 17 5 15 7 1 8 2 9 3 10 4 11 14 12 5 13
REMARK SMILES IDX 6 14 7 15 13 16 8 17 10 18 9 19 11 20 12 21 21 22 22 23
REMARK SMILES IDX 23 24 24 26 25 27 26 28 87 29 27 30 86 31 28 32 29 33 30 34
REMARK SMILES IDX 80 35 31 36 85 37 79 38 81 39 32 40 84 41 78 42 77 43 33 45
REMARK SMILES IDX 65 46 45 47 64 48 46 49 49 50 63 51 82 52 47 53 48 54 62 56
REMARK SMILES IDX 83 57 50 58 34 59 35 60 43 61 36 62 37 63 41 64 44 65 38 66
REMARK SMILES IDX 39 67 42 68 40 69 66 70 67 71 75 72 68 73 69 74 73 75 76 76
REMARK SMILES IDX 70 77 71 78 74 79 72 80 51 81 52 82 60 83 53 84 54 85 58 86
REMARK SMILES IDX 61 87 55 88 56 89 59 90 57 91
REMARK H PARENT 18 6 22 25 81 44 49 55
REMARK Flexibility Score: inf
ROOT
ATOM      1  C   UNL A   1      39.312  21.622  26.017  1.00  0.00     0.042 C 
ENDROOT
BRANCH   1   2
ATOM      2  C   UNL A   1      37.987  21.107  25.461  1.00  0.00     0.118 C 
BRANCH   2   3
ATOM      3  N   UNL A   1      37.609  21.861  24.281  1.00  0.00    -0.352 N 
ATOM      4  C   UNL A   1      36.536  22.633  23.921  1.00  0.00     0.251 C 
ATOM      5  O   UNL A   1      36.598  23.063  22.762  1.00  0.00    -0.269 OA
ATOM      6  H   UNL A   1      38.286  21.803  23.567  1.00  0.00     0.163 HD
BRANCH   4   7
ATOM      7  C   UNL A   1      35.366  23.066  24.780  1.00  0.00     0.043 A 
ATOM      8  C   UNL A   1      34.264  20.840  25.563  1.00  0.00     0.045 C 
ATOM      9  C   UNL A   1      34.466  22.315  25.566  1.00  0.00    -0.038 A 
ATOM     10  C   UNL A   1      33.518  22.972  26.375  1.00  0.00     0.005 A 
ATOM     11  C   UNL A   1      33.301  24.329  26.265  1.00  0.00     0.009 A 
ATOM     12  C   UNL A   1      35.101  24.460  24.682  1.00  0.00     0.023 A 
ATOM     13  C   UNL A   1      34.045  25.087  25.364  1.00  0.00    -0.016 A 
BRANCH  13  14
ATOM     14  C   UNL A   1      33.621  26.463  25.103  1.00  0.00     0.001 A 
ATOM     15  C   UNL A   1      33.285  26.883  23.815  1.00  0.00     0.119 A 
ATOM     16  C   UNL A   1      33.719  27.455  26.090  1.00  0.00     0.031 A 
ATOM     17  N   UNL A   1      33.086  28.171  23.455  1.00  0.00    -0.263 NA
ATOM     18  C   UNL A   1      33.530  28.797  25.748  1.00  0.00     0.071 A 
ATOM     19  C   UNL A   1      33.228  29.099  24.428  1.00  0.00     0.130 A 
BRANCH  18  20
ATOM     20  C   UNL A   1      33.686  29.837  26.707  1.00  0.00     0.101 C 
ATOM     21  N   UNL A   1      33.814  30.681  27.502  1.00  0.00    -0.192 NA
ENDBRANCH  18  20
ENDBRANCH  13  14
ENDBRANCH   4   7
ENDBRANCH   2   3
ENDBRANCH   1   2
BRANCH   1  22
ATOM     22  C   UNL A   1      39.281  22.981  26.667  1.00  0.00     0.118 C 
BRANCH  22  23
ATOM     23  N   UNL A   1      40.564  23.396  27.230  1.00  0.00    -0.352 N 
ATOM     24  C   UNL A   1      40.991  24.649  27.645  1.00  0.00     0.251 C 
ATOM     25  H   UNL A   1      41.227  22.675  27.330  1.00  0.00     0.163 HD
ATOM     26  O   UNL A   1      42.084  24.775  28.189  1.00  0.00    -0.269 OA
BRANCH  24  27
ATOM     27  C   UNL A   1      40.041  25.793  27.615  1.00  0.00     0.039 A 
ATOM     28  C   UNL A   1      40.483  26.900  26.883  1.00  0.00     0.014 A 
ATOM     29  C   UNL A   1      39.192  25.966  28.693  1.00  0.00     0.014 A 
ATOM     30  C   UNL A   1      40.461  28.143  27.491  1.00  0.00     0.010 A 
ATOM     31  C   UNL A   1      39.324  27.144  29.387  1.00  0.00     0.010 A 
ATOM     32  C   UNL A   1      40.043  28.196  28.813  1.00  0.00    -0.014 A 
BRANCH  32  33
ATOM     33  C   UNL A   1      40.131  29.382  29.629  1.00  0.00     0.031 A 
ATOM     34  C   UNL A   1      39.057  30.352  29.372  1.00  0.00     0.074 A 
ATOM     35  C   UNL A   1      41.082  29.491  30.584  1.00  0.00     0.049 A 
ATOM     36  N   UNL A   1      39.154  31.610  29.587  1.00  0.00    -0.248 NA
ATOM     37  C   UNL A   1      37.805  29.983  28.707  1.00  0.00     0.031 C 
ATOM     38  C   UNL A   1      41.161  30.452  31.679  1.00  0.00     0.029 A 
ATOM     39  N   UNL A   1      42.301  28.789  30.666  1.00  0.00    -0.354 N 
ATOM     40  C   UNL A   1      37.898  32.150  29.408  1.00  0.00     0.074 A 
ATOM     41  C   UNL A   1      37.152  31.146  28.703  1.00  0.00     0.031 C 
ATOM     42  C   UNL A   1      42.429  30.502  32.127  1.00  0.00     0.029 A 
ATOM     43  C   UNL A   1      43.241  29.685  31.243  1.00  0.00     0.049 A 
ATOM     44  H   UNL A   1      42.469  27.862  30.380  1.00  0.00     0.167 HD
ATOM     45  C   UNL A   1      37.622  33.320  30.046  1.00  0.00     0.037 A 
ATOM     46  C   UNL A   1      44.310  30.146  30.516  1.00  0.00     0.037 A 
ATOM     47  C   UNL A   1      38.846  33.805  30.695  1.00  0.00     0.049 A 
ATOM     48  C   UNL A   1      44.158  31.583  30.097  1.00  0.00     0.074 A 
ATOM     49  C   UNL A   1      39.358  33.672  31.975  1.00  0.00     0.029 A 
ATOM     50  N   UNL A   1      39.926  34.133  29.891  1.00  0.00    -0.354 N 
ATOM     51  N   UNL A   1      43.108  32.312  30.345  1.00  0.00    -0.248 NA
ATOM     52  C   UNL A   1      45.138  32.259  29.256  1.00  0.00     0.031 C 
ATOM     53  C   UNL A   1      40.769  33.900  31.913  1.00  0.00     0.029 A 
ATOM     54  C   UNL A   1      41.105  34.216  30.607  1.00  0.00     0.049 A 
ATOM     55  H   UNL A   1      39.860  34.289  28.920  1.00  0.00     0.167 HD
ATOM     56  C   UNL A   1      43.246  33.526  29.737  1.00  0.00     0.074 A 
ATOM     57  C   UNL A   1      44.497  33.409  29.000  1.00  0.00     0.031 C 
ATOM     58  C   UNL A   1      42.330  34.530  29.884  1.00  0.00     0.037 A 
BRANCH  45  59
ATOM     59  C   UNL A   1      36.242  33.884  30.321  1.00  0.00     0.064 A 
ATOM     60  C   UNL A   1      35.418  34.250  29.234  1.00  0.00     0.173 A 
ATOM     61  C   UNL A   1      35.679  34.147  31.587  1.00  0.00     0.173 A 
ATOM     62  F   UNL A   1      35.784  34.006  27.969  1.00  0.00    -0.203 F 
ATOM     63  C   UNL A   1      34.184  34.886  29.399  1.00  0.00     0.198 A 
ATOM     64  C   UNL A   1      34.451  34.802  31.753  1.00  0.00     0.198 A 
ATOM     65  F   UNL A   1      36.256  33.758  32.724  1.00  0.00    -0.203 F 
ATOM     66  F   UNL A   1      33.463  35.223  28.320  1.00  0.00    -0.200 F 
ATOM     67  C   UNL A   1      33.707  35.178  30.658  1.00  0.00     0.200 A 
ATOM     68  F   UNL A   1      34.000  35.059  32.990  1.00  0.00    -0.200 F 
ATOM     69  F   UNL A   1      32.531  35.799  30.817  1.00  0.00    -0.200 F 
ENDBRANCH  45  59
BRANCH  46  70
ATOM     70  C   UNL A   1      44.935  29.096  29.652  1.00  0.00     0.064 A 
ATOM     71  C   UNL A   1      44.662  29.256  28.284  1.00  0.00     0.173 A 
ATOM     72  C   UNL A   1      46.191  28.605  30.023  1.00  0.00     0.173 A 
ATOM     73  F   UNL A   1      43.423  29.566  27.874  1.00  0.00    -0.203 F 
ATOM     74  C   UNL A   1      45.722  29.420  27.409  1.00  0.00     0.198 A 
ATOM     75  C   UNL A   1      47.235  28.669  29.115  1.00  0.00     0.198 A 
ATOM     76  F   UNL A   1      46.450  28.262  31.292  1.00  0.00    -0.203 F 
ATOM     77  F   UNL A   1      45.508  29.945  26.195  1.00  0.00    -0.200 F 
ATOM     78  C   UNL A   1      47.013  29.206  27.856  1.00  0.00     0.200 A 
ATOM     79  F   UNL A   1      48.470  28.331  29.505  1.00  0.00    -0.200 F 
ATOM     80  F   UNL A   1      48.037  29.602  27.098  1.00  0.00    -0.200 F 
ENDBRANCH  46  70
BRANCH  58  81
ATOM     81  C   UNL A   1      42.516  35.904  29.290  1.00  0.00     0.064 A 
ATOM     82  C   UNL A   1      41.973  36.273  28.051  1.00  0.00     0.173 A 
ATOM     83  C   UNL A   1      43.305  36.895  29.916  1.00  0.00     0.173 A 
ATOM     84  F   UNL A   1      41.427  35.364  27.231  1.00  0.00    -0.203 F 
ATOM     85  C   UNL A   1      42.015  37.587  27.590  1.00  0.00     0.198 A 
ATOM     86  C   UNL A   1      43.407  38.189  29.421  1.00  0.00     0.198 A 
ATOM     87  F   UNL A   1      44.011  36.662  31.028  1.00  0.00    -0.203 F 
ATOM     88  F   UNL A   1      41.369  37.911  26.463  1.00  0.00    -0.200 F 
ATOM     89  C   UNL A   1      42.719  38.550  28.285  1.00  0.00     0.200 A 
ATOM     90  F   UNL A   1      44.166  39.084  30.068  1.00  0.00    -0.200 F 
ATOM     91  F   UNL A   1      42.759  39.813  27.847  1.00  0.00    -0.200 F 
ENDBRANCH  58  81
ENDBRANCH  32  33
ENDBRANCH  24  27
ENDBRANCH  22  23
ENDBRANCH   1  22
TORSDOF 12
ENDMDL
MODEL 3
REMARK VINA RESULT:     -13.3      1.541      3.609
REMARK SMILES Cc1ccc(-c2cncc(C#N)c2)cc1C(=O)NCCCNC(=O)c1ccc(-c2c3nc(c(-c4c(F)c(F)c(F)c(F)c4F)c4ccc([nH]4)c(-c4c(F)c(F)c(F)c(F)c4F)c4nc(c(-c5c(F)c(F)c(F)c(F)c5F)c5ccc2[nH]5)C=C4)C=C3)cc1
REMARK SMILES IDX 20 1 19 2 18 3 16 4 17 5 15 7 1 8 2 9 3 10 4 11 14 12 5 13
REMARK SMILES IDX 6 14 7 15 13 16 8 17 10 18 9 19 11 20 12 21 21 22 22 23
REMARK SMILES IDX 23 24 24 26 25 27 26 28 87 29 27 30 86 31 28 32 29 33 30 34
REMARK SMILES IDX 80 35 31 36 85 37 79 38 81 39 32 40 84 41 78 42 77 43 33 45
REMARK SMILES IDX 65 46 45 47 64 48 46 49 49 50 63 51 82 52 47 53 48 54 62 56
REMARK SMILES IDX 83 57 50 58 34 59 35 60 43 61 36 62 37 63 41 64 44 65 38 66
REMARK SMILES IDX 39 67 42 68 40 69 66 70 67 71 75 72 68 73 69 74 73 75 76 76
REMARK SMILES IDX 70 77 71 78 74 79 72 80 51 81 52 82 60 83 53 84 54 85 58 86
REMARK SMILES IDX 61 87 55 88 56 89 59 90 57 91
REMARK H PARENT 18 6 22 25 81 44 49 55
REMARK Flexibility Score: inf
ROOT
ATOM      1  C   UNL A   1      34.389  30.934  27.283  1.00  0.00     0.042 C 
ENDROOT
BRANCH   1   2
ATOM      2  C   UNL A   1      32.914  30.838  26.900  1.00  0.00     0.118 C 
BRANCH   2   3
ATOM      3  N   UNL A   1      32.316  29.658  27.493  1.00  0.00    -0.352 N 
ATOM      4  C   UNL A   1      32.119  28.362  27.093  1.00  0.00     0.251 C 
ATOM      5  O   UNL A   1      31.501  27.676  27.917  1.00  0.00    -0.269 OA
ATOM      6  H   UNL A   1      31.968  29.829  28.398  1.00  0.00     0.163 HD
BRANCH   4   7
ATOM      7  C   UNL A   1      32.622  27.684  25.836  1.00  0.00     0.043 A 
ATOM      8  C   UNL A   1      31.491  28.987  23.885  1.00  0.00     0.045 C 
ATOM      9  C   UNL A   1      32.448  28.010  24.474  1.00  0.00    -0.038 A 
ATOM     10  C   UNL A   1      33.123  27.274  23.481  1.00  0.00     0.005 A 
ATOM     11  C   UNL A   1      33.790  26.106  23.784  1.00  0.00     0.009 A 
ATOM     12  C   UNL A   1      33.304  26.465  26.107  1.00  0.00     0.023 A 
ATOM     13  C   UNL A   1      33.833  25.645  25.097  1.00  0.00    -0.016 A 
BRANCH  13  14
ATOM     14  C   UNL A   1      34.334  24.291  25.338  1.00  0.00     0.001 A 
ATOM     15  C   UNL A   1      33.483  23.273  25.773  1.00  0.00     0.119 A 
ATOM     16  C   UNL A   1      35.708  24.009  25.327  1.00  0.00     0.031 A 
ATOM     17  N   UNL A   1      33.896  22.064  26.214  1.00  0.00    -0.263 NA
ATOM     18  C   UNL A   1      36.168  22.772  25.786  1.00  0.00     0.071 A 
ATOM     19  C   UNL A   1      35.231  21.847  26.223  1.00  0.00     0.130 A 
BRANCH  18  20
ATOM     20  C   UNL A   1      37.558  22.474  25.852  1.00  0.00     0.101 C 
ATOM     21  N   UNL A   1      38.694  22.218  25.910  1.00  0.00    -0.192 NA
ENDBRANCH  18  20
ENDBRANCH  13  14
ENDBRANCH   4   7
ENDBRANCH   2   3
ENDBRANCH   1   2
BRANCH   1  22
ATOM     22  C   UNL A   1      34.695  30.970  28.758  1.00  0.00     0.118 C 
BRANCH  22  23
ATOM     23  N   UNL A   1      35.902  31.722  29.092  1.00  0.00    -0.352 N 
ATOM     24  C   UNL A   1      37.221  31.298  29.177  1.00  0.00     0.251 C 
ATOM     25  H   UNL A   1      35.758  32.677  29.287  1.00  0.00     0.163 HD
ATOM     26  O   UNL A   1      38.116  32.115  29.377  1.00  0.00    -0.269 OA
BRANCH  24  27
ATOM     27  C   UNL A   1      37.563  29.895  28.823  1.00  0.00     0.039 A 
ATOM     28  C   UNL A   1      37.771  29.050  29.917  1.00  0.00     0.014 A 
ATOM     29  C   UNL A   1      38.226  29.666  27.630  1.00  0.00     0.014 A 
ATOM     30  C   UNL A   1      38.939  28.307  29.964  1.00  0.00     0.010 A 
ATOM     31  C   UNL A   1      39.468  29.088  27.728  1.00  0.00     0.010 A 
ATOM     32  C   UNL A   1      39.850  28.493  28.934  1.00  0.00    -0.014 A 
BRANCH  32  33
ATOM     33  C   UNL A   1      41.176  27.927  28.933  1.00  0.00     0.031 A 
ATOM     34  C   UNL A   1      41.201  26.488  28.632  1.00  0.00     0.074 A 
ATOM     35  C   UNL A   1      42.261  28.714  29.110  1.00  0.00     0.049 A 
ATOM     36  N   UNL A   1      42.122  25.686  29.014  1.00  0.00    -0.248 NA
ATOM     37  C   UNL A   1      40.086  25.802  27.975  1.00  0.00     0.031 C 
ATOM     38  C   UNL A   1      43.663  28.395  28.862  1.00  0.00     0.029 A 
ATOM     39  N   UNL A   1      42.309  29.987  29.713  1.00  0.00    -0.354 N 
ATOM     40  C   UNL A   1      41.896  24.480  28.385  1.00  0.00     0.074 A 
ATOM     41  C   UNL A   1      40.546  24.553  27.901  1.00  0.00     0.031 C 
ATOM     42  C   UNL A   1      44.436  29.258  29.547  1.00  0.00     0.029 A 
ATOM     43  C   UNL A   1      43.563  30.070  30.377  1.00  0.00     0.049 A 
ATOM     44  H   UNL A   1      41.611  30.682  29.682  1.00  0.00     0.167 HD
ATOM     45  C   UNL A   1      42.962  23.651  28.216  1.00  0.00     0.037 A 
ATOM     46  C   UNL A   1      43.629  30.142  31.745  1.00  0.00     0.037 A 
ATOM     47  C   UNL A   1      44.124  24.230  28.903  1.00  0.00     0.049 A 
ATOM     48  C   UNL A   1      44.100  28.860  32.378  1.00  0.00     0.074 A 
ATOM     49  C   UNL A   1      45.170  25.035  28.485  1.00  0.00     0.029 A 
ATOM     50  N   UNL A   1      44.059  24.382  30.279  1.00  0.00    -0.354 N 
ATOM     51  N   UNL A   1      44.370  27.772  31.716  1.00  0.00    -0.248 NA
ATOM     52  C   UNL A   1      44.177  28.684  33.823  1.00  0.00     0.031 C 
ATOM     53  C   UNL A   1      45.709  25.692  29.635  1.00  0.00     0.029 A 
ATOM     54  C   UNL A   1      45.023  25.251  30.754  1.00  0.00     0.049 A 
ATOM     55  H   UNL A   1      43.402  23.924  30.852  1.00  0.00     0.167 HD
ATOM     56  C   UNL A   1      44.662  26.769  32.593  1.00  0.00     0.074 A 
ATOM     57  C   UNL A   1      44.446  27.373  33.901  1.00  0.00     0.031 C 
ATOM     58  C   UNL A   1      45.059  25.526  32.184  1.00  0.00     0.037 A 
BRANCH  45  59
ATOM     59  C   UNL A   1      43.050  22.496  27.239  1.00  0.00     0.064 A 
ATOM     60  C   UNL A   1      42.192  21.387  27.404  1.00  0.00     0.173 A 
ATOM     61  C   UNL A   1      43.961  22.367  26.169  1.00  0.00     0.173 A 
ATOM     62  F   UNL A   1      41.230  21.383  28.336  1.00  0.00    -0.203 F 
ATOM     63  C   UNL A   1      42.289  20.231  26.623  1.00  0.00     0.198 A 
ATOM     64  C   UNL A   1      44.071  21.202  25.399  1.00  0.00     0.198 A 
ATOM     65  F   UNL A   1      44.763  23.361  25.786  1.00  0.00    -0.203 F 
ATOM     66  F   UNL A   1      41.454  19.207  26.850  1.00  0.00    -0.200 F 
ATOM     67  C   UNL A   1      43.240  20.131  25.631  1.00  0.00     0.200 A 
ATOM     68  F   UNL A   1      44.993  21.136  24.427  1.00  0.00    -0.200 F 
ATOM     69  F   UNL A   1      43.342  19.019  24.892  1.00  0.00    -0.200 F 
ENDBRANCH  45  59
BRANCH  46  70
ATOM     70  C   UNL A   1      42.575  31.019  32.344  1.00  0.00     0.064 A 
ATOM     71  C   UNL A   1      41.524  30.309  32.945  1.00  0.00     0.173 A 
ATOM     72  C   UNL A   1      42.981  32.222  32.932  1.00  0.00     0.173 A 
ATOM     73  F   UNL A   1      40.994  29.240  32.330  1.00  0.00    -0.203 F 
ATOM     74  C   UNL A   1      41.270  30.506  34.291  1.00  0.00     0.198 A 
ATOM     75  C   UNL A   1      42.642  32.476  34.250  1.00  0.00     0.198 A 
ATOM     76  F   UNL A   1      43.851  33.033  32.314  1.00  0.00    -0.203 F 
ATOM     77  F   UNL A   1      40.559  29.599  34.975  1.00  0.00    -0.200 F 
ATOM     78  C   UNL A   1      41.900  31.542  34.957  1.00  0.00     0.200 A 
ATOM     79  F   UNL A   1      43.140  33.556  34.864  1.00  0.00    -0.200 F 
ATOM     80  F   UNL A   1      41.855  31.579  36.290  1.00  0.00    -0.200 F 
ENDBRANCH  46  70
BRANCH  58  81
ATOM     81  C   UNL A   1      45.470  24.439  33.145  1.00  0.00     0.064 A 
ATOM     82  C   UNL A   1      44.599  23.416  33.550  1.00  0.00     0.173 A 
ATOM     83  C   UNL A   1      46.747  24.411  33.751  1.00  0.00     0.173 A 
ATOM     84  F   UNL A   1      43.290  23.462  33.263  1.00  0.00    -0.203 F 
ATOM     85  C   UNL A   1      45.037  22.332  34.308  1.00  0.00     0.198 A 
ATOM     86  C   UNL A   1      47.163  23.365  34.564  1.00  0.00     0.198 A 
ATOM     87  F   UNL A   1      47.646  25.388  33.587  1.00  0.00    -0.203 F 
ATOM     88  F   UNL A   1      44.196  21.320  34.557  1.00  0.00    -0.200 F 
ATOM     89  C   UNL A   1      46.326  22.299  34.801  1.00  0.00     0.200 A 
ATOM     90  F   UNL A   1      48.390  23.397  35.102  1.00  0.00    -0.200 F 
ATOM     91  F   UNL A   1      46.750  21.258  35.525  1.00  0.00    -0.200 F 
ENDBRANCH  58  81
ENDBRANCH  32  33
ENDBRANCH  24  27
ENDBRANCH  22  23
ENDBRANCH   1  22
TORSDOF 12
ENDMDL
