MODEL 1
REMARK VINA RESULT:     -13.7      0.000      0.000
REMARK SMILES O=C(N/N=C/c1ccc(C(=O)NCCCNC(=O)c2ccc(-c3c4nc(c(-c5c(F)c(F)c(F)c(F)c5F)c5ccc([nH]5)c(-c5c(F)c(F)c(F)c(F)c5F)c5nc(c(-c6c(F)c(F)c(F)c(F)c6F)c6ccc3[nH]6)C=C5)C=C4)cc2)cc1)C(=O)Nc1ccc2c(c1)OCO2
REMARK SMILES IDX 13 1 12 2 10 3 11 4 9 6 6 7 7 8 83 9 8 10 82 11 5 12 4 13
REMARK SMILES IDX 3 14 1 15 2 16 84 18 85 19 86 20 87 22 88 23 92 24 89 25
REMARK SMILES IDX 91 26 90 27 93 28 95 29 94 30 14 31 15 32 16 33 17 34 18 36
REMARK SMILES IDX 19 37 20 38 81 39 21 40 80 41 22 42 23 43 24 44 74 45 25 46
REMARK SMILES IDX 79 47 73 48 75 49 26 50 78 51 72 52 71 53 27 55 59 56 39 57
REMARK SMILES IDX 58 58 40 59 43 60 57 61 76 62 41 63 42 64 56 66 77 67 44 68
REMARK SMILES IDX 28 69 29 70 37 71 30 72 31 73 35 74 38 75 32 76 33 77 36 78
REMARK SMILES IDX 34 79 60 80 61 81 69 82 62 83 63 84 67 85 70 86 64 87 65 88
REMARK SMILES IDX 68 89 66 90 45 91 46 92 54 93 47 94 48 95 52 96 55 97 49 98
REMARK SMILES IDX 50 99 53 100 51 101
REMARK H PARENT 12 5 3 17 86 21 16 35 75 54 43 65
REMARK Flexibility Score: inf
ROOT
ATOM      1  C   UNL A   1      34.482  35.411  27.854  1.00  0.00     0.118 C 
ENDROOT
BRANCH   1   2
ATOM      2  N   UNL A   1      35.613  34.939  28.638  1.00  0.00    -0.352 N 
ATOM      3  C   UNL A   1      36.092  33.665  28.837  1.00  0.00     0.251 C 
ATOM      4  O   UNL A   1      37.089  33.504  29.535  1.00  0.00    -0.269 OA
ATOM      5  H   UNL A   1      36.118  35.646  29.100  1.00  0.00     0.163 HD
BRANCH   3   6
ATOM      6  C   UNL A   1      35.493  32.515  28.120  1.00  0.00     0.039 A 
ATOM      7  C   UNL A   1      33.972  29.923  27.443  1.00  0.00    -0.005 A 
ATOM      8  C   UNL A   1      33.502  31.368  27.372  1.00  0.00     0.010 A 
ATOM      9  C   UNL A   1      35.456  30.169  27.490  1.00  0.00     0.010 A 
ATOM     10  C   UNL A   1      34.178  32.564  27.743  1.00  0.00     0.014 A 
ATOM     11  C   UNL A   1      36.158  31.361  27.799  1.00  0.00     0.014 A 
BRANCH   7  12
ATOM     12  C   UNL A   1      32.833  28.119  27.475  1.00  0.00     0.141 C 
ATOM     13  N   UNL A   1      32.385  27.197  26.551  1.00  0.00    -0.180 NA
BRANCH  13  14
ATOM     14  N   UNL A   1      31.223  26.601  26.881  1.00  0.00    -0.239 N 
ATOM     15  O   UNL A   1      29.739  24.923  26.600  1.00  0.00    -0.262 OA
ATOM     16  C   UNL A   1      30.662  25.583  26.118  1.00  0.00     0.329 C 
ATOM     17  H   UNL A   1      30.752  26.899  27.693  1.00  0.00     0.194 HD
BRANCH  16  18
ATOM     18  C   UNL A   1      31.187  25.186  24.703  1.00  0.00     0.315 C 
ATOM     19  O   UNL A   1      30.490  25.450  23.722  1.00  0.00    -0.263 OA
ATOM     20  N   UNL A   1      32.490  24.734  24.482  1.00  0.00    -0.318 N 
ATOM     21  H   UNL A   1      33.040  25.191  23.806  1.00  0.00     0.170 HD
BRANCH  20  22
ATOM     22  C   UNL A   1      33.045  23.651  25.185  1.00  0.00     0.045 A 
ATOM     23  C   UNL A   1      32.536  21.992  24.561  1.00  0.00     0.030 A 
ATOM     24  C   UNL A   1      34.723  23.910  25.880  1.00  0.00     0.076 A 
ATOM     25  C   UNL A   1      33.736  20.604  24.637  1.00  0.00     0.053 A 
ATOM     26  C   UNL A   1      35.918  22.541  25.771  1.00  0.00     0.167 A 
ATOM     27  C   UNL A   1      35.412  20.933  25.187  1.00  0.00     0.165 A 
ATOM     28  O   UNL A   1      37.277  22.519  25.832  1.00  0.00    -0.454 OA
ATOM     29  O   UNL A   1      36.557  20.225  24.994  1.00  0.00    -0.454 OA
ATOM     30  C   UNL A   1      37.572  21.299  25.055  1.00  0.00     0.468 C 
ENDBRANCH  20  22
ENDBRANCH  16  18
ENDBRANCH  13  14
ENDBRANCH   7  12
ENDBRANCH   3   6
ENDBRANCH   1   2
BRANCH   1  31
ATOM     31  C   UNL A   1      33.513  36.195  28.733  1.00  0.00     0.042 C 
BRANCH  31  32
ATOM     32  C   UNL A   1      32.954  35.361  29.866  1.00  0.00     0.118 C 
BRANCH  32  33
ATOM     33  N   UNL A   1      32.420  36.189  30.934  1.00  0.00    -0.352 N 
ATOM     34  C   UNL A   1      32.663  36.105  32.281  1.00  0.00     0.251 C 
ATOM     35  H   UNL A   1      31.802  36.903  30.654  1.00  0.00     0.163 HD
ATOM     36  O   UNL A   1      31.953  36.702  33.081  1.00  0.00    -0.269 OA
BRANCH  34  37
ATOM     37  C   UNL A   1      33.786  35.269  32.753  1.00  0.00     0.039 A 
ATOM     38  C   UNL A   1      33.532  33.981  33.227  1.00  0.00     0.014 A 
ATOM     39  C   UNL A   1      35.093  35.759  32.691  1.00  0.00     0.014 A 
ATOM     40  C   UNL A   1      34.601  33.161  33.588  1.00  0.00     0.010 A 
ATOM     41  C   UNL A   1      36.156  34.908  32.948  1.00  0.00     0.010 A 
ATOM     42  C   UNL A   1      35.922  33.607  33.419  1.00  0.00    -0.014 A 
BRANCH  42  43
ATOM     43  C   UNL A   1      37.093  32.769  33.769  1.00  0.00     0.031 A 
ATOM     44  C   UNL A   1      37.860  33.081  35.025  1.00  0.00     0.074 A 
ATOM     45  C   UNL A   1      37.521  31.813  32.923  1.00  0.00     0.049 A 
ATOM     46  N   UNL A   1      39.011  32.612  35.431  1.00  0.00    -0.248 NA
ATOM     47  C   UNL A   1      37.270  34.087  35.927  1.00  0.00     0.031 C 
ATOM     48  C   UNL A   1      36.870  31.438  31.668  1.00  0.00     0.029 A 
ATOM     49  N   UNL A   1      38.627  31.001  32.978  1.00  0.00    -0.354 N 
ATOM     50  C   UNL A   1      39.292  33.285  36.613  1.00  0.00     0.074 A 
ATOM     51  C   UNL A   1      38.222  34.229  36.836  1.00  0.00     0.031 C 
ATOM     52  C   UNL A   1      37.585  30.468  31.073  1.00  0.00     0.029 A 
ATOM     53  C   UNL A   1      38.774  30.196  31.874  1.00  0.00     0.049 A 
ATOM     54  H   UNL A   1      39.254  30.996  33.738  1.00  0.00     0.167 HD
ATOM     55  C   UNL A   1      40.345  33.114  37.445  1.00  0.00     0.037 A 
ATOM     56  C   UNL A   1      39.775  29.361  31.533  1.00  0.00     0.037 A 
ATOM     57  C   UNL A   1      41.388  32.150  37.226  1.00  0.00     0.049 A 
ATOM     58  C   UNL A   1      40.954  29.214  32.464  1.00  0.00     0.074 A 
ATOM     59  C   UNL A   1      42.467  31.853  38.038  1.00  0.00     0.029 A 
ATOM     60  N   UNL A   1      41.486  31.333  36.109  1.00  0.00    -0.354 N 
ATOM     61  N   UNL A   1      41.183  29.813  33.609  1.00  0.00    -0.248 NA
ATOM     62  C   UNL A   1      42.012  28.277  32.060  1.00  0.00     0.031 C 
ATOM     63  C   UNL A   1      43.260  30.913  37.379  1.00  0.00     0.029 A 
ATOM     64  C   UNL A   1      42.627  30.555  36.200  1.00  0.00     0.049 A 
ATOM     65  H   UNL A   1      40.842  31.310  35.366  1.00  0.00     0.167 HD
ATOM     66  C   UNL A   1      42.379  29.288  34.083  1.00  0.00     0.074 A 
ATOM     67  C   UNL A   1      42.831  28.327  33.102  1.00  0.00     0.031 C 
ATOM     68  C   UNL A   1      43.039  29.573  35.230  1.00  0.00     0.037 A 
BRANCH  55  69
ATOM     69  C   UNL A   1      40.436  33.986  38.662  1.00  0.00     0.064 A 
ATOM     70  C   UNL A   1      41.125  35.208  38.650  1.00  0.00     0.173 A 
ATOM     71  C   UNL A   1      39.761  33.626  39.840  1.00  0.00     0.173 A 
ATOM     72  F   UNL A   1      41.796  35.594  37.555  1.00  0.00    -0.203 F 
ATOM     73  C   UNL A   1      41.149  36.027  39.775  1.00  0.00     0.198 A 
ATOM     74  C   UNL A   1      39.757  34.465  40.949  1.00  0.00     0.198 A 
ATOM     75  F   UNL A   1      39.084  32.470  39.905  1.00  0.00    -0.203 F 
ATOM     76  F   UNL A   1      41.848  37.171  39.753  1.00  0.00    -0.200 F 
ATOM     77  C   UNL A   1      40.454  35.662  40.918  1.00  0.00     0.200 A 
ATOM     78  F   UNL A   1      39.069  34.118  42.046  1.00  0.00    -0.200 F 
ATOM     79  F   UNL A   1      40.461  36.463  41.992  1.00  0.00    -0.200 F 
ENDBRANCH  55  69
BRANCH  56  80
ATOM     80  C   UNL A   1      39.726  28.608  30.250  1.00  0.00     0.064 A 
ATOM     81  C   UNL A   1      39.188  27.314  30.189  1.00  0.00     0.173 A 
ATOM     82  C   UNL A   1      40.255  29.147  29.067  1.00  0.00     0.173 A 
ATOM     83  F   UNL A   1      38.682  26.747  31.294  1.00  0.00    -0.203 F 
ATOM     84  C   UNL A   1      39.222  26.573  29.009  1.00  0.00     0.198 A 
ATOM     85  C   UNL A   1      40.252  28.420  27.877  1.00  0.00     0.198 A 
ATOM     86  F   UNL A   1      40.773  30.384  29.062  1.00  0.00    -0.203 F 
ATOM     87  F   UNL A   1      38.769  25.312  29.001  1.00  0.00    -0.200 F 
ATOM     88  C   UNL A   1      39.751  27.127  27.854  1.00  0.00     0.200 A 
ATOM     89  F   UNL A   1      40.744  28.968  26.758  1.00  0.00    -0.200 F 
ATOM     90  F   UNL A   1      39.790  26.411  26.721  1.00  0.00    -0.200 F 
ENDBRANCH  56  80
BRANCH  68  91
ATOM     91  C   UNL A   1      44.275  28.783  35.550  1.00  0.00     0.064 A 
ATOM     92  C   UNL A   1      45.556  29.227  35.199  1.00  0.00     0.173 A 
ATOM     93  C   UNL A   1      44.172  27.610  36.317  1.00  0.00     0.173 A 
ATOM     94  F   UNL A   1      45.708  30.334  34.456  1.00  0.00    -0.203 F 
ATOM     95  C   UNL A   1      46.690  28.524  35.599  1.00  0.00     0.198 A 
ATOM     96  C   UNL A   1      45.307  26.932  36.745  1.00  0.00     0.198 A 
ATOM     97  F   UNL A   1      42.967  27.148  36.686  1.00  0.00    -0.203 F 
ATOM     98  F   UNL A   1      47.905  28.949  35.227  1.00  0.00    -0.200 F 
ATOM     99  C   UNL A   1      46.565  27.387  36.384  1.00  0.00     0.200 A 
ATOM    100  F   UNL A   1      45.183  25.847  37.524  1.00  0.00    -0.200 F 
ATOM    101  F   UNL A   1      47.658  26.730  36.793  1.00  0.00    -0.200 F 
ENDBRANCH  68  91
ENDBRANCH  42  43
ENDBRANCH  34  37
ENDBRANCH  32  33
ENDBRANCH  31  32
ENDBRANCH   1  31
TORSDOF 14
ENDMDL
MODEL 2
REMARK VINA RESULT:     -13.4      4.236      9.742
REMARK SMILES O=C(N/N=C/c1ccc(C(=O)NCCCNC(=O)c2ccc(-c3c4nc(c(-c5c(F)c(F)c(F)c(F)c5F)c5ccc([nH]5)c(-c5c(F)c(F)c(F)c(F)c5F)c5nc(c(-c6c(F)c(F)c(F)c(F)c6F)c6ccc3[nH]6)C=C5)C=C4)cc2)cc1)C(=O)Nc1ccc2c(c1)OCO2
REMARK SMILES IDX 13 1 12 2 10 3 11 4 9 6 6 7 7 8 83 9 8 10 82 11 5 12 4 13
REMARK SMILES IDX 3 14 1 15 2 16 84 18 85 19 86 20 87 22 88 23 92 24 89 25
REMARK SMILES IDX 91 26 90 27 93 28 95 29 94 30 14 31 15 32 16 33 17 34 18 36
REMARK SMILES IDX 19 37 20 38 81 39 21 40 80 41 22 42 23 43 24 44 74 45 25 46
REMARK SMILES IDX 79 47 73 48 75 49 26 50 78 51 72 52 71 53 27 55 59 56 39 57
REMARK SMILES IDX 58 58 40 59 43 60 57 61 76 62 41 63 42 64 56 66 77 67 44 68
REMARK SMILES IDX 28 69 29 70 37 71 30 72 31 73 35 74 38 75 32 76 33 77 36 78
REMARK SMILES IDX 34 79 60 80 61 81 69 82 62 83 63 84 67 85 70 86 64 87 65 88
REMARK SMILES IDX 68 89 66 90 45 91 46 92 54 93 47 94 48 95 52 96 55 97 49 98
REMARK SMILES IDX 50 99 53 100 51 101
REMARK H PARENT 12 5 3 17 86 21 16 35 75 54 43 65
REMARK Flexibility Score: inf
ROOT
ATOM      1  C   UNL A   1      34.667  22.498  26.481  1.00  0.00     0.118 C 
ENDROOT
BRANCH   1   2
ATOM      2  N   UNL A   1      33.695  21.471  26.141  1.00  0.00    -0.352 N 
ATOM      3  C   UNL A   1      32.445  21.575  25.577  1.00  0.00     0.251 C 
ATOM      4  O   UNL A   1      31.800  20.553  25.360  1.00  0.00    -0.269 OA
ATOM      5  H   UNL A   1      33.979  20.551  26.347  1.00  0.00     0.163 HD
BRANCH   3   6
ATOM      6  C   UNL A   1      31.933  22.888  25.120  1.00  0.00     0.039 A 
ATOM      7  C   UNL A   1      30.096  25.254  24.400  1.00  0.00    -0.005 A 
ATOM      8  C   UNL A   1      30.883  24.993  25.676  1.00  0.00     0.010 A 
ATOM      9  C   UNL A   1      30.820  24.302  23.487  1.00  0.00     0.010 A 
ATOM     10  C   UNL A   1      31.681  23.872  26.037  1.00  0.00     0.014 A 
ATOM     11  C   UNL A   1      31.667  23.214  23.816  1.00  0.00     0.014 A 
BRANCH   7  12
ATOM     12  C   UNL A   1      28.458  26.577  24.055  1.00  0.00     0.141 C 
ATOM     13  N   UNL A   1      28.008  27.371  23.021  1.00  0.00    -0.180 NA
BRANCH  13  14
ATOM     14  N   UNL A   1      27.346  28.477  23.417  1.00  0.00    -0.239 N 
ATOM     15  O   UNL A   1      26.978  30.698  23.251  1.00  0.00    -0.262 OA
ATOM     16  C   UNL A   1      27.754  29.758  23.065  1.00  0.00     0.329 C 
ATOM     17  H   UNL A   1      26.544  28.372  23.977  1.00  0.00     0.194 HD
BRANCH  16  18
ATOM     18  C   UNL A   1      29.125  30.062  22.382  1.00  0.00     0.315 C 
ATOM     19  O   UNL A   1      29.167  30.126  21.153  1.00  0.00    -0.263 OA
ATOM     20  N   UNL A   1      30.253  30.463  23.101  1.00  0.00    -0.318 N 
ATOM     21  H   UNL A   1      30.713  31.292  22.835  1.00  0.00     0.170 HD
BRANCH  20  22
ATOM     22  C   UNL A   1      30.757  29.731  24.189  1.00  0.00     0.045 A 
ATOM     23  C   UNL A   1      31.827  28.303  23.719  1.00  0.00     0.030 A 
ATOM     24  C   UNL A   1      31.093  30.681  25.722  1.00  0.00     0.076 A 
ATOM     25  C   UNL A   1      33.239  27.852  24.803  1.00  0.00     0.053 A 
ATOM     26  C   UNL A   1      32.603  30.290  26.660  1.00  0.00     0.167 A 
ATOM     27  C   UNL A   1      33.620  28.895  26.213  1.00  0.00     0.165 A 
ATOM     28  O   UNL A   1      33.314  31.010  27.570  1.00  0.00    -0.454 OA
ATOM     29  O   UNL A   1      34.769  29.021  26.929  1.00  0.00    -0.454 OA
ATOM     30  C   UNL A   1      34.656  30.415  27.409  1.00  0.00     0.468 C 
ENDBRANCH  20  22
ENDBRANCH  16  18
ENDBRANCH  13  14
ENDBRANCH   7  12
ENDBRANCH   3   6
ENDBRANCH   1   2
BRANCH   1  31
ATOM     31  C   UNL A   1      35.688  22.661  25.361  1.00  0.00     0.042 C 
BRANCH  31  32
ATOM     32  C   UNL A   1      36.929  23.403  25.810  1.00  0.00     0.118 C 
BRANCH  32  33
ATOM     33  N   UNL A   1      38.053  22.505  26.011  1.00  0.00    -0.352 N 
ATOM     34  C   UNL A   1      39.330  22.811  26.406  1.00  0.00     0.251 C 
ATOM     35  H   UNL A   1      37.874  21.551  25.840  1.00  0.00     0.163 HD
ATOM     36  O   UNL A   1      40.233  21.991  26.288  1.00  0.00    -0.269 OA
BRANCH  34  37
ATOM     37  C   UNL A   1      39.603  24.153  26.959  1.00  0.00     0.039 A 
ATOM     38  C   UNL A   1      39.287  24.424  28.292  1.00  0.00     0.014 A 
ATOM     39  C   UNL A   1      40.201  25.129  26.159  1.00  0.00     0.014 A 
ATOM     40  C   UNL A   1      39.626  25.662  28.838  1.00  0.00     0.010 A 
ATOM     41  C   UNL A   1      40.633  26.314  26.731  1.00  0.00     0.010 A 
ATOM     42  C   UNL A   1      40.332  26.602  28.071  1.00  0.00    -0.014 A 
BRANCH  42  43
ATOM     43  C   UNL A   1      40.732  27.924  28.609  1.00  0.00     0.031 A 
ATOM     44  C   UNL A   1      42.149  28.121  29.073  1.00  0.00     0.074 A 
ATOM     45  C   UNL A   1      39.815  28.896  28.775  1.00  0.00     0.049 A 
ATOM     46  N   UNL A   1      42.672  29.114  29.743  1.00  0.00    -0.248 NA
ATOM     47  C   UNL A   1      43.099  27.033  28.776  1.00  0.00     0.031 C 
ATOM     48  C   UNL A   1      38.408  28.810  28.383  1.00  0.00     0.029 A 
ATOM     49  N   UNL A   1      39.923  30.140  29.347  1.00  0.00    -0.354 N 
ATOM     50  C   UNL A   1      43.994  28.757  29.970  1.00  0.00     0.074 A 
ATOM     51  C   UNL A   1      44.186  27.438  29.413  1.00  0.00     0.031 C 
ATOM     52  C   UNL A   1      37.785  29.951  28.722  1.00  0.00     0.029 A 
ATOM     53  C   UNL A   1      38.733  30.824  29.408  1.00  0.00     0.049 A 
ATOM     54  H   UNL A   1      40.774  30.505  29.682  1.00  0.00     0.167 HD
ATOM     55  C   UNL A   1      44.965  29.478  30.576  1.00  0.00     0.037 A 
ATOM     56  C   UNL A   1      38.437  32.005  29.985  1.00  0.00     0.037 A 
ATOM     57  C   UNL A   1      44.769  30.802  31.100  1.00  0.00     0.049 A 
ATOM     58  C   UNL A   1      39.532  32.772  30.683  1.00  0.00     0.074 A 
ATOM     59  C   UNL A   1      45.701  31.644  31.678  1.00  0.00     0.029 A 
ATOM     60  N   UNL A   1      43.555  31.472  31.117  1.00  0.00    -0.354 N 
ATOM     61  N   UNL A   1      40.794  32.452  30.843  1.00  0.00    -0.248 NA
ATOM     62  C   UNL A   1      39.166  34.064  31.281  1.00  0.00     0.031 C 
ATOM     63  C   UNL A   1      45.038  32.792  32.114  1.00  0.00     0.029 A 
ATOM     64  C   UNL A   1      43.711  32.705  31.724  1.00  0.00     0.049 A 
ATOM     65  H   UNL A   1      42.710  31.123  30.751  1.00  0.00     0.167 HD
ATOM     66  C   UNL A   1      41.379  33.521  31.509  1.00  0.00     0.074 A 
ATOM     67  C   UNL A   1      40.336  34.498  31.729  1.00  0.00     0.031 C 
ATOM     68  C   UNL A   1      42.666  33.682  31.898  1.00  0.00     0.037 A 
BRANCH  55  69
ATOM     69  C   UNL A   1      46.324  28.858  30.720  1.00  0.00     0.064 A 
ATOM     70  C   UNL A   1      47.311  28.997  29.732  1.00  0.00     0.173 A 
ATOM     71  C   UNL A   1      46.667  28.175  31.897  1.00  0.00     0.173 A 
ATOM     72  F   UNL A   1      47.032  29.631  28.583  1.00  0.00    -0.203 F 
ATOM     73  C   UNL A   1      48.583  28.461  29.912  1.00  0.00     0.198 A 
ATOM     74  C   UNL A   1      47.950  27.674  32.088  1.00  0.00     0.198 A 
ATOM     75  F   UNL A   1      45.762  28.016  32.875  1.00  0.00    -0.203 F 
ATOM     76  F   UNL A   1      49.497  28.572  28.937  1.00  0.00    -0.200 F 
ATOM     77  C   UNL A   1      48.906  27.813  31.094  1.00  0.00     0.200 A 
ATOM     78  F   UNL A   1      48.264  27.063  33.239  1.00  0.00    -0.200 F 
ATOM     79  F   UNL A   1      50.138  27.317  31.273  1.00  0.00    -0.200 F 
ENDBRANCH  55  69
BRANCH  56  80
ATOM     80  C   UNL A   1      37.045  32.534  29.948  1.00  0.00     0.064 A 
ATOM     81  C   UNL A   1      36.586  33.289  28.859  1.00  0.00     0.173 A 
ATOM     82  C   UNL A   1      36.160  32.335  31.018  1.00  0.00     0.173 A 
ATOM     83  F   UNL A   1      37.397  33.520  27.816  1.00  0.00    -0.203 F 
ATOM     84  C   UNL A   1      35.316  33.862  28.861  1.00  0.00     0.198 A 
ATOM     85  C   UNL A   1      34.874  32.875  31.002  1.00  0.00     0.198 A 
ATOM     86  F   UNL A   1      36.540  31.613  32.082  1.00  0.00    -0.203 F 
ATOM     87  F   UNL A   1      34.933  34.640  27.840  1.00  0.00    -0.200 F 
ATOM     88  C   UNL A   1      34.460  33.652  29.931  1.00  0.00     0.200 A 
ATOM     89  F   UNL A   1      34.043  32.652  32.029  1.00  0.00    -0.200 F 
ATOM     90  F   UNL A   1      33.241  34.209  29.936  1.00  0.00    -0.200 F 
ENDBRANCH  56  80
BRANCH  68  91
ATOM     91  C   UNL A   1      43.059  34.990  32.522  1.00  0.00     0.064 A 
ATOM     92  C   UNL A   1      43.521  36.071  31.760  1.00  0.00     0.173 A 
ATOM     93  C   UNL A   1      42.865  35.189  33.899  1.00  0.00     0.173 A 
ATOM     94  F   UNL A   1      43.735  35.928  30.443  1.00  0.00    -0.203 F 
ATOM     95  C   UNL A   1      43.780  37.303  32.355  1.00  0.00     0.198 A 
ATOM     96  C   UNL A   1      43.089  36.431  34.482  1.00  0.00     0.198 A 
ATOM     97  F   UNL A   1      42.416  34.187  34.670  1.00  0.00    -0.203 F 
ATOM     98  F   UNL A   1      44.250  38.316  31.615  1.00  0.00    -0.200 F 
ATOM     99  C   UNL A   1      43.549  37.486  33.711  1.00  0.00     0.200 A 
ATOM    100  F   UNL A   1      42.843  36.610  35.788  1.00  0.00    -0.200 F 
ATOM    101  F   UNL A   1      43.770  38.681  34.275  1.00  0.00    -0.200 F 
ENDBRANCH  68  91
ENDBRANCH  42  43
ENDBRANCH  34  37
ENDBRANCH  32  33
ENDBRANCH  31  32
ENDBRANCH   1  31
TORSDOF 14
ENDMDL
MODEL 3
REMARK VINA RESULT:     -13.4      6.195     11.516
REMARK SMILES O=C(N/N=C/c1ccc(C(=O)NCCCNC(=O)c2ccc(-c3c4nc(c(-c5c(F)c(F)c(F)c(F)c5F)c5ccc([nH]5)c(-c5c(F)c(F)c(F)c(F)c5F)c5nc(c(-c6c(F)c(F)c(F)c(F)c6F)c6ccc3[nH]6)C=C5)C=C4)cc2)cc1)C(=O)Nc1ccc2c(c1)OCO2
REMARK SMILES IDX 13 1 12 2 10 3 11 4 9 6 6 7 7 8 83 9 8 10 82 11 5 12 4 13
REMARK SMILES IDX 3 14 1 15 2 16 84 18 85 19 86 20 87 22 88 23 92 24 89 25
REMARK SMILES IDX 91 26 90 27 93 28 95 29 94 30 14 31 15 32 16 33 17 34 18 36
REMARK SMILES IDX 19 37 20 38 81 39 21 40 80 41 22 42 23 43 24 44 74 45 25 46
REMARK SMILES IDX 79 47 73 48 75 49 26 50 78 51 72 52 71 53 27 55 59 56 39 57
REMARK SMILES IDX 58 58 40 59 43 60 57 61 76 62 41 63 42 64 56 66 77 67 44 68
REMARK SMILES IDX 28 69 29 70 37 71 30 72 31 73 35 74 38 75 32 76 33 77 36 78
REMARK SMILES IDX 34 79 60 80 61 81 69 82 62 83 63 84 67 85 70 86 64 87 65 88
REMARK SMILES IDX 68 89 66 90 45 91 46 92 54 93 47 94 48 95 52 96 55 97 49 98
REMARK SMILES IDX 50 99 53 100 51 101
REMARK H PARENT 12 5 3 17 86 21 16 35 75 54 43 65
REMARK Flexibility Score: inf
ROOT
ATOM      1  C   UNL A   1      36.677  20.397  25.306  1.00  0.00     0.118 C 
ENDROOT
BRANCH   1   2
ATOM      2  N   UNL A   1      35.843  19.267  24.927  1.00  0.00    -0.352 N 
ATOM      3  C   UNL A   1      34.494  19.199  24.672  1.00  0.00     0.251 C 
ATOM      4  O   UNL A   1      34.001  18.123  24.345  1.00  0.00    -0.269 OA
ATOM      5  H   UNL A   1      36.324  18.412  24.837  1.00  0.00     0.163 HD
BRANCH   3   6
ATOM      6  C   UNL A   1      33.666  20.427  24.667  1.00  0.00     0.039 A 
ATOM      7  C   UNL A   1      32.331  23.092  25.443  1.00  0.00    -0.005 A 
ATOM      8  C   UNL A   1      33.567  22.841  24.594  1.00  0.00     0.010 A 
ATOM      9  C   UNL A   1      31.736  21.711  25.394  1.00  0.00     0.010 A 
ATOM     10  C   UNL A   1      34.224  21.617  24.285  1.00  0.00     0.014 A 
ATOM     11  C   UNL A   1      32.348  20.484  25.036  1.00  0.00     0.014 A 
BRANCH   7  12
ATOM     12  C   UNL A   1      31.679  24.882  26.405  1.00  0.00     0.141 C 
ATOM     13  N   UNL A   1      30.615  25.754  26.292  1.00  0.00    -0.180 NA
BRANCH  13  14
ATOM     14  N   UNL A   1      30.904  27.028  26.622  1.00  0.00    -0.239 N 
ATOM     15  O   UNL A   1      31.580  29.097  26.024  1.00  0.00    -0.262 OA
ATOM     16  C   UNL A   1      31.565  27.894  25.759  1.00  0.00     0.329 C 
ATOM     17  H   UNL A   1      30.637  27.358  27.511  1.00  0.00     0.194 HD
BRANCH  16  18
ATOM     18  C   UNL A   1      32.237  27.427  24.429  1.00  0.00     0.315 C 
ATOM     19  O   UNL A   1      33.467  27.411  24.366  1.00  0.00    -0.263 OA
ATOM     20  N   UNL A   1      31.518  26.838  23.387  1.00  0.00    -0.318 N 
ATOM     21  H   UNL A   1      31.814  25.964  23.043  1.00  0.00     0.170 HD
BRANCH  20  22
ATOM     22  C   UNL A   1      30.388  27.443  22.811  1.00  0.00     0.045 A 
ATOM     23  C   UNL A   1      28.779  26.907  23.535  1.00  0.00     0.030 A 
ATOM     24  C   UNL A   1      30.609  29.160  22.203  1.00  0.00     0.076 A 
ATOM     25  C   UNL A   1      27.403  28.118  23.647  1.00  0.00     0.053 A 
ATOM     26  C   UNL A   1      29.267  30.354  22.496  1.00  0.00     0.167 A 
ATOM     27  C   UNL A   1      27.706  29.823  23.176  1.00  0.00     0.165 A 
ATOM     28  O   UNL A   1      29.257  31.714  22.522  1.00  0.00    -0.454 OA
ATOM     29  O   UNL A   1      27.029  30.958  23.497  1.00  0.00    -0.454 OA
ATOM     30  C   UNL A   1      28.107  31.967  23.412  1.00  0.00     0.468 C 
ENDBRANCH  20  22
ENDBRANCH  16  18
ENDBRANCH  13  14
ENDBRANCH   7  12
ENDBRANCH   3   6
ENDBRANCH   1   2
BRANCH   1  31
ATOM     31  C   UNL A   1      38.121  20.164  24.876  1.00  0.00     0.042 C 
BRANCH  31  32
ATOM     32  C   UNL A   1      39.096  20.283  26.029  1.00  0.00     0.118 C 
BRANCH  32  33
ATOM     33  N   UNL A   1      40.090  19.224  26.008  1.00  0.00    -0.352 N 
ATOM     34  C   UNL A   1      41.457  19.336  26.030  1.00  0.00     0.251 C 
ATOM     35  H   UNL A   1      39.736  18.305  25.973  1.00  0.00     0.163 HD
ATOM     36  O   UNL A   1      42.166  18.375  25.754  1.00  0.00    -0.269 OA
BRANCH  34  37
ATOM     37  C   UNL A   1      42.060  20.639  26.374  1.00  0.00     0.039 A 
ATOM     38  C   UNL A   1      42.355  21.550  25.359  1.00  0.00     0.014 A 
ATOM     39  C   UNL A   1      42.301  20.964  27.712  1.00  0.00     0.014 A 
ATOM     40  C   UNL A   1      42.842  22.814  25.692  1.00  0.00     0.010 A 
ATOM     41  C   UNL A   1      42.681  22.254  28.046  1.00  0.00     0.010 A 
ATOM     42  C   UNL A   1      42.976  23.186  27.040  1.00  0.00    -0.014 A 
BRANCH  42  43
ATOM     43  C   UNL A   1      43.470  24.522  27.448  1.00  0.00     0.031 A 
ATOM     44  C   UNL A   1      42.489  25.528  27.983  1.00  0.00     0.074 A 
ATOM     45  C   UNL A   1      44.758  24.862  27.243  1.00  0.00     0.049 A 
ATOM     46  N   UNL A   1      42.655  26.802  28.222  1.00  0.00    -0.248 NA
ATOM     47  C   UNL A   1      41.123  25.042  28.248  1.00  0.00     0.031 C 
ATOM     48  C   UNL A   1      45.794  23.977  26.710  1.00  0.00     0.029 A 
ATOM     49  N   UNL A   1      45.408  26.056  27.432  1.00  0.00    -0.354 N 
ATOM     50  C   UNL A   1      41.414  27.270  28.635  1.00  0.00     0.074 A 
ATOM     51  C   UNL A   1      40.492  26.160  28.568  1.00  0.00     0.031 C 
ATOM     52  C   UNL A   1      46.949  24.656  26.617  1.00  0.00     0.029 A 
ATOM     53  C   UNL A   1      46.721  26.038  27.028  1.00  0.00     0.049 A 
ATOM     54  H   UNL A   1      44.974  26.850  27.821  1.00  0.00     0.167 HD
ATOM     55  C   UNL A   1      41.083  28.514  29.050  1.00  0.00     0.037 A 
ATOM     56  C   UNL A   1      47.626  27.035  26.963  1.00  0.00     0.037 A 
ATOM     57  C   UNL A   1      42.017  29.602  29.140  1.00  0.00     0.049 A 
ATOM     58  C   UNL A   1      47.219  28.420  27.401  1.00  0.00     0.074 A 
ATOM     59  C   UNL A   1      41.799  30.886  29.606  1.00  0.00     0.029 A 
ATOM     60  N   UNL A   1      43.346  29.536  28.748  1.00  0.00    -0.354 N 
ATOM     61  N   UNL A   1      46.058  28.840  27.845  1.00  0.00    -0.248 NA
ATOM     62  C   UNL A   1      48.245  29.471  27.331  1.00  0.00     0.031 C 
ATOM     63  C   UNL A   1      42.972  31.619  29.425  1.00  0.00     0.029 A 
ATOM     64  C   UNL A   1      43.949  30.767  28.934  1.00  0.00     0.049 A 
ATOM     65  H   UNL A   1      43.793  28.734  28.392  1.00  0.00     0.167 HD
ATOM     66  C   UNL A   1      46.230  30.183  28.154  1.00  0.00     0.074 A 
ATOM     67  C   UNL A   1      47.603  30.511  27.844  1.00  0.00     0.031 C 
ATOM     68  C   UNL A   1      45.332  31.064  28.656  1.00  0.00     0.037 A 
BRANCH  55  69
ATOM     69  C   UNL A   1      39.655  28.779  29.429  1.00  0.00     0.064 A 
ATOM     70  C   UNL A   1      39.185  28.574  30.735  1.00  0.00     0.173 A 
ATOM     71  C   UNL A   1      38.763  29.314  28.487  1.00  0.00     0.173 A 
ATOM     72  F   UNL A   1      39.992  28.054  31.670  1.00  0.00    -0.203 F 
ATOM     73  C   UNL A   1      37.870  28.879  31.077  1.00  0.00     0.198 A 
ATOM     74  C   UNL A   1      37.462  29.652  28.843  1.00  0.00     0.198 A 
ATOM     75  F   UNL A   1      39.162  29.532  27.225  1.00  0.00    -0.203 F 
ATOM     76  F   UNL A   1      37.431  28.638  32.321  1.00  0.00    -0.200 F 
ATOM     77  C   UNL A   1      37.015  29.431  30.136  1.00  0.00     0.200 A 
ATOM     78  F   UNL A   1      36.643  30.202  27.935  1.00  0.00    -0.200 F 
ATOM     79  F   UNL A   1      35.757  29.744  30.474  1.00  0.00    -0.200 F 
ENDBRANCH  55  69
BRANCH  56  80
ATOM     80  C   UNL A   1      49.000  26.775  26.451  1.00  0.00     0.064 A 
ATOM     81  C   UNL A   1      49.321  26.981  25.102  1.00  0.00     0.173 A 
ATOM     82  C   UNL A   1      50.009  26.274  27.288  1.00  0.00     0.173 A 
ATOM     83  F   UNL A   1      48.389  27.446  24.256  1.00  0.00    -0.203 F 
ATOM     84  C   UNL A   1      50.579  26.654  24.600  1.00  0.00     0.198 A 
ATOM     85  C   UNL A   1      51.280  25.985  26.794  1.00  0.00     0.198 A 
ATOM     86  F   UNL A   1      49.763  26.067  28.590  1.00  0.00    -0.203 F 
ATOM     87  F   UNL A   1      50.832  26.791  23.292  1.00  0.00    -0.200 F 
ATOM     88  C   UNL A   1      51.559  26.159  25.447  1.00  0.00     0.200 A 
ATOM     89  F   UNL A   1      52.229  25.527  27.621  1.00  0.00    -0.200 F 
ATOM     90  F   UNL A   1      52.767  25.838  24.964  1.00  0.00    -0.200 F 
ENDBRANCH  56  80
BRANCH  68  91
ATOM     91  C   UNL A   1      45.808  32.447  28.993  1.00  0.00     0.064 A 
ATOM     92  C   UNL A   1      45.699  33.514  28.092  1.00  0.00     0.173 A 
ATOM     93  C   UNL A   1      46.285  32.722  30.286  1.00  0.00     0.173 A 
ATOM     94  F   UNL A   1      45.262  33.301  26.841  1.00  0.00    -0.203 F 
ATOM     95  C   UNL A   1      46.056  34.805  28.470  1.00  0.00     0.198 A 
ATOM     96  C   UNL A   1      46.605  34.019  30.670  1.00  0.00     0.198 A 
ATOM     97  F   UNL A   1      46.400  31.736  31.188  1.00  0.00    -0.203 F 
ATOM     98  F   UNL A   1      45.972  35.807  27.584  1.00  0.00    -0.200 F 
ATOM     99  C   UNL A   1      46.493  35.059  29.762  1.00  0.00     0.200 A 
ATOM    100  F   UNL A   1      47.004  34.264  31.926  1.00  0.00    -0.200 F 
ATOM    101  F   UNL A   1      46.806  36.308  30.132  1.00  0.00    -0.200 F 
ENDBRANCH  68  91
ENDBRANCH  42  43
ENDBRANCH  34  37
ENDBRANCH  32  33
ENDBRANCH  31  32
ENDBRANCH   1  31
TORSDOF 14
ENDMDL
