MODEL 1
REMARK VINA RESULT:      -8.3      0.000      0.000
REMARK SMILES CC/C=C/C/C=C/C/C=C/C/C=C/CCSCCCC(=O)NCCCNC(=O)c1ccc(-c2c3nc(c(-c4c(F)c(F)c(F)c(F)c4F)c4ccc([nH]4)c(-c4c(F)c(F)c(F)c(F)c4F)c4nc(c(-c5c(F)c(F)c(F)c(F)c5F)c5ccc2[nH]5)C=C4)C=C3)cc1
REMARK SMILES IDX 17 1 16 2 15 3 14 4 13 5 12 6 11 7 10 8 9 9 8 10 7 11 6 12
REMARK SMILES IDX 5 13 4 14 3 15 2 16 1 17 18 18 19 19 20 20 21 21 22 22 23 24
REMARK SMILES IDX 24 25 25 26 26 27 27 28 28 30 29 31 30 32 91 33 31 34 90 35
REMARK SMILES IDX 32 36 33 37 34 38 84 39 35 40 89 41 83 42 85 43 36 44 88 45
REMARK SMILES IDX 82 46 81 47 37 49 69 50 49 51 68 52 50 53 53 54 67 55 86 56
REMARK SMILES IDX 51 57 52 58 66 60 87 61 54 62 38 63 39 64 47 65 40 66 41 67
REMARK SMILES IDX 45 68 48 69 42 70 43 71 46 72 44 73 70 74 71 75 79 76 72 77
REMARK SMILES IDX 73 78 77 79 80 80 74 81 75 82 78 83 76 84 55 85 56 86 64 87
REMARK SMILES IDX 57 88 58 89 62 90 65 91 59 92 60 93 63 94 61 95
REMARK H PARENT 22 23 26 29 85 48 53 59
REMARK Flexibility Score: inf
ROOT
ATOM      1  C   UNL A   1      44.977  21.603  25.398  1.00  0.00     0.070 C 
ENDROOT
BRANCH   1   2
ATOM      2  S   UNL A   1      44.694  23.016  24.232  1.00  0.00    -0.162 SA
BRANCH   2   3
ATOM      3  C   UNL A   1      43.470  24.222  24.915  1.00  0.00     0.073 C 
BRANCH   3   4
ATOM      4  C   UNL A   1      43.724  24.847  26.320  1.00  0.00     0.038 C 
BRANCH   4   5
ATOM      5  C   UNL A   1      43.332  23.993  27.502  1.00  0.00    -0.030 C 
ATOM      6  C   UNL A   1      44.131  23.518  28.475  1.00  0.00    -0.027 C 
BRANCH   6   7
ATOM      7  C   UNL A   1      43.611  23.002  29.806  1.00  0.00     0.054 C 
BRANCH   7   8
ATOM      8  C   UNL A   1      44.382  23.426  31.024  1.00  0.00    -0.027 C 
ATOM      9  C   UNL A   1      43.849  24.180  32.002  1.00  0.00    -0.027 C 
BRANCH   9  10
ATOM     10  C   UNL A   1      44.610  24.675  33.201  1.00  0.00     0.054 C 
BRANCH  10  11
ATOM     11  C   UNL A   1      43.811  25.766  33.849  1.00  0.00    -0.027 C 
ATOM     12  C   UNL A   1      43.628  25.896  35.171  1.00  0.00    -0.027 C 
BRANCH  12  13
ATOM     13  C   UNL A   1      42.643  26.855  35.775  1.00  0.00     0.054 C 
BRANCH  13  14
ATOM     14  C   UNL A   1      41.821  27.473  34.680  1.00  0.00    -0.027 C 
ATOM     15  C   UNL A   1      41.818  28.781  34.384  1.00  0.00    -0.031 C 
BRANCH  15  16
ATOM     16  C   UNL A   1      40.911  29.399  33.362  1.00  0.00     0.023 C 
ATOM     17  C   UNL A   1      39.644  28.571  33.202  1.00  0.00     0.008 C 
ENDBRANCH  15  16
ENDBRANCH  13  14
ENDBRANCH  12  13
ENDBRANCH  10  11
ENDBRANCH   9  10
ENDBRANCH   7   8
ENDBRANCH   6   7
ENDBRANCH   4   5
ENDBRANCH   3   4
ENDBRANCH   2   3
ENDBRANCH   1   2
BRANCH   1  18
ATOM     18  C   UNL A   1      45.170  20.128  25.053  1.00  0.00     0.021 C 
BRANCH  18  19
ATOM     19  C   UNL A   1      43.969  19.248  24.780  1.00  0.00     0.101 C 
BRANCH  19  20
ATOM     20  C   UNL A   1      43.314  18.511  25.938  1.00  0.00     0.220 C 
ATOM     21  O   UNL A   1      43.987  17.740  26.631  1.00  0.00    -0.275 OA
ATOM     22  N   UNL A   1      42.025  18.695  26.321  1.00  0.00    -0.356 N 
ATOM     23  H   UNL A   1      41.697  18.027  26.966  1.00  0.00     0.163 HD
BRANCH  22  24
ATOM     24  C   UNL A   1      41.047  19.694  25.953  1.00  0.00     0.117 C 
BRANCH  24  25
ATOM     25  C   UNL A   1      41.437  21.096  26.381  1.00  0.00     0.042 C 
BRANCH  25  26
ATOM     26  C   UNL A   1      40.293  21.767  27.122  1.00  0.00     0.118 C 
BRANCH  26  27
ATOM     27  N   UNL A   1      39.274  22.310  26.227  1.00  0.00    -0.352 N 
ATOM     28  C   UNL A   1      38.800  23.604  26.137  1.00  0.00     0.251 C 
ATOM     29  H   UNL A   1      38.871  21.666  25.601  1.00  0.00     0.163 HD
ATOM     30  O   UNL A   1      37.852  23.874  25.424  1.00  0.00    -0.269 OA
BRANCH  28  31
ATOM     31  C   UNL A   1      39.438  24.653  26.966  1.00  0.00     0.039 A 
ATOM     32  C   UNL A   1      40.164  25.665  26.338  1.00  0.00     0.014 A 
ATOM     33  C   UNL A   1      39.243  24.677  28.348  1.00  0.00     0.014 A 
ATOM     34  C   UNL A   1      40.612  26.752  27.091  1.00  0.00     0.010 A 
ATOM     35  C   UNL A   1      39.571  25.818  29.065  1.00  0.00     0.010 A 
ATOM     36  C   UNL A   1      40.268  26.867  28.449  1.00  0.00    -0.014 A 
BRANCH  36  37
ATOM     37  C   UNL A   1      40.628  28.074  29.234  1.00  0.00     0.031 A 
ATOM     38  C   UNL A   1      42.007  28.215  29.819  1.00  0.00     0.074 A 
ATOM     39  C   UNL A   1      39.695  29.020  29.463  1.00  0.00     0.049 A 
ATOM     40  N   UNL A   1      42.507  29.190  30.538  1.00  0.00    -0.248 NA
ATOM     41  C   UNL A   1      42.941  27.096  29.606  1.00  0.00     0.031 C 
ATOM     42  C   UNL A   1      38.298  28.955  29.027  1.00  0.00     0.029 A 
ATOM     43  N   UNL A   1      39.780  30.223  30.117  1.00  0.00    -0.354 N 
ATOM     44  C   UNL A   1      43.799  28.796  30.862  1.00  0.00     0.074 A 
ATOM     45  C   UNL A   1      43.979  27.461  30.340  1.00  0.00     0.031 C 
ATOM     46  C   UNL A   1      37.672  30.089  29.380  1.00  0.00     0.029 A 
ATOM     47  C   UNL A   1      38.610  30.944  30.098  1.00  0.00     0.049 A 
ATOM     48  H   UNL A   1      40.600  30.541  30.558  1.00  0.00     0.167 HD
ATOM     49  C   UNL A   1      44.763  29.499  31.500  1.00  0.00     0.037 A 
ATOM     50  C   UNL A   1      38.330  32.163  30.598  1.00  0.00     0.037 A 
ATOM     51  C   UNL A   1      44.584  30.838  31.995  1.00  0.00     0.049 A 
ATOM     52  C   UNL A   1      39.425  32.934  31.284  1.00  0.00     0.074 A 
ATOM     53  C   UNL A   1      45.510  31.665  32.605  1.00  0.00     0.029 A 
ATOM     54  N   UNL A   1      43.392  31.547  31.937  1.00  0.00    -0.354 N 
ATOM     55  N   UNL A   1      40.669  32.587  31.506  1.00  0.00    -0.248 NA
ATOM     56  C   UNL A   1      39.079  34.273  31.777  1.00  0.00     0.031 C 
ATOM     57  C   UNL A   1      44.866  32.855  32.961  1.00  0.00     0.029 A 
ATOM     58  C   UNL A   1      43.554  32.793  32.520  1.00  0.00     0.049 A 
ATOM     59  H   UNL A   1      42.556  31.212  31.539  1.00  0.00     0.167 HD
ATOM     60  C   UNL A   1      41.260  33.667  32.145  1.00  0.00     0.074 A 
ATOM     61  C   UNL A   1      40.244  34.695  32.245  1.00  0.00     0.031 C 
ATOM     62  C   UNL A   1      42.526  33.798  32.616  1.00  0.00     0.037 A 
BRANCH  49  63
ATOM     63  C   UNL A   1      46.100  28.838  31.679  1.00  0.00     0.064 A 
ATOM     64  C   UNL A   1      47.048  28.803  30.643  1.00  0.00     0.173 A 
ATOM     65  C   UNL A   1      46.450  28.250  32.903  1.00  0.00     0.173 A 
ATOM     66  F   UNL A   1      46.760  29.335  29.446  1.00  0.00    -0.203 F 
ATOM     67  C   UNL A   1      48.280  28.175  30.815  1.00  0.00     0.198 A 
ATOM     68  C   UNL A   1      47.696  27.654  33.083  1.00  0.00     0.198 A 
ATOM     69  F   UNL A   1      45.585  28.255  33.928  1.00  0.00    -0.203 F 
ATOM     70  F   UNL A   1      49.142  28.104  29.793  1.00  0.00    -0.200 F 
ATOM     71  C   UNL A   1      48.606  27.609  32.037  1.00  0.00     0.200 A 
ATOM     72  F   UNL A   1      48.016  27.119  34.270  1.00  0.00    -0.200 F 
ATOM     73  F   UNL A   1      49.794  27.012  32.205  1.00  0.00    -0.200 F 
ENDBRANCH  49  63
BRANCH  50  74
ATOM     74  C   UNL A   1      36.969  32.742  30.435  1.00  0.00     0.064 A 
ATOM     75  C   UNL A   1      36.608  33.424  29.264  1.00  0.00     0.173 A 
ATOM     76  C   UNL A   1      36.002  32.632  31.446  1.00  0.00     0.173 A 
ATOM     77  F   UNL A   1      37.502  33.573  28.274  1.00  0.00    -0.203 F 
ATOM     78  C   UNL A   1      35.345  33.995  29.121  1.00  0.00     0.198 A 
ATOM     79  C   UNL A   1      34.729  33.174  31.288  1.00  0.00     0.198 A 
ATOM     80  F   UNL A   1      36.290  31.982  32.584  1.00  0.00    -0.203 F 
ATOM     81  F   UNL A   1      35.046  34.686  28.012  1.00  0.00    -0.200 F 
ATOM     82  C   UNL A   1      34.404  33.864  30.130  1.00  0.00     0.200 A 
ATOM     83  F   UNL A   1      33.816  33.030  32.260  1.00  0.00    -0.200 F 
ATOM     84  F   UNL A   1      33.188  34.409  29.991  1.00  0.00    -0.200 F 
ENDBRANCH  50  74
BRANCH  62  85
ATOM     85  C   UNL A   1      42.879  35.107  33.263  1.00  0.00     0.064 A 
ATOM     86  C   UNL A   1      42.742  35.303  34.646  1.00  0.00     0.173 A 
ATOM     87  C   UNL A   1      43.371  36.172  32.493  1.00  0.00     0.173 A 
ATOM     88  F   UNL A   1      42.264  34.321  35.424  1.00  0.00    -0.203 F 
ATOM     89  C   UNL A   1      43.043  36.532  35.227  1.00  0.00     0.198 A 
ATOM     90  C   UNL A   1      43.706  37.387  33.084  1.00  0.00     0.198 A 
ATOM     91  F   UNL A   1      43.530  36.033  31.169  1.00  0.00    -0.203 F 
ATOM     92  F   UNL A   1      42.840  36.718  36.538  1.00  0.00    -0.200 F 
ATOM     93  C   UNL A   1      43.529  37.570  34.446  1.00  0.00     0.200 A 
ATOM     94  F   UNL A   1      44.192  38.384  32.331  1.00  0.00    -0.200 F 
ATOM     95  F   UNL A   1      43.817  38.753  35.007  1.00  0.00    -0.200 F 
ENDBRANCH  62  85
ENDBRANCH  36  37
ENDBRANCH  28  31
ENDBRANCH  26  27
ENDBRANCH  25  26
ENDBRANCH  24  25
ENDBRANCH  22  24
ENDBRANCH  19  20
ENDBRANCH  18  19
ENDBRANCH   1  18
TORSDOF 23
ENDMDL
MODEL 2
REMARK VINA RESULT:      -8.0      0.893      7.390
REMARK SMILES CC/C=C/C/C=C/C/C=C/C/C=C/CCSCCCC(=O)NCCCNC(=O)c1ccc(-c2c3nc(c(-c4c(F)c(F)c(F)c(F)c4F)c4ccc([nH]4)c(-c4c(F)c(F)c(F)c(F)c4F)c4nc(c(-c5c(F)c(F)c(F)c(F)c5F)c5ccc2[nH]5)C=C4)C=C3)cc1
REMARK SMILES IDX 17 1 16 2 15 3 14 4 13 5 12 6 11 7 10 8 9 9 8 10 7 11 6 12
REMARK SMILES IDX 5 13 4 14 3 15 2 16 1 17 18 18 19 19 20 20 21 21 22 22 23 24
REMARK SMILES IDX 24 25 25 26 26 27 27 28 28 30 29 31 30 32 91 33 31 34 90 35
REMARK SMILES IDX 32 36 33 37 34 38 84 39 35 40 89 41 83 42 85 43 36 44 88 45
REMARK SMILES IDX 82 46 81 47 37 49 69 50 49 51 68 52 50 53 53 54 67 55 86 56
REMARK SMILES IDX 51 57 52 58 66 60 87 61 54 62 38 63 39 64 47 65 40 66 41 67
REMARK SMILES IDX 45 68 48 69 42 70 43 71 46 72 44 73 70 74 71 75 79 76 72 77
REMARK SMILES IDX 73 78 77 79 80 80 74 81 75 82 78 83 76 84 55 85 56 86 64 87
REMARK SMILES IDX 57 88 58 89 62 90 65 91 59 92 60 93 63 94 61 95
REMARK H PARENT 22 23 26 29 85 48 53 59
REMARK Flexibility Score: inf
ROOT
ATOM      1  C   UNL A   1      45.091  21.247  25.315  1.00  0.00     0.070 C 
ENDROOT
BRANCH   1   2
ATOM      2  S   UNL A   1      44.457  22.595  24.213  1.00  0.00    -0.162 SA
BRANCH   2   3
ATOM      3  C   UNL A   1      43.398  23.790  25.146  1.00  0.00     0.073 C 
BRANCH   3   4
ATOM      4  C   UNL A   1      43.950  24.429  26.455  1.00  0.00     0.038 C 
BRANCH   4   5
ATOM      5  C   UNL A   1      43.789  23.606  27.710  1.00  0.00    -0.030 C 
ATOM      6  C   UNL A   1      44.362  23.814  28.910  1.00  0.00    -0.027 C 
BRANCH   6   7
ATOM      7  C   UNL A   1      43.861  23.180  30.197  1.00  0.00     0.054 C 
BRANCH   7   8
ATOM      8  C   UNL A   1      44.207  23.905  31.467  1.00  0.00    -0.027 C 
ATOM      9  C   UNL A   1      44.157  23.324  32.679  1.00  0.00    -0.027 C 
BRANCH   9  10
ATOM     10  C   UNL A   1      44.432  24.037  33.973  1.00  0.00     0.054 C 
BRANCH  10  11
ATOM     11  C   UNL A   1      43.151  24.645  34.459  1.00  0.00    -0.027 C 
ATOM     12  C   UNL A   1      43.015  25.328  35.604  1.00  0.00    -0.027 C 
BRANCH  12  13
ATOM     13  C   UNL A   1      41.684  25.725  36.174  1.00  0.00     0.054 C 
BRANCH  13  14
ATOM     14  C   UNL A   1      41.560  27.223  36.141  1.00  0.00    -0.027 C 
ATOM     15  C   UNL A   1      42.559  28.055  35.812  1.00  0.00    -0.031 C 
BRANCH  15  16
ATOM     16  C   UNL A   1      42.454  29.550  35.889  1.00  0.00     0.023 C 
ATOM     17  C   UNL A   1      41.078  30.012  35.431  1.00  0.00     0.008 C 
ENDBRANCH  15  16
ENDBRANCH  13  14
ENDBRANCH  12  13
ENDBRANCH  10  11
ENDBRANCH   9  10
ENDBRANCH   7   8
ENDBRANCH   6   7
ENDBRANCH   4   5
ENDBRANCH   3   4
ENDBRANCH   2   3
ENDBRANCH   1   2
BRANCH   1  18
ATOM     18  C   UNL A   1      45.139  19.747  25.029  1.00  0.00     0.021 C 
BRANCH  18  19
ATOM     19  C   UNL A   1      43.856  18.969  24.832  1.00  0.00     0.101 C 
BRANCH  19  20
ATOM     20  C   UNL A   1      43.123  18.431  26.052  1.00  0.00     0.220 C 
ATOM     21  O   UNL A   1      43.720  17.701  26.850  1.00  0.00    -0.275 OA
ATOM     22  N   UNL A   1      41.846  18.759  26.374  1.00  0.00    -0.356 N 
ATOM     23  H   UNL A   1      41.453  18.202  27.085  1.00  0.00     0.163 HD
BRANCH  22  24
ATOM     24  C   UNL A   1      40.957  19.779  25.862  1.00  0.00     0.117 C 
BRANCH  24  25
ATOM     25  C   UNL A   1      41.331  21.176  26.315  1.00  0.00     0.042 C 
BRANCH  25  26
ATOM     26  C   UNL A   1      40.183  21.815  27.079  1.00  0.00     0.118 C 
BRANCH  26  27
ATOM     27  N   UNL A   1      39.193  22.438  26.205  1.00  0.00    -0.352 N 
ATOM     28  C   UNL A   1      38.751  23.747  26.190  1.00  0.00     0.251 C 
ATOM     29  H   UNL A   1      38.783  21.844  25.535  1.00  0.00     0.163 HD
ATOM     30  O   UNL A   1      37.822  24.085  25.482  1.00  0.00    -0.269 OA
BRANCH  28  31
ATOM     31  C   UNL A   1      39.402  24.726  27.091  1.00  0.00     0.039 A 
ATOM     32  C   UNL A   1      40.303  25.647  26.555  1.00  0.00     0.014 A 
ATOM     33  C   UNL A   1      39.054  24.783  28.441  1.00  0.00     0.014 A 
ATOM     34  C   UNL A   1      40.779  26.684  27.359  1.00  0.00     0.010 A 
ATOM     35  C   UNL A   1      39.421  25.888  29.197  1.00  0.00     0.010 A 
ATOM     36  C   UNL A   1      40.296  26.847  28.669  1.00  0.00    -0.014 A 
BRANCH  36  37
ATOM     37  C   UNL A   1      40.695  28.014  29.495  1.00  0.00     0.031 A 
ATOM     38  C   UNL A   1      39.739  29.158  29.704  1.00  0.00     0.074 A 
ATOM     39  C   UNL A   1      41.938  28.068  30.014  1.00  0.00     0.049 A 
ATOM     40  N   UNL A   1      39.907  30.264  30.385  1.00  0.00    -0.248 NA
ATOM     41  C   UNL A   1      38.435  29.071  29.026  1.00  0.00     0.031 C 
ATOM     42  C   UNL A   1      42.986  27.065  29.806  1.00  0.00     0.029 A 
ATOM     43  N   UNL A   1      42.532  29.001  30.826  1.00  0.00    -0.354 N 
ATOM     44  C   UNL A   1      38.740  30.996  30.210  1.00  0.00     0.074 A 
ATOM     45  C   UNL A   1      37.908  30.255  29.291  1.00  0.00     0.031 C 
ATOM     46  C   UNL A   1      44.074  27.410  30.512  1.00  0.00     0.029 A 
ATOM     47  C   UNL A   1      43.816  28.674  31.193  1.00  0.00     0.049 A 
ATOM     48  H   UNL A   1      42.082  29.825  31.118  1.00  0.00     0.167 HD
ATOM     49  C   UNL A   1      38.375  32.161  30.795  1.00  0.00     0.037 A 
ATOM     50  C   UNL A   1      44.683  29.321  31.995  1.00  0.00     0.037 A 
ATOM     51  C   UNL A   1      39.199  32.882  31.729  1.00  0.00     0.049 A 
ATOM     52  C   UNL A   1      44.246  30.603  32.651  1.00  0.00     0.074 A 
ATOM     53  C   UNL A   1      38.905  34.040  32.425  1.00  0.00     0.029 A 
ATOM     54  N   UNL A   1      40.484  32.509  32.096  1.00  0.00    -0.354 N 
ATOM     55  N   UNL A   1      43.105  31.240  32.547  1.00  0.00    -0.248 NA
ATOM     56  C   UNL A   1      45.214  31.248  33.547  1.00  0.00     0.031 C 
ATOM     57  C   UNL A   1      40.032  34.396  33.176  1.00  0.00     0.029 A 
ATOM     58  C   UNL A   1      41.006  33.427  32.993  1.00  0.00     0.049 A 
ATOM     59  H   UNL A   1      40.955  31.709  31.768  1.00  0.00     0.167 HD
ATOM     60  C   UNL A   1      43.209  32.348  33.376  1.00  0.00     0.074 A 
ATOM     61  C   UNL A   1      44.514  32.277  34.001  1.00  0.00     0.031 C 
ATOM     62  C   UNL A   1      42.311  33.341  33.596  1.00  0.00     0.037 A 
BRANCH  49  63
ATOM     63  C   UNL A   1      37.020  32.714  30.454  1.00  0.00     0.064 A 
ATOM     64  C   UNL A   1      36.785  33.389  29.245  1.00  0.00     0.173 A 
ATOM     65  C   UNL A   1      35.939  32.553  31.332  1.00  0.00     0.173 A 
ATOM     66  F   UNL A   1      37.788  33.587  28.375  1.00  0.00    -0.203 F 
ATOM     67  C   UNL A   1      35.528  33.910  28.944  1.00  0.00     0.198 A 
ATOM     68  C   UNL A   1      34.675  33.044  31.012  1.00  0.00     0.198 A 
ATOM     69  F   UNL A   1      36.105  31.915  32.500  1.00  0.00    -0.203 F 
ATOM     70  F   UNL A   1      35.345  34.601  27.811  1.00  0.00    -0.200 F 
ATOM     71  C   UNL A   1      34.473  33.729  29.824  1.00  0.00     0.200 A 
ATOM     72  F   UNL A   1      33.652  32.856  31.858  1.00  0.00    -0.200 F 
ATOM     73  F   UNL A   1      33.262  34.224  29.531  1.00  0.00    -0.200 F 
ENDBRANCH  49  63
BRANCH  50  74
ATOM     74  C   UNL A   1      46.032  28.748  32.251  1.00  0.00     0.064 A 
ATOM     75  C   UNL A   1      46.270  27.927  33.363  1.00  0.00     0.173 A 
ATOM     76  C   UNL A   1      47.112  29.012  31.396  1.00  0.00     0.173 A 
ATOM     77  F   UNL A   1      45.275  27.659  34.223  1.00  0.00    -0.203 F 
ATOM     78  C   UNL A   1      47.540  27.415  33.624  1.00  0.00     0.198 A 
ATOM     79  C   UNL A   1      48.373  28.472  31.639  1.00  0.00     0.198 A 
ATOM     80  F   UNL A   1      46.939  29.784  30.312  1.00  0.00    -0.203 F 
ATOM     81  F   UNL A   1      47.750  26.677  34.723  1.00  0.00    -0.200 F 
ATOM     82  C   UNL A   1      48.589  27.683  32.758  1.00  0.00     0.200 A 
ATOM     83  F   UNL A   1      49.381  28.719  30.789  1.00  0.00    -0.200 F 
ATOM     84  F   UNL A   1      49.809  27.186  33.006  1.00  0.00    -0.200 F 
ENDBRANCH  50  74
BRANCH  62  85
ATOM     85  C   UNL A   1      42.711  34.415  34.567  1.00  0.00     0.064 A 
ATOM     86  C   UNL A   1      43.330  35.600  34.138  1.00  0.00     0.173 A 
ATOM     87  C   UNL A   1      42.460  34.264  35.939  1.00  0.00     0.173 A 
ATOM     88  F   UNL A   1      43.602  35.788  32.838  1.00  0.00    -0.203 F 
ATOM     89  C   UNL A   1      43.723  36.573  35.053  1.00  0.00     0.198 A 
ATOM     90  C   UNL A   1      42.822  35.257  36.846  1.00  0.00     0.198 A 
ATOM     91  F   UNL A   1      41.862  33.156  36.400  1.00  0.00    -0.203 F 
ATOM     92  F   UNL A   1      44.373  37.665  34.628  1.00  0.00    -0.200 F 
ATOM     93  C   UNL A   1      43.464  36.402  36.405  1.00  0.00     0.200 A 
ATOM     94  F   UNL A   1      42.555  35.098  38.150  1.00  0.00    -0.200 F 
ATOM     95  F   UNL A   1      43.844  37.340  37.283  1.00  0.00    -0.200 F 
ENDBRANCH  62  85
ENDBRANCH  36  37
ENDBRANCH  28  31
ENDBRANCH  26  27
ENDBRANCH  25  26
ENDBRANCH  24  25
ENDBRANCH  22  24
ENDBRANCH  19  20
ENDBRANCH  18  19
ENDBRANCH   1  18
TORSDOF 23
ENDMDL
MODEL 3
REMARK VINA RESULT:      -7.7      2.318      4.507
REMARK SMILES CC/C=C/C/C=C/C/C=C/C/C=C/CCSCCCC(=O)NCCCNC(=O)c1ccc(-c2c3nc(c(-c4c(F)c(F)c(F)c(F)c4F)c4ccc([nH]4)c(-c4c(F)c(F)c(F)c(F)c4F)c4nc(c(-c5c(F)c(F)c(F)c(F)c5F)c5ccc2[nH]5)C=C4)C=C3)cc1
REMARK SMILES IDX 17 1 16 2 15 3 14 4 13 5 12 6 11 7 10 8 9 9 8 10 7 11 6 12
REMARK SMILES IDX 5 13 4 14 3 15 2 16 1 17 18 18 19 19 20 20 21 21 22 22 23 24
REMARK SMILES IDX 24 25 25 26 26 27 27 28 28 30 29 31 30 32 91 33 31 34 90 35
REMARK SMILES IDX 32 36 33 37 34 38 84 39 35 40 89 41 83 42 85 43 36 44 88 45
REMARK SMILES IDX 82 46 81 47 37 49 69 50 49 51 68 52 50 53 53 54 67 55 86 56
REMARK SMILES IDX 51 57 52 58 66 60 87 61 54 62 38 63 39 64 47 65 40 66 41 67
REMARK SMILES IDX 45 68 48 69 42 70 43 71 46 72 44 73 70 74 71 75 79 76 72 77
REMARK SMILES IDX 73 78 77 79 80 80 74 81 75 82 78 83 76 84 55 85 56 86 64 87
REMARK SMILES IDX 57 88 58 89 62 90 65 91 59 92 60 93 63 94 61 95
REMARK H PARENT 22 23 26 29 85 48 53 59
REMARK Flexibility Score: inf
ROOT
ATOM      1  C   UNL A   1      46.061  22.995  25.813  1.00  0.00     0.070 C 
ENDROOT
BRANCH   1   2
ATOM      2  S   UNL A   1      45.786  24.674  26.548  1.00  0.00    -0.162 SA
BRANCH   2   3
ATOM      3  C   UNL A   1      44.526  25.632  25.591  1.00  0.00     0.073 C 
BRANCH   3   4
ATOM      4  C   UNL A   1      44.772  27.146  25.318  1.00  0.00     0.038 C 
BRANCH   4   5
ATOM      5  C   UNL A   1      43.968  28.108  26.160  1.00  0.00    -0.030 C 
ATOM      6  C   UNL A   1      44.405  29.214  26.788  1.00  0.00    -0.027 C 
BRANCH   6   7
ATOM      7  C   UNL A   1      43.481  30.314  27.285  1.00  0.00     0.054 C 
BRANCH   7   8
ATOM      8  C   UNL A   1      44.007  31.717  27.175  1.00  0.00    -0.027 C 
ATOM      9  C   UNL A   1      43.955  32.430  26.036  1.00  0.00    -0.027 C 
BRANCH   9  10
ATOM     10  C   UNL A   1      44.530  33.810  25.873  1.00  0.00     0.054 C 
BRANCH  10  11
ATOM     11  C   UNL A   1      43.757  34.750  26.749  1.00  0.00    -0.027 C 
ATOM     12  C   UNL A   1      42.919  35.697  26.302  1.00  0.00    -0.027 C 
BRANCH  12  13
ATOM     13  C   UNL A   1      42.339  36.765  27.183  1.00  0.00     0.054 C 
BRANCH  13  14
ATOM     14  C   UNL A   1      42.942  38.091  26.812  1.00  0.00    -0.027 C 
ATOM     15  C   UNL A   1      44.066  38.586  27.350  1.00  0.00    -0.031 C 
BRANCH  15  16
ATOM     16  C   UNL A   1      44.596  39.957  27.050  1.00  0.00     0.023 C 
ATOM     17  C   UNL A   1      45.596  39.904  25.904  1.00  0.00     0.008 C 
ENDBRANCH  15  16
ENDBRANCH  13  14
ENDBRANCH  12  13
ENDBRANCH  10  11
ENDBRANCH   9  10
ENDBRANCH   7   8
ENDBRANCH   6   7
ENDBRANCH   4   5
ENDBRANCH   3   4
ENDBRANCH   2   3
ENDBRANCH   1   2
BRANCH   1  18
ATOM     18  C   UNL A   1      45.834  22.555  24.368  1.00  0.00     0.021 C 
BRANCH  18  19
ATOM     19  C   UNL A   1      44.961  21.356  24.067  1.00  0.00     0.101 C 
BRANCH  19  20
ATOM     20  C   UNL A   1      44.905  20.213  25.069  1.00  0.00     0.220 C 
ATOM     21  O   UNL A   1      45.924  19.552  25.300  1.00  0.00    -0.275 OA
ATOM     22  N   UNL A   1      43.806  19.900  25.801  1.00  0.00    -0.356 N 
ATOM     23  H   UNL A   1      43.866  19.036  26.271  1.00  0.00     0.163 HD
BRANCH  22  24
ATOM     24  C   UNL A   1      42.562  20.605  26.015  1.00  0.00     0.117 C 
BRANCH  24  25
ATOM     25  C   UNL A   1      42.674  21.710  27.047  1.00  0.00     0.042 C 
BRANCH  25  26
ATOM     26  C   UNL A   1      41.321  21.991  27.679  1.00  0.00     0.118 C 
BRANCH  26  27
ATOM     27  N   UNL A   1      40.222  21.944  26.717  1.00  0.00    -0.352 N 
ATOM     28  C   UNL A   1      39.308  22.929  26.396  1.00  0.00     0.251 C 
ATOM     29  H   UNL A   1      40.118  21.094  26.232  1.00  0.00     0.163 HD
ATOM     30  O   UNL A   1      38.366  22.693  25.663  1.00  0.00    -0.269 OA
BRANCH  28  31
ATOM     31  C   UNL A   1      39.471  24.272  27.000  1.00  0.00     0.039 A 
ATOM     32  C   UNL A   1      38.973  24.503  28.283  1.00  0.00     0.014 A 
ATOM     33  C   UNL A   1      40.187  25.265  26.332  1.00  0.00     0.014 A 
ATOM     34  C   UNL A   1      39.282  25.701  28.930  1.00  0.00     0.010 A 
ATOM     35  C   UNL A   1      40.602  26.393  27.024  1.00  0.00     0.010 A 
ATOM     36  C   UNL A   1      40.147  26.630  28.329  1.00  0.00    -0.014 A 
BRANCH  36  37
ATOM     37  C   UNL A   1      40.586  27.851  29.052  1.00  0.00     0.031 A 
ATOM     38  C   UNL A   1      42.002  27.973  29.545  1.00  0.00     0.074 A 
ATOM     39  C   UNL A   1      39.693  28.827  29.309  1.00  0.00     0.049 A 
ATOM     40  N   UNL A   1      42.570  28.955  30.200  1.00  0.00    -0.248 NA
ATOM     41  C   UNL A   1      42.893  26.824  29.309  1.00  0.00     0.031 C 
ATOM     42  C   UNL A   1      38.269  28.786  28.963  1.00  0.00     0.029 A 
ATOM     43  N   UNL A   1      39.848  30.047  29.918  1.00  0.00    -0.354 N 
ATOM     44  C   UNL A   1      43.870  28.538  30.455  1.00  0.00     0.074 A 
ATOM     45  C   UNL A   1      43.984  27.183  29.965  1.00  0.00     0.031 C 
ATOM     46  C   UNL A   1      37.695  29.946  29.319  1.00  0.00     0.029 A 
ATOM     47  C   UNL A   1      38.697  30.798  29.949  1.00  0.00     0.049 A 
ATOM     48  H   UNL A   1      40.702  30.356  30.296  1.00  0.00     0.167 HD
ATOM     49  C   UNL A   1      44.889  29.234  31.009  1.00  0.00     0.037 A 
ATOM     50  C   UNL A   1      38.479  32.038  30.427  1.00  0.00     0.037 A 
ATOM     51  C   UNL A   1      44.775  30.592  31.472  1.00  0.00     0.049 A 
ATOM     52  C   UNL A   1      39.634  32.800  31.019  1.00  0.00     0.074 A 
ATOM     53  C   UNL A   1      45.758  31.412  31.997  1.00  0.00     0.029 A 
ATOM     54  N   UNL A   1      43.599  31.330  31.466  1.00  0.00    -0.354 N 
ATOM     55  N   UNL A   1      40.880  32.427  31.173  1.00  0.00    -0.248 NA
ATOM     56  C   UNL A   1      39.352  34.162  31.489  1.00  0.00     0.031 C 
ATOM     57  C   UNL A   1      45.167  32.629  32.354  1.00  0.00     0.029 A 
ATOM     58  C   UNL A   1      43.828  32.588  31.998  1.00  0.00     0.049 A 
ATOM     59  H   UNL A   1      42.732  31.005  31.132  1.00  0.00     0.167 HD
ATOM     60  C   UNL A   1      41.537  33.510  31.740  1.00  0.00     0.074 A 
ATOM     61  C   UNL A   1      40.554  34.567  31.870  1.00  0.00     0.031 C 
ATOM     62  C   UNL A   1      42.833  33.622  32.127  1.00  0.00     0.037 A 
BRANCH  49  63
ATOM     63  C   UNL A   1      46.219  28.543  31.125  1.00  0.00     0.064 A 
ATOM     64  C   UNL A   1      47.173  28.606  30.096  1.00  0.00     0.173 A 
ATOM     65  C   UNL A   1      46.555  27.828  32.283  1.00  0.00     0.173 A 
ATOM     66  F   UNL A   1      46.897  29.263  28.959  1.00  0.00    -0.203 F 
ATOM     67  C   UNL A   1      48.397  27.951  30.208  1.00  0.00     0.198 A 
ATOM     68  C   UNL A   1      47.794  27.203  32.407  1.00  0.00     0.198 A 
ATOM     69  F   UNL A   1      45.684  27.735  33.299  1.00  0.00    -0.203 F 
ATOM     70  F   UNL A   1      49.265  27.977  29.188  1.00  0.00    -0.200 F 
ATOM     71  C   UNL A   1      48.709  27.258  31.366  1.00  0.00     0.200 A 
ATOM     72  F   UNL A   1      48.101  26.544  33.533  1.00  0.00    -0.200 F 
ATOM     73  F   UNL A   1      49.891  26.634  31.477  1.00  0.00    -0.200 F 
ENDBRANCH  49  63
BRANCH  50  74
ATOM     74  C   UNL A   1      37.125  32.647  30.331  1.00  0.00     0.064 A 
ATOM     75  C   UNL A   1      36.190  32.499  31.367  1.00  0.00     0.173 A 
ATOM     76  C   UNL A   1      36.733  33.384  29.203  1.00  0.00     0.173 A 
ATOM     77  F   UNL A   1      36.508  31.788  32.459  1.00  0.00    -0.203 F 
ATOM     78  C   UNL A   1      34.910  33.042  31.266  1.00  0.00     0.198 A 
ATOM     79  C   UNL A   1      35.465  33.954  29.119  1.00  0.00     0.198 A 
ATOM     80  F   UNL A   1      37.591  33.564  28.188  1.00  0.00    -0.203 F 
ATOM     81  F   UNL A   1      34.020  32.840  32.248  1.00  0.00    -0.200 F 
ATOM     82  C   UNL A   1      34.551  33.774  30.146  1.00  0.00     0.200 A 
ATOM     83  F   UNL A   1      35.128  34.676  28.041  1.00  0.00    -0.200 F 
ATOM     84  F   UNL A   1      33.321  34.299  30.051  1.00  0.00    -0.200 F 
ENDBRANCH  50  74
BRANCH  62  85
ATOM     85  C   UNL A   1      43.257  34.940  32.708  1.00  0.00     0.064 A 
ATOM     86  C   UNL A   1      43.285  35.156  34.095  1.00  0.00     0.173 A 
ATOM     87  C   UNL A   1      43.653  35.994  31.871  1.00  0.00     0.173 A 
ATOM     88  F   UNL A   1      42.905  34.185  34.938  1.00  0.00    -0.203 F 
ATOM     89  C   UNL A   1      43.651  36.393  34.618  1.00  0.00     0.198 A 
ATOM     90  C   UNL A   1      44.054  37.217  32.401  1.00  0.00     0.198 A 
ATOM     91  F   UNL A   1      43.654  35.836  30.539  1.00  0.00    -0.203 F 
ATOM     92  F   UNL A   1      43.605  36.598  35.942  1.00  0.00    -0.200 F 
ATOM     93  C   UNL A   1      44.040  37.420  33.771  1.00  0.00     0.200 A 
ATOM     94  F   UNL A   1      44.446  38.203  31.581  1.00  0.00    -0.200 F 
ATOM     95  F   UNL A   1      44.390  38.610  34.278  1.00  0.00    -0.200 F 
ENDBRANCH  62  85
ENDBRANCH  36  37
ENDBRANCH  28  31
ENDBRANCH  26  27
ENDBRANCH  25  26
ENDBRANCH  24  25
ENDBRANCH  22  24
ENDBRANCH  19  20
ENDBRANCH  18  19
ENDBRANCH   1  18
TORSDOF 23
ENDMDL
