MODEL 1
REMARK VINA RESULT:     -12.9      0.000      0.000
REMARK SMILES COc1ccc(C(=O)Nc2cc(C(=O)NCCCNC(=O)c3ccc(-c4c5nc(c(-c6c(F)c(F)c(F)c(F)c6F)c6ccc([nH]6)c(-c6c(F)c(F)c(F)c(F)c6F)c6nc(c(-c7c(F)c(F)c(F)c(F)c7F)c7ccc4[nH]7)C=C6)C=C5)cc3)c(Cl)cc2Cl)cc1Cl
REMARK SMILES IDX 16 1 15 2 13 3 14 4 12 6 10 7 11 8 88 9 87 10 89 11 85 12
REMARK SMILES IDX 86 13 9 14 7 15 8 16 6 18 3 19 4 20 91 21 5 22 90 23 92 24
REMARK SMILES IDX 2 25 1 26 17 27 18 28 19 29 20 30 21 32 22 33 23 34 84 35
REMARK SMILES IDX 24 36 83 37 25 38 26 39 27 40 77 41 28 42 82 43 76 44 78 45
REMARK SMILES IDX 29 46 81 47 75 48 74 49 30 51 62 52 42 53 61 54 43 55 46 56
REMARK SMILES IDX 60 57 79 58 44 59 45 60 59 62 80 63 47 64 31 65 32 66 40 67
REMARK SMILES IDX 33 68 34 69 38 70 41 71 35 72 36 73 39 74 37 75 63 76 64 77
REMARK SMILES IDX 72 78 65 79 66 80 70 81 73 82 67 83 68 84 71 85 69 86 48 87
REMARK SMILES IDX 49 88 57 89 50 90 51 91 55 92 58 93 52 94 53 95 56 96 54 97
REMARK H PARENT 15 5 9 17 19 31 78 50 46 61
REMARK Flexibility Score: inf
ROOT
ATOM      1  C   UNL A   1      31.878  28.363  27.504  1.00  0.00     0.118 C 
ENDROOT
BRANCH   1   2
ATOM      2  N   UNL A   1      31.009  27.232  27.285  1.00  0.00    -0.352 N 
ATOM      3  C   UNL A   1      30.658  26.431  26.243  1.00  0.00     0.252 C 
ATOM      4  O   UNL A   1      29.826  25.570  26.564  1.00  0.00    -0.269 OA
ATOM      5  H   UNL A   1      30.545  26.968  28.114  1.00  0.00     0.163 HD
BRANCH   3   6
ATOM      6  C   UNL A   1      31.145  26.420  24.818  1.00  0.00     0.060 A 
ATOM      7  C   UNL A   1      31.714  24.797  23.031  1.00  0.00     0.061 A 
ATOM      8  C   UNL A   1      31.411  25.099  24.363  1.00  0.00     0.043 A 
ATOM      9  C   UNL A   1      32.029  25.837  22.165  1.00  0.00     0.066 A 
ATOM     10  C   UNL A   1      31.797  27.145  22.573  1.00  0.00     0.044 A 
ATOM     11  Cl  UNL A   1      32.513  25.550  20.535  1.00  0.00    -0.082 Cl
ATOM     12  C   UNL A   1      31.276  27.432  23.856  1.00  0.00     0.055 A 
ATOM     13  Cl  UNL A   1      30.692  29.044  23.961  1.00  0.00    -0.083 Cl
BRANCH   7  14
ATOM     14  N   UNL A   1      31.603  23.488  22.527  1.00  0.00    -0.321 N 
ATOM     15  C   UNL A   1      32.479  22.419  22.595  1.00  0.00     0.255 C 
ATOM     16  O   UNL A   1      32.233  21.413  21.930  1.00  0.00    -0.269 OA
ATOM     17  H   UNL A   1      30.762  23.301  22.049  1.00  0.00     0.170 HD
BRANCH  15  18
ATOM     18  C   UNL A   1      33.658  22.387  23.518  1.00  0.00     0.041 A 
ATOM     19  C   UNL A   1      35.929  22.447  25.209  1.00  0.00     0.137 A 
ATOM     20  C   UNL A   1      36.009  22.871  23.876  1.00  0.00     0.049 A 
ATOM     21  C   UNL A   1      34.703  21.970  25.685  1.00  0.00     0.083 A 
ATOM     22  C   UNL A   1      34.885  22.851  23.040  1.00  0.00     0.018 A 
ATOM     23  C   UNL A   1      33.605  21.869  24.818  1.00  0.00     0.038 A 
ATOM     24  Cl  UNL A   1      34.390  21.579  27.343  1.00  0.00    -0.080 Cl
BRANCH  19  25
ATOM     25  O   UNL A   1      37.092  22.620  25.907  1.00  0.00    -0.495 OA
ATOM     26  C   UNL A   1      37.540  23.956  26.095  1.00  0.00     0.278 C 
ENDBRANCH  19  25
ENDBRANCH  15  18
ENDBRANCH   7  14
ENDBRANCH   3   6
ENDBRANCH   1   2
BRANCH   1  27
ATOM     27  C   UNL A   1      33.289  28.080  26.977  1.00  0.00     0.042 C 
BRANCH  27  28
ATOM     28  C   UNL A   1      33.840  29.184  26.076  1.00  0.00     0.118 C 
BRANCH  28  29
ATOM     29  N   UNL A   1      33.869  30.467  26.766  1.00  0.00    -0.352 N 
ATOM     30  C   UNL A   1      34.665  30.921  27.779  1.00  0.00     0.251 C 
ATOM     31  H   UNL A   1      33.202  31.117  26.448  1.00  0.00     0.163 HD
ATOM     32  O   UNL A   1      34.309  31.929  28.399  1.00  0.00    -0.269 OA
BRANCH  30  33
ATOM     33  C   UNL A   1      35.943  30.268  28.137  1.00  0.00     0.039 A 
ATOM     34  C   UNL A   1      36.055  29.679  29.402  1.00  0.00     0.014 A 
ATOM     35  C   UNL A   1      37.069  30.341  27.310  1.00  0.00     0.014 A 
ATOM     36  C   UNL A   1      37.280  29.170  29.836  1.00  0.00     0.010 A 
ATOM     37  C   UNL A   1      38.276  29.771  27.716  1.00  0.00     0.010 A 
ATOM     38  C   UNL A   1      38.403  29.212  28.996  1.00  0.00    -0.014 A 
BRANCH  38  39
ATOM     39  C   UNL A   1      39.725  28.732  29.476  1.00  0.00     0.031 A 
ATOM     40  C   UNL A   1      40.480  29.517  30.516  1.00  0.00     0.074 A 
ATOM     41  C   UNL A   1      40.255  27.606  28.961  1.00  0.00     0.049 A 
ATOM     42  N   UNL A   1      41.653  29.277  31.047  1.00  0.00    -0.248 NA
ATOM     43  C   UNL A   1      39.846  30.752  31.007  1.00  0.00     0.031 C 
ATOM     44  C   UNL A   1      39.641  26.784  27.917  1.00  0.00     0.029 A 
ATOM     45  N   UNL A   1      41.430  26.959  29.245  1.00  0.00    -0.354 N 
ATOM     46  C   UNL A   1      41.908  30.341  31.904  1.00  0.00     0.074 A 
ATOM     47  C   UNL A   1      40.787  31.248  31.797  1.00  0.00     0.031 C 
ATOM     48  C   UNL A   1      40.434  25.729  27.666  1.00  0.00     0.029 A 
ATOM     49  C   UNL A   1      41.619  25.813  28.513  1.00  0.00     0.049 A 
ATOM     50  H   UNL A   1      42.077  27.286  29.912  1.00  0.00     0.167 HD
ATOM     51  C   UNL A   1      42.970  30.532  32.722  1.00  0.00     0.037 A 
ATOM     52  C   UNL A   1      42.634  24.928  28.530  1.00  0.00     0.037 A 
ATOM     53  C   UNL A   1      44.054  29.598  32.871  1.00  0.00     0.049 A 
ATOM     54  C   UNL A   1      43.773  25.140  29.490  1.00  0.00     0.074 A 
ATOM     55  C   UNL A   1      45.135  29.659  33.734  1.00  0.00     0.029 A 
ATOM     56  N   UNL A   1      44.187  28.424  32.145  1.00  0.00    -0.354 N 
ATOM     57  N   UNL A   1      43.964  26.111  30.351  1.00  0.00    -0.248 NA
ATOM     58  C   UNL A   1      44.833  24.122  29.491  1.00  0.00     0.031 C 
ATOM     59  C   UNL A   1      45.941  28.538  33.505  1.00  0.00     0.029 A 
ATOM     60  C   UNL A   1      45.339  27.759  32.530  1.00  0.00     0.049 A 
ATOM     61  H   UNL A   1      43.555  28.110  31.457  1.00  0.00     0.167 HD
ATOM     62  C   UNL A   1      45.142  25.803  31.017  1.00  0.00     0.074 A 
ATOM     63  C   UNL A   1      45.613  24.547  30.474  1.00  0.00     0.031 C 
ATOM     64  C   UNL A   1      45.779  26.499  31.991  1.00  0.00     0.037 A 
BRANCH  51  65
ATOM     65  C   UNL A   1      43.013  31.796  33.531  1.00  0.00     0.064 A 
ATOM     66  C   UNL A   1      43.637  32.957  33.053  1.00  0.00     0.173 A 
ATOM     67  C   UNL A   1      42.374  31.862  34.779  1.00  0.00     0.173 A 
ATOM     68  F   UNL A   1      44.272  32.944  31.871  1.00  0.00    -0.203 F 
ATOM     69  C   UNL A   1      43.639  34.131  33.803  1.00  0.00     0.198 A 
ATOM     70  C   UNL A   1      42.354  33.045  35.514  1.00  0.00     0.198 A 
ATOM     71  F   UNL A   1      41.756  30.782  35.280  1.00  0.00    -0.203 F 
ATOM     72  F   UNL A   1      44.277  35.218  33.343  1.00  0.00    -0.200 F 
ATOM     73  C   UNL A   1      42.991  34.176  35.028  1.00  0.00     0.200 A 
ATOM     74  F   UNL A   1      41.718  33.090  36.692  1.00  0.00    -0.200 F 
ATOM     75  F   UNL A   1      42.986  35.310  35.743  1.00  0.00    -0.200 F 
ENDBRANCH  51  65
BRANCH  52  76
ATOM     76  C   UNL A   1      42.605  23.737  27.643  1.00  0.00     0.064 A 
ATOM     77  C   UNL A   1      42.166  22.494  28.122  1.00  0.00     0.173 A 
ATOM     78  C   UNL A   1      43.044  23.805  26.312  1.00  0.00     0.173 A 
ATOM     79  F   UNL A   1      41.756  22.375  29.394  1.00  0.00    -0.203 F 
ATOM     80  C   UNL A   1      42.197  21.359  27.315  1.00  0.00     0.198 A 
ATOM     81  C   UNL A   1      43.046  22.675  25.498  1.00  0.00     0.198 A 
ATOM     82  F   UNL A   1      43.468  24.971  25.804  1.00  0.00    -0.203 F 
ATOM     83  F   UNL A   1      41.825  20.173  27.818  1.00  0.00    -0.200 F 
ATOM     84  C   UNL A   1      42.634  21.450  26.003  1.00  0.00     0.200 A 
ATOM     85  F   UNL A   1      43.459  22.769  24.226  1.00  0.00    -0.200 F 
ATOM     86  F   UNL A   1      42.669  20.358  25.229  1.00  0.00    -0.200 F 
ENDBRANCH  52  76
BRANCH  64  87
ATOM     87  C   UNL A   1      47.027  25.890  32.558  1.00  0.00     0.064 A 
ATOM     88  C   UNL A   1      48.286  26.128  31.990  1.00  0.00     0.173 A 
ATOM     89  C   UNL A   1      46.960  25.069  33.694  1.00  0.00     0.173 A 
ATOM     90  F   UNL A   1      48.398  26.894  30.894  1.00  0.00    -0.203 F 
ATOM     91  C   UNL A   1      49.431  25.537  32.518  1.00  0.00     0.198 A 
ATOM     92  C   UNL A   1      48.110  24.503  34.236  1.00  0.00     0.198 A 
ATOM     93  F   UNL A   1      45.779  24.817  34.279  1.00  0.00    -0.203 F 
ATOM     94  F   UNL A   1      50.617  25.731  31.925  1.00  0.00    -0.200 F 
ATOM     95  C   UNL A   1      49.342  24.729  33.643  1.00  0.00     0.200 A 
ATOM     96  F   UNL A   1      48.025  23.733  35.329  1.00  0.00    -0.200 F 
ATOM     97  F   UNL A   1      50.445  24.160  34.148  1.00  0.00    -0.200 F 
ENDBRANCH  64  87
ENDBRANCH  38  39
ENDBRANCH  30  33
ENDBRANCH  28  29
ENDBRANCH  27  28
ENDBRANCH   1  27
TORSDOF 13
ENDMDL
MODEL 2
REMARK VINA RESULT:     -12.7      2.135      3.243
REMARK SMILES COc1ccc(C(=O)Nc2cc(C(=O)NCCCNC(=O)c3ccc(-c4c5nc(c(-c6c(F)c(F)c(F)c(F)c6F)c6ccc([nH]6)c(-c6c(F)c(F)c(F)c(F)c6F)c6nc(c(-c7c(F)c(F)c(F)c(F)c7F)c7ccc4[nH]7)C=C6)C=C5)cc3)c(Cl)cc2Cl)cc1Cl
REMARK SMILES IDX 16 1 15 2 13 3 14 4 12 6 10 7 11 8 88 9 87 10 89 11 85 12
REMARK SMILES IDX 86 13 9 14 7 15 8 16 6 18 3 19 4 20 91 21 5 22 90 23 92 24
REMARK SMILES IDX 2 25 1 26 17 27 18 28 19 29 20 30 21 32 22 33 23 34 84 35
REMARK SMILES IDX 24 36 83 37 25 38 26 39 27 40 77 41 28 42 82 43 76 44 78 45
REMARK SMILES IDX 29 46 81 47 75 48 74 49 30 51 62 52 42 53 61 54 43 55 46 56
REMARK SMILES IDX 60 57 79 58 44 59 45 60 59 62 80 63 47 64 31 65 32 66 40 67
REMARK SMILES IDX 33 68 34 69 38 70 41 71 35 72 36 73 39 74 37 75 63 76 64 77
REMARK SMILES IDX 72 78 65 79 66 80 70 81 73 82 67 83 68 84 71 85 69 86 48 87
REMARK SMILES IDX 49 88 57 89 50 90 51 91 55 92 58 93 52 94 53 95 56 96 54 97
REMARK H PARENT 15 5 9 17 19 31 78 50 46 61
REMARK Flexibility Score: inf
ROOT
ATOM      1  C   UNL A   1      32.247  28.165  27.481  1.00  0.00     0.118 C 
ENDROOT
BRANCH   1   2
ATOM      2  N   UNL A   1      31.197  27.203  27.249  1.00  0.00    -0.352 N 
ATOM      3  C   UNL A   1      30.693  26.511  26.190  1.00  0.00     0.252 C 
ATOM      4  O   UNL A   1      29.737  25.789  26.507  1.00  0.00    -0.269 OA
ATOM      5  H   UNL A   1      30.715  26.989  28.081  1.00  0.00     0.163 HD
BRANCH   3   6
ATOM      6  C   UNL A   1      31.139  26.474  24.753  1.00  0.00     0.060 A 
ATOM      7  C   UNL A   1      31.696  24.818  22.992  1.00  0.00     0.061 A 
ATOM      8  C   UNL A   1      31.424  25.148  24.324  1.00  0.00     0.043 A 
ATOM      9  C   UNL A   1      31.960  25.842  22.091  1.00  0.00     0.066 A 
ATOM     10  C   UNL A   1      31.708  27.154  22.471  1.00  0.00     0.044 A 
ATOM     11  Cl  UNL A   1      32.405  25.522  20.456  1.00  0.00    -0.082 Cl
ATOM     12  C   UNL A   1      31.217  27.462  23.761  1.00  0.00     0.055 A 
ATOM     13  Cl  UNL A   1      30.597  29.062  23.841  1.00  0.00    -0.083 Cl
BRANCH   7  14
ATOM     14  N   UNL A   1      31.603  23.494  22.527  1.00  0.00    -0.321 N 
ATOM     15  C   UNL A   1      32.492  22.437  22.631  1.00  0.00     0.255 C 
ATOM     16  O   UNL A   1      32.261  21.410  21.994  1.00  0.00    -0.269 OA
ATOM     17  H   UNL A   1      30.768  23.283  22.049  1.00  0.00     0.170 HD
BRANCH  15  18
ATOM     18  C   UNL A   1      33.664  22.446  23.562  1.00  0.00     0.041 A 
ATOM     19  C   UNL A   1      35.920  22.584  25.268  1.00  0.00     0.137 A 
ATOM     20  C   UNL A   1      35.990  23.026  23.940  1.00  0.00     0.049 A 
ATOM     21  C   UNL A   1      34.712  22.050  25.731  1.00  0.00     0.083 A 
ATOM     22  C   UNL A   1      34.874  22.967  23.097  1.00  0.00     0.018 A 
ATOM     23  C   UNL A   1      33.626  21.912  24.856  1.00  0.00     0.038 A 
ATOM     24  Cl  UNL A   1      34.406  21.630  27.383  1.00  0.00    -0.080 Cl
BRANCH  19  25
ATOM     25  O   UNL A   1      37.070  22.799  25.976  1.00  0.00    -0.495 OA
ATOM     26  C   UNL A   1      38.184  21.969  25.669  1.00  0.00     0.278 C 
ENDBRANCH  19  25
ENDBRANCH  15  18
ENDBRANCH   7  14
ENDBRANCH   3   6
ENDBRANCH   1   2
BRANCH   1  27
ATOM     27  C   UNL A   1      31.781  29.581  27.127  1.00  0.00     0.042 C 
BRANCH  27  28
ATOM     28  C   UNL A   1      32.780  30.361  26.274  1.00  0.00     0.118 C 
BRANCH  28  29
ATOM     29  N   UNL A   1      32.802  31.770  26.638  1.00  0.00    -0.352 N 
ATOM     30  C   UNL A   1      33.578  32.453  27.531  1.00  0.00     0.251 C 
ATOM     31  H   UNL A   1      32.146  32.326  26.159  1.00  0.00     0.163 HD
ATOM     32  O   UNL A   1      33.216  33.580  27.885  1.00  0.00    -0.269 OA
BRANCH  30  33
ATOM     33  C   UNL A   1      34.844  31.904  28.064  1.00  0.00     0.039 A 
ATOM     34  C   UNL A   1      34.842  30.595  28.561  1.00  0.00     0.014 A 
ATOM     35  C   UNL A   1      35.992  32.692  28.204  1.00  0.00     0.014 A 
ATOM     36  C   UNL A   1      35.975  30.081  29.195  1.00  0.00     0.010 A 
ATOM     37  C   UNL A   1      37.147  32.155  28.774  1.00  0.00     0.010 A 
ATOM     38  C   UNL A   1      37.138  30.856  29.307  1.00  0.00    -0.014 A 
BRANCH  38  39
ATOM     39  C   UNL A   1      38.325  30.339  30.036  1.00  0.00     0.031 A 
ATOM     40  C   UNL A   1      38.565  30.743  31.468  1.00  0.00     0.074 A 
ATOM     41  C   UNL A   1      39.196  29.528  29.407  1.00  0.00     0.049 A 
ATOM     42  N   UNL A   1      39.550  30.418  32.267  1.00  0.00    -0.248 NA
ATOM     43  C   UNL A   1      37.583  31.656  32.074  1.00  0.00     0.031 C 
ATOM     44  C   UNL A   1      39.097  29.103  28.010  1.00  0.00     0.029 A 
ATOM     45  N   UNL A   1      40.338  28.917  29.860  1.00  0.00    -0.354 N 
ATOM     46  C   UNL A   1      39.323  31.108  33.452  1.00  0.00     0.074 A 
ATOM     47  C   UNL A   1      38.128  31.899  33.257  1.00  0.00     0.031 C 
ATOM     48  C   UNL A   1      40.121  28.281  27.727  1.00  0.00     0.029 A 
ATOM     49  C   UNL A   1      40.959  28.140  28.913  1.00  0.00     0.049 A 
ATOM     50  H   UNL A   1      40.679  29.025  30.777  1.00  0.00     0.167 HD
ATOM     51  C   UNL A   1      40.033  31.067  34.604  1.00  0.00     0.037 A 
ATOM     52  C   UNL A   1      42.077  27.394  28.999  1.00  0.00     0.037 A 
ATOM     53  C   UNL A   1      41.186  30.232  34.814  1.00  0.00     0.049 A 
ATOM     54  C   UNL A   1      42.813  27.327  30.310  1.00  0.00     0.074 A 
ATOM     55  C   UNL A   1      41.927  30.057  35.971  1.00  0.00     0.029 A 
ATOM     56  N   UNL A   1      41.758  29.423  33.845  1.00  0.00    -0.354 N 
ATOM     57  N   UNL A   1      42.543  27.924  31.445  1.00  0.00    -0.248 NA
ATOM     58  C   UNL A   1      44.004  26.467  30.354  1.00  0.00     0.031 C 
ATOM     59  C   UNL A   1      42.969  29.166  35.691  1.00  0.00     0.029 A 
ATOM     60  C   UNL A   1      42.851  28.756  34.372  1.00  0.00     0.049 A 
ATOM     61  H   UNL A   1      41.435  29.336  32.918  1.00  0.00     0.167 HD
ATOM     62  C   UNL A   1      43.505  27.487  32.345  1.00  0.00     0.074 A 
ATOM     63  C   UNL A   1      44.356  26.561  31.628  1.00  0.00     0.031 C 
ATOM     64  C   UNL A   1      43.673  27.823  33.647  1.00  0.00     0.037 A 
BRANCH  51  65
ATOM     65  C   UNL A   1      39.582  31.944  35.737  1.00  0.00     0.064 A 
ATOM     66  C   UNL A   1      38.582  31.537  36.632  1.00  0.00     0.173 A 
ATOM     67  C   UNL A   1      40.196  33.185  35.960  1.00  0.00     0.173 A 
ATOM     68  F   UNL A   1      37.955  30.364  36.456  1.00  0.00    -0.203 F 
ATOM     69  C   UNL A   1      38.199  32.350  37.696  1.00  0.00     0.198 A 
ATOM     70  C   UNL A   1      39.830  33.984  37.042  1.00  0.00     0.198 A 
ATOM     71  F   UNL A   1      41.163  33.620  35.138  1.00  0.00    -0.203 F 
ATOM     72  F   UNL A   1      37.212  31.958  38.516  1.00  0.00    -0.200 F 
ATOM     73  C   UNL A   1      38.828  33.567  37.905  1.00  0.00     0.200 A 
ATOM     74  F   UNL A   1      40.447  35.155  37.249  1.00  0.00    -0.200 F 
ATOM     75  F   UNL A   1      38.464  34.344  38.936  1.00  0.00    -0.200 F 
ENDBRANCH  51  65
BRANCH  52  76
ATOM     76  C   UNL A   1      42.550  26.615  27.826  1.00  0.00     0.064 A 
ATOM     77  C   UNL A   1      43.493  27.153  26.938  1.00  0.00     0.173 A 
ATOM     78  C   UNL A   1      42.049  25.334  27.549  1.00  0.00     0.173 A 
ATOM     79  F   UNL A   1      43.986  28.383  27.151  1.00  0.00    -0.203 F 
ATOM     80  C   UNL A   1      43.894  26.455  25.802  1.00  0.00     0.198 A 
ATOM     81  C   UNL A   1      42.473  24.625  26.427  1.00  0.00     0.198 A 
ATOM     82  F   UNL A   1      41.150  24.773  28.369  1.00  0.00    -0.203 F 
ATOM     83  F   UNL A   1      44.753  27.017  24.941  1.00  0.00    -0.200 F 
ATOM     84  C   UNL A   1      43.385  25.190  25.548  1.00  0.00     0.200 A 
ATOM     85  F   UNL A   1      41.987  23.398  26.190  1.00  0.00    -0.200 F 
ATOM     86  F   UNL A   1      43.765  24.520  24.452  1.00  0.00    -0.200 F 
ENDBRANCH  52  76
BRANCH  64  87
ATOM     87  C   UNL A   1      44.789  27.148  34.387  1.00  0.00     0.064 A 
ATOM     88  C   UNL A   1      46.068  27.717  34.470  1.00  0.00     0.173 A 
ATOM     89  C   UNL A   1      44.571  25.922  35.032  1.00  0.00     0.173 A 
ATOM     90  F   UNL A   1      46.328  28.881  33.855  1.00  0.00    -0.203 F 
ATOM     91  C   UNL A   1      47.097  27.067  35.142  1.00  0.00     0.198 A 
ATOM     92  C   UNL A   1      45.595  25.288  35.729  1.00  0.00     0.198 A 
ATOM     93  F   UNL A   1      43.363  25.339  34.989  1.00  0.00    -0.203 F 
ATOM     94  F   UNL A   1      48.326  27.601  35.160  1.00  0.00    -0.200 F 
ATOM     95  C   UNL A   1      46.859  25.855  35.775  1.00  0.00     0.200 A 
ATOM     96  F   UNL A   1      45.361  24.124  36.350  1.00  0.00    -0.200 F 
ATOM     97  F   UNL A   1      47.853  25.229  36.421  1.00  0.00    -0.200 F 
ENDBRANCH  64  87
ENDBRANCH  38  39
ENDBRANCH  30  33
ENDBRANCH  28  29
ENDBRANCH  27  28
ENDBRANCH   1  27
TORSDOF 13
ENDMDL
MODEL 3
REMARK VINA RESULT:     -12.6      4.790     10.748
REMARK SMILES COc1ccc(C(=O)Nc2cc(C(=O)NCCCNC(=O)c3ccc(-c4c5nc(c(-c6c(F)c(F)c(F)c(F)c6F)c6ccc([nH]6)c(-c6c(F)c(F)c(F)c(F)c6F)c6nc(c(-c7c(F)c(F)c(F)c(F)c7F)c7ccc4[nH]7)C=C6)C=C5)cc3)c(Cl)cc2Cl)cc1Cl
REMARK SMILES IDX 16 1 15 2 13 3 14 4 12 6 10 7 11 8 88 9 87 10 89 11 85 12
REMARK SMILES IDX 86 13 9 14 7 15 8 16 6 18 3 19 4 20 91 21 5 22 90 23 92 24
REMARK SMILES IDX 2 25 1 26 17 27 18 28 19 29 20 30 21 32 22 33 23 34 84 35
REMARK SMILES IDX 24 36 83 37 25 38 26 39 27 40 77 41 28 42 82 43 76 44 78 45
REMARK SMILES IDX 29 46 81 47 75 48 74 49 30 51 62 52 42 53 61 54 43 55 46 56
REMARK SMILES IDX 60 57 79 58 44 59 45 60 59 62 80 63 47 64 31 65 32 66 40 67
REMARK SMILES IDX 33 68 34 69 38 70 41 71 35 72 36 73 39 74 37 75 63 76 64 77
REMARK SMILES IDX 72 78 65 79 66 80 70 81 73 82 67 83 68 84 71 85 69 86 48 87
REMARK SMILES IDX 49 88 57 89 50 90 51 91 55 92 58 93 52 94 53 95 56 96 54 97
REMARK H PARENT 15 5 9 17 19 31 78 50 46 61
REMARK Flexibility Score: inf
ROOT
ATOM      1  C   UNL A   1      42.271  20.263  26.358  1.00  0.00     0.118 C 
ENDROOT
BRANCH   1   2
ATOM      2  N   UNL A   1      42.763  21.208  25.383  1.00  0.00    -0.352 N 
ATOM      3  C   UNL A   1      43.553  22.316  25.378  1.00  0.00     0.252 C 
ATOM      4  O   UNL A   1      43.671  22.810  24.248  1.00  0.00    -0.269 OA
ATOM      5  H   UNL A   1      42.441  20.991  24.478  1.00  0.00     0.163 HD
BRANCH   3   6
ATOM      6  C   UNL A   1      44.302  22.981  26.503  1.00  0.00     0.060 A 
ATOM      7  C   UNL A   1      46.332  24.361  26.861  1.00  0.00     0.061 A 
ATOM      8  C   UNL A   1      45.528  23.546  26.056  1.00  0.00     0.043 A 
ATOM      9  C   UNL A   1      46.073  24.415  28.225  1.00  0.00     0.066 A 
ATOM     10  C   UNL A   1      44.892  23.865  28.707  1.00  0.00     0.044 A 
ATOM     11  Cl  UNL A   1      47.074  25.311  29.306  1.00  0.00    -0.082 Cl
ATOM     12  C   UNL A   1      43.971  23.231  27.842  1.00  0.00     0.055 A 
ATOM     13  Cl  UNL A   1      42.438  23.020  28.588  1.00  0.00    -0.083 Cl
BRANCH   7  14
ATOM     14  N   UNL A   1      47.317  25.200  26.310  1.00  0.00    -0.321 N 
ATOM     15  C   UNL A   1      47.252  26.524  25.909  1.00  0.00     0.255 C 
ATOM     16  O   UNL A   1      48.208  27.000  25.297  1.00  0.00    -0.269 OA
ATOM     17  H   UNL A   1      48.199  24.777  26.191  1.00  0.00     0.170 HD
BRANCH  15  18
ATOM     18  C   UNL A   1      46.121  27.433  26.276  1.00  0.00     0.041 A 
ATOM     19  C   UNL A   1      44.073  29.258  26.980  1.00  0.00     0.137 A 
ATOM     20  C   UNL A   1      45.336  29.321  27.583  1.00  0.00     0.049 A 
ATOM     21  C   UNL A   1      43.835  28.256  26.033  1.00  0.00     0.083 A 
ATOM     22  C   UNL A   1      46.353  28.426  27.231  1.00  0.00     0.018 A 
ATOM     23  C   UNL A   1      44.829  27.308  25.750  1.00  0.00     0.038 A 
ATOM     24  Cl  UNL A   1      42.400  28.151  25.069  1.00  0.00    -0.080 Cl
BRANCH  19  25
ATOM     25  O   UNL A   1      43.230  30.262  27.371  1.00  0.00    -0.495 OA
ATOM     26  C   UNL A   1      43.761  31.245  28.251  1.00  0.00     0.278 C 
ENDBRANCH  19  25
ENDBRANCH  15  18
ENDBRANCH   7  14
ENDBRANCH   3   6
ENDBRANCH   1   2
BRANCH   1  27
ATOM     27  C   UNL A   1      40.739  20.244  26.377  1.00  0.00     0.042 C 
BRANCH  27  28
ATOM     28  C   UNL A   1      40.117  21.500  26.984  1.00  0.00     0.118 C 
BRANCH  28  29
ATOM     29  N   UNL A   1      39.246  22.174  26.032  1.00  0.00    -0.352 N 
ATOM     30  C   UNL A   1      38.745  23.445  26.021  1.00  0.00     0.251 C 
ATOM     31  H   UNL A   1      38.973  21.621  25.265  1.00  0.00     0.163 HD
ATOM     32  O   UNL A   1      37.794  23.696  25.272  1.00  0.00    -0.269 OA
BRANCH  30  33
ATOM     33  C   UNL A   1      39.317  24.530  26.847  1.00  0.00     0.039 A 
ATOM     34  C   UNL A   1      38.921  24.622  28.187  1.00  0.00     0.014 A 
ATOM     35  C   UNL A   1      40.125  25.532  26.298  1.00  0.00     0.014 A 
ATOM     36  C   UNL A   1      39.328  25.705  28.969  1.00  0.00     0.010 A 
ATOM     37  C   UNL A   1      40.588  26.578  27.098  1.00  0.00     0.010 A 
ATOM     38  C   UNL A   1      40.165  26.693  28.431  1.00  0.00    -0.014 A 
BRANCH  38  39
ATOM     39  C   UNL A   1      40.549  27.881  29.237  1.00  0.00     0.031 A 
ATOM     40  C   UNL A   1      41.937  27.985  29.813  1.00  0.00     0.074 A 
ATOM     41  C   UNL A   1      39.645  28.851  29.471  1.00  0.00     0.049 A 
ATOM     42  N   UNL A   1      42.457  28.927  30.559  1.00  0.00    -0.248 NA
ATOM     43  C   UNL A   1      42.857  26.869  29.537  1.00  0.00     0.031 C 
ATOM     44  C   UNL A   1      38.257  28.841  29.007  1.00  0.00     0.029 A 
ATOM     45  N   UNL A   1      39.757  30.032  30.159  1.00  0.00    -0.354 N 
ATOM     46  C   UNL A   1      43.745  28.504  30.864  1.00  0.00     0.074 A 
ATOM     47  C   UNL A   1      43.918  27.203  30.256  1.00  0.00     0.031 C 
ATOM     48  C   UNL A   1      37.654  29.975  29.402  1.00  0.00     0.029 A 
ATOM     49  C   UNL A   1      38.604  30.778  30.165  1.00  0.00     0.049 A 
ATOM     50  H   UNL A   1      40.587  30.318  30.605  1.00  0.00     0.167 HD
ATOM     51  C   UNL A   1      44.703  29.151  31.569  1.00  0.00     0.037 A 
ATOM     52  C   UNL A   1      38.348  31.977  30.721  1.00  0.00     0.037 A 
ATOM     53  C   UNL A   1      44.548  30.471  32.121  1.00  0.00     0.049 A 
ATOM     54  C   UNL A   1      39.451  32.696  31.451  1.00  0.00     0.074 A 
ATOM     55  C   UNL A   1      45.486  31.247  32.781  1.00  0.00     0.029 A 
ATOM     56  N   UNL A   1      43.379  31.214  32.067  1.00  0.00    -0.354 N 
ATOM     57  N   UNL A   1      40.688  32.318  31.666  1.00  0.00    -0.248 NA
ATOM     58  C   UNL A   1      39.124  34.018  32.003  1.00  0.00     0.031 C 
ATOM     59  C   UNL A   1      44.873  32.449  33.155  1.00  0.00     0.029 A 
ATOM     60  C   UNL A   1      43.567  32.435  32.692  1.00  0.00     0.049 A 
ATOM     61  H   UNL A   1      42.540  30.917  31.646  1.00  0.00     0.167 HD
ATOM     62  C   UNL A   1      41.294  33.365  32.344  1.00  0.00     0.074 A 
ATOM     63  C   UNL A   1      40.294  34.402  32.491  1.00  0.00     0.031 C 
ATOM     64  C   UNL A   1      42.564  33.462  32.809  1.00  0.00     0.037 A 
BRANCH  51  65
ATOM     65  C   UNL A   1      46.013  28.449  31.779  1.00  0.00     0.064 A 
ATOM     66  C   UNL A   1      46.145  27.391  32.690  1.00  0.00     0.173 A 
ATOM     67  C   UNL A   1      47.139  28.805  31.020  1.00  0.00     0.173 A 
ATOM     68  F   UNL A   1      45.103  27.019  33.448  1.00  0.00    -0.203 F 
ATOM     69  C   UNL A   1      47.361  26.729  32.848  1.00  0.00     0.198 A 
ATOM     70  C   UNL A   1      48.345  28.123  31.162  1.00  0.00     0.198 A 
ATOM     71  F   UNL A   1      47.065  29.806  30.130  1.00  0.00    -0.203 F 
ATOM     72  F   UNL A   1      47.474  25.746  33.754  1.00  0.00    -0.200 F 
ATOM     73  C   UNL A   1      48.456  27.089  32.080  1.00  0.00     0.200 A 
ATOM     74  F   UNL A   1      49.400  28.465  30.409  1.00  0.00    -0.200 F 
ATOM     75  F   UNL A   1      49.622  26.445  32.227  1.00  0.00    -0.200 F 
ENDBRANCH  51  65
BRANCH  52  76
ATOM     76  C   UNL A   1      37.007  32.600  30.576  1.00  0.00     0.064 A 
ATOM     77  C   UNL A   1      36.683  33.353  29.439  1.00  0.00     0.173 A 
ATOM     78  C   UNL A   1      36.035  32.483  31.580  1.00  0.00     0.173 A 
ATOM     79  F   UNL A   1      37.589  33.510  28.461  1.00  0.00    -0.203 F 
ATOM     80  C   UNL A   1      35.452  33.994  29.325  1.00  0.00     0.198 A 
ATOM     81  C   UNL A   1      34.792  33.100  31.451  1.00  0.00     0.198 A 
ATOM     82  F   UNL A   1      36.292  31.768  32.684  1.00  0.00    -0.203 F 
ATOM     83  F   UNL A   1      35.192  34.755  28.253  1.00  0.00    -0.200 F 
ATOM     84  C   UNL A   1      34.505  33.864  30.330  1.00  0.00     0.200 A 
ATOM     85  F   UNL A   1      33.876  32.963  32.420  1.00  0.00    -0.200 F 
ATOM     86  F   UNL A   1      33.323  34.484  30.223  1.00  0.00    -0.200 F 
ENDBRANCH  52  76
BRANCH  64  87
ATOM     87  C   UNL A   1      42.951  34.749  33.474  1.00  0.00     0.064 A 
ATOM     88  C   UNL A   1      43.427  35.844  32.739  1.00  0.00     0.173 A 
ATOM     89  C   UNL A   1      42.829  34.892  34.864  1.00  0.00     0.173 A 
ATOM     90  F   UNL A   1      43.575  35.749  31.408  1.00  0.00    -0.203 F 
ATOM     91  C   UNL A   1      43.801  37.023  33.375  1.00  0.00     0.198 A 
ATOM     92  C   UNL A   1      43.176  36.083  35.494  1.00  0.00     0.198 A 
ATOM     93  F   UNL A   1      42.371  33.876  35.611  1.00  0.00    -0.203 F 
ATOM     94  F   UNL A   1      44.308  38.037  32.660  1.00  0.00    -0.200 F 
ATOM     95  C   UNL A   1      43.671  37.143  34.752  1.00  0.00     0.200 A 
ATOM     96  F   UNL A   1      43.039  36.202  36.822  1.00  0.00    -0.200 F 
ATOM     97  F   UNL A   1      44.034  38.280  35.363  1.00  0.00    -0.200 F 
ENDBRANCH  64  87
ENDBRANCH  38  39
ENDBRANCH  30  33
ENDBRANCH  28  29
ENDBRANCH  27  28
ENDBRANCH   1  27
TORSDOF 13
ENDMDL
