MODEL 1
REMARK VINA RESULT:     -15.3      0.000      0.000
REMARK SMILES Cc1cnn(C2(C(=O)NCCCNC(=O)c3ccc(-c4c5nc(c(-c6c(F)c(F)c(F)c(F)c6F)c6ccc([nH]6)c(-c6c(F)c(F)c(F)c(F)c6F)c6nc(c(-c7c(F)c(F)c(F)c(F)c7F)c7ccc4[nH]7)C=C6)C=C5)cc3)CCN(C(=O)c3cc4ccccc4[nH]3)CC2)c1
REMARK SMILES IDX 11 1 10 2 9 3 7 4 8 5 6 7 79 8 94 9 80 10 93 11 81 12 82 13
REMARK SMILES IDX 83 14 5 15 1 16 2 17 3 18 95 19 4 20 84 21 85 22 92 23 86 24
REMARK SMILES IDX 91 25 87 27 90 28 88 29 89 30 12 31 13 32 14 33 15 35 16 36
REMARK SMILES IDX 17 37 78 38 18 39 77 40 19 41 20 42 21 43 71 44 22 45 76 46
REMARK SMILES IDX 70 47 72 48 23 49 75 50 69 51 68 52 24 54 56 55 36 56 55 57
REMARK SMILES IDX 37 58 40 59 54 60 73 61 38 62 39 63 53 65 74 66 41 67 25 68
REMARK SMILES IDX 26 69 34 70 27 71 28 72 32 73 35 74 29 75 30 76 33 77 31 78
REMARK SMILES IDX 57 79 58 80 66 81 59 82 60 83 64 84 67 85 61 86 62 87 65 88
REMARK SMILES IDX 63 89 42 90 43 91 51 92 44 93 45 94 49 95 52 96 46 97 47 98
REMARK SMILES IDX 50 99 48 100
REMARK H PARENT 9 6 92 26 13 34 72 53 40 64
REMARK Flexibility Score: inf
ROOT
ATOM      1  C   UNL A   1      31.980  28.586  27.553  1.00  0.00     0.042 C 
ENDROOT
BRANCH   1   2
ATOM      2  C   UNL A   1      31.419  27.974  26.267  1.00  0.00     0.117 C 
BRANCH   2   3
ATOM      3  N   UNL A   1      30.631  26.759  26.476  1.00  0.00    -0.354 N 
ATOM      4  C   UNL A   1      30.790  25.444  26.080  1.00  0.00     0.248 C 
ATOM      5  O   UNL A   1      29.890  24.704  26.480  1.00  0.00    -0.272 OA
ATOM      6  H   UNL A   1      29.817  26.909  27.009  1.00  0.00     0.163 HD
BRANCH   4   7
ATOM      7  C   UNL A   1      32.004  25.008  25.191  1.00  0.00     0.144 C 
ATOM      8  C   UNL A   1      33.254  25.149  26.098  1.00  0.00     0.062 C 
ATOM      9  C   UNL A   1      31.683  23.584  24.661  1.00  0.00     0.062 C 
ATOM     10  C   UNL A   1      34.355  24.135  25.854  1.00  0.00     0.123 C 
ATOM     11  C   UNL A   1      32.890  22.674  24.486  1.00  0.00     0.123 C 
ATOM     12  N   UNL A   1      33.839  22.805  25.588  1.00  0.00    -0.337 N 
ATOM     13  C   UNL A   1      34.307  21.736  26.352  1.00  0.00     0.270 C 
ATOM     14  O   UNL A   1      34.809  21.905  27.460  1.00  0.00    -0.267 OA
BRANCH   7  15
ATOM     15  N   UNL A   1      32.255  25.845  23.971  1.00  0.00    -0.257 N 
ATOM     16  C   UNL A   1      34.132  28.268  21.962  1.00  0.00     0.048 C 
ATOM     17  C   UNL A   1      33.227  27.261  22.556  1.00  0.00    -0.013 A 
ATOM     18  C   UNL A   1      32.205  26.507  21.952  1.00  0.00     0.138 A 
ATOM     19  C   UNL A   1      33.216  26.828  23.861  1.00  0.00     0.113 A 
ATOM     20  N   UNL A   1      31.630  25.650  22.798  1.00  0.00    -0.180 NA
ENDBRANCH   7  15
BRANCH  13  21
ATOM     21  C   UNL A   1      34.130  20.417  25.801  1.00  0.00     0.105 A 
ATOM     22  C   UNL A   1      34.784  19.790  24.753  1.00  0.00     0.042 A 
ATOM     23  N   UNL A   1      33.241  19.506  26.317  1.00  0.00    -0.351 N 
ATOM     24  C   UNL A   1      34.198  18.511  24.569  1.00  0.00     0.000 A 
ATOM     25  C   UNL A   1      33.202  18.376  25.534  1.00  0.00     0.046 A 
ATOM     26  H   UNL A   1      32.707  19.642  27.132  1.00  0.00     0.167 HD
ATOM     27  C   UNL A   1      34.416  17.456  23.665  1.00  0.00     0.010 A 
ATOM     28  C   UNL A   1      32.378  17.250  25.618  1.00  0.00     0.026 A 
ATOM     29  C   UNL A   1      33.610  16.314  23.743  1.00  0.00     0.001 A 
ATOM     30  C   UNL A   1      32.600  16.221  24.699  1.00  0.00     0.002 A 
ENDBRANCH  13  21
ENDBRANCH   4   7
ENDBRANCH   2   3
ENDBRANCH   1   2
BRANCH   1  31
ATOM     31  C   UNL A   1      33.426  29.025  27.425  1.00  0.00     0.118 C 
BRANCH  31  32
ATOM     32  N   UNL A   1      33.628  30.446  27.707  1.00  0.00    -0.352 N 
ATOM     33  C   UNL A   1      34.705  31.035  28.349  1.00  0.00     0.251 C 
ATOM     34  H   UNL A   1      32.915  31.054  27.406  1.00  0.00     0.163 HD
ATOM     35  O   UNL A   1      34.625  32.152  28.820  1.00  0.00    -0.269 OA
BRANCH  33  36
ATOM     36  C   UNL A   1      35.957  30.261  28.457  1.00  0.00     0.039 A 
ATOM     37  C   UNL A   1      36.830  30.143  27.372  1.00  0.00     0.014 A 
ATOM     38  C   UNL A   1      36.272  29.700  29.691  1.00  0.00     0.014 A 
ATOM     39  C   UNL A   1      38.066  29.534  27.572  1.00  0.00     0.010 A 
ATOM     40  C   UNL A   1      37.546  29.257  29.928  1.00  0.00     0.010 A 
ATOM     41  C   UNL A   1      38.430  29.118  28.863  1.00  0.00    -0.014 A 
BRANCH  41  42
ATOM     42  C   UNL A   1      39.780  28.645  29.144  1.00  0.00     0.031 A 
ATOM     43  C   UNL A   1      40.108  28.526  30.592  1.00  0.00     0.074 A 
ATOM     44  C   UNL A   1      40.590  28.138  28.188  1.00  0.00     0.049 A 
ATOM     45  N   UNL A   1      41.009  29.181  31.246  1.00  0.00    -0.248 NA
ATOM     46  C   UNL A   1      39.259  27.674  31.441  1.00  0.00     0.031 C 
ATOM     47  C   UNL A   1      40.288  27.907  26.771  1.00  0.00     0.029 A 
ATOM     48  N   UNL A   1      41.834  27.601  28.314  1.00  0.00    -0.354 N 
ATOM     49  C   UNL A   1      40.979  28.687  32.547  1.00  0.00     0.074 A 
ATOM     50  C   UNL A   1      39.777  27.903  32.650  1.00  0.00     0.031 C 
ATOM     51  C   UNL A   1      41.203  27.067  26.244  1.00  0.00     0.029 A 
ATOM     52  C   UNL A   1      42.241  26.832  27.230  1.00  0.00     0.049 A 
ATOM     53  H   UNL A   1      42.399  27.745  29.107  1.00  0.00     0.167 HD
ATOM     54  C   UNL A   1      42.082  28.765  33.343  1.00  0.00     0.037 A 
ATOM     55  C   UNL A   1      43.333  26.032  27.163  1.00  0.00     0.037 A 
ATOM     56  C   UNL A   1      43.021  29.733  32.827  1.00  0.00     0.049 A 
ATOM     57  C   UNL A   1      44.267  26.480  28.229  1.00  0.00     0.074 A 
ATOM     58  C   UNL A   1      42.950  31.079  32.520  1.00  0.00     0.029 A 
ATOM     59  N   UNL A   1      44.140  29.269  32.180  1.00  0.00    -0.354 N 
ATOM     60  N   UNL A   1      44.890  27.625  28.208  1.00  0.00    -0.248 NA
ATOM     61  C   UNL A   1      44.141  25.861  29.540  1.00  0.00     0.031 C 
ATOM     62  C   UNL A   1      43.704  31.220  31.317  1.00  0.00     0.029 A 
ATOM     63  C   UNL A   1      44.258  29.977  31.013  1.00  0.00     0.049 A 
ATOM     64  H   UNL A   1      44.745  28.559  32.496  1.00  0.00     0.167 HD
ATOM     65  C   UNL A   1      44.823  28.081  29.515  1.00  0.00     0.074 A 
ATOM     66  C   UNL A   1      44.437  26.914  30.307  1.00  0.00     0.031 C 
ATOM     67  C   UNL A   1      44.789  29.417  29.794  1.00  0.00     0.037 A 
BRANCH  54  68
ATOM     68  C   UNL A   1      42.498  27.706  34.341  1.00  0.00     0.064 A 
ATOM     69  C   UNL A   1      43.093  26.519  33.860  1.00  0.00     0.173 A 
ATOM     70  C   UNL A   1      42.055  27.658  35.680  1.00  0.00     0.173 A 
ATOM     71  F   UNL A   1      43.551  26.445  32.601  1.00  0.00    -0.203 F 
ATOM     72  C   UNL A   1      43.129  25.348  34.622  1.00  0.00     0.198 A 
ATOM     73  C   UNL A   1      42.143  26.503  36.455  1.00  0.00     0.198 A 
ATOM     74  F   UNL A   1      41.416  28.678  36.261  1.00  0.00    -0.203 F 
ATOM     75  F   UNL A   1      43.565  24.209  34.068  1.00  0.00    -0.200 F 
ATOM     76  C   UNL A   1      42.642  25.338  35.914  1.00  0.00     0.200 A 
ATOM     77  F   UNL A   1      41.654  26.511  37.703  1.00  0.00    -0.200 F 
ATOM     78  F   UNL A   1      42.608  24.201  36.621  1.00  0.00    -0.200 F 
ENDBRANCH  54  68
BRANCH  55  79
ATOM     79  C   UNL A   1      43.509  24.752  26.431  1.00  0.00     0.064 A 
ATOM     80  C   UNL A   1      44.453  24.637  25.396  1.00  0.00     0.173 A 
ATOM     81  C   UNL A   1      42.959  23.545  26.907  1.00  0.00     0.173 A 
ATOM     82  F   UNL A   1      45.057  25.730  24.908  1.00  0.00    -0.203 F 
ATOM     83  C   UNL A   1      44.849  23.390  24.896  1.00  0.00     0.198 A 
ATOM     84  C   UNL A   1      43.347  22.303  26.400  1.00  0.00     0.198 A 
ATOM     85  F   UNL A   1      42.106  23.535  27.940  1.00  0.00    -0.203 F 
ATOM     86  F   UNL A   1      45.805  23.320  23.959  1.00  0.00    -0.200 F 
ATOM     87  C   UNL A   1      44.305  22.224  25.407  1.00  0.00     0.200 A 
ATOM     88  F   UNL A   1      42.836  21.182  26.927  1.00  0.00    -0.200 F 
ATOM     89  F   UNL A   1      44.731  21.030  24.975  1.00  0.00    -0.200 F 
ENDBRANCH  55  79
BRANCH  67  90
ATOM     90  C   UNL A   1      45.097  30.383  28.684  1.00  0.00     0.064 A 
ATOM     91  C   UNL A   1      44.149  30.858  27.759  1.00  0.00     0.173 A 
ATOM     92  C   UNL A   1      46.371  30.965  28.652  1.00  0.00     0.173 A 
ATOM     93  F   UNL A   1      42.881  30.432  27.787  1.00  0.00    -0.203 F 
ATOM     94  C   UNL A   1      44.479  31.833  26.820  1.00  0.00     0.198 A 
ATOM     95  C   UNL A   1      46.686  31.968  27.739  1.00  0.00     0.198 A 
ATOM     96  F   UNL A   1      47.302  30.595  29.545  1.00  0.00    -0.203 F 
ATOM     97  F   UNL A   1      43.559  32.258  25.940  1.00  0.00    -0.200 F 
ATOM     98  C   UNL A   1      45.745  32.394  26.816  1.00  0.00     0.200 A 
ATOM     99  F   UNL A   1      47.897  32.542  27.774  1.00  0.00    -0.200 F 
ATOM    100  F   UNL A   1      46.050  33.362  25.942  1.00  0.00    -0.200 F 
ENDBRANCH  67  90
ENDBRANCH  41  42
ENDBRANCH  33  36
ENDBRANCH  31  32
ENDBRANCH   1  31
TORSDOF 12
ENDMDL
MODEL 2
REMARK VINA RESULT:     -15.2      3.040      9.072
REMARK SMILES Cc1cnn(C2(C(=O)NCCCNC(=O)c3ccc(-c4c5nc(c(-c6c(F)c(F)c(F)c(F)c6F)c6ccc([nH]6)c(-c6c(F)c(F)c(F)c(F)c6F)c6nc(c(-c7c(F)c(F)c(F)c(F)c7F)c7ccc4[nH]7)C=C6)C=C5)cc3)CCN(C(=O)c3cc4ccccc4[nH]3)CC2)c1
REMARK SMILES IDX 11 1 10 2 9 3 7 4 8 5 6 7 79 8 94 9 80 10 93 11 81 12 82 13
REMARK SMILES IDX 83 14 5 15 1 16 2 17 3 18 95 19 4 20 84 21 85 22 92 23 86 24
REMARK SMILES IDX 91 25 87 27 90 28 88 29 89 30 12 31 13 32 14 33 15 35 16 36
REMARK SMILES IDX 17 37 78 38 18 39 77 40 19 41 20 42 21 43 71 44 22 45 76 46
REMARK SMILES IDX 70 47 72 48 23 49 75 50 69 51 68 52 24 54 56 55 36 56 55 57
REMARK SMILES IDX 37 58 40 59 54 60 73 61 38 62 39 63 53 65 74 66 41 67 25 68
REMARK SMILES IDX 26 69 34 70 27 71 28 72 32 73 35 74 29 75 30 76 33 77 31 78
REMARK SMILES IDX 57 79 58 80 66 81 59 82 60 83 64 84 67 85 61 86 62 87 65 88
REMARK SMILES IDX 63 89 42 90 43 91 51 92 44 93 45 94 49 95 52 96 46 97 47 98
REMARK SMILES IDX 50 99 48 100
REMARK H PARENT 9 6 92 26 13 34 72 53 40 64
REMARK Flexibility Score: inf
ROOT
ATOM      1  C   UNL A   1      38.546  20.864  25.541  1.00  0.00     0.042 C 
ENDROOT
BRANCH   1   2
ATOM      2  C   UNL A   1      37.184  21.547  25.391  1.00  0.00     0.117 C 
BRANCH   2   3
ATOM      3  N   UNL A   1      36.985  22.208  24.101  1.00  0.00    -0.354 N 
ATOM      4  C   UNL A   1      35.912  22.862  23.524  1.00  0.00     0.248 C 
ATOM      5  O   UNL A   1      36.157  23.300  22.399  1.00  0.00    -0.272 OA
ATOM      6  H   UNL A   1      37.781  22.182  23.523  1.00  0.00     0.163 HD
BRANCH   4   7
ATOM      7  C   UNL A   1      34.539  22.976  24.269  1.00  0.00     0.144 C 
ATOM      8  C   UNL A   1      34.852  23.696  25.607  1.00  0.00     0.062 C 
ATOM      9  C   UNL A   1      33.562  23.696  23.301  1.00  0.00     0.062 C 
ATOM     10  C   UNL A   1      33.759  24.608  26.130  1.00  0.00     0.123 C 
ATOM     11  C   UNL A   1      32.532  24.593  23.974  1.00  0.00     0.123 C 
ATOM     12  N   UNL A   1      33.109  25.361  25.073  1.00  0.00    -0.337 N 
ATOM     13  C   UNL A   1      33.029  26.749  25.188  1.00  0.00     0.270 C 
ATOM     14  O   UNL A   1      33.799  27.383  25.905  1.00  0.00    -0.267 OA
BRANCH   7  15
ATOM     15  N   UNL A   1      33.875  21.677  24.620  1.00  0.00    -0.257 N 
ATOM     16  C   UNL A   1      32.340  18.441  23.844  1.00  0.00     0.048 C 
ATOM     17  C   UNL A   1      32.938  19.669  24.408  1.00  0.00    -0.013 A 
ATOM     18  C   UNL A   1      33.282  19.970  25.738  1.00  0.00     0.138 A 
ATOM     19  C   UNL A   1      33.310  20.799  23.719  1.00  0.00     0.113 A 
ATOM     20  N   UNL A   1      33.854  21.169  25.863  1.00  0.00    -0.180 NA
ENDBRANCH   7  15
BRANCH  13  21
ATOM     21  C   UNL A   1      32.031  27.411  24.388  1.00  0.00     0.105 A 
ATOM     22  C   UNL A   1      32.165  28.403  23.432  1.00  0.00     0.042 A 
ATOM     23  N   UNL A   1      30.697  27.086  24.440  1.00  0.00    -0.351 N 
ATOM     24  C   UNL A   1      30.869  28.756  22.975  1.00  0.00     0.000 A 
ATOM     25  C   UNL A   1      29.963  27.946  23.657  1.00  0.00     0.046 A 
ATOM     26  H   UNL A   1      30.320  26.343  24.962  1.00  0.00     0.167 HD
ATOM     27  C   UNL A   1      30.378  29.696  22.051  1.00  0.00     0.010 A 
ATOM     28  C   UNL A   1      28.579  28.054  23.492  1.00  0.00     0.026 A 
ATOM     29  C   UNL A   1      28.996  29.809  21.862  1.00  0.00     0.001 A 
ATOM     30  C   UNL A   1      28.113  29.007  22.582  1.00  0.00     0.002 A 
ENDBRANCH  13  21
ENDBRANCH   4   7
ENDBRANCH   2   3
ENDBRANCH   1   2
BRANCH   1  31
ATOM     31  C   UNL A   1      39.537  21.680  26.348  1.00  0.00     0.118 C 
BRANCH  31  32
ATOM     32  N   UNL A   1      40.893  21.652  25.801  1.00  0.00    -0.352 N 
ATOM     33  C   UNL A   1      41.805  22.693  25.750  1.00  0.00     0.251 C 
ATOM     34  H   UNL A   1      41.192  20.793  25.427  1.00  0.00     0.163 HD
ATOM     35  O   UNL A   1      42.757  22.662  24.995  1.00  0.00    -0.269 OA
BRANCH  33  36
ATOM     36  C   UNL A   1      41.584  23.854  26.634  1.00  0.00     0.039 A 
ATOM     37  C   UNL A   1      42.143  23.906  27.914  1.00  0.00     0.014 A 
ATOM     38  C   UNL A   1      40.850  24.925  26.132  1.00  0.00     0.014 A 
ATOM     39  C   UNL A   1      42.032  25.085  28.644  1.00  0.00     0.010 A 
ATOM     40  C   UNL A   1      40.888  26.133  26.776  1.00  0.00     0.010 A 
ATOM     41  C   UNL A   1      41.427  26.207  28.056  1.00  0.00    -0.014 A 
BRANCH  41  42
ATOM     42  C   UNL A   1      41.454  27.507  28.718  1.00  0.00     0.031 A 
ATOM     43  C   UNL A   1      42.578  28.392  28.304  1.00  0.00     0.074 A 
ATOM     44  C   UNL A   1      40.428  27.965  29.469  1.00  0.00     0.049 A 
ATOM     45  N   UNL A   1      43.539  28.833  29.044  1.00  0.00    -0.248 NA
ATOM     46  C   UNL A   1      42.725  28.727  26.878  1.00  0.00     0.031 C 
ATOM     47  C   UNL A   1      39.128  27.332  29.712  1.00  0.00     0.029 A 
ATOM     48  N   UNL A   1      40.287  29.171  30.083  1.00  0.00    -0.354 N 
ATOM     49  C   UNL A   1      44.306  29.663  28.231  1.00  0.00     0.074 A 
ATOM     50  C   UNL A   1      43.867  29.418  26.882  1.00  0.00     0.031 C 
ATOM     51  C   UNL A   1      38.261  28.247  30.195  1.00  0.00     0.029 A 
ATOM     52  C   UNL A   1      38.982  29.480  30.450  1.00  0.00     0.049 A 
ATOM     53  H   UNL A   1      41.045  29.775  30.253  1.00  0.00     0.167 HD
ATOM     54  C   UNL A   1      45.059  30.661  28.772  1.00  0.00     0.037 A 
ATOM     55  C   UNL A   1      38.522  30.675  30.896  1.00  0.00     0.037 A 
ATOM     56  C   UNL A   1      45.255  30.448  30.187  1.00  0.00     0.049 A 
ATOM     57  C   UNL A   1      39.700  31.438  31.386  1.00  0.00     0.074 A 
ATOM     58  C   UNL A   1      45.785  29.420  30.944  1.00  0.00     0.029 A 
ATOM     59  N   UNL A   1      44.522  31.208  31.065  1.00  0.00    -0.354 N 
ATOM     60  N   UNL A   1      40.383  31.110  32.446  1.00  0.00    -0.248 NA
ATOM     61  C   UNL A   1      40.397  32.289  30.431  1.00  0.00     0.031 C 
ATOM     62  C   UNL A   1      44.932  29.328  32.084  1.00  0.00     0.029 A 
ATOM     63  C   UNL A   1      43.993  30.355  31.997  1.00  0.00     0.049 A 
ATOM     64  H   UNL A   1      44.398  32.185  31.030  1.00  0.00     0.167 HD
ATOM     65  C   UNL A   1      41.705  31.314  32.084  1.00  0.00     0.074 A 
ATOM     66  C   UNL A   1      41.648  32.129  30.871  1.00  0.00     0.031 C 
ATOM     67  C   UNL A   1      42.707  30.557  32.621  1.00  0.00     0.037 A 
BRANCH  54  68
ATOM     68  C   UNL A   1      45.274  32.017  28.134  1.00  0.00     0.064 A 
ATOM     69  C   UNL A   1      44.149  32.824  27.862  1.00  0.00     0.173 A 
ATOM     70  C   UNL A   1      46.469  32.411  27.494  1.00  0.00     0.173 A 
ATOM     71  F   UNL A   1      42.958  32.546  28.413  1.00  0.00    -0.203 F 
ATOM     72  C   UNL A   1      44.194  33.866  26.932  1.00  0.00     0.198 A 
ATOM     73  C   UNL A   1      46.522  33.487  26.609  1.00  0.00     0.198 A 
ATOM     74  F   UNL A   1      47.605  31.715  27.601  1.00  0.00    -0.203 F 
ATOM     75  F   UNL A   1      43.065  34.505  26.596  1.00  0.00    -0.200 F 
ATOM     76  C   UNL A   1      45.377  34.189  26.297  1.00  0.00     0.200 A 
ATOM     77  F   UNL A   1      47.677  33.775  25.994  1.00  0.00    -0.200 F 
ATOM     78  F   UNL A   1      45.408  35.138  25.353  1.00  0.00    -0.200 F 
ENDBRANCH  54  68
BRANCH  55  79
ATOM     79  C   UNL A   1      37.194  31.302  30.683  1.00  0.00     0.064 A 
ATOM     80  C   UNL A   1      36.341  31.571  31.767  1.00  0.00     0.173 A 
ATOM     81  C   UNL A   1      36.846  31.902  29.456  1.00  0.00     0.173 A 
ATOM     82  F   UNL A   1      36.615  31.074  32.982  1.00  0.00    -0.203 F 
ATOM     83  C   UNL A   1      35.232  32.416  31.640  1.00  0.00     0.198 A 
ATOM     84  C   UNL A   1      35.733  32.736  29.329  1.00  0.00     0.198 A 
ATOM     85  F   UNL A   1      37.630  31.772  28.377  1.00  0.00    -0.203 F 
ATOM     86  F   UNL A   1      34.485  32.704  32.716  1.00  0.00    -0.200 F 
ATOM     87  C   UNL A   1      34.936  33.008  30.424  1.00  0.00     0.200 A 
ATOM     88  F   UNL A   1      35.479  33.328  28.153  1.00  0.00    -0.200 F 
ATOM     89  F   UNL A   1      33.915  33.867  30.318  1.00  0.00    -0.200 F 
ENDBRANCH  55  79
BRANCH  67  90
ATOM     90  C   UNL A   1      42.386  29.689  33.805  1.00  0.00     0.064 A 
ATOM     91  C   UNL A   1      41.859  28.388  33.715  1.00  0.00     0.173 A 
ATOM     92  C   UNL A   1      42.769  30.138  35.076  1.00  0.00     0.173 A 
ATOM     93  F   UNL A   1      41.563  27.841  32.530  1.00  0.00    -0.203 F 
ATOM     94  C   UNL A   1      41.683  27.597  34.848  1.00  0.00     0.198 A 
ATOM     95  C   UNL A   1      42.629  29.331  36.201  1.00  0.00     0.198 A 
ATOM     96  F   UNL A   1      43.331  31.349  35.219  1.00  0.00    -0.203 F 
ATOM     97  F   UNL A   1      41.165  26.364  34.736  1.00  0.00    -0.200 F 
ATOM     98  C   UNL A   1      42.076  28.066  36.090  1.00  0.00     0.200 A 
ATOM     99  F   UNL A   1      43.059  29.772  37.391  1.00  0.00    -0.200 F 
ATOM    100  F   UNL A   1      41.947  27.292  37.175  1.00  0.00    -0.200 F 
ENDBRANCH  67  90
ENDBRANCH  41  42
ENDBRANCH  33  36
ENDBRANCH  31  32
ENDBRANCH   1  31
TORSDOF 12
ENDMDL
MODEL 3
REMARK VINA RESULT:     -15.2      2.947      7.926
REMARK SMILES Cc1cnn(C2(C(=O)NCCCNC(=O)c3ccc(-c4c5nc(c(-c6c(F)c(F)c(F)c(F)c6F)c6ccc([nH]6)c(-c6c(F)c(F)c(F)c(F)c6F)c6nc(c(-c7c(F)c(F)c(F)c(F)c7F)c7ccc4[nH]7)C=C6)C=C5)cc3)CCN(C(=O)c3cc4ccccc4[nH]3)CC2)c1
REMARK SMILES IDX 11 1 10 2 9 3 7 4 8 5 6 7 79 8 94 9 80 10 93 11 81 12 82 13
REMARK SMILES IDX 83 14 5 15 1 16 2 17 3 18 95 19 4 20 84 21 85 22 92 23 86 24
REMARK SMILES IDX 91 25 87 27 90 28 88 29 89 30 12 31 13 32 14 33 15 35 16 36
REMARK SMILES IDX 17 37 78 38 18 39 77 40 19 41 20 42 21 43 71 44 22 45 76 46
REMARK SMILES IDX 70 47 72 48 23 49 75 50 69 51 68 52 24 54 56 55 36 56 55 57
REMARK SMILES IDX 37 58 40 59 54 60 73 61 38 62 39 63 53 65 74 66 41 67 25 68
REMARK SMILES IDX 26 69 34 70 27 71 28 72 32 73 35 74 29 75 30 76 33 77 31 78
REMARK SMILES IDX 57 79 58 80 66 81 59 82 60 83 64 84 67 85 61 86 62 87 65 88
REMARK SMILES IDX 63 89 42 90 43 91 51 92 44 93 45 94 49 95 52 96 46 97 47 98
REMARK SMILES IDX 50 99 48 100
REMARK H PARENT 9 6 92 26 13 34 72 53 40 64
REMARK Flexibility Score: inf
ROOT
ATOM      1  C   UNL A   1      37.878  19.789  24.996  1.00  0.00     0.042 C 
ENDROOT
BRANCH   1   2
ATOM      2  C   UNL A   1      36.706  20.765  25.129  1.00  0.00     0.117 C 
BRANCH   2   3
ATOM      3  N   UNL A   1      36.655  21.785  24.081  1.00  0.00    -0.354 N 
ATOM      4  C   UNL A   1      35.688  22.691  23.683  1.00  0.00     0.248 C 
ATOM      5  O   UNL A   1      36.046  23.401  22.743  1.00  0.00    -0.272 OA
ATOM      6  H   UNL A   1      37.480  21.836  23.546  1.00  0.00     0.163 HD
BRANCH   4   7
ATOM      7  C   UNL A   1      34.289  22.739  24.384  1.00  0.00     0.144 C 
ATOM      8  C   UNL A   1      34.551  23.337  25.792  1.00  0.00     0.062 C 
ATOM      9  C   UNL A   1      33.346  23.544  23.449  1.00  0.00     0.062 C 
ATOM     10  C   UNL A   1      33.437  24.200  26.353  1.00  0.00     0.123 C 
ATOM     11  C   UNL A   1      32.291  24.378  24.160  1.00  0.00     0.123 C 
ATOM     12  N   UNL A   1      32.825  25.045  25.344  1.00  0.00    -0.337 N 
ATOM     13  C   UNL A   1      32.738  26.417  25.579  1.00  0.00     0.270 C 
ATOM     14  O   UNL A   1      33.479  26.984  26.378  1.00  0.00    -0.267 OA
BRANCH   7  15
ATOM     15  N   UNL A   1      33.615  21.415  24.593  1.00  0.00    -0.257 N 
ATOM     16  C   UNL A   1      32.224  18.210  23.487  1.00  0.00     0.048 C 
ATOM     17  C   UNL A   1      32.740  19.412  24.176  1.00  0.00    -0.013 A 
ATOM     18  C   UNL A   1      32.940  19.641  25.549  1.00  0.00     0.138 A 
ATOM     19  C   UNL A   1      33.161  20.582  23.592  1.00  0.00     0.113 A 
ATOM     20  N   UNL A   1      33.476  20.837  25.798  1.00  0.00    -0.180 NA
ENDBRANCH   7  15
BRANCH  13  21
ATOM     21  C   UNL A   1      31.768  27.149  24.805  1.00  0.00     0.105 A 
ATOM     22  C   UNL A   1      30.392  27.007  24.730  1.00  0.00     0.042 A 
ATOM     23  N   UNL A   1      32.103  28.209  24.000  1.00  0.00    -0.351 N 
ATOM     24  C   UNL A   1      29.904  27.937  23.776  1.00  0.00     0.000 A 
ATOM     25  C   UNL A   1      31.004  28.647  23.300  1.00  0.00     0.046 A 
ATOM     26  H   UNL A   1      33.003  28.602  23.934  1.00  0.00     0.167 HD
ATOM     27  C   UNL A   1      28.628  28.235  23.263  1.00  0.00     0.010 A 
ATOM     28  C   UNL A   1      30.901  29.621  22.301  1.00  0.00     0.026 A 
ATOM     29  C   UNL A   1      28.504  29.217  22.274  1.00  0.00     0.001 A 
ATOM     30  C   UNL A   1      29.626  29.890  21.795  1.00  0.00     0.002 A 
ENDBRANCH  13  21
ENDBRANCH   4   7
ENDBRANCH   2   3
ENDBRANCH   1   2
BRANCH   1  31
ATOM     31  C   UNL A   1      39.102  20.214  25.785  1.00  0.00     0.118 C 
BRANCH  31  32
ATOM     32  N   UNL A   1      40.177  19.222  25.767  1.00  0.00    -0.352 N 
ATOM     33  C   UNL A   1      41.532  19.442  25.946  1.00  0.00     0.251 C 
ATOM     34  H   UNL A   1      39.904  18.290  25.610  1.00  0.00     0.163 HD
ATOM     35  O   UNL A   1      42.357  18.623  25.590  1.00  0.00    -0.269 OA
BRANCH  33  36
ATOM     36  C   UNL A   1      41.953  20.710  26.574  1.00  0.00     0.039 A 
ATOM     37  C   UNL A   1      42.336  21.808  25.799  1.00  0.00     0.014 A 
ATOM     38  C   UNL A   1      41.902  20.799  27.961  1.00  0.00     0.014 A 
ATOM     39  C   UNL A   1      42.575  23.023  26.434  1.00  0.00     0.010 A 
ATOM     40  C   UNL A   1      41.971  22.027  28.564  1.00  0.00     0.010 A 
ATOM     41  C   UNL A   1      42.361  23.133  27.817  1.00  0.00    -0.014 A 
BRANCH  41  42
ATOM     42  C   UNL A   1      42.425  24.428  28.485  1.00  0.00     0.031 A 
ATOM     43  C   UNL A   1      41.244  25.304  28.255  1.00  0.00     0.074 A 
ATOM     44  C   UNL A   1      43.360  24.724  29.415  1.00  0.00     0.049 A 
ATOM     45  N   UNL A   1      41.224  26.452  27.664  1.00  0.00    -0.248 NA
ATOM     46  C   UNL A   1      39.908  24.798  28.611  1.00  0.00     0.031 C 
ATOM     47  C   UNL A   1      44.401  23.850  29.966  1.00  0.00     0.029 A 
ATOM     48  N   UNL A   1      43.499  25.854  30.161  1.00  0.00    -0.354 N 
ATOM     49  C   UNL A   1      39.912  26.908  27.744  1.00  0.00     0.074 A 
ATOM     50  C   UNL A   1      39.122  25.783  28.170  1.00  0.00     0.031 C 
ATOM     51  C   UNL A   1      44.883  24.385  31.108  1.00  0.00     0.029 A 
ATOM     52  C   UNL A   1      44.310  25.707  31.280  1.00  0.00     0.049 A 
ATOM     53  H   UNL A   1      43.061  26.704  29.928  1.00  0.00     0.167 HD
ATOM     54  C   UNL A   1      39.636  28.242  27.694  1.00  0.00     0.037 A 
ATOM     55  C   UNL A   1      44.470  26.595  32.293  1.00  0.00     0.037 A 
ATOM     56  C   UNL A   1      40.756  28.977  27.154  1.00  0.00     0.049 A 
ATOM     57  C   UNL A   1      44.033  27.919  31.783  1.00  0.00     0.074 A 
ATOM     58  C   UNL A   1      41.472  28.917  25.973  1.00  0.00     0.029 A 
ATOM     59  N   UNL A   1      41.547  29.685  28.026  1.00  0.00    -0.354 N 
ATOM     60  N   UNL A   1      44.674  28.588  30.865  1.00  0.00    -0.248 NA
ATOM     61  C   UNL A   1      42.633  28.280  31.955  1.00  0.00     0.031 C 
ATOM     62  C   UNL A   1      42.830  29.125  26.358  1.00  0.00     0.029 A 
ATOM     63  C   UNL A   1      42.850  29.384  27.728  1.00  0.00     0.049 A 
ATOM     64  H   UNL A   1      41.235  30.295  28.734  1.00  0.00     0.167 HD
ATOM     65  C   UNL A   1      43.678  29.104  30.051  1.00  0.00     0.074 A 
ATOM     66  C   UNL A   1      42.444  28.964  30.823  1.00  0.00     0.031 C 
ATOM     67  C   UNL A   1      43.896  29.315  28.720  1.00  0.00     0.037 A 
BRANCH  54  68
ATOM     68  C   UNL A   1      38.544  28.924  28.489  1.00  0.00     0.064 A 
ATOM     69  C   UNL A   1      37.733  29.881  27.841  1.00  0.00     0.173 A 
ATOM     70  C   UNL A   1      38.471  28.925  29.898  1.00  0.00     0.173 A 
ATOM     71  F   UNL A   1      37.720  29.974  26.503  1.00  0.00    -0.203 F 
ATOM     72  C   UNL A   1      37.003  30.835  28.554  1.00  0.00     0.198 A 
ATOM     73  C   UNL A   1      37.698  29.845  30.605  1.00  0.00     0.198 A 
ATOM     74  F   UNL A   1      39.224  28.123  30.657  1.00  0.00    -0.203 F 
ATOM     75  F   UNL A   1      36.370  31.816  27.896  1.00  0.00    -0.200 F 
ATOM     76  C   UNL A   1      36.996  30.825  29.936  1.00  0.00     0.200 A 
ATOM     77  F   UNL A   1      37.715  29.825  31.945  1.00  0.00    -0.200 F 
ATOM     78  F   UNL A   1      36.359  31.781  30.622  1.00  0.00    -0.200 F 
ENDBRANCH  54  68
BRANCH  55  79
ATOM     79  C   UNL A   1      44.715  26.332  33.733  1.00  0.00     0.064 A 
ATOM     80  C   UNL A   1      45.952  26.643  34.323  1.00  0.00     0.173 A 
ATOM     81  C   UNL A   1      43.662  26.032  34.621  1.00  0.00     0.173 A 
ATOM     82  F   UNL A   1      47.000  26.979  33.557  1.00  0.00    -0.203 F 
ATOM     83  C   UNL A   1      46.115  26.687  35.713  1.00  0.00     0.198 A 
ATOM     84  C   UNL A   1      43.829  26.066  36.007  1.00  0.00     0.198 A 
ATOM     85  F   UNL A   1      42.424  25.793  34.168  1.00  0.00    -0.203 F 
ATOM     86  F   UNL A   1      47.292  27.058  36.236  1.00  0.00    -0.200 F 
ATOM     87  C   UNL A   1      45.051  26.410  36.554  1.00  0.00     0.200 A 
ATOM     88  F   UNL A   1      42.781  25.828  36.808  1.00  0.00    -0.200 F 
ATOM     89  F   UNL A   1      45.189  26.517  37.882  1.00  0.00    -0.200 F 
ENDBRANCH  55  79
BRANCH  67  90
ATOM     90  C   UNL A   1      45.308  29.236  28.209  1.00  0.00     0.064 A 
ATOM     91  C   UNL A   1      45.929  28.051  27.775  1.00  0.00     0.173 A 
ATOM     92  C   UNL A   1      46.005  30.435  28.011  1.00  0.00     0.173 A 
ATOM     93  F   UNL A   1      45.293  26.875  27.831  1.00  0.00    -0.203 F 
ATOM     94  C   UNL A   1      47.205  28.065  27.214  1.00  0.00     0.198 A 
ATOM     95  C   UNL A   1      47.263  30.451  27.414  1.00  0.00     0.198 A 
ATOM     96  F   UNL A   1      45.442  31.605  28.352  1.00  0.00    -0.203 F 
ATOM     97  F   UNL A   1      47.780  26.919  26.822  1.00  0.00    -0.200 F 
ATOM     98  C   UNL A   1      47.867  29.266  27.026  1.00  0.00     0.200 A 
ATOM     99  F   UNL A   1      47.876  31.621  27.189  1.00  0.00    -0.200 F 
ATOM    100  F   UNL A   1      49.076  29.286  26.449  1.00  0.00    -0.200 F 
ENDBRANCH  67  90
ENDBRANCH  41  42
ENDBRANCH  33  36
ENDBRANCH  31  32
ENDBRANCH   1  31
TORSDOF 12
ENDMDL
