MODEL 1
REMARK VINA RESULT:     -11.4      0.000      0.000
REMARK SMILES Cc1cc(S(=O)(=O)N[C@H](CO)C(C)C)sc1C(=O)NCCCNC(=O)c1ccc(-c2c3nc(c(-c4c(F)c(F)c(F)c(F)c4F)c4ccc([nH]4)c(-c4c(F)c(F)c(F)c(F)c4F)c4nc(c(-c5c(F)c(F)c(F)c(F)c5F)c5ccc2[nH]5)C=C4)C=C3)cc1
REMARK SMILES IDX 17 1 18 2 19 3 16 5 1 6 2 7 3 8 4 9 15 10 5 11 6 12 7 13
REMARK SMILES IDX 8 14 9 16 12 17 13 18 14 19 10 20 11 21 20 23 21 24 22 25
REMARK SMILES IDX 23 26 24 27 25 29 26 30 27 31 88 32 28 33 87 34 29 35 30 36
REMARK SMILES IDX 31 37 81 38 32 39 86 40 80 41 82 42 33 43 85 44 79 45 78 46
REMARK SMILES IDX 34 48 66 49 46 50 65 51 47 52 50 53 64 54 83 55 48 56 49 57
REMARK SMILES IDX 63 59 84 60 51 61 35 62 36 63 44 64 37 65 38 66 42 67 45 68
REMARK SMILES IDX 39 69 40 70 43 71 41 72 67 73 68 74 76 75 69 76 70 77 74 78
REMARK SMILES IDX 77 79 71 80 72 81 75 82 73 83 52 84 53 85 61 86 54 87 55 88
REMARK SMILES IDX 59 89 62 90 56 91 57 92 60 93 58 94
REMARK H PARENT 19 4 8 15 11 22 23 28 82 47 50 58
REMARK Flexibility Score: inf
ROOT
ATOM      1  C   UNL A   1      31.468  29.233  24.578  1.00  0.00     0.261 C 
ATOM      2  O   UNL A   1      31.116  29.236  23.391  1.00  0.00    -0.268 OA
ATOM      3  N   UNL A   1      31.340  30.462  25.163  1.00  0.00    -0.351 N 
ATOM      4  H   UNL A   1      31.180  31.189  24.519  1.00  0.00     0.163 HD
ENDROOT
BRANCH   1   5
ATOM      5  C   UNL A   1      31.989  28.026  25.225  1.00  0.00     0.096 A 
ATOM      6  C   UNL A   1      34.161  28.482  26.630  1.00  0.00     0.046 C 
ATOM      7  C   UNL A   1      33.113  27.653  25.969  1.00  0.00    -0.026 A 
ATOM      8  C   UNL A   1      33.313  26.221  25.885  1.00  0.00     0.038 A 
ATOM      9  C   UNL A   1      32.354  25.580  25.136  1.00  0.00     0.135 A 
ATOM     10  S   UNL A   1      31.020  26.606  24.924  1.00  0.00    -0.117 S 
BRANCH   9  11
ATOM     11  S   UNL A   1      32.235  23.962  24.435  1.00  0.00     0.250 S 
ATOM     12  O   UNL A   1      30.886  23.518  24.718  1.00  0.00    -0.206 OA
ATOM     13  O   UNL A   1      32.706  24.102  23.076  1.00  0.00    -0.206 OA
BRANCH  11  14
ATOM     14  N   UNL A   1      33.313  22.935  25.220  1.00  0.00    -0.205 NA
ATOM     15  H   UNL A   1      32.895  22.725  26.126  1.00  0.00     0.141 HD
BRANCH  14  16
ATOM     16  C   UNL A   1      33.741  21.618  24.642  1.00  0.00     0.098 C 
BRANCH  16  17
ATOM     17  C   UNL A   1      35.270  21.477  24.460  1.00  0.00     0.003 C 
ATOM     18  C   UNL A   1      35.898  22.702  23.779  1.00  0.00     0.009 C 
ATOM     19  C   UNL A   1      35.991  21.274  25.797  1.00  0.00     0.009 C 
ENDBRANCH  16  17
BRANCH  16  20
ATOM     20  C   UNL A   1      33.086  20.459  25.424  1.00  0.00     0.176 C 
BRANCH  20  21
ATOM     21  O   UNL A   1      31.680  20.675  25.558  1.00  0.00    -0.395 OA
ATOM     22  H   UNL A   1      31.210  20.173  24.874  1.00  0.00     0.210 HD
ENDBRANCH  20  21
ENDBRANCH  16  20
ENDBRANCH  14  16
ENDBRANCH  11  14
ENDBRANCH   9  11
ENDBRANCH   1   5
BRANCH   3  23
ATOM     23  C   UNL A   1      31.393  30.904  26.532  1.00  0.00     0.118 C 
BRANCH  23  24
ATOM     24  C   UNL A   1      31.390  32.431  26.618  1.00  0.00     0.042 C 
BRANCH  24  25
ATOM     25  C   UNL A   1      32.714  33.021  27.104  1.00  0.00     0.118 C 
BRANCH  25  26
ATOM     26  N   UNL A   1      32.535  34.362  27.644  1.00  0.00    -0.352 N 
ATOM     27  C   UNL A   1      33.044  34.950  28.773  1.00  0.00     0.251 C 
ATOM     28  H   UNL A   1      31.948  34.944  27.107  1.00  0.00     0.163 HD
ATOM     29  O   UNL A   1      32.536  35.993  29.180  1.00  0.00    -0.269 OA
BRANCH  27  30
ATOM     30  C   UNL A   1      34.191  34.368  29.506  1.00  0.00     0.039 A 
ATOM     31  C   UNL A   1      35.481  34.576  29.000  1.00  0.00     0.014 A 
ATOM     32  C   UNL A   1      34.012  33.541  30.619  1.00  0.00     0.014 A 
ATOM     33  C   UNL A   1      36.585  33.988  29.625  1.00  0.00     0.010 A 
ATOM     34  C   UNL A   1      35.119  33.007  31.280  1.00  0.00     0.010 A 
ATOM     35  C   UNL A   1      36.413  33.213  30.782  1.00  0.00    -0.014 A 
BRANCH  35  36
ATOM     36  C   UNL A   1      37.574  32.590  31.469  1.00  0.00     0.031 A 
ATOM     37  C   UNL A   1      38.321  31.459  30.816  1.00  0.00     0.074 A 
ATOM     38  C   UNL A   1      37.920  33.002  32.703  1.00  0.00     0.049 A 
ATOM     39  N   UNL A   1      39.298  30.727  31.290  1.00  0.00    -0.248 NA
ATOM     40  C   UNL A   1      37.895  31.084  29.459  1.00  0.00     0.031 C 
ATOM     41  C   UNL A   1      37.252  34.062  33.457  1.00  0.00     0.029 A 
ATOM     42  N   UNL A   1      38.913  32.568  33.545  1.00  0.00    -0.354 N 
ATOM     43  C   UNL A   1      39.584  29.793  30.303  1.00  0.00     0.074 A 
ATOM     44  C   UNL A   1      38.654  30.025  29.219  1.00  0.00     0.031 C 
ATOM     45  C   UNL A   1      37.862  34.206  34.645  1.00  0.00     0.029 A 
ATOM     46  C   UNL A   1      38.941  33.229  34.748  1.00  0.00     0.049 A 
ATOM     47  H   UNL A   1      39.544  31.850  33.310  1.00  0.00     0.167 HD
ATOM     48  C   UNL A   1      40.547  28.840  30.295  1.00  0.00     0.037 A 
ATOM     49  C   UNL A   1      39.743  33.062  35.816  1.00  0.00     0.037 A 
ATOM     50  C   UNL A   1      41.497  28.634  31.357  1.00  0.00     0.049 A 
ATOM     51  C   UNL A   1      40.822  32.016  35.771  1.00  0.00     0.074 A 
ATOM     52  C   UNL A   1      42.544  27.732  31.418  1.00  0.00     0.029 A 
ATOM     53  N   UNL A   1      41.516  29.352  32.544  1.00  0.00    -0.354 N 
ATOM     54  N   UNL A   1      41.110  31.168  34.814  1.00  0.00    -0.248 NA
ATOM     55  C   UNL A   1      41.691  31.909  36.951  1.00  0.00     0.031 C 
ATOM     56  C   UNL A   1      43.181  27.884  32.656  1.00  0.00     0.029 A 
ATOM     57  C   UNL A   1      42.552  28.905  33.349  1.00  0.00     0.049 A 
ATOM     58  H   UNL A   1      40.887  30.072  32.779  1.00  0.00     0.167 HD
ATOM     59  C   UNL A   1      42.204  30.442  35.264  1.00  0.00     0.074 A 
ATOM     60  C   UNL A   1      42.537  30.959  36.577  1.00  0.00     0.031 C 
ATOM     61  C   UNL A   1      42.872  29.437  34.648  1.00  0.00     0.037 A 
BRANCH  48  62
ATOM     62  C   UNL A   1      40.623  27.944  29.093  1.00  0.00     0.064 A 
ATOM     63  C   UNL A   1      41.485  28.224  28.023  1.00  0.00     0.173 A 
ATOM     64  C   UNL A   1      39.850  26.776  29.024  1.00  0.00     0.173 A 
ATOM     65  F   UNL A   1      42.236  29.336  28.034  1.00  0.00    -0.203 F 
ATOM     66  C   UNL A   1      41.548  27.384  26.914  1.00  0.00     0.198 A 
ATOM     67  C   UNL A   1      39.935  25.923  27.927  1.00  0.00     0.198 A 
ATOM     68  F   UNL A   1      39.014  26.458  30.024  1.00  0.00    -0.203 F 
ATOM     69  F   UNL A   1      42.345  27.697  25.882  1.00  0.00    -0.200 F 
ATOM     70  C   UNL A   1      40.778  26.232  26.869  1.00  0.00     0.200 A 
ATOM     71  F   UNL A   1      39.197  24.805  27.889  1.00  0.00    -0.200 F 
ATOM     72  F   UNL A   1      40.843  25.422  25.804  1.00  0.00    -0.200 F 
ENDBRANCH  48  62
BRANCH  49  73
ATOM     73  C   UNL A   1      39.572  33.929  37.008  1.00  0.00     0.064 A 
ATOM     74  C   UNL A   1      38.838  33.488  38.116  1.00  0.00     0.173 A 
ATOM     75  C   UNL A   1      40.147  35.207  37.068  1.00  0.00     0.173 A 
ATOM     76  F   UNL A   1      38.253  32.281  38.095  1.00  0.00    -0.203 F 
ATOM     77  C   UNL A   1      38.673  34.298  39.239  1.00  0.00     0.198 A 
ATOM     78  C   UNL A   1      40.001  36.006  38.201  1.00  0.00     0.198 A 
ATOM     79  F   UNL A   1      40.863  35.671  36.035  1.00  0.00    -0.203 F 
ATOM     80  F   UNL A   1      37.938  33.865  40.272  1.00  0.00    -0.200 F 
ATOM     81  C   UNL A   1      39.261  35.554  39.282  1.00  0.00     0.200 A 
ATOM     82  F   UNL A   1      40.581  37.214  38.244  1.00  0.00    -0.200 F 
ATOM     83  F   UNL A   1      39.108  36.328  40.364  1.00  0.00    -0.200 F 
ENDBRANCH  49  73
BRANCH  61  84
ATOM     84  C   UNL A   1      44.044  28.849  35.373  1.00  0.00     0.064 A 
ATOM     85  C   UNL A   1      45.336  29.373  35.223  1.00  0.00     0.173 A 
ATOM     86  C   UNL A   1      43.866  27.775  36.257  1.00  0.00     0.173 A 
ATOM     87  F   UNL A   1      45.557  30.390  34.377  1.00  0.00    -0.203 F 
ATOM     88  C   UNL A   1      46.412  28.828  35.918  1.00  0.00     0.198 A 
ATOM     89  C   UNL A   1      44.941  27.248  36.967  1.00  0.00     0.198 A 
ATOM     90  F   UNL A   1      42.649  27.242  36.437  1.00  0.00    -0.203 F 
ATOM     91  F   UNL A   1      47.645  29.319  35.729  1.00  0.00    -0.200 F 
ATOM     92  C   UNL A   1      46.214  27.771  36.793  1.00  0.00     0.200 A 
ATOM     93  F   UNL A   1      44.746  26.232  37.819  1.00  0.00    -0.200 F 
ATOM     94  F   UNL A   1      47.250  27.250  37.463  1.00  0.00    -0.200 F 
ENDBRANCH  61  84
ENDBRANCH  35  36
ENDBRANCH  27  30
ENDBRANCH  25  26
ENDBRANCH  24  25
ENDBRANCH  23  24
ENDBRANCH   3  23
TORSDOF 16
ENDMDL
MODEL 2
REMARK VINA RESULT:     -11.2      3.555      8.792
REMARK SMILES Cc1cc(S(=O)(=O)N[C@H](CO)C(C)C)sc1C(=O)NCCCNC(=O)c1ccc(-c2c3nc(c(-c4c(F)c(F)c(F)c(F)c4F)c4ccc([nH]4)c(-c4c(F)c(F)c(F)c(F)c4F)c4nc(c(-c5c(F)c(F)c(F)c(F)c5F)c5ccc2[nH]5)C=C4)C=C3)cc1
REMARK SMILES IDX 17 1 18 2 19 3 16 5 1 6 2 7 3 8 4 9 15 10 5 11 6 12 7 13
REMARK SMILES IDX 8 14 9 16 12 17 13 18 14 19 10 20 11 21 20 23 21 24 22 25
REMARK SMILES IDX 23 26 24 27 25 29 26 30 27 31 88 32 28 33 87 34 29 35 30 36
REMARK SMILES IDX 31 37 81 38 32 39 86 40 80 41 82 42 33 43 85 44 79 45 78 46
REMARK SMILES IDX 34 48 66 49 46 50 65 51 47 52 50 53 64 54 83 55 48 56 49 57
REMARK SMILES IDX 63 59 84 60 51 61 35 62 36 63 44 64 37 65 38 66 42 67 45 68
REMARK SMILES IDX 39 69 40 70 43 71 41 72 67 73 68 74 76 75 69 76 70 77 74 78
REMARK SMILES IDX 77 79 71 80 72 81 75 82 73 83 52 84 53 85 61 86 54 87 55 88
REMARK SMILES IDX 59 89 62 90 56 91 57 92 60 93 58 94
REMARK H PARENT 19 4 8 15 11 22 23 28 82 47 50 58
REMARK Flexibility Score: inf
ROOT
ATOM      1  C   UNL A   1      30.678  28.604  22.693  1.00  0.00     0.261 C 
ATOM      2  O   UNL A   1      30.139  29.194  21.747  1.00  0.00    -0.268 OA
ATOM      3  N   UNL A   1      31.350  29.456  23.524  1.00  0.00    -0.351 N 
ATOM      4  H   UNL A   1      31.470  30.358  23.149  1.00  0.00     0.163 HD
ENDROOT
BRANCH   1   5
ATOM      5  C   UNL A   1      30.600  27.149  22.839  1.00  0.00     0.096 A 
ATOM      6  C   UNL A   1      28.519  26.375  24.242  1.00  0.00     0.046 C 
ATOM      7  C   UNL A   1      29.818  26.217  23.530  1.00  0.00    -0.026 A 
ATOM      8  C   UNL A   1      30.543  24.971  23.680  1.00  0.00     0.038 A 
ATOM      9  C   UNL A   1      31.787  24.992  23.094  1.00  0.00     0.135 A 
ATOM     10  S   UNL A   1      31.888  26.301  22.020  1.00  0.00    -0.117 S 
BRANCH   9  11
ATOM     11  S   UNL A   1      33.203  23.940  23.204  1.00  0.00     0.250 S 
ATOM     12  O   UNL A   1      33.241  23.212  21.953  1.00  0.00    -0.206 OA
ATOM     13  O   UNL A   1      34.290  24.808  23.597  1.00  0.00    -0.206 OA
BRANCH  11  14
ATOM     14  N   UNL A   1      32.983  22.839  24.459  1.00  0.00    -0.205 NA
ATOM     15  H   UNL A   1      31.975  22.780  24.608  1.00  0.00     0.141 HD
BRANCH  14  16
ATOM     16  C   UNL A   1      33.479  21.425  24.390  1.00  0.00     0.098 C 
BRANCH  16  17
ATOM     17  C   UNL A   1      34.789  21.179  25.174  1.00  0.00     0.003 C 
ATOM     18  C   UNL A   1      36.020  21.759  24.463  1.00  0.00     0.009 C 
ATOM     19  C   UNL A   1      34.740  21.788  26.580  1.00  0.00     0.009 C 
ENDBRANCH  16  17
BRANCH  16  20
ATOM     20  C   UNL A   1      32.338  20.446  24.738  1.00  0.00     0.176 C 
BRANCH  20  21
ATOM     21  O   UNL A   1      31.401  21.061  25.623  1.00  0.00    -0.395 OA
ATOM     22  H   UNL A   1      30.498  20.843  25.341  1.00  0.00     0.210 HD
ENDBRANCH  20  21
ENDBRANCH  16  20
ENDBRANCH  14  16
ENDBRANCH  11  14
ENDBRANCH   9  11
ENDBRANCH   1   5
BRANCH   3  23
ATOM     23  C   UNL A   1      31.919  29.297  24.837  1.00  0.00     0.118 C 
BRANCH  23  24
ATOM     24  C   UNL A   1      33.238  28.525  24.777  1.00  0.00     0.042 C 
BRANCH  24  25
ATOM     25  C   UNL A   1      34.060  28.613  26.063  1.00  0.00     0.118 C 
BRANCH  25  26
ATOM     26  N   UNL A   1      33.867  29.892  26.733  1.00  0.00    -0.352 N 
ATOM     27  C   UNL A   1      34.585  30.499  27.731  1.00  0.00     0.251 C 
ATOM     28  H   UNL A   1      33.090  30.407  26.416  1.00  0.00     0.163 HD
ATOM     29  O   UNL A   1      34.081  31.442  28.336  1.00  0.00    -0.269 OA
BRANCH  27  30
ATOM     30  C   UNL A   1      35.952  30.056  28.089  1.00  0.00     0.039 A 
ATOM     31  C   UNL A   1      36.171  29.541  29.374  1.00  0.00     0.014 A 
ATOM     32  C   UNL A   1      37.035  30.230  27.223  1.00  0.00     0.014 A 
ATOM     33  C   UNL A   1      37.459  29.173  29.774  1.00  0.00     0.010 A 
ATOM     34  C   UNL A   1      38.309  29.803  27.599  1.00  0.00     0.010 A 
ATOM     35  C   UNL A   1      38.536  29.284  28.882  1.00  0.00    -0.014 A 
BRANCH  35  36
ATOM     36  C   UNL A   1      39.910  28.887  29.283  1.00  0.00     0.031 A 
ATOM     37  C   UNL A   1      40.737  29.795  30.151  1.00  0.00     0.074 A 
ATOM     38  C   UNL A   1      40.435  27.738  28.818  1.00  0.00     0.049 A 
ATOM     39  N   UNL A   1      41.984  29.671  30.533  1.00  0.00    -0.248 NA
ATOM     40  C   UNL A   1      40.082  31.021  30.635  1.00  0.00     0.031 C 
ATOM     41  C   UNL A   1      39.750  26.791  27.939  1.00  0.00     0.029 A 
ATOM     42  N   UNL A   1      41.674  27.178  29.012  1.00  0.00    -0.354 N 
ATOM     43  C   UNL A   1      42.267  30.808  31.276  1.00  0.00     0.074 A 
ATOM     44  C   UNL A   1      41.077  31.631  31.262  1.00  0.00     0.031 C 
ATOM     45  C   UNL A   1      40.570  25.760  27.680  1.00  0.00     0.029 A 
ATOM     46  C   UNL A   1      41.848  25.989  28.347  1.00  0.00     0.049 A 
ATOM     47  H   UNL A   1      42.370  27.589  29.573  1.00  0.00     0.167 HD
ATOM     48  C   UNL A   1      43.413  31.130  31.925  1.00  0.00     0.037 A 
ATOM     49  C   UNL A   1      42.921  25.178  28.280  1.00  0.00     0.037 A 
ATOM     50  C   UNL A   1      44.583  30.293  31.971  1.00  0.00     0.049 A 
ATOM     51  C   UNL A   1      44.170  25.543  29.032  1.00  0.00     0.074 A 
ATOM     52  C   UNL A   1      45.772  30.506  32.648  1.00  0.00     0.029 A 
ATOM     53  N   UNL A   1      44.707  29.077  31.316  1.00  0.00    -0.354 N 
ATOM     54  N   UNL A   1      44.411  26.601  29.767  1.00  0.00    -0.248 NA
ATOM     55  C   UNL A   1      45.292  24.598  28.952  1.00  0.00     0.031 C 
ATOM     56  C   UNL A   1      46.626  29.429  32.379  1.00  0.00     0.029 A 
ATOM     57  C   UNL A   1      45.957  28.531  31.565  1.00  0.00     0.049 A 
ATOM     58  H   UNL A   1      44.010  28.663  30.757  1.00  0.00     0.167 HD
ATOM     59  C   UNL A   1      45.701  26.441  30.254  1.00  0.00     0.074 A 
ATOM     60  C   UNL A   1      46.187  25.176  29.742  1.00  0.00     0.031 C 
ATOM     61  C   UNL A   1      46.419  27.268  31.052  1.00  0.00     0.037 A 
BRANCH  48  62
ATOM     62  C   UNL A   1      43.454  32.446  32.645  1.00  0.00     0.064 A 
ATOM     63  C   UNL A   1      43.083  32.556  33.994  1.00  0.00     0.173 A 
ATOM     64  C   UNL A   1      43.897  33.604  31.990  1.00  0.00     0.173 A 
ATOM     65  F   UNL A   1      42.639  31.482  34.662  1.00  0.00    -0.203 F 
ATOM     66  C   UNL A   1      43.128  33.783  34.650  1.00  0.00     0.198 A 
ATOM     67  C   UNL A   1      43.967  34.824  32.657  1.00  0.00     0.198 A 
ATOM     68  F   UNL A   1      44.269  33.552  30.702  1.00  0.00    -0.203 F 
ATOM     69  F   UNL A   1      42.724  33.874  35.926  1.00  0.00    -0.200 F 
ATOM     70  C   UNL A   1      43.574  34.915  33.985  1.00  0.00     0.200 A 
ATOM     71  F   UNL A   1      44.408  35.914  32.015  1.00  0.00    -0.200 F 
ATOM     72  F   UNL A   1      43.621  36.093  34.619  1.00  0.00    -0.200 F 
ENDBRANCH  48  62
BRANCH  49  73
ATOM     73  C   UNL A   1      42.846  23.924  27.490  1.00  0.00     0.064 A 
ATOM     74  C   UNL A   1      43.224  23.902  26.141  1.00  0.00     0.173 A 
ATOM     75  C   UNL A   1      42.408  22.724  28.068  1.00  0.00     0.173 A 
ATOM     76  F   UNL A   1      43.631  25.031  25.542  1.00  0.00    -0.203 F 
ATOM     77  C   UNL A   1      43.157  22.728  25.394  1.00  0.00     0.198 A 
ATOM     78  C   UNL A   1      42.363  21.544  27.326  1.00  0.00     0.198 A 
ATOM     79  F   UNL A   1      42.041  22.693  29.356  1.00  0.00    -0.203 F 
ATOM     80  F   UNL A   1      43.493  22.741  24.098  1.00  0.00    -0.200 F 
ATOM     81  C   UNL A   1      42.732  21.549  25.989  1.00  0.00     0.200 A 
ATOM     82  F   UNL A   1      41.964  20.405  27.907  1.00  0.00    -0.200 F 
ATOM     83  F   UNL A   1      42.674  20.419  25.272  1.00  0.00    -0.200 F 
ENDBRANCH  49  73
BRANCH  61  84
ATOM     84  C   UNL A   1      47.795  26.818  31.442  1.00  0.00     0.064 A 
ATOM     85  C   UNL A   1      48.009  26.002  32.562  1.00  0.00     0.173 A 
ATOM     86  C   UNL A   1      48.905  27.177  30.664  1.00  0.00     0.173 A 
ATOM     87  F   UNL A   1      46.978  25.647  33.344  1.00  0.00    -0.203 F 
ATOM     88  C   UNL A   1      49.290  25.577  32.900  1.00  0.00     0.198 A 
ATOM     89  C   UNL A   1      50.182  26.731  30.992  1.00  0.00     0.198 A 
ATOM     90  F   UNL A   1      48.750  27.952  29.581  1.00  0.00    -0.203 F 
ATOM     91  F   UNL A   1      49.477  24.830  33.997  1.00  0.00    -0.200 F 
ATOM     92  C   UNL A   1      50.374  25.936  32.113  1.00  0.00     0.200 A 
ATOM     93  F   UNL A   1      51.227  27.071  30.226  1.00  0.00    -0.200 F 
ATOM     94  F   UNL A   1      51.607  25.523  32.438  1.00  0.00    -0.200 F 
ENDBRANCH  61  84
ENDBRANCH  35  36
ENDBRANCH  27  30
ENDBRANCH  25  26
ENDBRANCH  24  25
ENDBRANCH  23  24
ENDBRANCH   3  23
TORSDOF 16
ENDMDL
MODEL 3
REMARK VINA RESULT:     -11.1      0.869      1.953
REMARK SMILES Cc1cc(S(=O)(=O)N[C@H](CO)C(C)C)sc1C(=O)NCCCNC(=O)c1ccc(-c2c3nc(c(-c4c(F)c(F)c(F)c(F)c4F)c4ccc([nH]4)c(-c4c(F)c(F)c(F)c(F)c4F)c4nc(c(-c5c(F)c(F)c(F)c(F)c5F)c5ccc2[nH]5)C=C4)C=C3)cc1
REMARK SMILES IDX 17 1 18 2 19 3 16 5 1 6 2 7 3 8 4 9 15 10 5 11 6 12 7 13
REMARK SMILES IDX 8 14 9 16 12 17 13 18 14 19 10 20 11 21 20 23 21 24 22 25
REMARK SMILES IDX 23 26 24 27 25 29 26 30 27 31 88 32 28 33 87 34 29 35 30 36
REMARK SMILES IDX 31 37 81 38 32 39 86 40 80 41 82 42 33 43 85 44 79 45 78 46
REMARK SMILES IDX 34 48 66 49 46 50 65 51 47 52 50 53 64 54 83 55 48 56 49 57
REMARK SMILES IDX 63 59 84 60 51 61 35 62 36 63 44 64 37 65 38 66 42 67 45 68
REMARK SMILES IDX 39 69 40 70 43 71 41 72 67 73 68 74 76 75 69 76 70 77 74 78
REMARK SMILES IDX 77 79 71 80 72 81 75 82 73 83 52 84 53 85 61 86 54 87 55 88
REMARK SMILES IDX 59 89 62 90 56 91 57 92 60 93 58 94
REMARK H PARENT 19 4 8 15 11 22 23 28 82 47 50 58
REMARK Flexibility Score: inf
ROOT
ATOM      1  C   UNL A   1      31.213  29.169  24.646  1.00  0.00     0.261 C 
ATOM      2  O   UNL A   1      30.436  29.142  23.683  1.00  0.00    -0.268 OA
ATOM      3  N   UNL A   1      31.155  30.349  25.331  1.00  0.00    -0.351 N 
ATOM      4  H   UNL A   1      30.664  31.057  24.855  1.00  0.00     0.163 HD
ENDROOT
BRANCH   1   5
ATOM      5  C   UNL A   1      32.101  28.043  24.951  1.00  0.00     0.096 A 
ATOM      6  C   UNL A   1      34.354  28.129  23.604  1.00  0.00     0.046 C 
ATOM      7  C   UNL A   1      33.317  27.529  24.490  1.00  0.00    -0.026 A 
ATOM      8  C   UNL A   1      33.424  26.124  24.830  1.00  0.00     0.038 A 
ATOM      9  C   UNL A   1      32.343  25.651  25.535  1.00  0.00     0.135 A 
ATOM     10  S   UNL A   1      31.451  26.955  26.151  1.00  0.00    -0.117 S 
BRANCH   9  11
ATOM     11  S   UNL A   1      31.767  24.029  25.940  1.00  0.00     0.250 S 
ATOM     12  O   UNL A   1      31.605  24.026  27.379  1.00  0.00    -0.206 OA
ATOM     13  O   UNL A   1      30.644  23.795  25.060  1.00  0.00    -0.206 OA
BRANCH  11  14
ATOM     14  N   UNL A   1      32.948  22.901  25.531  1.00  0.00    -0.205 NA
ATOM     15  H   UNL A   1      33.035  22.279  26.335  1.00  0.00     0.141 HD
BRANCH  14  16
ATOM     16  C   UNL A   1      32.836  22.014  24.327  1.00  0.00     0.098 C 
BRANCH  16  17
ATOM     17  C   UNL A   1      33.730  22.446  23.141  1.00  0.00     0.003 C 
ATOM     18  C   UNL A   1      33.063  23.510  22.257  1.00  0.00     0.009 C 
ATOM     19  C   UNL A   1      35.073  23.015  23.612  1.00  0.00     0.009 C 
ENDBRANCH  16  17
BRANCH  16  20
ATOM     20  C   UNL A   1      33.002  20.537  24.740  1.00  0.00     0.176 C 
BRANCH  20  21
ATOM     21  O   UNL A   1      31.822  20.061  25.391  1.00  0.00    -0.395 OA
ATOM     22  H   UNL A   1      31.576  19.198  25.023  1.00  0.00     0.210 HD
ENDBRANCH  20  21
ENDBRANCH  16  20
ENDBRANCH  14  16
ENDBRANCH  11  14
ENDBRANCH   9  11
ENDBRANCH   1   5
BRANCH   3  23
ATOM     23  C   UNL A   1      31.669  30.765  26.610  1.00  0.00     0.118 C 
BRANCH  23  24
ATOM     24  C   UNL A   1      31.467  32.266  26.825  1.00  0.00     0.042 C 
BRANCH  24  25
ATOM     25  C   UNL A   1      32.773  33.054  26.926  1.00  0.00     0.118 C 
BRANCH  25  26
ATOM     26  N   UNL A   1      32.591  34.295  27.664  1.00  0.00    -0.352 N 
ATOM     27  C   UNL A   1      33.146  34.730  28.840  1.00  0.00     0.251 C 
ATOM     28  H   UNL A   1      31.963  34.930  27.249  1.00  0.00     0.163 HD
ATOM     29  O   UNL A   1      32.637  35.686  29.420  1.00  0.00    -0.269 OA
BRANCH  27  30
ATOM     30  C   UNL A   1      34.345  34.084  29.422  1.00  0.00     0.039 A 
ATOM     31  C   UNL A   1      34.162  33.066  30.368  1.00  0.00     0.014 A 
ATOM     32  C   UNL A   1      35.637  34.529  29.131  1.00  0.00     0.014 A 
ATOM     33  C   UNL A   1      35.267  32.476  30.989  1.00  0.00     0.010 A 
ATOM     34  C   UNL A   1      36.742  33.898  29.703  1.00  0.00     0.010 A 
ATOM     35  C   UNL A   1      36.568  32.876  30.648  1.00  0.00    -0.014 A 
BRANCH  35  36
ATOM     36  C   UNL A   1      37.755  32.254  31.287  1.00  0.00     0.031 A 
ATOM     37  C   UNL A   1      38.533  31.188  30.565  1.00  0.00     0.074 A 
ATOM     38  C   UNL A   1      38.100  32.606  32.540  1.00  0.00     0.049 A 
ATOM     39  N   UNL A   1      39.538  30.463  30.988  1.00  0.00    -0.248 NA
ATOM     40  C   UNL A   1      38.105  30.877  29.192  1.00  0.00     0.031 C 
ATOM     41  C   UNL A   1      37.405  33.599  33.360  1.00  0.00     0.029 A 
ATOM     42  N   UNL A   1      39.115  32.158  33.348  1.00  0.00    -0.354 N 
ATOM     43  C   UNL A   1      39.845  29.598  29.946  1.00  0.00     0.074 A 
ATOM     44  C   UNL A   1      38.897  29.860  28.885  1.00  0.00     0.031 C 
ATOM     45  C   UNL A   1      38.022  33.695  34.549  1.00  0.00     0.029 A 
ATOM     46  C   UNL A   1      39.134  32.751  34.587  1.00  0.00     0.049 A 
ATOM     47  H   UNL A   1      39.768  31.478  33.067  1.00  0.00     0.167 HD
ATOM     48  C   UNL A   1      40.839  28.680  29.875  1.00  0.00     0.037 A 
ATOM     49  C   UNL A   1      39.952  32.550  35.637  1.00  0.00     0.037 A 
ATOM     50  C   UNL A   1      41.806  28.447  30.916  1.00  0.00     0.049 A 
ATOM     51  C   UNL A   1      41.065  31.545  35.522  1.00  0.00     0.074 A 
ATOM     52  C   UNL A   1      42.883  27.578  30.916  1.00  0.00     0.029 A 
ATOM     53  N   UNL A   1      41.814  29.095  32.142  1.00  0.00    -0.354 N 
ATOM     54  N   UNL A   1      41.371  30.764  34.516  1.00  0.00    -0.248 NA
ATOM     55  C   UNL A   1      41.949  31.401  36.687  1.00  0.00     0.031 C 
ATOM     56  C   UNL A   1      43.528  27.681  32.155  1.00  0.00     0.029 A 
ATOM     57  C   UNL A   1      42.873  28.639  32.912  1.00  0.00     0.049 A 
ATOM     58  H   UNL A   1      41.164  29.779  32.424  1.00  0.00     0.167 HD
ATOM     59  C   UNL A   1      42.493  30.051  34.915  1.00  0.00     0.074 A 
ATOM     60  C   UNL A   1      42.823  30.503  36.252  1.00  0.00     0.031 C 
ATOM     61  C   UNL A   1      43.187  29.106  34.236  1.00  0.00     0.037 A 
BRANCH  48  62
ATOM     62  C   UNL A   1      40.933  27.857  28.624  1.00  0.00     0.064 A 
ATOM     63  C   UNL A   1      40.181  26.684  28.459  1.00  0.00     0.173 A 
ATOM     64  C   UNL A   1      41.759  28.261  27.565  1.00  0.00     0.173 A 
ATOM     65  F   UNL A   1      39.386  26.248  29.446  1.00  0.00    -0.203 F 
ATOM     66  C   UNL A   1      40.276  25.931  27.291  1.00  0.00     0.198 A 
ATOM     67  C   UNL A   1      41.831  27.521  26.388  1.00  0.00     0.198 A 
ATOM     68  F   UNL A   1      42.495  29.379  27.669  1.00  0.00    -0.203 F 
ATOM     69  F   UNL A   1      39.584  24.789  27.175  1.00  0.00    -0.200 F 
ATOM     70  C   UNL A   1      41.095  26.352  26.255  1.00  0.00     0.200 A 
ATOM     71  F   UNL A   1      42.616  27.935  25.384  1.00  0.00    -0.200 F 
ATOM     72  F   UNL A   1      41.182  25.629  25.131  1.00  0.00    -0.200 F 
ENDBRANCH  48  62
BRANCH  49  73
ATOM     73  C   UNL A   1      39.765  33.342  36.877  1.00  0.00     0.064 A 
ATOM     74  C   UNL A   1      38.897  32.901  37.885  1.00  0.00     0.173 A 
ATOM     75  C   UNL A   1      40.455  34.544  37.087  1.00  0.00     0.173 A 
ATOM     76  F   UNL A   1      38.200  31.767  37.720  1.00  0.00    -0.203 F 
ATOM     77  C   UNL A   1      38.716  33.639  39.053  1.00  0.00     0.198 A 
ATOM     78  C   UNL A   1      40.291  35.270  38.265  1.00  0.00     0.198 A 
ATOM     79  F   UNL A   1      41.301  35.004  36.154  1.00  0.00    -0.203 F 
ATOM     80  F   UNL A   1      37.855  33.213  39.986  1.00  0.00    -0.200 F 
ATOM     81  C   UNL A   1      39.418  34.820  39.244  1.00  0.00     0.200 A 
ATOM     82  F   UNL A   1      40.981  36.404  38.452  1.00  0.00    -0.200 F 
ATOM     83  F   UNL A   1      39.250  35.526  40.370  1.00  0.00    -0.200 F 
ENDBRANCH  49  73
BRANCH  61  84
ATOM     84  C   UNL A   1      44.387  28.517  34.916  1.00  0.00     0.064 A 
ATOM     85  C   UNL A   1      44.288  27.359  35.702  1.00  0.00     0.173 A 
ATOM     86  C   UNL A   1      45.653  29.097  34.749  1.00  0.00     0.173 A 
ATOM     87  F   UNL A   1      43.095  26.780  35.902  1.00  0.00    -0.203 F 
ATOM     88  C   UNL A   1      45.414  26.815  36.312  1.00  0.00     0.198 A 
ATOM     89  C   UNL A   1      46.779  28.535  35.343  1.00  0.00     0.198 A 
ATOM     90  F   UNL A   1      45.798  30.202  34.004  1.00  0.00    -0.203 F 
ATOM     91  F   UNL A   1      45.291  25.731  37.091  1.00  0.00    -0.200 F 
ATOM     92  C   UNL A   1      46.659  27.398  36.129  1.00  0.00     0.200 A 
ATOM     93  F   UNL A   1      47.983  29.095  35.158  1.00  0.00    -0.200 F 
ATOM     94  F   UNL A   1      47.741  26.870  36.715  1.00  0.00    -0.200 F 
ENDBRANCH  61  84
ENDBRANCH  35  36
ENDBRANCH  27  30
ENDBRANCH  25  26
ENDBRANCH  24  25
ENDBRANCH  23  24
ENDBRANCH   3  23
TORSDOF 16
ENDMDL
