MODEL 1
REMARK VINA RESULT:     -12.6      0.000      0.000
REMARK SMILES COc1ccc(C(=O)N2CC[C@@H](C(=O)NCCCNC(=O)c3ccc(-c4c5nc(c(-c6c(F)c(F)c(F)c(F)c6F)c6ccc([nH]6)c(-c6c(F)c(F)c(F)c(F)c6F)c6nc(c(-c7c(F)c(F)c(F)c(F)c7F)c7ccc4[nH]7)C=C6)C=C5)cc3)[C@H]2C)cc1O
REMARK SMILES IDX 16 1 15 2 13 3 14 4 12 6 9 7 10 8 85 9 11 10 86 11 7 12 8 13
REMARK SMILES IDX 6 14 3 15 4 16 88 17 5 18 87 19 2 20 1 21 89 22 17 24 18 25
REMARK SMILES IDX 19 26 20 27 21 29 22 30 23 31 84 32 24 33 83 34 25 35 26 36
REMARK SMILES IDX 27 37 77 38 28 39 82 40 76 41 78 42 29 43 81 44 75 45 74 46
REMARK SMILES IDX 30 48 62 49 42 50 61 51 43 52 46 53 60 54 79 55 44 56 45 57
REMARK SMILES IDX 59 59 80 60 47 61 31 62 32 63 40 64 33 65 34 66 38 67 41 68
REMARK SMILES IDX 35 69 36 70 39 71 37 72 63 73 64 74 72 75 65 76 66 77 70 78
REMARK SMILES IDX 73 79 67 80 68 81 71 82 69 83 48 84 49 85 57 86 50 87 51 88
REMARK SMILES IDX 55 89 58 90 52 91 53 92 56 93 54 94
REMARK H PARENT 15 5 89 23 19 28 78 47 46 58
REMARK Flexibility Score: inf
ROOT
ATOM      1  C   UNL A   1      32.230  27.935  22.920  1.00  0.00     0.117 C 
ENDROOT
BRANCH   1   2
ATOM      2  N   UNL A   1      32.565  26.964  21.890  1.00  0.00    -0.356 N 
ATOM      3  C   UNL A   1      33.061  25.705  21.933  1.00  0.00     0.225 C 
ATOM      4  O   UNL A   1      33.278  25.168  20.840  1.00  0.00    -0.275 OA
ATOM      5  H   UNL A   1      32.395  27.288  20.976  1.00  0.00     0.163 HD
BRANCH   3   6
ATOM      6  C   UNL A   1      33.353  24.938  23.210  1.00  0.00     0.102 C 
ATOM      7  N   UNL A   1      32.767  22.786  24.053  1.00  0.00    -0.335 N 
ATOM      8  C   UNL A   1      34.212  22.887  24.102  1.00  0.00     0.121 C 
ATOM      9  C   UNL A   1      32.214  24.135  23.872  1.00  0.00     0.094 C 
ATOM     10  C   UNL A   1      34.556  23.992  23.126  1.00  0.00     0.037 C 
ATOM     11  C   UNL A   1      30.839  24.218  23.234  1.00  0.00     0.032 C 
BRANCH   7  12
ATOM     12  C   UNL A   1      32.173  21.861  24.910  1.00  0.00     0.254 C 
ATOM     13  O   UNL A   1      31.610  22.190  25.950  1.00  0.00    -0.269 OA
BRANCH  12  14
ATOM     14  C   UNL A   1      32.357  20.412  24.614  1.00  0.00     0.043 A 
ATOM     15  C   UNL A   1      32.978  17.726  24.037  1.00  0.00     0.160 A 
ATOM     16  C   UNL A   1      33.210  18.250  25.311  1.00  0.00     0.051 A 
ATOM     17  C   UNL A   1      32.462  18.568  23.048  1.00  0.00     0.158 A 
ATOM     18  C   UNL A   1      32.903  19.584  25.602  1.00  0.00     0.018 A 
ATOM     19  C   UNL A   1      32.142  19.897  23.331  1.00  0.00     0.064 A 
BRANCH  15  20
ATOM     20  O   UNL A   1      33.386  16.434  23.855  1.00  0.00    -0.493 OA
ATOM     21  C   UNL A   1      33.349  15.587  25.000  1.00  0.00     0.278 C 
ENDBRANCH  15  20
BRANCH  17  22
ATOM     22  O   UNL A   1      32.327  18.184  21.744  1.00  0.00    -0.504 OA
ATOM     23  H   UNL A   1      32.981  18.421  21.116  1.00  0.00     0.293 HD
ENDBRANCH  17  22
ENDBRANCH  12  14
ENDBRANCH   7  12
ENDBRANCH   3   6
ENDBRANCH   1   2
BRANCH   1  24
ATOM     24  C   UNL A   1      33.441  28.756  23.361  1.00  0.00     0.042 C 
BRANCH  24  25
ATOM     25  C   UNL A   1      33.599  28.911  24.868  1.00  0.00     0.118 C 
BRANCH  25  26
ATOM     26  N   UNL A   1      32.921  30.083  25.391  1.00  0.00    -0.352 N 
ATOM     27  C   UNL A   1      33.162  30.818  26.528  1.00  0.00     0.251 C 
ATOM     28  H   UNL A   1      32.167  30.404  24.844  1.00  0.00     0.163 HD
ATOM     29  O   UNL A   1      32.349  31.667  26.879  1.00  0.00    -0.269 OA
BRANCH  27  30
ATOM     30  C   UNL A   1      34.374  30.587  27.353  1.00  0.00     0.039 A 
ATOM     31  C   UNL A   1      34.568  29.321  27.915  1.00  0.00     0.014 A 
ATOM     32  C   UNL A   1      35.290  31.607  27.626  1.00  0.00     0.014 A 
ATOM     33  C   UNL A   1      35.702  29.065  28.695  1.00  0.00     0.010 A 
ATOM     34  C   UNL A   1      36.465  31.326  28.322  1.00  0.00     0.010 A 
ATOM     35  C   UNL A   1      36.678  30.057  28.878  1.00  0.00    -0.014 A 
BRANCH  35  36
ATOM     36  C   UNL A   1      37.906  29.797  29.677  1.00  0.00     0.031 A 
ATOM     37  C   UNL A   1      38.981  28.890  29.140  1.00  0.00     0.074 A 
ATOM     38  C   UNL A   1      38.034  30.331  30.907  1.00  0.00     0.049 A 
ATOM     39  N   UNL A   1      40.089  28.486  29.711  1.00  0.00    -0.248 NA
ATOM     40  C   UNL A   1      38.768  28.338  27.792  1.00  0.00     0.031 C 
ATOM     41  C   UNL A   1      37.051  31.194  31.562  1.00  0.00     0.029 A 
ATOM     42  N   UNL A   1      39.044  30.220  31.832  1.00  0.00    -0.354 N 
ATOM     43  C   UNL A   1      40.686  27.617  28.806  1.00  0.00     0.074 A 
ATOM     44  C   UNL A   1      39.796  27.513  27.670  1.00  0.00     0.031 C 
ATOM     45  C   UNL A   1      37.519  31.561  32.766  1.00  0.00     0.029 A 
ATOM     46  C   UNL A   1      38.816  30.926  32.987  1.00  0.00     0.049 A 
ATOM     47  H   UNL A   1      39.856  29.684  31.679  1.00  0.00     0.167 HD
ATOM     48  C   UNL A   1      41.879  26.983  28.900  1.00  0.00     0.037 A 
ATOM     49  C   UNL A   1      39.564  31.045  34.100  1.00  0.00     0.037 A 
ATOM     50  C   UNL A   1      42.786  27.121  30.009  1.00  0.00     0.049 A 
ATOM     51  C   UNL A   1      40.886  30.329  34.181  1.00  0.00     0.074 A 
ATOM     52  C   UNL A   1      44.052  26.583  30.163  1.00  0.00     0.029 A 
ATOM     53  N   UNL A   1      42.521  27.852  31.157  1.00  0.00    -0.354 N 
ATOM     54  N   UNL A   1      41.471  29.568  33.289  1.00  0.00    -0.248 NA
ATOM     55  C   UNL A   1      41.652  30.492  35.425  1.00  0.00     0.031 C 
ATOM     56  C   UNL A   1      44.535  26.953  31.422  1.00  0.00     0.029 A 
ATOM     57  C   UNL A   1      43.590  27.760  32.034  1.00  0.00     0.049 A 
ATOM     58  H   UNL A   1      41.695  28.362  31.325  1.00  0.00     0.167 HD
ATOM     59  C   UNL A   1      42.685  29.188  33.847  1.00  0.00     0.074 A 
ATOM     60  C   UNL A   1      42.757  29.812  35.152  1.00  0.00     0.031 C 
ATOM     61  C   UNL A   1      43.652  28.397  33.325  1.00  0.00     0.037 A 
BRANCH  48  62
ATOM     62  C   UNL A   1      42.276  26.080  27.767  1.00  0.00     0.064 A 
ATOM     63  C   UNL A   1      43.072  26.536  26.705  1.00  0.00     0.173 A 
ATOM     64  C   UNL A   1      41.876  24.735  27.756  1.00  0.00     0.173 A 
ATOM     65  F   UNL A   1      43.473  27.815  26.661  1.00  0.00    -0.203 F 
ATOM     66  C   UNL A   1      43.423  25.687  25.657  1.00  0.00     0.198 A 
ATOM     67  C   UNL A   1      42.255  23.882  26.723  1.00  0.00     0.198 A 
ATOM     68  F   UNL A   1      41.121  24.246  28.751  1.00  0.00    -0.203 F 
ATOM     69  F   UNL A   1      44.138  26.160  24.626  1.00  0.00    -0.200 F 
ATOM     70  C   UNL A   1      43.019  24.361  25.670  1.00  0.00     0.200 A 
ATOM     71  F   UNL A   1      41.875  22.597  26.743  1.00  0.00    -0.200 F 
ATOM     72  F   UNL A   1      43.361  23.546  24.662  1.00  0.00    -0.200 F 
ENDBRANCH  48  62
BRANCH  49  73
ATOM     73  C   UNL A   1      39.101  31.907  35.218  1.00  0.00     0.064 A 
ATOM     74  C   UNL A   1      39.377  33.283  35.223  1.00  0.00     0.173 A 
ATOM     75  C   UNL A   1      38.376  31.384  36.298  1.00  0.00     0.173 A 
ATOM     76  F   UNL A   1      40.084  33.826  34.221  1.00  0.00    -0.203 F 
ATOM     77  C   UNL A   1      38.964  34.097  36.274  1.00  0.00     0.198 A 
ATOM     78  C   UNL A   1      37.938  32.205  37.336  1.00  0.00     0.198 A 
ATOM     79  F   UNL A   1      38.076  30.078  36.337  1.00  0.00    -0.203 F 
ATOM     80  F   UNL A   1      39.276  35.400  36.272  1.00  0.00    -0.200 F 
ATOM     81  C   UNL A   1      38.239  33.559  37.327  1.00  0.00     0.200 A 
ATOM     82  F   UNL A   1      37.220  31.684  38.340  1.00  0.00    -0.200 F 
ATOM     83  F   UNL A   1      37.832  34.344  38.334  1.00  0.00    -0.200 F 
ENDBRANCH  49  73
BRANCH  61  84
ATOM     84  C   UNL A   1      44.891  28.189  34.147  1.00  0.00     0.064 A 
ATOM     85  C   UNL A   1      45.013  27.112  35.036  1.00  0.00     0.173 A 
ATOM     86  C   UNL A   1      45.983  29.060  34.013  1.00  0.00     0.173 A 
ATOM     87  F   UNL A   1      43.989  26.261  35.210  1.00  0.00    -0.203 F 
ATOM     88  C   UNL A   1      46.175  26.926  35.779  1.00  0.00     0.198 A 
ATOM     89  C   UNL A   1      47.155  28.854  34.737  1.00  0.00     0.198 A 
ATOM     90  F   UNL A   1      45.920  30.102  33.173  1.00  0.00    -0.203 F 
ATOM     91  F   UNL A   1      46.253  25.915  36.655  1.00  0.00    -0.200 F 
ATOM     92  C   UNL A   1      47.248  27.792  35.624  1.00  0.00     0.200 A 
ATOM     93  F   UNL A   1      48.193  29.685  34.577  1.00  0.00    -0.200 F 
ATOM     94  F   UNL A   1      48.368  27.608  36.335  1.00  0.00    -0.200 F 
ENDBRANCH  61  84
ENDBRANCH  35  36
ENDBRANCH  27  30
ENDBRANCH  25  26
ENDBRANCH  24  25
ENDBRANCH   1  24
TORSDOF 14
ENDMDL
MODEL 2
REMARK VINA RESULT:     -12.6      4.193      7.678
REMARK SMILES COc1ccc(C(=O)N2CC[C@@H](C(=O)NCCCNC(=O)c3ccc(-c4c5nc(c(-c6c(F)c(F)c(F)c(F)c6F)c6ccc([nH]6)c(-c6c(F)c(F)c(F)c(F)c6F)c6nc(c(-c7c(F)c(F)c(F)c(F)c7F)c7ccc4[nH]7)C=C6)C=C5)cc3)[C@H]2C)cc1O
REMARK SMILES IDX 16 1 15 2 13 3 14 4 12 6 9 7 10 8 85 9 11 10 86 11 7 12 8 13
REMARK SMILES IDX 6 14 3 15 4 16 88 17 5 18 87 19 2 20 1 21 89 22 17 24 18 25
REMARK SMILES IDX 19 26 20 27 21 29 22 30 23 31 84 32 24 33 83 34 25 35 26 36
REMARK SMILES IDX 27 37 77 38 28 39 82 40 76 41 78 42 29 43 81 44 75 45 74 46
REMARK SMILES IDX 30 48 62 49 42 50 61 51 43 52 46 53 60 54 79 55 44 56 45 57
REMARK SMILES IDX 59 59 80 60 47 61 31 62 32 63 40 64 33 65 34 66 38 67 41 68
REMARK SMILES IDX 35 69 36 70 39 71 37 72 63 73 64 74 72 75 65 76 66 77 70 78
REMARK SMILES IDX 73 79 67 80 68 81 71 82 69 83 48 84 49 85 57 86 50 87 51 88
REMARK SMILES IDX 55 89 58 90 52 91 53 92 56 93 54 94
REMARK H PARENT 15 5 89 23 19 28 78 47 46 58
REMARK Flexibility Score: inf
ROOT
ATOM      1  C   UNL A   1      34.762  21.911  25.082  1.00  0.00     0.117 C 
ENDROOT
BRANCH   1   2
ATOM      2  N   UNL A   1      34.612  22.462  23.744  1.00  0.00    -0.356 N 
ATOM      3  C   UNL A   1      33.658  23.227  23.161  1.00  0.00     0.225 C 
ATOM      4  O   UNL A   1      33.823  23.481  21.962  1.00  0.00    -0.275 OA
ATOM      5  H   UNL A   1      35.355  22.233  23.140  1.00  0.00     0.163 HD
BRANCH   3   6
ATOM      6  C   UNL A   1      32.437  23.774  23.878  1.00  0.00     0.102 C 
ATOM      7  N   UNL A   1      31.261  25.848  23.854  1.00  0.00    -0.335 N 
ATOM      8  C   UNL A   1      30.294  24.804  23.576  1.00  0.00     0.121 C 
ATOM      9  C   UNL A   1      32.472  25.225  24.403  1.00  0.00     0.094 C 
ATOM     10  C   UNL A   1      31.122  23.627  23.104  1.00  0.00     0.037 C 
ATOM     11  C   UNL A   1      33.766  26.000  24.227  1.00  0.00     0.032 C 
BRANCH   7  12
ATOM     12  C   UNL A   1      30.760  27.047  24.360  1.00  0.00     0.254 C 
ATOM     13  O   UNL A   1      30.858  27.355  25.544  1.00  0.00    -0.269 OA
BRANCH  12  14
ATOM     14  C   UNL A   1      29.959  27.912  23.450  1.00  0.00     0.043 A 
ATOM     15  C   UNL A   1      28.484  29.755  21.913  1.00  0.00     0.160 A 
ATOM     16  C   UNL A   1      29.880  29.801  21.928  1.00  0.00     0.051 A 
ATOM     17  C   UNL A   1      27.835  28.798  22.698  1.00  0.00     0.158 A 
ATOM     18  C   UNL A   1      30.617  28.888  22.691  1.00  0.00     0.018 A 
ATOM     19  C   UNL A   1      28.561  27.875  23.453  1.00  0.00     0.064 A 
BRANCH  15  20
ATOM     20  O   UNL A   1      27.876  30.743  21.190  1.00  0.00    -0.493 OA
ATOM     21  C   UNL A   1      28.165  32.084  21.577  1.00  0.00     0.278 C 
ENDBRANCH  15  20
BRANCH  17  22
ATOM     22  O   UNL A   1      26.477  28.763  22.850  1.00  0.00    -0.504 OA
ATOM     23  H   UNL A   1      26.101  28.835  23.705  1.00  0.00     0.293 HD
ENDBRANCH  17  22
ENDBRANCH  12  14
ENDBRANCH   7  12
ENDBRANCH   3   6
ENDBRANCH   1   2
BRANCH   1  24
ATOM     24  C   UNL A   1      35.163  22.972  26.106  1.00  0.00     0.042 C 
BRANCH  24  25
ATOM     25  C   UNL A   1      36.533  23.598  25.882  1.00  0.00     0.118 C 
BRANCH  25  26
ATOM     26  N   UNL A   1      37.619  22.641  26.002  1.00  0.00    -0.352 N 
ATOM     27  C   UNL A   1      38.926  22.823  26.388  1.00  0.00     0.251 C 
ATOM     28  H   UNL A   1      37.381  21.714  25.770  1.00  0.00     0.163 HD
ATOM     29  O   UNL A   1      39.728  21.907  26.243  1.00  0.00    -0.269 OA
BRANCH  27  30
ATOM     30  C   UNL A   1      39.391  24.114  26.953  1.00  0.00     0.039 A 
ATOM     31  C   UNL A   1      40.029  25.024  26.104  1.00  0.00     0.014 A 
ATOM     32  C   UNL A   1      39.259  24.420  28.310  1.00  0.00     0.014 A 
ATOM     33  C   UNL A   1      40.477  26.254  26.600  1.00  0.00     0.010 A 
ATOM     34  C   UNL A   1      39.618  25.682  28.783  1.00  0.00     0.010 A 
ATOM     35  C   UNL A   1      40.246  26.608  27.939  1.00  0.00    -0.014 A 
BRANCH  35  36
ATOM     36  C   UNL A   1      40.685  27.922  28.480  1.00  0.00     0.031 A 
ATOM     37  C   UNL A   1      42.139  28.170  28.781  1.00  0.00     0.074 A 
ATOM     38  C   UNL A   1      39.773  28.875  28.756  1.00  0.00     0.049 A 
ATOM     39  N   UNL A   1      42.709  29.220  29.319  1.00  0.00    -0.248 NA
ATOM     40  C   UNL A   1      43.075  27.080  28.460  1.00  0.00     0.031 C 
ATOM     41  C   UNL A   1      38.329  28.750  28.550  1.00  0.00     0.029 A 
ATOM     42  N   UNL A   1      39.925  30.137  29.275  1.00  0.00    -0.354 N 
ATOM     43  C   UNL A   1      44.058  28.905  29.424  1.00  0.00     0.074 A 
ATOM     44  C   UNL A   1      44.215  27.550  28.941  1.00  0.00     0.031 C 
ATOM     45  C   UNL A   1      37.733  29.899  28.908  1.00  0.00     0.029 A 
ATOM     46  C   UNL A   1      38.744  30.826  29.407  1.00  0.00     0.049 A 
ATOM     47  H   UNL A   1      40.799  30.513  29.529  1.00  0.00     0.167 HD
ATOM     48  C   UNL A   1      45.079  29.682  29.860  1.00  0.00     0.037 A 
ATOM     49  C   UNL A   1      38.504  32.064  29.880  1.00  0.00     0.037 A 
ATOM     50  C   UNL A   1      44.930  31.045  30.298  1.00  0.00     0.049 A 
ATOM     51  C   UNL A   1      39.654  32.907  30.360  1.00  0.00     0.074 A 
ATOM     52  C   UNL A   1      45.912  31.941  30.683  1.00  0.00     0.029 A 
ATOM     53  N   UNL A   1      43.718  31.709  30.409  1.00  0.00    -0.354 N 
ATOM     54  N   UNL A   1      40.934  32.624  30.388  1.00  0.00    -0.248 NA
ATOM     55  C   UNL A   1      39.326  34.246  30.872  1.00  0.00     0.031 C 
ATOM     56  C   UNL A   1      45.291  33.133  31.069  1.00  0.00     0.029 A 
ATOM     57  C   UNL A   1      43.926  32.996  30.880  1.00  0.00     0.049 A 
ATOM     58  H   UNL A   1      42.840  31.324  30.187  1.00  0.00     0.167 HD
ATOM     59  C   UNL A   1      41.565  33.755  30.888  1.00  0.00     0.074 A 
ATOM     60  C   UNL A   1      40.529  34.734  31.141  1.00  0.00     0.031 C 
ATOM     61  C   UNL A   1      42.885  33.964  31.115  1.00  0.00     0.037 A 
BRANCH  48  62
ATOM     62  C   UNL A   1      46.452  29.075  29.882  1.00  0.00     0.064 A 
ATOM     63  C   UNL A   1      46.933  28.376  30.999  1.00  0.00     0.173 A 
ATOM     64  C   UNL A   1      47.291  29.174  28.761  1.00  0.00     0.173 A 
ATOM     65  F   UNL A   1      46.176  28.262  32.101  1.00  0.00    -0.203 F 
ATOM     66  C   UNL A   1      48.213  27.828  31.006  1.00  0.00     0.198 A 
ATOM     67  C   UNL A   1      48.558  28.598  28.759  1.00  0.00     0.198 A 
ATOM     68  F   UNL A   1      46.878  29.826  27.662  1.00  0.00    -0.203 F 
ATOM     69  F   UNL A   1      48.670  27.212  32.105  1.00  0.00    -0.200 F 
ATOM     70  C   UNL A   1      49.023  27.934  29.885  1.00  0.00     0.200 A 
ATOM     71  F   UNL A   1      49.334  28.690  27.670  1.00  0.00    -0.200 F 
ATOM     72  F   UNL A   1      50.252  27.403  29.893  1.00  0.00    -0.200 F 
ENDBRANCH  48  62
BRANCH  49  73
ATOM     73  C   UNL A   1      37.117  32.599  29.889  1.00  0.00     0.064 A 
ATOM     74  C   UNL A   1      36.615  33.304  28.786  1.00  0.00     0.173 A 
ATOM     75  C   UNL A   1      36.268  32.420  30.990  1.00  0.00     0.173 A 
ATOM     76  F   UNL A   1      37.396  33.517  27.716  1.00  0.00    -0.203 F 
ATOM     77  C   UNL A   1      35.324  33.825  28.791  1.00  0.00     0.198 A 
ATOM     78  C   UNL A   1      34.966  32.917  30.983  1.00  0.00     0.198 A 
ATOM     79  F   UNL A   1      36.695  31.744  32.067  1.00  0.00    -0.203 F 
ATOM     80  F   UNL A   1      34.883  34.528  27.739  1.00  0.00    -0.200 F 
ATOM     81  C   UNL A   1      34.497  33.627  29.887  1.00  0.00     0.200 A 
ATOM     82  F   UNL A   1      34.165  32.704  32.036  1.00  0.00    -0.200 F 
ATOM     83  F   UNL A   1      33.252  34.120  29.889  1.00  0.00    -0.200 F 
ENDBRANCH  49  73
BRANCH  61  84
ATOM     84  C   UNL A   1      43.290  35.316  31.628  1.00  0.00     0.064 A 
ATOM     85  C   UNL A   1      43.717  36.333  30.763  1.00  0.00     0.173 A 
ATOM     86  C   UNL A   1      43.210  35.605  32.998  1.00  0.00     0.173 A 
ATOM     87  F   UNL A   1      43.825  36.099  29.446  1.00  0.00    -0.203 F 
ATOM     88  C   UNL A   1      44.074  37.586  31.255  1.00  0.00     0.198 A 
ATOM     89  C   UNL A   1      43.541  36.868  33.483  1.00  0.00     0.198 A 
ATOM     90  F   UNL A   1      42.802  34.668  33.866  1.00  0.00    -0.203 F 
ATOM     91  F   UNL A   1      44.523  38.529  30.416  1.00  0.00    -0.200 F 
ATOM     92  C   UNL A   1      43.979  37.855  32.612  1.00  0.00     0.200 A 
ATOM     93  F   UNL A   1      43.437  37.129  34.793  1.00  0.00    -0.200 F 
ATOM     94  F   UNL A   1      44.316  39.063  33.083  1.00  0.00    -0.200 F 
ENDBRANCH  61  84
ENDBRANCH  35  36
ENDBRANCH  27  30
ENDBRANCH  25  26
ENDBRANCH  24  25
ENDBRANCH   1  24
TORSDOF 14
ENDMDL
MODEL 3
REMARK VINA RESULT:     -12.5      0.676      7.551
REMARK SMILES COc1ccc(C(=O)N2CC[C@@H](C(=O)NCCCNC(=O)c3ccc(-c4c5nc(c(-c6c(F)c(F)c(F)c(F)c6F)c6ccc([nH]6)c(-c6c(F)c(F)c(F)c(F)c6F)c6nc(c(-c7c(F)c(F)c(F)c(F)c7F)c7ccc4[nH]7)C=C6)C=C5)cc3)[C@H]2C)cc1O
REMARK SMILES IDX 16 1 15 2 13 3 14 4 12 6 9 7 10 8 85 9 11 10 86 11 7 12 8 13
REMARK SMILES IDX 6 14 3 15 4 16 88 17 5 18 87 19 2 20 1 21 89 22 17 24 18 25
REMARK SMILES IDX 19 26 20 27 21 29 22 30 23 31 84 32 24 33 83 34 25 35 26 36
REMARK SMILES IDX 27 37 77 38 28 39 82 40 76 41 78 42 29 43 81 44 75 45 74 46
REMARK SMILES IDX 30 48 62 49 42 50 61 51 43 52 46 53 60 54 79 55 44 56 45 57
REMARK SMILES IDX 59 59 80 60 47 61 31 62 32 63 40 64 33 65 34 66 38 67 41 68
REMARK SMILES IDX 35 69 36 70 39 71 37 72 63 73 64 74 72 75 65 76 66 77 70 78
REMARK SMILES IDX 73 79 67 80 68 81 71 82 69 83 48 84 49 85 57 86 50 87 51 88
REMARK SMILES IDX 55 89 58 90 52 91 53 92 56 93 54 94
REMARK H PARENT 15 5 89 23 19 28 78 47 46 58
REMARK Flexibility Score: inf
ROOT
ATOM      1  C   UNL A   1      32.093  28.645  23.175  1.00  0.00     0.117 C 
ENDROOT
BRANCH   1   2
ATOM      2  N   UNL A   1      32.498  27.717  22.130  1.00  0.00    -0.356 N 
ATOM      3  C   UNL A   1      32.977  26.451  22.154  1.00  0.00     0.225 C 
ATOM      4  O   UNL A   1      33.273  25.961  21.057  1.00  0.00    -0.275 OA
ATOM      5  H   UNL A   1      32.403  28.085  21.221  1.00  0.00     0.163 HD
BRANCH   3   6
ATOM      6  C   UNL A   1      33.161  25.623  23.413  1.00  0.00     0.102 C 
ATOM      7  N   UNL A   1      32.566  23.412  24.076  1.00  0.00    -0.335 N 
ATOM      8  C   UNL A   1      33.995  23.552  24.283  1.00  0.00     0.121 C 
ATOM      9  C   UNL A   1      31.988  24.752  23.908  1.00  0.00     0.094 C 
ATOM     10  C   UNL A   1      34.399  24.720  23.408  1.00  0.00     0.037 C 
ATOM     11  C   UNL A   1      30.685  24.829  23.133  1.00  0.00     0.032 C 
BRANCH   7  12
ATOM     12  C   UNL A   1      31.920  22.423  24.816  1.00  0.00     0.254 C 
ATOM     13  O   UNL A   1      31.136  22.684  25.723  1.00  0.00    -0.269 OA
BRANCH  12  14
ATOM     14  C   UNL A   1      32.308  21.004  24.580  1.00  0.00     0.043 A 
ATOM     15  C   UNL A   1      32.770  18.269  24.095  1.00  0.00     0.160 A 
ATOM     16  C   UNL A   1      32.499  19.140  23.038  1.00  0.00     0.051 A 
ATOM     17  C   UNL A   1      32.777  18.774  25.398  1.00  0.00     0.158 A 
ATOM     18  C   UNL A   1      32.268  20.500  23.275  1.00  0.00     0.018 A 
ATOM     19  C   UNL A   1      32.559  20.131  25.644  1.00  0.00     0.064 A 
BRANCH  15  20
ATOM     20  O   UNL A   1      32.905  16.954  23.747  1.00  0.00    -0.493 OA
ATOM     21  C   UNL A   1      34.109  16.594  23.075  1.00  0.00     0.278 C 
ENDBRANCH  15  20
BRANCH  17  22
ATOM     22  O   UNL A   1      32.900  17.977  26.502  1.00  0.00    -0.504 OA
ATOM     23  H   UNL A   1      33.407  18.267  27.233  1.00  0.00     0.293 HD
ENDBRANCH  17  22
ENDBRANCH  12  14
ENDBRANCH   7  12
ENDBRANCH   3   6
ENDBRANCH   1   2
BRANCH   1  24
ATOM     24  C   UNL A   1      33.281  29.162  23.985  1.00  0.00     0.042 C 
BRANCH  24  25
ATOM     25  C   UNL A   1      33.043  29.259  25.486  1.00  0.00     0.118 C 
BRANCH  25  26
ATOM     26  N   UNL A   1      32.728  30.607  25.924  1.00  0.00    -0.352 N 
ATOM     27  C   UNL A   1      33.280  31.368  26.928  1.00  0.00     0.251 C 
ATOM     28  H   UNL A   1      32.005  31.047  25.422  1.00  0.00     0.163 HD
ATOM     29  O   UNL A   1      32.739  32.420  27.251  1.00  0.00    -0.269 OA
BRANCH  27  30
ATOM     30  C   UNL A   1      34.502  30.929  27.646  1.00  0.00     0.039 A 
ATOM     31  C   UNL A   1      35.559  31.836  27.784  1.00  0.00     0.014 A 
ATOM     32  C   UNL A   1      34.647  29.629  28.136  1.00  0.00     0.014 A 
ATOM     33  C   UNL A   1      36.725  31.459  28.459  1.00  0.00     0.010 A 
ATOM     34  C   UNL A   1      35.769  29.284  28.890  1.00  0.00     0.010 A 
ATOM     35  C   UNL A   1      36.828  30.189  29.048  1.00  0.00    -0.014 A 
BRANCH  35  36
ATOM     36  C   UNL A   1      38.045  29.778  29.797  1.00  0.00     0.031 A 
ATOM     37  C   UNL A   1      38.289  30.297  31.190  1.00  0.00     0.074 A 
ATOM     38  C   UNL A   1      38.961  28.983  29.210  1.00  0.00     0.049 A 
ATOM     39  N   UNL A   1      39.319  30.111  31.977  1.00  0.00    -0.248 NA
ATOM     40  C   UNL A   1      37.248  31.166  31.763  1.00  0.00     0.031 C 
ATOM     41  C   UNL A   1      38.867  28.443  27.853  1.00  0.00     0.029 A 
ATOM     42  N   UNL A   1      40.156  28.495  29.679  1.00  0.00    -0.354 N 
ATOM     43  C   UNL A   1      39.062  30.858  33.120  1.00  0.00     0.074 A 
ATOM     44  C   UNL A   1      37.803  31.539  32.905  1.00  0.00     0.031 C 
ATOM     45  C   UNL A   1      39.941  27.674  27.611  1.00  0.00     0.029 A 
ATOM     46  C   UNL A   1      40.819  27.699  28.777  1.00  0.00     0.049 A 
ATOM     47  H   UNL A   1      40.505  28.697  30.577  1.00  0.00     0.167 HD
ATOM     48  C   UNL A   1      39.793  30.949  34.256  1.00  0.00     0.037 A 
ATOM     49  C   UNL A   1      42.001  27.063  28.878  1.00  0.00     0.037 A 
ATOM     50  C   UNL A   1      41.022  30.237  34.489  1.00  0.00     0.049 A 
ATOM     51  C   UNL A   1      42.797  27.181  30.151  1.00  0.00     0.074 A 
ATOM     52  C   UNL A   1      41.796  30.201  35.636  1.00  0.00     0.029 A 
ATOM     53  N   UNL A   1      41.656  29.434  33.553  1.00  0.00    -0.354 N 
ATOM     54  N   UNL A   1      42.508  27.834  31.250  1.00  0.00    -0.248 NA
ATOM     55  C   UNL A   1      44.084  26.472  30.196  1.00  0.00     0.031 C 
ATOM     56  C   UNL A   1      42.922  29.411  35.380  1.00  0.00     0.029 A 
ATOM     57  C   UNL A   1      42.825  28.917  34.089  1.00  0.00     0.049 A 
ATOM     58  H   UNL A   1      41.326  29.256  32.643  1.00  0.00     0.167 HD
ATOM     59  C   UNL A   1      43.556  27.588  32.128  1.00  0.00     0.074 A 
ATOM     60  C   UNL A   1      44.484  26.718  31.436  1.00  0.00     0.031 C 
ATOM     61  C   UNL A   1      43.732  28.041  33.392  1.00  0.00     0.037 A 
BRANCH  48  62
ATOM     62  C   UNL A   1      39.280  31.853  35.341  1.00  0.00     0.064 A 
ATOM     63  C   UNL A   1      38.476  31.370  36.385  1.00  0.00     0.173 A 
ATOM     64  C   UNL A   1      39.618  33.215  35.350  1.00  0.00     0.173 A 
ATOM     65  F   UNL A   1      38.116  30.079  36.418  1.00  0.00    -0.203 F 
ATOM     66  C   UNL A   1      38.002  32.224  37.378  1.00  0.00     0.198 A 
ATOM     67  C   UNL A   1      39.167  34.059  36.361  1.00  0.00     0.198 A 
ATOM     68  F   UNL A   1      40.390  33.728  34.379  1.00  0.00    -0.203 F 
ATOM     69  F   UNL A   1      37.190  31.751  38.333  1.00  0.00    -0.200 F 
ATOM     70  C   UNL A   1      38.351  33.566  37.368  1.00  0.00     0.200 A 
ATOM     71  F   UNL A   1      39.517  35.353  36.358  1.00  0.00    -0.200 F 
ATOM     72  F   UNL A   1      37.896  34.385  38.326  1.00  0.00    -0.200 F 
ENDBRANCH  48  62
BRANCH  49  73
ATOM     73  C   UNL A   1      42.493  26.224  27.754  1.00  0.00     0.064 A 
ATOM     74  C   UNL A   1      42.041  24.906  27.594  1.00  0.00     0.173 A 
ATOM     75  C   UNL A   1      43.415  26.715  26.820  1.00  0.00     0.173 A 
ATOM     76  F   UNL A   1      41.172  24.386  28.474  1.00  0.00    -0.203 F 
ATOM     77  C   UNL A   1      42.508  24.105  26.555  1.00  0.00     0.198 A 
ATOM     78  C   UNL A   1      43.861  25.922  25.763  1.00  0.00     0.198 A 
ATOM     79  F   UNL A   1      43.871  27.972  26.920  1.00  0.00    -0.203 F 
ATOM     80  F   UNL A   1      42.089  22.837  26.450  1.00  0.00    -0.200 F 
ATOM     81  C   UNL A   1      43.413  24.616  25.636  1.00  0.00     0.200 A 
ATOM     82  F   UNL A   1      44.719  26.427  24.867  1.00  0.00    -0.200 F 
ATOM     83  F   UNL A   1      43.855  23.848  24.631  1.00  0.00    -0.200 F 
ENDBRANCH  49  73
BRANCH  61  84
ATOM     84  C   UNL A   1      44.956  27.574  34.127  1.00  0.00     0.064 A 
ATOM     85  C   UNL A   1      46.154  28.301  34.098  1.00  0.00     0.173 A 
ATOM     86  C   UNL A   1      44.913  26.404  34.900  1.00  0.00     0.173 A 
ATOM     87  F   UNL A   1      46.248  29.418  33.359  1.00  0.00    -0.203 F 
ATOM     88  C   UNL A   1      47.274  27.861  34.798  1.00  0.00     0.198 A 
ATOM     89  C   UNL A   1      46.027  25.982  35.622  1.00  0.00     0.198 A 
ATOM     90  F   UNL A   1      43.789  25.675  34.965  1.00  0.00    -0.203 F 
ATOM     91  F   UNL A   1      48.422  28.547  34.720  1.00  0.00    -0.200 F 
ATOM     92  C   UNL A   1      47.208  26.707  35.565  1.00  0.00     0.200 A 
ATOM     93  F   UNL A   1      45.957  24.873  36.370  1.00  0.00    -0.200 F 
ATOM     94  F   UNL A   1      48.285  26.288  36.243  1.00  0.00    -0.200 F 
ENDBRANCH  61  84
ENDBRANCH  35  36
ENDBRANCH  27  30
ENDBRANCH  25  26
ENDBRANCH  24  25
ENDBRANCH   1  24
TORSDOF 14
ENDMDL
