MODEL 1
REMARK VINA RESULT:     -14.0      0.000      0.000
REMARK SMILES O=C(NCCCNC(=O)[C@H]1[C@H]2CC[C@H](C2)[C@@H]1C(=O)N1CCN(c2cccc(Cl)c2)CC1)c1ccc(-c2c3nc(c(-c4c(F)c(F)c(F)c(F)c4F)c4ccc([nH]4)c(-c4c(F)c(F)c(F)c(F)c4F)c4nc(c(-c5c(F)c(F)c(F)c(F)c5F)c5ccc2[nH]5)C=C4)C=C3)cc1
REMARK SMILES IDX 5 1 4 2 3 3 1 4 2 5 32 7 33 8 94 9 34 10 93 11 35 12 36 13
REMARK SMILES IDX 37 14 87 15 38 16 92 17 86 18 88 19 39 20 91 21 85 22 84 23
REMARK SMILES IDX 40 25 72 26 52 27 71 28 53 29 56 30 70 31 89 32 54 33 55 34
REMARK SMILES IDX 69 36 90 37 57 38 41 39 42 40 50 41 43 42 44 43 48 44 51 45
REMARK SMILES IDX 45 46 46 47 49 48 47 49 73 50 74 51 82 52 75 53 76 54 80 55
REMARK SMILES IDX 83 56 77 57 78 58 81 59 79 60 58 61 59 62 67 63 60 64 61 65
REMARK SMILES IDX 65 66 68 67 62 68 63 69 66 70 64 71 6 72 7 73 8 74 9 76
REMARK SMILES IDX 10 77 11 78 16 79 12 80 15 81 14 82 13 83 17 84 18 85 19 86
REMARK SMILES IDX 20 87 31 88 21 89 30 90 22 91 23 92 24 93 29 94 25 95 27 96
REMARK SMILES IDX 26 97 28 98
REMARK H PARENT 3 6 88 24 56 35 7 75
REMARK Flexibility Score: inf
ROOT
ATOM      1  C   UNL A   1      31.107  31.765  26.644  1.00  0.00     0.042 C 
ENDROOT
BRANCH   1   2
ATOM      2  C   UNL A   1      32.463  32.405  26.867  1.00  0.00     0.118 C 
BRANCH   2   3
ATOM      3  N   UNL A   1      32.342  33.787  27.328  1.00  0.00    -0.352 N 
ATOM      4  O   UNL A   1      32.529  35.512  28.769  1.00  0.00    -0.269 OA
ATOM      5  C   UNL A   1      32.969  34.437  28.362  1.00  0.00     0.251 C 
ATOM      6  H   UNL A   1      31.709  34.340  26.816  1.00  0.00     0.163 HD
BRANCH   5   7
ATOM      7  C   UNL A   1      34.163  33.843  28.993  1.00  0.00     0.039 A 
ATOM      8  C   UNL A   1      34.025  32.752  29.849  1.00  0.00     0.014 A 
ATOM      9  C   UNL A   1      35.433  34.350  28.706  1.00  0.00     0.014 A 
ATOM     10  C   UNL A   1      35.113  32.300  30.573  1.00  0.00     0.010 A 
ATOM     11  C   UNL A   1      36.556  33.792  29.326  1.00  0.00     0.010 A 
ATOM     12  C   UNL A   1      36.398  32.781  30.286  1.00  0.00    -0.014 A 
BRANCH  12  13
ATOM     13  C   UNL A   1      37.556  32.123  30.936  1.00  0.00     0.031 A 
ATOM     14  C   UNL A   1      37.992  32.500  32.319  1.00  0.00     0.074 A 
ATOM     15  C   UNL A   1      38.190  31.149  30.257  1.00  0.00     0.049 A 
ATOM     16  N   UNL A   1      38.984  32.023  33.026  1.00  0.00    -0.248 NA
ATOM     17  C   UNL A   1      37.226  33.558  32.995  1.00  0.00     0.031 C 
ATOM     18  C   UNL A   1      37.852  30.715  28.897  1.00  0.00     0.029 A 
ATOM     19  N   UNL A   1      39.232  30.332  30.612  1.00  0.00    -0.354 N 
ATOM     20  C   UNL A   1      38.980  32.737  34.216  1.00  0.00     0.074 A 
ATOM     21  C   UNL A   1      37.900  33.697  34.128  1.00  0.00     0.031 C 
ATOM     22  C   UNL A   1      38.634  29.684  28.553  1.00  0.00     0.029 A 
ATOM     23  C   UNL A   1      39.586  29.442  29.629  1.00  0.00     0.049 A 
ATOM     24  H   UNL A   1      39.682  30.381  31.486  1.00  0.00     0.167 HD
ATOM     25  C   UNL A   1      39.805  32.595  35.282  1.00  0.00     0.037 A 
ATOM     26  C   UNL A   1      40.591  28.551  29.579  1.00  0.00     0.037 A 
ATOM     27  C   UNL A   1      40.867  31.622  35.353  1.00  0.00     0.049 A 
ATOM     28  C   UNL A   1      41.501  28.431  30.764  1.00  0.00     0.074 A 
ATOM     29  C   UNL A   1      41.731  31.364  36.402  1.00  0.00     0.029 A 
ATOM     30  N   UNL A   1      41.213  30.752  34.327  1.00  0.00    -0.354 N 
ATOM     31  N   UNL A   1      41.467  29.087  31.897  1.00  0.00    -0.248 NA
ATOM     32  C   UNL A   1      42.590  27.453  30.662  1.00  0.00     0.031 C 
ATOM     33  C   UNL A   1      42.637  30.380  35.990  1.00  0.00     0.029 A 
ATOM     34  C   UNL A   1      42.300  29.979  34.707  1.00  0.00     0.049 A 
ATOM     35  H   UNL A   1      40.754  30.693  33.458  1.00  0.00     0.167 HD
ATOM     36  C   UNL A   1      42.522  28.598  32.651  1.00  0.00     0.074 A 
ATOM     37  C   UNL A   1      43.162  27.571  31.852  1.00  0.00     0.031 C 
ATOM     38  C   UNL A   1      42.927  28.968  33.892  1.00  0.00     0.037 A 
BRANCH  25  39
ATOM     39  C   UNL A   1      39.619  33.536  36.438  1.00  0.00     0.064 A 
ATOM     40  C   UNL A   1      40.230  34.798  36.478  1.00  0.00     0.173 A 
ATOM     41  C   UNL A   1      38.792  33.177  37.515  1.00  0.00     0.173 A 
ATOM     42  F   UNL A   1      41.038  35.189  35.480  1.00  0.00    -0.203 F 
ATOM     43  C   UNL A   1      40.047  35.651  37.565  1.00  0.00     0.198 A 
ATOM     44  C   UNL A   1      38.588  34.044  38.586  1.00  0.00     0.198 A 
ATOM     45  F   UNL A   1      38.179  31.984  37.528  1.00  0.00    -0.203 F 
ATOM     46  F   UNL A   1      40.685  36.829  37.605  1.00  0.00    -0.200 F 
ATOM     47  C   UNL A   1      39.222  35.276  38.615  1.00  0.00     0.200 A 
ATOM     48  F   UNL A   1      37.780  33.683  39.592  1.00  0.00    -0.200 F 
ATOM     49  F   UNL A   1      39.046  36.098  39.658  1.00  0.00    -0.200 F 
ENDBRANCH  25  39
BRANCH  26  50
ATOM     50  C   UNL A   1      40.787  27.741  28.350  1.00  0.00     0.064 A 
ATOM     51  C   UNL A   1      41.612  28.187  27.309  1.00  0.00     0.173 A 
ATOM     52  C   UNL A   1      40.188  26.479  28.215  1.00  0.00     0.173 A 
ATOM     53  F   UNL A   1      42.195  29.391  27.386  1.00  0.00    -0.203 F 
ATOM     54  C   UNL A   1      41.823  27.403  26.177  1.00  0.00     0.198 A 
ATOM     55  C   UNL A   1      40.427  25.683  27.099  1.00  0.00     0.198 A 
ATOM     56  F   UNL A   1      39.401  26.001  29.190  1.00  0.00    -0.203 F 
ATOM     57  F   UNL A   1      42.590  27.866  25.180  1.00  0.00    -0.200 F 
ATOM     58  C   UNL A   1      41.239  26.149  26.076  1.00  0.00     0.200 A 
ATOM     59  F   UNL A   1      39.881  24.462  27.019  1.00  0.00    -0.200 F 
ATOM     60  F   UNL A   1      41.458  25.390  24.994  1.00  0.00    -0.200 F 
ENDBRANCH  26  50
BRANCH  38  61
ATOM     61  C   UNL A   1      44.106  28.239  34.465  1.00  0.00     0.064 A 
ATOM     62  C   UNL A   1      45.405  28.761  34.378  1.00  0.00     0.173 A 
ATOM     63  C   UNL A   1      43.929  27.021  35.135  1.00  0.00     0.173 A 
ATOM     64  F   UNL A   1      45.628  29.913  33.729  1.00  0.00    -0.203 F 
ATOM     65  C   UNL A   1      46.487  28.076  34.922  1.00  0.00     0.198 A 
ATOM     66  C   UNL A   1      45.008  26.354  35.706  1.00  0.00     0.198 A 
ATOM     67  F   UNL A   1      42.705  26.482  35.247  1.00  0.00    -0.203 F 
ATOM     68  F   UNL A   1      47.726  28.567  34.784  1.00  0.00    -0.200 F 
ATOM     69  C   UNL A   1      46.288  26.878  35.592  1.00  0.00     0.200 A 
ATOM     70  F   UNL A   1      44.812  25.204  36.364  1.00  0.00    -0.200 F 
ATOM     71  F   UNL A   1      47.330  26.224  36.123  1.00  0.00    -0.200 F 
ENDBRANCH  38  61
ENDBRANCH  12  13
ENDBRANCH   5   7
ENDBRANCH   2   3
ENDBRANCH   1   2
BRANCH   1  72
ATOM     72  C   UNL A   1      31.104  30.861  25.430  1.00  0.00     0.117 C 
BRANCH  72  73
ATOM     73  N   UNL A   1      32.320  30.083  25.319  1.00  0.00    -0.356 N 
ATOM     74  C   UNL A   1      32.543  28.784  25.008  1.00  0.00     0.224 C 
ATOM     75  H   UNL A   1      33.139  30.597  25.503  1.00  0.00     0.163 HD
ATOM     76  O   UNL A   1      33.730  28.453  24.938  1.00  0.00    -0.275 OA
BRANCH  74  77
ATOM     77  C   UNL A   1      31.427  27.749  24.877  1.00  0.00     0.094 C 
ATOM     78  C   UNL A   1      30.271  27.988  23.877  1.00  0.00     0.002 C 
ATOM     79  C   UNL A   1      32.019  26.400  24.352  1.00  0.00     0.094 C 
ATOM     80  C   UNL A   1      30.805  28.286  22.471  1.00  0.00     0.005 C 
ATOM     81  C   UNL A   1      29.707  26.591  23.683  1.00  0.00     0.009 C 
ATOM     82  C   UNL A   1      31.035  26.004  23.231  1.00  0.00     0.002 C 
ATOM     83  C   UNL A   1      31.316  26.913  22.009  1.00  0.00     0.005 C 
BRANCH  79  84
ATOM     84  C   UNL A   1      32.307  25.396  25.475  1.00  0.00     0.226 C 
ATOM     85  O   UNL A   1      32.209  25.737  26.655  1.00  0.00    -0.275 OA
ATOM     86  N   UNL A   1      32.509  24.074  25.140  1.00  0.00    -0.339 N 
ATOM     87  C   UNL A   1      31.870  23.048  25.972  1.00  0.00     0.141 C 
ATOM     88  C   UNL A   1      33.737  23.602  24.504  1.00  0.00     0.141 C 
ATOM     89  C   UNL A   1      31.559  21.783  25.144  1.00  0.00     0.138 C 
ATOM     90  C   UNL A   1      33.460  22.364  23.633  1.00  0.00     0.138 C 
ATOM     91  N   UNL A   1      32.770  21.335  24.432  1.00  0.00    -0.368 N 
BRANCH  91  92
ATOM     92  C   UNL A   1      32.941  20.017  24.054  1.00  0.00     0.038 A 
ATOM     93  C   UNL A   1      32.153  19.494  23.014  1.00  0.00     0.026 A 
ATOM     94  C   UNL A   1      33.876  19.166  24.651  1.00  0.00     0.046 A 
ATOM     95  C   UNL A   1      32.292  18.177  22.577  1.00  0.00     0.004 A 
ATOM     96  C   UNL A   1      34.009  17.843  24.224  1.00  0.00     0.043 A 
ATOM     97  C   UNL A   1      33.224  17.346  23.186  1.00  0.00     0.020 A 
ATOM     98  Cl  UNL A   1      35.153  16.808  24.992  1.00  0.00    -0.084 Cl
ENDBRANCH  91  92
ENDBRANCH  79  84
ENDBRANCH  74  77
ENDBRANCH  72  73
ENDBRANCH   1  72
TORSDOF 12
ENDMDL
MODEL 2
REMARK VINA RESULT:     -14.0      0.320      1.581
REMARK SMILES O=C(NCCCNC(=O)[C@H]1[C@H]2CC[C@H](C2)[C@@H]1C(=O)N1CCN(c2cccc(Cl)c2)CC1)c1ccc(-c2c3nc(c(-c4c(F)c(F)c(F)c(F)c4F)c4ccc([nH]4)c(-c4c(F)c(F)c(F)c(F)c4F)c4nc(c(-c5c(F)c(F)c(F)c(F)c5F)c5ccc2[nH]5)C=C4)C=C3)cc1
REMARK SMILES IDX 5 1 4 2 3 3 1 4 2 5 32 7 33 8 94 9 34 10 93 11 35 12 36 13
REMARK SMILES IDX 37 14 87 15 38 16 92 17 86 18 88 19 39 20 91 21 85 22 84 23
REMARK SMILES IDX 40 25 72 26 52 27 71 28 53 29 56 30 70 31 89 32 54 33 55 34
REMARK SMILES IDX 69 36 90 37 57 38 41 39 42 40 50 41 43 42 44 43 48 44 51 45
REMARK SMILES IDX 45 46 46 47 49 48 47 49 73 50 74 51 82 52 75 53 76 54 80 55
REMARK SMILES IDX 83 56 77 57 78 58 81 59 79 60 58 61 59 62 67 63 60 64 61 65
REMARK SMILES IDX 65 66 68 67 62 68 63 69 66 70 64 71 6 72 7 73 8 74 9 76
REMARK SMILES IDX 10 77 11 78 16 79 12 80 15 81 14 82 13 83 17 84 18 85 19 86
REMARK SMILES IDX 20 87 31 88 21 89 30 90 22 91 23 92 24 93 29 94 25 95 27 96
REMARK SMILES IDX 26 97 28 98
REMARK H PARENT 3 6 88 24 56 35 7 75
REMARK Flexibility Score: inf
ROOT
ATOM      1  C   UNL A   1      31.407  31.922  26.517  1.00  0.00     0.042 C 
ENDROOT
BRANCH   1   2
ATOM      2  C   UNL A   1      32.721  32.525  26.971  1.00  0.00     0.118 C 
BRANCH   2   3
ATOM      3  N   UNL A   1      32.547  33.879  27.494  1.00  0.00    -0.352 N 
ATOM      4  O   UNL A   1      32.642  35.537  29.020  1.00  0.00    -0.269 OA
ATOM      5  C   UNL A   1      33.125  34.496  28.575  1.00  0.00     0.251 C 
ATOM      6  H   UNL A   1      31.912  34.438  26.989  1.00  0.00     0.163 HD
BRANCH   5   7
ATOM      7  C   UNL A   1      34.318  33.907  29.212  1.00  0.00     0.039 A 
ATOM      8  C   UNL A   1      34.183  32.797  30.045  1.00  0.00     0.014 A 
ATOM      9  C   UNL A   1      35.585  34.436  28.953  1.00  0.00     0.014 A 
ATOM     10  C   UNL A   1      35.267  32.347  30.776  1.00  0.00     0.010 A 
ATOM     11  C   UNL A   1      36.706  33.882  29.578  1.00  0.00     0.010 A 
ATOM     12  C   UNL A   1      36.549  32.851  30.517  1.00  0.00    -0.014 A 
BRANCH  12  13
ATOM     13  C   UNL A   1      37.707  32.197  31.171  1.00  0.00     0.031 A 
ATOM     14  C   UNL A   1      38.130  32.568  32.559  1.00  0.00     0.074 A 
ATOM     15  C   UNL A   1      38.352  31.230  30.490  1.00  0.00     0.049 A 
ATOM     16  N   UNL A   1      39.121  32.093  33.270  1.00  0.00    -0.248 NA
ATOM     17  C   UNL A   1      37.353  33.616  33.236  1.00  0.00     0.031 C 
ATOM     18  C   UNL A   1      38.026  30.803  29.126  1.00  0.00     0.029 A 
ATOM     19  N   UNL A   1      39.397  30.419  30.847  1.00  0.00    -0.354 N 
ATOM     20  C   UNL A   1      39.104  32.799  34.464  1.00  0.00     0.074 A 
ATOM     21  C   UNL A   1      38.018  33.753  34.375  1.00  0.00     0.031 C 
ATOM     22  C   UNL A   1      38.818  29.779  28.781  1.00  0.00     0.029 A 
ATOM     23  C   UNL A   1      39.763  29.537  29.862  1.00  0.00     0.049 A 
ATOM     24  H   UNL A   1      39.841  30.465  31.725  1.00  0.00     0.167 HD
ATOM     25  C   UNL A   1      39.923  32.657  35.535  1.00  0.00     0.037 A 
ATOM     26  C   UNL A   1      40.775  28.653  29.813  1.00  0.00     0.037 A 
ATOM     27  C   UNL A   1      40.990  31.690  35.608  1.00  0.00     0.049 A 
ATOM     28  C   UNL A   1      41.678  28.531  31.003  1.00  0.00     0.074 A 
ATOM     29  C   UNL A   1      41.849  31.431  36.661  1.00  0.00     0.029 A 
ATOM     30  N   UNL A   1      41.349  30.829  34.579  1.00  0.00    -0.354 N 
ATOM     31  N   UNL A   1      41.631  29.181  32.141  1.00  0.00    -0.248 NA
ATOM     32  C   UNL A   1      42.773  27.561  30.904  1.00  0.00     0.031 C 
ATOM     33  C   UNL A   1      42.764  30.456  36.250  1.00  0.00     0.029 A 
ATOM     34  C   UNL A   1      42.439  30.061  34.961  1.00  0.00     0.049 A 
ATOM     35  H   UNL A   1      40.897  30.772  33.706  1.00  0.00     0.167 HD
ATOM     36  C   UNL A   1      42.684  28.694  32.899  1.00  0.00     0.074 A 
ATOM     37  C   UNL A   1      43.336  27.676  32.098  1.00  0.00     0.031 C 
ATOM     38  C   UNL A   1      43.078  29.059  34.144  1.00  0.00     0.037 A 
BRANCH  25  39
ATOM     39  C   UNL A   1      39.722  33.589  36.695  1.00  0.00     0.064 A 
ATOM     40  C   UNL A   1      38.877  33.270  37.770  1.00  0.00     0.173 A 
ATOM     41  C   UNL A   1      40.407  34.814  36.746  1.00  0.00     0.173 A 
ATOM     42  F   UNL A   1      38.190  32.117  37.769  1.00  0.00    -0.203 F 
ATOM     43  C   UNL A   1      38.701  34.154  38.832  1.00  0.00     0.198 A 
ATOM     44  C   UNL A   1      40.252  35.681  37.824  1.00  0.00     0.198 A 
ATOM     45  F   UNL A   1      41.232  35.168  35.749  1.00  0.00    -0.203 F 
ATOM     46  F   UNL A   1      37.847  33.850  39.820  1.00  0.00    -0.200 F 
ATOM     47  C   UNL A   1      39.393  35.356  38.862  1.00  0.00     0.200 A 
ATOM     48  F   UNL A   1      40.931  36.836  37.855  1.00  0.00    -0.200 F 
ATOM     49  F   UNL A   1      39.224  36.204  39.885  1.00  0.00    -0.200 F 
ENDBRANCH  25  39
BRANCH  26  50
ATOM     50  C   UNL A   1      40.984  27.852  28.580  1.00  0.00     0.064 A 
ATOM     51  C   UNL A   1      40.309  26.643  28.376  1.00  0.00     0.173 A 
ATOM     52  C   UNL A   1      41.831  28.309  27.558  1.00  0.00     0.173 A 
ATOM     53  F   UNL A   1      39.499  26.159  29.328  1.00  0.00    -0.203 F 
ATOM     54  C   UNL A   1      40.479  25.917  27.199  1.00  0.00     0.198 A 
ATOM     55  C   UNL A   1      41.974  27.600  26.369  1.00  0.00     0.198 A 
ATOM     56  F   UNL A   1      42.490  29.469  27.700  1.00  0.00    -0.203 F 
ATOM     57  F   UNL A   1      39.846  24.746  27.040  1.00  0.00    -0.200 F 
ATOM     58  C   UNL A   1      41.303  26.400  26.193  1.00  0.00     0.200 A 
ATOM     59  F   UNL A   1      42.751  28.084  25.391  1.00  0.00    -0.200 F 
ATOM     60  F   UNL A   1      41.451  25.709  25.055  1.00  0.00    -0.200 F 
ENDBRANCH  26  50
BRANCH  38  61
ATOM     61  C   UNL A   1      44.258  28.334  34.721  1.00  0.00     0.064 A 
ATOM     62  C   UNL A   1      45.557  28.851  34.621  1.00  0.00     0.173 A 
ATOM     63  C   UNL A   1      44.080  27.125  35.408  1.00  0.00     0.173 A 
ATOM     64  F   UNL A   1      45.781  29.995  33.957  1.00  0.00    -0.203 F 
ATOM     65  C   UNL A   1      46.641  28.170  35.170  1.00  0.00     0.198 A 
ATOM     66  C   UNL A   1      45.161  26.462  35.982  1.00  0.00     0.198 A 
ATOM     67  F   UNL A   1      42.856  26.590  35.532  1.00  0.00    -0.203 F 
ATOM     68  F   UNL A   1      47.880  28.656  35.019  1.00  0.00    -0.200 F 
ATOM     69  C   UNL A   1      46.441  26.982  35.856  1.00  0.00     0.200 A 
ATOM     70  F   UNL A   1      44.965  25.321  36.655  1.00  0.00    -0.200 F 
ATOM     71  F   UNL A   1      47.484  26.331  36.390  1.00  0.00    -0.200 F 
ENDBRANCH  38  61
ENDBRANCH  12  13
ENDBRANCH   5   7
ENDBRANCH   2   3
ENDBRANCH   1   2
BRANCH   1  72
ATOM     72  C   UNL A   1      31.456  30.410  26.502  1.00  0.00     0.117 C 
BRANCH  72  73
ATOM     73  N   UNL A   1      32.515  29.900  25.657  1.00  0.00    -0.356 N 
ATOM     74  C   UNL A   1      32.595  28.812  24.856  1.00  0.00     0.224 C 
ATOM     75  H   UNL A   1      33.332  30.450  25.668  1.00  0.00     0.163 HD
ATOM     76  O   UNL A   1      33.642  28.703  24.211  1.00  0.00    -0.275 OA
BRANCH  74  77
ATOM     77  C   UNL A   1      31.535  27.711  24.828  1.00  0.00     0.094 C 
ATOM     78  C   UNL A   1      30.283  27.873  23.933  1.00  0.00     0.002 C 
ATOM     79  C   UNL A   1      32.158  26.396  24.257  1.00  0.00     0.094 C 
ATOM     80  C   UNL A   1      30.672  28.190  22.484  1.00  0.00     0.005 C 
ATOM     81  C   UNL A   1      29.789  26.443  23.795  1.00  0.00     0.009 C 
ATOM     82  C   UNL A   1      31.104  25.932  23.228  1.00  0.00     0.002 C 
ATOM     83  C   UNL A   1      31.222  26.845  21.983  1.00  0.00     0.005 C 
BRANCH  79  84
ATOM     84  C   UNL A   1      32.604  25.420  25.353  1.00  0.00     0.226 C 
ATOM     85  O   UNL A   1      32.672  25.791  26.526  1.00  0.00    -0.275 OA
ATOM     86  N   UNL A   1      32.759  24.090  25.027  1.00  0.00    -0.339 N 
ATOM     87  C   UNL A   1      32.247  23.086  25.966  1.00  0.00     0.141 C 
ATOM     88  C   UNL A   1      33.887  23.600  24.236  1.00  0.00     0.141 C 
ATOM     89  C   UNL A   1      31.825  21.801  25.222  1.00  0.00     0.138 C 
ATOM     90  C   UNL A   1      33.494  22.340  23.445  1.00  0.00     0.138 C 
ATOM     91  N   UNL A   1      32.925  21.333  24.359  1.00  0.00    -0.368 N 
BRANCH  91  92
ATOM     92  C   UNL A   1      33.044  20.005  23.994  1.00  0.00     0.038 A 
ATOM     93  C   UNL A   1      32.244  19.507  22.952  1.00  0.00     0.026 A 
ATOM     94  C   UNL A   1      33.938  19.122  24.608  1.00  0.00     0.046 A 
ATOM     95  C   UNL A   1      32.332  18.181  22.527  1.00  0.00     0.004 A 
ATOM     96  C   UNL A   1      34.019  17.791  24.193  1.00  0.00     0.043 A 
ATOM     97  C   UNL A   1      33.223  17.317  23.153  1.00  0.00     0.020 A 
ATOM     98  Cl  UNL A   1      35.112  16.716  24.981  1.00  0.00    -0.084 Cl
ENDBRANCH  91  92
ENDBRANCH  79  84
ENDBRANCH  74  77
ENDBRANCH  72  73
ENDBRANCH   1  72
TORSDOF 12
ENDMDL
MODEL 3
REMARK VINA RESULT:     -13.9      0.417      7.052
REMARK SMILES O=C(NCCCNC(=O)[C@H]1[C@H]2CC[C@H](C2)[C@@H]1C(=O)N1CCN(c2cccc(Cl)c2)CC1)c1ccc(-c2c3nc(c(-c4c(F)c(F)c(F)c(F)c4F)c4ccc([nH]4)c(-c4c(F)c(F)c(F)c(F)c4F)c4nc(c(-c5c(F)c(F)c(F)c(F)c5F)c5ccc2[nH]5)C=C4)C=C3)cc1
REMARK SMILES IDX 5 1 4 2 3 3 1 4 2 5 32 7 33 8 94 9 34 10 93 11 35 12 36 13
REMARK SMILES IDX 37 14 87 15 38 16 92 17 86 18 88 19 39 20 91 21 85 22 84 23
REMARK SMILES IDX 40 25 72 26 52 27 71 28 53 29 56 30 70 31 89 32 54 33 55 34
REMARK SMILES IDX 69 36 90 37 57 38 41 39 42 40 50 41 43 42 44 43 48 44 51 45
REMARK SMILES IDX 45 46 46 47 49 48 47 49 73 50 74 51 82 52 75 53 76 54 80 55
REMARK SMILES IDX 83 56 77 57 78 58 81 59 79 60 58 61 59 62 67 63 60 64 61 65
REMARK SMILES IDX 65 66 68 67 62 68 63 69 66 70 64 71 6 72 7 73 8 74 9 76
REMARK SMILES IDX 10 77 11 78 16 79 12 80 15 81 14 82 13 83 17 84 18 85 19 86
REMARK SMILES IDX 20 87 31 88 21 89 30 90 22 91 23 92 24 93 29 94 25 95 27 96
REMARK SMILES IDX 26 97 28 98
REMARK H PARENT 3 6 88 24 56 35 7 75
REMARK Flexibility Score: inf
ROOT
ATOM      1  C   UNL A   1      31.403  32.177  26.155  1.00  0.00     0.042 C 
ENDROOT
BRANCH   1   2
ATOM      2  C   UNL A   1      32.425  32.480  27.233  1.00  0.00     0.118 C 
BRANCH   2   3
ATOM      3  N   UNL A   1      32.453  33.901  27.573  1.00  0.00    -0.352 N 
ATOM      4  O   UNL A   1      32.868  35.718  28.843  1.00  0.00    -0.269 OA
ATOM      5  C   UNL A   1      33.188  34.576  28.516  1.00  0.00     0.251 C 
ATOM      6  H   UNL A   1      31.846  34.465  27.040  1.00  0.00     0.163 HD
BRANCH   5   7
ATOM      7  C   UNL A   1      34.355  33.928  29.145  1.00  0.00     0.039 A 
ATOM      8  C   UNL A   1      34.170  32.834  29.988  1.00  0.00     0.014 A 
ATOM      9  C   UNL A   1      35.645  34.388  28.870  1.00  0.00     0.014 A 
ATOM     10  C   UNL A   1      35.236  32.331  30.712  1.00  0.00     0.010 A 
ATOM     11  C   UNL A   1      36.742  33.779  29.488  1.00  0.00     0.010 A 
ATOM     12  C   UNL A   1      36.540  32.765  30.436  1.00  0.00    -0.014 A 
BRANCH  12  13
ATOM     13  C   UNL A   1      37.668  32.055  31.084  1.00  0.00     0.031 A 
ATOM     14  C   UNL A   1      38.457  31.014  30.352  1.00  0.00     0.074 A 
ATOM     15  C   UNL A   1      37.985  32.397  32.348  1.00  0.00     0.049 A 
ATOM     16  N   UNL A   1      39.469  30.301  30.776  1.00  0.00    -0.248 NA
ATOM     17  C   UNL A   1      38.056  30.723  28.967  1.00  0.00     0.031 C 
ATOM     18  C   UNL A   1      37.269  33.390  33.154  1.00  0.00     0.029 A 
ATOM     19  N   UNL A   1      38.993  31.970  33.171  1.00  0.00    -0.354 N 
ATOM     20  C   UNL A   1      39.809  29.460  29.726  1.00  0.00     0.074 A 
ATOM     21  C   UNL A   1      38.881  29.734  28.649  1.00  0.00     0.031 C 
ATOM     22  C   UNL A   1      37.887  33.532  34.333  1.00  0.00     0.029 A 
ATOM     23  C   UNL A   1      38.987  32.580  34.401  1.00  0.00     0.049 A 
ATOM     24  H   UNL A   1      39.657  31.293  32.907  1.00  0.00     0.167 HD
ATOM     25  C   UNL A   1      40.808  28.546  29.672  1.00  0.00     0.037 A 
ATOM     26  C   UNL A   1      39.757  32.371  35.483  1.00  0.00     0.037 A 
ATOM     27  C   UNL A   1      41.730  28.299  30.753  1.00  0.00     0.049 A 
ATOM     28  C   UNL A   1      40.841  31.339  35.402  1.00  0.00     0.074 A 
ATOM     29  C   UNL A   1      42.806  27.429  30.787  1.00  0.00     0.029 A 
ATOM     30  N   UNL A   1      41.678  28.918  31.995  1.00  0.00    -0.354 N 
ATOM     31  N   UNL A   1      41.175  30.574  34.392  1.00  0.00    -0.248 NA
ATOM     32  C   UNL A   1      41.651  31.138  36.608  1.00  0.00     0.031 C 
ATOM     33  C   UNL A   1      43.368  27.479  32.067  1.00  0.00     0.029 A 
ATOM     34  C   UNL A   1      42.683  28.425  32.814  1.00  0.00     0.049 A 
ATOM     35  H   UNL A   1      41.024  29.606  32.256  1.00  0.00     0.167 HD
ATOM     36  C   UNL A   1      42.239  29.804  34.834  1.00  0.00     0.074 A 
ATOM     37  C   UNL A   1      42.510  30.216  36.198  1.00  0.00     0.031 C 
ATOM     38  C   UNL A   1      42.928  28.842  34.172  1.00  0.00     0.037 A 
BRANCH  25  39
ATOM     39  C   UNL A   1      40.933  27.722  28.423  1.00  0.00     0.064 A 
ATOM     40  C   UNL A   1      41.737  28.120  27.345  1.00  0.00     0.173 A 
ATOM     41  C   UNL A   1      40.254  26.497  28.313  1.00  0.00     0.173 A 
ATOM     42  F   UNL A   1      42.400  29.286  27.391  1.00  0.00    -0.203 F 
ATOM     43  C   UNL A   1      41.831  27.342  26.193  1.00  0.00     0.198 A 
ATOM     44  C   UNL A   1      40.375  25.707  27.173  1.00  0.00     0.198 A 
ATOM     45  F   UNL A   1      39.475  26.064  29.315  1.00  0.00    -0.203 F 
ATOM     46  F   UNL A   1      42.563  27.771  25.155  1.00  0.00    -0.200 F 
ATOM     47  C   UNL A   1      41.156  26.134  26.110  1.00  0.00     0.200 A 
ATOM     48  F   UNL A   1      39.731  24.534  27.101  1.00  0.00    -0.200 F 
ATOM     49  F   UNL A   1      41.249  25.386  25.002  1.00  0.00    -0.200 F 
ENDBRANCH  25  39
BRANCH  26  50
ATOM     50  C   UNL A   1      39.493  33.141  36.725  1.00  0.00     0.064 A 
ATOM     51  C   UNL A   1      40.150  34.350  36.984  1.00  0.00     0.173 A 
ATOM     52  C   UNL A   1      38.537  32.703  37.655  1.00  0.00     0.173 A 
ATOM     53  F   UNL A   1      41.080  34.803  36.131  1.00  0.00    -0.203 F 
ATOM     54  C   UNL A   1      39.867  35.087  38.132  1.00  0.00     0.198 A 
ATOM     55  C   UNL A   1      38.231  33.457  38.784  1.00  0.00     0.198 A 
ATOM     56  F   UNL A   1      37.870  31.558  37.445  1.00  0.00    -0.203 F 
ATOM     57  F   UNL A   1      40.533  36.225  38.374  1.00  0.00    -0.200 F 
ATOM     58  C   UNL A   1      38.902  34.647  39.026  1.00  0.00     0.200 A 
ATOM     59  F   UNL A   1      37.280  33.040  39.630  1.00  0.00    -0.200 F 
ATOM     60  F   UNL A   1      38.619  35.366  40.119  1.00  0.00    -0.200 F 
ENDBRANCH  26  50
BRANCH  38  61
ATOM     61  C   UNL A   1      44.056  28.185  34.913  1.00  0.00     0.064 A 
ATOM     62  C   UNL A   1      45.344  28.738  34.929  1.00  0.00     0.173 A 
ATOM     63  C   UNL A   1      43.834  27.008  35.641  1.00  0.00     0.173 A 
ATOM     64  F   UNL A   1      45.611  29.852  34.232  1.00  0.00    -0.203 F 
ATOM     65  C   UNL A   1      46.377  28.120  35.628  1.00  0.00     0.198 A 
ATOM     66  C   UNL A   1      44.860  26.409  36.365  1.00  0.00     0.198 A 
ATOM     67  F   UNL A   1      42.618  26.442  35.659  1.00  0.00    -0.203 F 
ATOM     68  F   UNL A   1      47.613  28.636  35.589  1.00  0.00    -0.200 F 
ATOM     69  C   UNL A   1      46.133  26.962  36.352  1.00  0.00     0.200 A 
ATOM     70  F   UNL A   1      44.620  25.298  37.073  1.00  0.00    -0.200 F 
ATOM     71  F   UNL A   1      47.127  26.372  37.031  1.00  0.00    -0.200 F 
ENDBRANCH  38  61
ENDBRANCH  12  13
ENDBRANCH   5   7
ENDBRANCH   2   3
ENDBRANCH   1   2
BRANCH   1  72
ATOM     72  C   UNL A   1      31.212  30.689  25.961  1.00  0.00     0.117 C 
BRANCH  72  73
ATOM     73  N   UNL A   1      32.372  30.055  25.373  1.00  0.00    -0.356 N 
ATOM     74  C   UNL A   1      32.553  28.844  24.796  1.00  0.00     0.224 C 
ATOM     75  H   UNL A   1      33.184  30.612  25.396  1.00  0.00     0.163 HD
ATOM     76  O   UNL A   1      33.677  28.640  24.330  1.00  0.00    -0.275 OA
BRANCH  74  77
ATOM     77  C   UNL A   1      31.498  27.738  24.820  1.00  0.00     0.094 C 
ATOM     78  C   UNL A   1      30.215  27.881  23.966  1.00  0.00     0.002 C 
ATOM     79  C   UNL A   1      32.108  26.417  24.247  1.00  0.00     0.094 C 
ATOM     80  C   UNL A   1      30.553  28.178  22.501  1.00  0.00     0.005 C 
ATOM     81  C   UNL A   1      29.723  26.447  23.865  1.00  0.00     0.009 C 
ATOM     82  C   UNL A   1      31.022  25.934  23.261  1.00  0.00     0.002 C 
ATOM     83  C   UNL A   1      31.092  26.829  22.000  1.00  0.00     0.005 C 
BRANCH  79  84
ATOM     84  C   UNL A   1      32.595  25.459  25.341  1.00  0.00     0.226 C 
ATOM     85  O   UNL A   1      32.698  25.846  26.506  1.00  0.00    -0.275 OA
ATOM     86  N   UNL A   1      32.749  24.126  25.028  1.00  0.00    -0.339 N 
ATOM     87  C   UNL A   1      32.274  23.131  25.997  1.00  0.00     0.141 C 
ATOM     88  C   UNL A   1      33.855  23.633  24.208  1.00  0.00     0.141 C 
ATOM     89  C   UNL A   1      31.838  21.833  25.284  1.00  0.00     0.138 C 
ATOM     90  C   UNL A   1      33.445  22.360  23.447  1.00  0.00     0.138 C 
ATOM     91  N   UNL A   1      32.913  21.362  24.392  1.00  0.00    -0.368 N 
BRANCH  91  92
ATOM     92  C   UNL A   1      33.030  20.029  24.041  1.00  0.00     0.038 A 
ATOM     93  C   UNL A   1      32.199  19.511  23.035  1.00  0.00     0.026 A 
ATOM     94  C   UNL A   1      33.951  19.162  24.636  1.00  0.00     0.046 A 
ATOM     95  C   UNL A   1      32.282  18.180  22.625  1.00  0.00     0.004 A 
ATOM     96  C   UNL A   1      34.028  17.825  24.238  1.00  0.00     0.043 A 
ATOM     97  C   UNL A   1      33.201  17.331  23.232  1.00  0.00     0.020 A 
ATOM     98  Cl  UNL A   1      35.155  16.770  25.001  1.00  0.00    -0.084 Cl
ENDBRANCH  91  92
ENDBRANCH  79  84
ENDBRANCH  74  77
ENDBRANCH  72  73
ENDBRANCH   1  72
TORSDOF 12
ENDMDL
