MODEL 1
REMARK VINA RESULT:     -11.8      0.000      0.000
REMARK SMILES CC(C)[C@@H](CCNC(=O)N1C[C@@H](C)[C@H](C)C1)CCC(=O)NCCCNC(=O)c1ccc(-c2c3nc(c(-c4c(F)c(F)c(F)c(F)c4F)c4ccc([nH]4)c(-c4c(F)c(F)c(F)c(F)c4F)c4nc(c(-c5c(F)c(F)c(F)c(F)c5F)c5ccc2[nH]5)C=C4)C=C3)cc1
REMARK SMILES IDX 19 1 20 2 21 3 18 5 17 6 4 7 2 8 1 9 3 10 5 11 6 12 7 13
REMARK SMILES IDX 8 14 9 16 10 17 11 18 16 19 12 20 14 21 13 22 15 23 22 24
REMARK SMILES IDX 23 25 24 26 25 27 26 28 27 30 28 31 29 32 90 33 30 34 89 35
REMARK SMILES IDX 31 36 32 37 33 38 83 39 34 40 88 41 82 42 84 43 35 44 87 45
REMARK SMILES IDX 81 46 80 47 36 49 68 50 48 51 67 52 49 53 52 54 66 55 85 56
REMARK SMILES IDX 50 57 51 58 65 60 86 61 53 62 37 63 38 64 46 65 39 66 40 67
REMARK SMILES IDX 44 68 47 69 41 70 42 71 45 72 43 73 69 74 70 75 78 76 71 77
REMARK SMILES IDX 72 78 76 79 79 80 73 81 74 82 77 83 75 84 54 85 55 86 63 87
REMARK SMILES IDX 56 88 57 89 61 90 64 91 58 92 59 93 62 94 60 95
REMARK H PARENT 21 4 7 15 25 29 84 48 52 59
REMARK Flexibility Score: inf
ROOT
ATOM      1  C   UNL A   1      33.488  29.383  26.276  1.00  0.00     0.220 C 
ATOM      2  O   UNL A   1      34.423  29.021  26.995  1.00  0.00    -0.275 OA
ATOM      3  N   UNL A   1      32.690  30.379  26.752  1.00  0.00    -0.356 N 
ATOM      4  H   UNL A   1      32.997  30.778  27.598  1.00  0.00     0.163 HD
ENDROOT
BRANCH   1   5
ATOM      5  C   UNL A   1      33.301  28.789  24.885  1.00  0.00     0.100 C 
BRANCH   5   6
ATOM      6  C   UNL A   1      32.571  27.436  24.782  1.00  0.00     0.014 C 
BRANCH   6   7
ATOM      7  C   UNL A   1      31.033  27.480  24.911  1.00  0.00    -0.006 C 
BRANCH   7   8
ATOM      8  C   UNL A   1      30.195  27.807  23.634  1.00  0.00    -0.014 C 
ATOM      9  C   UNL A   1      28.860  27.037  23.654  1.00  0.00     0.007 C 
ATOM     10  C   UNL A   1      29.885  29.281  23.379  1.00  0.00     0.007 C 
ENDBRANCH   7   8
BRANCH   7  11
ATOM     11  C   UNL A   1      30.485  26.259  25.693  1.00  0.00     0.025 C 
BRANCH  11  12
ATOM     12  C   UNL A   1      31.235  24.940  25.537  1.00  0.00     0.118 C 
BRANCH  12  13
ATOM     13  N   UNL A   1      31.693  24.428  26.807  1.00  0.00    -0.338 N 
ATOM     14  C   UNL A   1      32.392  23.286  27.026  1.00  0.00     0.317 C 
ATOM     15  H   UNL A   1      31.475  24.968  27.601  1.00  0.00     0.165 HD
ATOM     16  O   UNL A   1      32.175  22.672  28.070  1.00  0.00    -0.249 OA
ATOM     17  N   UNL A   1      33.294  22.873  26.089  1.00  0.00    -0.324 N 
ATOM     18  C   UNL A   1      33.856  21.543  26.124  1.00  0.00     0.125 C 
ATOM     19  C   UNL A   1      34.035  23.714  25.165  1.00  0.00     0.125 C 
ATOM     20  C   UNL A   1      35.333  21.749  25.810  1.00  0.00     0.010 C 
ATOM     21  C   UNL A   1      35.378  23.017  24.936  1.00  0.00     0.010 C 
ATOM     22  C   UNL A   1      35.935  20.543  25.104  1.00  0.00     0.010 C 
ATOM     23  C   UNL A   1      36.546  23.929  25.290  1.00  0.00     0.010 C 
ENDBRANCH  12  13
ENDBRANCH  11  12
ENDBRANCH   7  11
ENDBRANCH   6   7
ENDBRANCH   5   6
ENDBRANCH   1   5
BRANCH   3  24
ATOM     24  C   UNL A   1      31.466  30.954  26.230  1.00  0.00     0.117 C 
BRANCH  24  25
ATOM     25  C   UNL A   1      31.376  32.440  26.586  1.00  0.00     0.042 C 
BRANCH  25  26
ATOM     26  C   UNL A   1      32.645  32.993  27.194  1.00  0.00     0.118 C 
BRANCH  26  27
ATOM     27  N   UNL A   1      32.456  34.354  27.678  1.00  0.00    -0.352 N 
ATOM     28  C   UNL A   1      33.036  35.014  28.734  1.00  0.00     0.251 C 
ATOM     29  H   UNL A   1      31.808  34.888  27.164  1.00  0.00     0.163 HD
ATOM     30  O   UNL A   1      32.576  36.092  29.093  1.00  0.00    -0.269 OA
BRANCH  28  31
ATOM     31  C   UNL A   1      34.189  34.427  29.456  1.00  0.00     0.039 A 
ATOM     32  C   UNL A   1      33.954  33.714  30.637  1.00  0.00     0.014 A 
ATOM     33  C   UNL A   1      35.496  34.587  28.998  1.00  0.00     0.014 A 
ATOM     34  C   UNL A   1      35.021  33.124  31.316  1.00  0.00     0.010 A 
ATOM     35  C   UNL A   1      36.536  33.887  29.593  1.00  0.00     0.010 A 
ATOM     36  C   UNL A   1      36.317  33.174  30.778  1.00  0.00    -0.014 A 
BRANCH  36  37
ATOM     37  C   UNL A   1      37.468  32.531  31.459  1.00  0.00     0.031 A 
ATOM     38  C   UNL A   1      38.196  31.394  30.791  1.00  0.00     0.074 A 
ATOM     39  C   UNL A   1      37.819  32.931  32.696  1.00  0.00     0.049 A 
ATOM     40  N   UNL A   1      39.181  30.660  31.242  1.00  0.00    -0.248 NA
ATOM     41  C   UNL A   1      37.729  31.003  29.449  1.00  0.00     0.031 C 
ATOM     42  C   UNL A   1      37.150  33.980  33.468  1.00  0.00     0.029 A 
ATOM     43  N   UNL A   1      38.822  32.500  33.526  1.00  0.00    -0.354 N 
ATOM     44  C   UNL A   1      39.432  29.717  30.252  1.00  0.00     0.074 A 
ATOM     45  C   UNL A   1      38.449  29.919  29.213  1.00  0.00     0.031 C 
ATOM     46  C   UNL A   1      37.788  34.141  34.638  1.00  0.00     0.029 A 
ATOM     47  C   UNL A   1      38.879  33.176  34.719  1.00  0.00     0.049 A 
ATOM     48  H   UNL A   1      39.444  31.774  33.287  1.00  0.00     0.167 HD
ATOM     49  C   UNL A   1      40.417  28.790  30.198  1.00  0.00     0.037 A 
ATOM     50  C   UNL A   1      39.719  33.030  35.762  1.00  0.00     0.037 A 
ATOM     51  C   UNL A   1      41.411  28.619  31.223  1.00  0.00     0.049 A 
ATOM     52  C   UNL A   1      40.805  31.992  35.678  1.00  0.00     0.074 A 
ATOM     53  C   UNL A   1      42.488  27.752  31.247  1.00  0.00     0.029 A 
ATOM     54  N   UNL A   1      41.446  29.335  32.412  1.00  0.00    -0.354 N 
ATOM     55  N   UNL A   1      41.078  31.155  34.705  1.00  0.00    -0.248 NA
ATOM     56  C   UNL A   1      41.705  31.884  36.833  1.00  0.00     0.031 C 
ATOM     57  C   UNL A   1      43.143  27.904  32.473  1.00  0.00     0.029 A 
ATOM     58  C   UNL A   1      42.514  28.911  33.187  1.00  0.00     0.049 A 
ATOM     59  H   UNL A   1      40.807  30.039  32.667  1.00  0.00     0.167 HD
ATOM     60  C   UNL A   1      42.197  30.443  35.117  1.00  0.00     0.074 A 
ATOM     61  C   UNL A   1      42.562  30.963  36.419  1.00  0.00     0.031 C 
ATOM     62  C   UNL A   1      42.863  29.450  34.478  1.00  0.00     0.037 A 
BRANCH  49  63
ATOM     63  C   UNL A   1      40.472  27.901  28.987  1.00  0.00     0.064 A 
ATOM     64  C   UNL A   1      41.275  28.213  27.877  1.00  0.00     0.173 A 
ATOM     65  C   UNL A   1      39.731  26.711  28.942  1.00  0.00     0.173 A 
ATOM     66  F   UNL A   1      41.994  29.345  27.860  1.00  0.00    -0.203 F 
ATOM     67  C   UNL A   1      41.306  27.385  26.757  1.00  0.00     0.198 A 
ATOM     68  C   UNL A   1      39.792  25.869  27.835  1.00  0.00     0.198 A 
ATOM     69  F   UNL A   1      38.948  26.361  29.974  1.00  0.00    -0.203 F 
ATOM     70  F   UNL A   1      42.032  27.737  25.688  1.00  0.00    -0.200 F 
ATOM     71  C   UNL A   1      40.571  26.211  26.740  1.00  0.00     0.200 A 
ATOM     72  F   UNL A   1      39.092  24.725  27.826  1.00  0.00    -0.200 F 
ATOM     73  F   UNL A   1      40.607  25.412  25.664  1.00  0.00    -0.200 F 
ENDBRANCH  49  63
BRANCH  50  74
ATOM     74  C   UNL A   1      39.588  33.910  36.955  1.00  0.00     0.064 A 
ATOM     75  C   UNL A   1      38.837  33.504  38.067  1.00  0.00     0.173 A 
ATOM     76  C   UNL A   1      40.202  35.169  37.008  1.00  0.00     0.173 A 
ATOM     77  F   UNL A   1      38.218  32.315  38.061  1.00  0.00    -0.203 F 
ATOM     78  C   UNL A   1      38.684  34.335  39.175  1.00  0.00     0.198 A 
ATOM     79  C   UNL A   1      40.075  35.986  38.130  1.00  0.00     0.198 A 
ATOM     80  F   UNL A   1      40.940  35.601  35.974  1.00  0.00    -0.203 F 
ATOM     81  F   UNL A   1      37.919  33.944  40.203  1.00  0.00    -0.200 F 
ATOM     82  C   UNL A   1      39.308  35.573  39.208  1.00  0.00     0.200 A 
ATOM     83  F   UNL A   1      40.697  37.173  38.165  1.00  0.00    -0.200 F 
ATOM     84  F   UNL A   1      39.165  36.371  40.276  1.00  0.00    -0.200 F 
ENDBRANCH  50  74
BRANCH  62  85
ATOM     85  C   UNL A   1      44.077  28.888  35.161  1.00  0.00     0.064 A 
ATOM     86  C   UNL A   1      44.004  27.761  35.991  1.00  0.00     0.173 A 
ATOM     87  C   UNL A   1      45.337  29.470  34.953  1.00  0.00     0.173 A 
ATOM     88  F   UNL A   1      42.820  27.176  36.233  1.00  0.00    -0.203 F 
ATOM     89  C   UNL A   1      45.141  27.258  36.617  1.00  0.00     0.198 A 
ATOM     90  C   UNL A   1      46.478  28.942  35.549  1.00  0.00     0.198 A 
ATOM     91  F   UNL A   1      45.464  30.544  34.158  1.00  0.00    -0.203 F 
ATOM     92  F   UNL A   1      45.037  26.217  37.455  1.00  0.00    -0.200 F 
ATOM     93  C   UNL A   1      46.377  27.844  36.389  1.00  0.00     0.200 A 
ATOM     94  F   UNL A   1      47.674  29.499  35.314  1.00  0.00    -0.200 F 
ATOM     95  F   UNL A   1      47.472  27.355  36.987  1.00  0.00    -0.200 F 
ENDBRANCH  62  85
ENDBRANCH  36  37
ENDBRANCH  28  31
ENDBRANCH  26  27
ENDBRANCH  25  26
ENDBRANCH  24  25
ENDBRANCH   3  24
TORSDOF 16
ENDMDL
MODEL 2
REMARK VINA RESULT:     -11.7      1.302      3.450
REMARK SMILES CC(C)[C@@H](CCNC(=O)N1C[C@@H](C)[C@H](C)C1)CCC(=O)NCCCNC(=O)c1ccc(-c2c3nc(c(-c4c(F)c(F)c(F)c(F)c4F)c4ccc([nH]4)c(-c4c(F)c(F)c(F)c(F)c4F)c4nc(c(-c5c(F)c(F)c(F)c(F)c5F)c5ccc2[nH]5)C=C4)C=C3)cc1
REMARK SMILES IDX 19 1 20 2 21 3 18 5 17 6 4 7 2 8 1 9 3 10 5 11 6 12 7 13
REMARK SMILES IDX 8 14 9 16 10 17 11 18 16 19 12 20 14 21 13 22 15 23 22 24
REMARK SMILES IDX 23 25 24 26 25 27 26 28 27 30 28 31 29 32 90 33 30 34 89 35
REMARK SMILES IDX 31 36 32 37 33 38 83 39 34 40 88 41 82 42 84 43 35 44 87 45
REMARK SMILES IDX 81 46 80 47 36 49 68 50 48 51 67 52 49 53 52 54 66 55 85 56
REMARK SMILES IDX 50 57 51 58 65 60 86 61 53 62 37 63 38 64 46 65 39 66 40 67
REMARK SMILES IDX 44 68 47 69 41 70 42 71 45 72 43 73 69 74 70 75 78 76 71 77
REMARK SMILES IDX 72 78 76 79 79 80 73 81 74 82 77 83 75 84 54 85 55 86 63 87
REMARK SMILES IDX 56 88 57 89 61 90 64 91 58 92 59 93 62 94 60 95
REMARK H PARENT 21 4 7 15 25 29 84 48 52 59
REMARK Flexibility Score: inf
ROOT
ATOM      1  C   UNL A   1      33.014  29.304  27.322  1.00  0.00     0.220 C 
ATOM      2  O   UNL A   1      34.197  29.141  27.629  1.00  0.00    -0.275 OA
ATOM      3  N   UNL A   1      32.684  30.487  26.734  1.00  0.00    -0.356 N 
ATOM      4  H   UNL A   1      33.451  31.068  26.527  1.00  0.00     0.163 HD
ENDROOT
BRANCH   1   5
ATOM      5  C   UNL A   1      31.997  28.187  27.525  1.00  0.00     0.100 C 
BRANCH   5   6
ATOM      6  C   UNL A   1      31.802  27.186  26.371  1.00  0.00     0.014 C 
BRANCH   6   7
ATOM      7  C   UNL A   1      32.984  26.234  26.087  1.00  0.00    -0.006 C 
BRANCH   7   8
ATOM      8  C   UNL A   1      32.674  24.719  25.862  1.00  0.00    -0.014 C 
ATOM      9  C   UNL A   1      33.982  23.906  25.796  1.00  0.00     0.007 C 
ATOM     10  C   UNL A   1      31.754  24.050  26.882  1.00  0.00     0.007 C 
ENDBRANCH   7   8
BRANCH   7  11
ATOM     11  C   UNL A   1      33.950  26.814  25.023  1.00  0.00     0.025 C 
BRANCH  11  12
ATOM     12  C   UNL A   1      33.357  27.772  23.995  1.00  0.00     0.118 C 
BRANCH  12  13
ATOM     13  N   UNL A   1      32.750  27.068  22.891  1.00  0.00    -0.338 N 
ATOM     14  C   UNL A   1      31.435  26.771  22.732  1.00  0.00     0.317 C 
ATOM     15  H   UNL A   1      33.356  26.771  22.174  1.00  0.00     0.165 HD
ATOM     16  O   UNL A   1      31.150  25.717  22.166  1.00  0.00    -0.249 OA
ATOM     17  N   UNL A   1      30.499  27.646  23.200  1.00  0.00    -0.324 N 
ATOM     18  C   UNL A   1      29.110  27.267  23.316  1.00  0.00     0.125 C 
ATOM     19  C   UNL A   1      30.647  29.084  23.347  1.00  0.00     0.125 C 
ATOM     20  C   UNL A   1      28.343  28.482  22.807  1.00  0.00     0.010 C 
ATOM     21  C   UNL A   1      29.259  29.683  23.112  1.00  0.00     0.010 C 
ATOM     22  C   UNL A   1      26.982  28.612  23.474  1.00  0.00     0.010 C 
ATOM     23  C   UNL A   1      29.278  30.704  21.981  1.00  0.00     0.010 C 
ENDBRANCH  12  13
ENDBRANCH  11  12
ENDBRANCH   7  11
ENDBRANCH   6   7
ENDBRANCH   5   6
ENDBRANCH   1   5
BRANCH   3  24
ATOM     24  C   UNL A   1      31.397  31.040  26.357  1.00  0.00     0.117 C 
BRANCH  24  25
ATOM     25  C   UNL A   1      31.385  32.557  26.560  1.00  0.00     0.042 C 
BRANCH  25  26
ATOM     26  C   UNL A   1      32.636  33.088  27.223  1.00  0.00     0.118 C 
BRANCH  26  27
ATOM     27  N   UNL A   1      32.442  34.445  27.718  1.00  0.00    -0.352 N 
ATOM     28  C   UNL A   1      33.016  35.096  28.784  1.00  0.00     0.251 C 
ATOM     29  H   UNL A   1      31.797  34.983  27.206  1.00  0.00     0.163 HD
ATOM     30  O   UNL A   1      32.553  36.170  29.149  1.00  0.00    -0.269 OA
BRANCH  28  31
ATOM     31  C   UNL A   1      34.166  34.503  29.506  1.00  0.00     0.039 A 
ATOM     32  C   UNL A   1      33.935  33.848  30.720  1.00  0.00     0.014 A 
ATOM     33  C   UNL A   1      35.467  34.603  29.015  1.00  0.00     0.014 A 
ATOM     34  C   UNL A   1      34.998  33.253  31.402  1.00  0.00     0.010 A 
ATOM     35  C   UNL A   1      36.498  33.897  29.618  1.00  0.00     0.010 A 
ATOM     36  C   UNL A   1      36.284  33.240  30.836  1.00  0.00    -0.014 A 
BRANCH  36  37
ATOM     37  C   UNL A   1      37.429  32.591  31.520  1.00  0.00     0.031 A 
ATOM     38  C   UNL A   1      38.155  31.453  30.852  1.00  0.00     0.074 A 
ATOM     39  C   UNL A   1      37.777  32.986  32.760  1.00  0.00     0.049 A 
ATOM     40  N   UNL A   1      39.135  30.713  31.305  1.00  0.00    -0.248 NA
ATOM     41  C   UNL A   1      37.691  31.067  29.507  1.00  0.00     0.031 C 
ATOM     42  C   UNL A   1      37.109  34.036  33.531  1.00  0.00     0.029 A 
ATOM     43  N   UNL A   1      38.775  32.549  33.592  1.00  0.00    -0.354 N 
ATOM     44  C   UNL A   1      39.386  29.772  30.314  1.00  0.00     0.074 A 
ATOM     45  C   UNL A   1      38.408  29.981  29.271  1.00  0.00     0.031 C 
ATOM     46  C   UNL A   1      37.743  34.192  34.704  1.00  0.00     0.029 A 
ATOM     47  C   UNL A   1      38.830  33.221  34.787  1.00  0.00     0.049 A 
ATOM     48  H   UNL A   1      39.394  31.821  33.354  1.00  0.00     0.167 HD
ATOM     49  C   UNL A   1      40.368  28.841  30.261  1.00  0.00     0.037 A 
ATOM     50  C   UNL A   1      39.665  33.069  35.834  1.00  0.00     0.037 A 
ATOM     51  C   UNL A   1      41.356  28.663  31.290  1.00  0.00     0.049 A 
ATOM     52  C   UNL A   1      40.746  32.026  35.751  1.00  0.00     0.074 A 
ATOM     53  C   UNL A   1      42.430  27.791  31.316  1.00  0.00     0.029 A 
ATOM     54  N   UNL A   1      41.390  29.375  32.481  1.00  0.00    -0.354 N 
ATOM     55  N   UNL A   1      41.020  31.191  34.777  1.00  0.00    -0.248 NA
ATOM     56  C   UNL A   1      41.641  31.911  36.909  1.00  0.00     0.031 C 
ATOM     57  C   UNL A   1      43.080  27.937  32.545  1.00  0.00     0.029 A 
ATOM     58  C   UNL A   1      42.452  28.945  33.259  1.00  0.00     0.049 A 
ATOM     59  H   UNL A   1      40.752  30.081  32.735  1.00  0.00     0.167 HD
ATOM     60  C   UNL A   1      42.135  30.474  35.192  1.00  0.00     0.074 A 
ATOM     61  C   UNL A   1      42.497  30.988  36.496  1.00  0.00     0.031 C 
ATOM     62  C   UNL A   1      42.798  29.479  34.553  1.00  0.00     0.037 A 
BRANCH  49  63
ATOM     63  C   UNL A   1      40.423  27.955  29.048  1.00  0.00     0.064 A 
ATOM     64  C   UNL A   1      39.690  26.759  28.973  1.00  0.00     0.173 A 
ATOM     65  C   UNL A   1      41.198  28.316  27.936  1.00  0.00     0.173 A 
ATOM     66  F   UNL A   1      38.943  26.357  30.012  1.00  0.00    -0.203 F 
ATOM     67  C   UNL A   1      39.760  25.942  27.847  1.00  0.00     0.198 A 
ATOM     68  C   UNL A   1      41.237  27.515  26.798  1.00  0.00     0.198 A 
ATOM     69  F   UNL A   1      41.916  29.449  27.950  1.00  0.00    -0.203 F 
ATOM     70  F   UNL A   1      39.101  24.776  27.826  1.00  0.00    -0.200 F 
ATOM     71  C   UNL A   1      40.527  26.324  26.757  1.00  0.00     0.200 A 
ATOM     72  F   UNL A   1      41.967  27.893  25.739  1.00  0.00    -0.200 F 
ATOM     73  F   UNL A   1      40.588  25.541  25.672  1.00  0.00    -0.200 F 
ENDBRANCH  49  63
BRANCH  50  74
ATOM     74  C   UNL A   1      39.532  33.946  37.028  1.00  0.00     0.064 A 
ATOM     75  C   UNL A   1      40.143  35.208  37.064  1.00  0.00     0.173 A 
ATOM     76  C   UNL A   1      38.801  33.544  38.155  1.00  0.00     0.173 A 
ATOM     77  F   UNL A   1      40.865  35.634  36.018  1.00  0.00    -0.203 F 
ATOM     78  C   UNL A   1      40.049  36.022  38.191  1.00  0.00     0.198 A 
ATOM     79  C   UNL A   1      38.680  34.373  39.269  1.00  0.00     0.198 A 
ATOM     80  F   UNL A   1      38.189  32.351  38.168  1.00  0.00    -0.203 F 
ATOM     81  F   UNL A   1      40.684  37.202  38.219  1.00  0.00    -0.200 F 
ATOM     82  C   UNL A   1      39.313  35.606  39.291  1.00  0.00     0.200 A 
ATOM     83  F   UNL A   1      37.951  33.974  40.321  1.00  0.00    -0.200 F 
ATOM     84  F   UNL A   1      39.218  36.391  40.373  1.00  0.00    -0.200 F 
ENDBRANCH  50  74
BRANCH  62  85
ATOM     85  C   UNL A   1      44.007  28.910  35.239  1.00  0.00     0.064 A 
ATOM     86  C   UNL A   1      43.916  27.820  36.116  1.00  0.00     0.173 A 
ATOM     87  C   UNL A   1      45.280  29.446  34.987  1.00  0.00     0.173 A 
ATOM     88  F   UNL A   1      42.720  27.281  36.401  1.00  0.00    -0.203 F 
ATOM     89  C   UNL A   1      45.048  27.310  36.744  1.00  0.00     0.198 A 
ATOM     90  C   UNL A   1      46.415  28.910  35.587  1.00  0.00     0.198 A 
ATOM     91  F   UNL A   1      45.424  30.483  34.148  1.00  0.00    -0.203 F 
ATOM     92  F   UNL A   1      44.929  26.308  37.626  1.00  0.00    -0.200 F 
ATOM     93  C   UNL A   1      46.296  27.850  36.474  1.00  0.00     0.200 A 
ATOM     94  F   UNL A   1      47.622  29.421  35.310  1.00  0.00    -0.200 F 
ATOM     95  F   UNL A   1      47.387  27.354  37.073  1.00  0.00    -0.200 F 
ENDBRANCH  62  85
ENDBRANCH  36  37
ENDBRANCH  28  31
ENDBRANCH  26  27
ENDBRANCH  25  26
ENDBRANCH  24  25
ENDBRANCH   3  24
TORSDOF 16
ENDMDL
MODEL 3
REMARK VINA RESULT:     -11.7      5.882     11.051
REMARK SMILES CC(C)[C@@H](CCNC(=O)N1C[C@@H](C)[C@H](C)C1)CCC(=O)NCCCNC(=O)c1ccc(-c2c3nc(c(-c4c(F)c(F)c(F)c(F)c4F)c4ccc([nH]4)c(-c4c(F)c(F)c(F)c(F)c4F)c4nc(c(-c5c(F)c(F)c(F)c(F)c5F)c5ccc2[nH]5)C=C4)C=C3)cc1
REMARK SMILES IDX 19 1 20 2 21 3 18 5 17 6 4 7 2 8 1 9 3 10 5 11 6 12 7 13
REMARK SMILES IDX 8 14 9 16 10 17 11 18 16 19 12 20 14 21 13 22 15 23 22 24
REMARK SMILES IDX 23 25 24 26 25 27 26 28 27 30 28 31 29 32 90 33 30 34 89 35
REMARK SMILES IDX 31 36 32 37 33 38 83 39 34 40 88 41 82 42 84 43 35 44 87 45
REMARK SMILES IDX 81 46 80 47 36 49 68 50 48 51 67 52 49 53 52 54 66 55 85 56
REMARK SMILES IDX 50 57 51 58 65 60 86 61 53 62 37 63 38 64 46 65 39 66 40 67
REMARK SMILES IDX 44 68 47 69 41 70 42 71 45 72 43 73 69 74 70 75 78 76 71 77
REMARK SMILES IDX 72 78 76 79 79 80 73 81 74 82 77 83 75 84 54 85 55 86 63 87
REMARK SMILES IDX 56 88 57 89 61 90 64 91 58 92 59 93 62 94 60 95
REMARK H PARENT 21 4 7 15 25 29 84 48 52 59
REMARK Flexibility Score: inf
ROOT
ATOM      1  C   UNL A   1      37.529  22.939  25.176  1.00  0.00     0.220 C 
ATOM      2  O   UNL A   1      38.007  23.788  25.933  1.00  0.00    -0.275 OA
ATOM      3  N   UNL A   1      37.750  21.633  25.491  1.00  0.00    -0.356 N 
ATOM      4  H   UNL A   1      38.201  21.493  26.354  1.00  0.00     0.163 HD
ENDROOT
BRANCH   1   5
ATOM      5  C   UNL A   1      36.663  23.353  23.992  1.00  0.00     0.100 C 
BRANCH   5   6
ATOM      6  C   UNL A   1      35.138  23.390  24.205  1.00  0.00     0.014 C 
BRANCH   6   7
ATOM      7  C   UNL A   1      34.622  24.393  25.260  1.00  0.00    -0.006 C 
BRANCH   7   8
ATOM      8  C   UNL A   1      33.434  25.329  24.870  1.00  0.00    -0.014 C 
ATOM      9  C   UNL A   1      32.373  25.348  25.988  1.00  0.00     0.007 C 
ATOM     10  C   UNL A   1      33.787  26.776  24.531  1.00  0.00     0.007 C 
ENDBRANCH   7   8
BRANCH   7  11
ATOM     11  C   UNL A   1      34.431  23.724  26.646  1.00  0.00     0.025 C 
BRANCH  11  12
ATOM     12  C   UNL A   1      34.240  22.211  26.667  1.00  0.00     0.118 C 
BRANCH  12  13
ATOM     13  N   UNL A   1      32.844  21.845  26.669  1.00  0.00    -0.338 N 
ATOM     14  C   UNL A   1      32.133  21.318  25.640  1.00  0.00     0.317 C 
ATOM     15  H   UNL A   1      32.353  21.993  27.510  1.00  0.00     0.165 HD
ATOM     16  O   UNL A   1      30.948  21.631  25.542  1.00  0.00    -0.249 OA
ATOM     17  N   UNL A   1      32.759  20.472  24.770  1.00  0.00    -0.324 N 
ATOM     18  C   UNL A   1      32.149  20.105  23.514  1.00  0.00     0.125 C 
ATOM     19  C   UNL A   1      33.891  19.609  25.057  1.00  0.00     0.125 C 
ATOM     20  C   UNL A   1      32.418  18.609  23.386  1.00  0.00     0.010 C 
ATOM     21  C   UNL A   1      33.726  18.376  24.167  1.00  0.00     0.010 C 
ATOM     22  C   UNL A   1      32.531  18.176  21.932  1.00  0.00     0.010 C 
ATOM     23  C   UNL A   1      33.692  17.094  24.991  1.00  0.00     0.010 C 
ENDBRANCH  12  13
ENDBRANCH  11  12
ENDBRANCH   7  11
ENDBRANCH   6   7
ENDBRANCH   5   6
ENDBRANCH   1   5
BRANCH   3  24
ATOM     24  C   UNL A   1      37.436  20.411  24.775  1.00  0.00     0.117 C 
BRANCH  24  25
ATOM     25  C   UNL A   1      38.452  19.317  25.110  1.00  0.00     0.042 C 
BRANCH  25  26
ATOM     26  C   UNL A   1      39.538  19.770  26.059  1.00  0.00     0.118 C 
BRANCH  26  27
ATOM     27  N   UNL A   1      40.681  18.867  26.033  1.00  0.00    -0.352 N 
ATOM     28  C   UNL A   1      42.029  19.133  26.048  1.00  0.00     0.251 C 
ATOM     29  H   UNL A   1      40.450  17.911  26.001  1.00  0.00     0.163 HD
ATOM     30  O   UNL A   1      42.821  18.230  25.807  1.00  0.00    -0.269 OA
BRANCH  28  31
ATOM     31  C   UNL A   1      42.530  20.500  26.326  1.00  0.00     0.039 A 
ATOM     32  C   UNL A   1      42.901  21.314  25.251  1.00  0.00     0.014 A 
ATOM     33  C   UNL A   1      42.659  20.980  27.629  1.00  0.00     0.014 A 
ATOM     34  C   UNL A   1      43.345  22.616  25.486  1.00  0.00     0.010 A 
ATOM     35  C   UNL A   1      42.966  22.314  27.855  1.00  0.00     0.010 A 
ATOM     36  C   UNL A   1      43.344  23.140  26.789  1.00  0.00    -0.014 A 
BRANCH  36  37
ATOM     37  C   UNL A   1      43.781  24.530  27.070  1.00  0.00     0.031 A 
ATOM     38  C   UNL A   1      42.787  25.540  27.581  1.00  0.00     0.074 A 
ATOM     39  C   UNL A   1      45.052  24.895  26.812  1.00  0.00     0.049 A 
ATOM     40  N   UNL A   1      42.951  26.815  27.828  1.00  0.00    -0.248 NA
ATOM     41  C   UNL A   1      41.412  25.062  27.810  1.00  0.00     0.031 C 
ATOM     42  C   UNL A   1      46.087  24.020  26.259  1.00  0.00     0.029 A 
ATOM     43  N   UNL A   1      45.688  26.098  26.976  1.00  0.00    -0.354 N 
ATOM     44  C   UNL A   1      41.704  27.286  28.218  1.00  0.00     0.074 A 
ATOM     45  C   UNL A   1      40.777  26.185  28.101  1.00  0.00     0.031 C 
ATOM     46  C   UNL A   1      47.239  24.702  26.171  1.00  0.00     0.029 A 
ATOM     47  C   UNL A   1      47.013  26.074  26.616  1.00  0.00     0.049 A 
ATOM     48  H   UNL A   1      45.238  26.903  27.320  1.00  0.00     0.167 HD
ATOM     49  C   UNL A   1      41.369  28.519  28.669  1.00  0.00     0.037 A 
ATOM     50  C   UNL A   1      47.939  27.052  26.641  1.00  0.00     0.037 A 
ATOM     51  C   UNL A   1      42.307  29.599  28.811  1.00  0.00     0.049 A 
ATOM     52  C   UNL A   1      47.541  28.413  27.144  1.00  0.00     0.074 A 
ATOM     53  C   UNL A   1      42.092  30.871  29.311  1.00  0.00     0.029 A 
ATOM     54  N   UNL A   1      43.646  29.532  28.451  1.00  0.00    -0.354 N 
ATOM     55  N   UNL A   1      46.376  28.828  27.580  1.00  0.00    -0.248 NA
ATOM     56  C   UNL A   1      48.591  29.440  27.168  1.00  0.00     0.031 C 
ATOM     57  C   UNL A   1      43.285  31.590  29.203  1.00  0.00     0.029 A 
ATOM     58  C   UNL A   1      44.263  30.748  28.696  1.00  0.00     0.049 A 
ATOM     59  H   UNL A   1      44.091  28.738  28.076  1.00  0.00     0.167 HD
ATOM     60  C   UNL A   1      46.558  30.152  27.958  1.00  0.00     0.074 A 
ATOM     61  C   UNL A   1      47.953  30.462  27.718  1.00  0.00     0.031 C 
ATOM     62  C   UNL A   1      45.655  31.032  28.456  1.00  0.00     0.037 A 
BRANCH  49  63
ATOM     63  C   UNL A   1      39.934  28.755  29.047  1.00  0.00     0.064 A 
ATOM     64  C   UNL A   1      39.465  28.519  30.351  1.00  0.00     0.173 A 
ATOM     65  C   UNL A   1      39.019  29.247  28.105  1.00  0.00     0.173 A 
ATOM     66  F   UNL A   1      40.293  28.035  31.289  1.00  0.00    -0.203 F 
ATOM     67  C   UNL A   1      38.130  28.732  30.683  1.00  0.00     0.198 A 
ATOM     68  C   UNL A   1      37.693  29.493  28.451  1.00  0.00     0.198 A 
ATOM     69  F   UNL A   1      39.411  29.494  26.845  1.00  0.00    -0.203 F 
ATOM     70  F   UNL A   1      37.695  28.439  31.916  1.00  0.00    -0.200 F 
ATOM     71  C   UNL A   1      37.247  29.226  29.736  1.00  0.00     0.200 A 
ATOM     72  F   UNL A   1      36.844  29.985  27.538  1.00  0.00    -0.200 F 
ATOM     73  F   UNL A   1      35.964  29.436  30.060  1.00  0.00    -0.200 F 
ENDBRANCH  49  63
BRANCH  50  74
ATOM     74  C   UNL A   1      49.334  26.769  26.210  1.00  0.00     0.064 A 
ATOM     75  C   UNL A   1      50.276  26.256  27.113  1.00  0.00     0.173 A 
ATOM     76  C   UNL A   1      49.758  27.009  24.894  1.00  0.00     0.173 A 
ATOM     77  F   UNL A   1      49.926  26.023  28.386  1.00  0.00    -0.203 F 
ATOM     78  C   UNL A   1      51.593  26.019  26.724  1.00  0.00     0.198 A 
ATOM     79  C   UNL A   1      51.066  26.739  24.498  1.00  0.00     0.198 A 
ATOM     80  F   UNL A   1      48.894  27.490  23.987  1.00  0.00    -0.203 F 
ATOM     81  F   UNL A   1      52.484  25.576  27.621  1.00  0.00    -0.200 F 
ATOM     82  C   UNL A   1      51.985  26.255  25.415  1.00  0.00     0.200 A 
ATOM     83  F   UNL A   1      51.435  26.950  23.227  1.00  0.00    -0.200 F 
ATOM     84  F   UNL A   1      53.251  26.021  25.040  1.00  0.00    -0.200 F 
ENDBRANCH  50  74
BRANCH  62  85
ATOM     85  C   UNL A   1      46.158  32.401  28.814  1.00  0.00     0.064 A 
ATOM     86  C   UNL A   1      46.678  32.691  30.084  1.00  0.00     0.173 A 
ATOM     87  C   UNL A   1      46.150  33.428  27.857  1.00  0.00     0.173 A 
ATOM     88  F   UNL A   1      46.695  31.747  31.037  1.00  0.00    -0.203 F 
ATOM     89  C   UNL A   1      47.137  33.967  30.395  1.00  0.00     0.198 A 
ATOM     90  C   UNL A   1      46.645  34.693  28.160  1.00  0.00     0.198 A 
ATOM     91  F   UNL A   1      45.674  33.201  26.624  1.00  0.00    -0.203 F 
ATOM     92  F   UNL A   1      47.571  34.237  31.633  1.00  0.00    -0.200 F 
ATOM     93  C   UNL A   1      47.127  34.964  29.432  1.00  0.00     0.200 A 
ATOM     94  F   UNL A   1      46.651  35.650  27.222  1.00  0.00    -0.200 F 
ATOM     95  F   UNL A   1      47.575  36.191  29.730  1.00  0.00    -0.200 F 
ENDBRANCH  62  85
ENDBRANCH  36  37
ENDBRANCH  28  31
ENDBRANCH  26  27
ENDBRANCH  25  26
ENDBRANCH  24  25
ENDBRANCH   3  24
TORSDOF 16
ENDMDL
