MODEL 1
REMARK VINA RESULT:     -12.3      0.000      0.000
REMARK SMILES [NH3+][C@H](C(=O)NCCCNC(=O)c1ccc(-c2c3nc(c(-c4c(F)c(F)c(F)c(F)c4F)c4ccc([nH]4)c(-c4c(F)c(F)c(F)c(F)c4F)c4nc(c(-c5c(F)c(F)c(F)c(F)c5F)c5ccc2[nH]5)C=C4)C=C3)cc1)c1cc2[nH]ccc2cc1O
REMARK SMILES IDX 7 1 6 2 5 3 3 4 4 5 2 7 1 8 75 12 76 13 83 14 77 15 82 16
REMARK SMILES IDX 78 17 81 18 79 19 80 21 84 22 8 24 9 25 10 26 11 28 12 29
REMARK SMILES IDX 13 30 74 31 14 32 73 33 15 34 16 35 17 36 67 37 18 38 72 39
REMARK SMILES IDX 66 40 68 41 19 42 71 43 65 44 64 45 20 47 52 48 32 49 51 50
REMARK SMILES IDX 33 51 36 52 50 53 69 54 34 55 35 56 49 58 70 59 37 60 21 61
REMARK SMILES IDX 22 62 30 63 23 64 24 65 28 66 31 67 25 68 26 69 29 70 27 71
REMARK SMILES IDX 53 72 54 73 62 74 55 75 56 76 60 77 63 78 57 79 58 80 61 81
REMARK SMILES IDX 59 82 38 83 39 84 47 85 40 86 41 87 45 88 48 89 42 90 43 91
REMARK SMILES IDX 46 92 44 93
REMARK H PARENT 5 6 1 9 1 10 1 11 78 20 84 23 9 27 68 46 36 57
REMARK Flexibility Score: inf
ROOT
ATOM      1  C   UNL A   1      32.959  29.017  25.176  1.00  0.00     0.042 C 
ENDROOT
BRANCH   1   2
ATOM      2  C   UNL A   1      33.010  27.492  25.086  1.00  0.00     0.118 C 
BRANCH   2   3
ATOM      3  N   UNL A   1      31.954  26.858  25.858  1.00  0.00    -0.351 N 
ATOM      4  C   UNL A   1      30.783  26.306  25.410  1.00  0.00     0.283 C 
ATOM      5  O   UNL A   1      29.936  25.953  26.238  1.00  0.00    -0.268 OA
ATOM      6  H   UNL A   1      32.098  26.820  26.831  1.00  0.00     0.163 HD
BRANCH   4   7
ATOM      7  C   UNL A   1      30.520  26.162  23.889  1.00  0.00     0.306 C 
BRANCH   7   8
ATOM      8  N   UNL A   1      29.952  24.832  23.590  1.00  0.00    -0.343 N 
ATOM      9  H   UNL A   1      29.691  24.788  22.604  1.00  0.00     0.345 HD
ATOM     10  H   UNL A   1      29.125  24.677  24.167  1.00  0.00     0.345 HD
ATOM     11  H   UNL A   1      30.646  24.112  23.791  1.00  0.00     0.345 HD
ENDBRANCH   7   8
BRANCH   7  12
ATOM     12  C   UNL A   1      29.640  27.299  23.407  1.00  0.00     0.063 A 
ATOM     13  C   UNL A   1      30.274  28.416  22.823  1.00  0.00     0.041 A 
ATOM     14  C   UNL A   1      28.247  27.330  23.578  1.00  0.00     0.126 A 
ATOM     15  C   UNL A   1      29.500  29.528  22.477  1.00  0.00     0.046 A 
ATOM     16  C   UNL A   1      27.471  28.405  23.126  1.00  0.00     0.057 A 
ATOM     17  N   UNL A   1      29.882  30.761  22.001  1.00  0.00    -0.361 N 
ATOM     18  C   UNL A   1      28.112  29.538  22.591  1.00  0.00     0.003 A 
ATOM     19  C   UNL A   1      28.779  31.538  21.772  1.00  0.00     0.083 A 
ATOM     20  H   UNL A   1      30.812  31.043  21.848  1.00  0.00     0.166 HD
ATOM     21  C   UNL A   1      27.666  30.799  22.104  1.00  0.00     0.028 A 
BRANCH  14  22
ATOM     22  O   UNL A   1      27.559  26.328  24.212  1.00  0.00    -0.507 OA
ATOM     23  H   UNL A   1      27.448  25.498  23.794  1.00  0.00     0.293 HD
ENDBRANCH  14  22
ENDBRANCH   7  12
ENDBRANCH   4   7
ENDBRANCH   2   3
ENDBRANCH   1   2
BRANCH   1  24
ATOM     24  C   UNL A   1      32.387  29.552  26.486  1.00  0.00     0.118 C 
BRANCH  24  25
ATOM     25  N   UNL A   1      32.448  31.003  26.563  1.00  0.00    -0.352 N 
ATOM     26  C   UNL A   1      33.285  31.841  27.251  1.00  0.00     0.251 C 
ATOM     27  H   UNL A   1      31.766  31.465  26.024  1.00  0.00     0.163 HD
ATOM     28  O   UNL A   1      33.012  33.038  27.284  1.00  0.00    -0.269 OA
BRANCH  26  29
ATOM     29  C   UNL A   1      34.493  31.353  27.961  1.00  0.00     0.039 A 
ATOM     30  C   UNL A   1      35.547  32.255  28.147  1.00  0.00     0.014 A 
ATOM     31  C   UNL A   1      34.647  30.026  28.374  1.00  0.00     0.014 A 
ATOM     32  C   UNL A   1      36.726  31.842  28.769  1.00  0.00     0.010 A 
ATOM     33  C   UNL A   1      35.797  29.633  29.064  1.00  0.00     0.010 A 
ATOM     34  C   UNL A   1      36.853  30.532  29.258  1.00  0.00    -0.014 A 
BRANCH  34  35
ATOM     35  C   UNL A   1      38.089  30.119  29.975  1.00  0.00     0.031 A 
ATOM     36  C   UNL A   1      38.382  30.616  31.363  1.00  0.00     0.074 A 
ATOM     37  C   UNL A   1      38.959  29.294  29.360  1.00  0.00     0.049 A 
ATOM     38  N   UNL A   1      39.388  30.325  32.151  1.00  0.00    -0.248 NA
ATOM     39  C   UNL A   1      37.434  31.582  31.937  1.00  0.00     0.031 C 
ATOM     40  C   UNL A   1      38.818  28.789  27.994  1.00  0.00     0.029 A 
ATOM     41  N   UNL A   1      40.130  28.732  29.803  1.00  0.00    -0.354 N 
ATOM     42  C   UNL A   1      39.196  31.072  33.305  1.00  0.00     0.074 A 
ATOM     43  C   UNL A   1      38.009  31.872  33.096  1.00  0.00     0.031 C 
ATOM     44  C   UNL A   1      39.841  27.962  27.724  1.00  0.00     0.029 A 
ATOM     45  C   UNL A   1      40.724  27.903  28.884  1.00  0.00     0.049 A 
ATOM     46  H   UNL A   1      40.507  28.906  30.696  1.00  0.00     0.167 HD
ATOM     47  C   UNL A   1      39.930  31.074  34.446  1.00  0.00     0.037 A 
ATOM     48  C   UNL A   1      41.851  27.170  28.969  1.00  0.00     0.037 A 
ATOM     49  C   UNL A   1      41.102  30.265  34.659  1.00  0.00     0.049 A 
ATOM     50  C   UNL A   1      42.638  27.179  30.250  1.00  0.00     0.074 A 
ATOM     51  C   UNL A   1      41.880  30.152  35.799  1.00  0.00     0.029 A 
ATOM     52  N   UNL A   1      41.671  29.432  33.706  1.00  0.00    -0.354 N 
ATOM     53  N   UNL A   1      42.401  27.829  31.364  1.00  0.00    -0.248 NA
ATOM     54  C   UNL A   1      43.844  26.342  30.289  1.00  0.00     0.031 C 
ATOM     55  C   UNL A   1      42.944  29.286  35.522  1.00  0.00     0.029 A 
ATOM     56  C   UNL A   1      42.802  28.820  34.226  1.00  0.00     0.049 A 
ATOM     57  H   UNL A   1      41.324  29.296  32.795  1.00  0.00     0.167 HD
ATOM     58  C   UNL A   1      43.413  27.465  32.240  1.00  0.00     0.074 A 
ATOM     59  C   UNL A   1      44.252  26.516  31.537  1.00  0.00     0.031 C 
ATOM     60  C   UNL A   1      43.632  27.883  33.512  1.00  0.00     0.037 A 
BRANCH  47  61
ATOM     61  C   UNL A   1      39.481  31.976  35.559  1.00  0.00     0.064 A 
ATOM     62  C   UNL A   1      39.939  33.298  35.665  1.00  0.00     0.173 A 
ATOM     63  C   UNL A   1      38.549  31.529  36.509  1.00  0.00     0.173 A 
ATOM     64  F   UNL A   1      40.839  33.772  34.790  1.00  0.00    -0.203 F 
ATOM     65  C   UNL A   1      39.504  34.129  36.695  1.00  0.00     0.198 A 
ATOM     66  C   UNL A   1      38.093  32.373  37.520  1.00  0.00     0.198 A 
ATOM     67  F   UNL A   1      38.072  30.277  36.451  1.00  0.00    -0.203 F 
ATOM     68  F   UNL A   1      39.993  35.373  36.801  1.00  0.00    -0.200 F 
ATOM     69  C   UNL A   1      38.576  33.669  37.615  1.00  0.00     0.200 A 
ATOM     70  F   UNL A   1      37.186  31.930  38.402  1.00  0.00    -0.200 F 
ATOM     71  F   UNL A   1      38.153  34.473  38.601  1.00  0.00    -0.200 F 
ENDBRANCH  47  61
BRANCH  48  72
ATOM     72  C   UNL A   1      42.279  26.336  27.817  1.00  0.00     0.064 A 
ATOM     73  C   UNL A   1      43.261  26.789  26.926  1.00  0.00     0.173 A 
ATOM     74  C   UNL A   1      41.720  25.071  27.586  1.00  0.00     0.173 A 
ATOM     75  F   UNL A   1      43.812  28.000  27.096  1.00  0.00    -0.203 F 
ATOM     76  C   UNL A   1      43.653  26.018  25.833  1.00  0.00     0.198 A 
ATOM     77  C   UNL A   1      42.133  24.288  26.510  1.00  0.00     0.198 A 
ATOM     78  F   UNL A   1      40.782  24.589  28.415  1.00  0.00    -0.203 F 
ATOM     79  F   UNL A   1      44.560  26.495  24.971  1.00  0.00    -0.200 F 
ATOM     80  C   UNL A   1      43.092  24.765  25.630  1.00  0.00     0.200 A 
ATOM     81  F   UNL A   1      41.602  23.073  26.326  1.00  0.00    -0.200 F 
ATOM     82  F   UNL A   1      43.474  24.022  24.582  1.00  0.00    -0.200 F 
ENDBRANCH  48  72
BRANCH  60  83
ATOM     83  C   UNL A   1      44.819  27.301  34.225  1.00  0.00     0.064 A 
ATOM     84  C   UNL A   1      44.724  26.105  34.954  1.00  0.00     0.173 A 
ATOM     85  C   UNL A   1      46.066  27.942  34.173  1.00  0.00     0.173 A 
ATOM     86  F   UNL A   1      43.551  25.463  35.047  1.00  0.00    -0.203 F 
ATOM     87  C   UNL A   1      45.825  25.593  35.635  1.00  0.00     0.198 A 
ATOM     88  C   UNL A   1      47.172  27.409  34.829  1.00  0.00     0.198 A 
ATOM     89  F   UNL A   1      46.213  29.083  33.485  1.00  0.00    -0.203 F 
ATOM     90  F   UNL A   1      45.696  24.483  36.373  1.00  0.00    -0.200 F 
ATOM     91  C   UNL A   1      47.049  26.242  35.568  1.00  0.00     0.200 A 
ATOM     92  F   UNL A   1      48.357  28.031  34.754  1.00  0.00    -0.200 F 
ATOM     93  F   UNL A   1      48.107  25.749  36.225  1.00  0.00    -0.200 F 
ENDBRANCH  60  83
ENDBRANCH  34  35
ENDBRANCH  26  29
ENDBRANCH  24  25
ENDBRANCH   1  24
TORSDOF 13
ENDMDL
MODEL 2
REMARK VINA RESULT:     -12.3      0.169      2.014
REMARK SMILES [NH3+][C@H](C(=O)NCCCNC(=O)c1ccc(-c2c3nc(c(-c4c(F)c(F)c(F)c(F)c4F)c4ccc([nH]4)c(-c4c(F)c(F)c(F)c(F)c4F)c4nc(c(-c5c(F)c(F)c(F)c(F)c5F)c5ccc2[nH]5)C=C4)C=C3)cc1)c1cc2[nH]ccc2cc1O
REMARK SMILES IDX 7 1 6 2 5 3 3 4 4 5 2 7 1 8 75 12 76 13 83 14 77 15 82 16
REMARK SMILES IDX 78 17 81 18 79 19 80 21 84 22 8 24 9 25 10 26 11 28 12 29
REMARK SMILES IDX 13 30 74 31 14 32 73 33 15 34 16 35 17 36 67 37 18 38 72 39
REMARK SMILES IDX 66 40 68 41 19 42 71 43 65 44 64 45 20 47 52 48 32 49 51 50
REMARK SMILES IDX 33 51 36 52 50 53 69 54 34 55 35 56 49 58 70 59 37 60 21 61
REMARK SMILES IDX 22 62 30 63 23 64 24 65 28 66 31 67 25 68 26 69 29 70 27 71
REMARK SMILES IDX 53 72 54 73 62 74 55 75 56 76 60 77 63 78 57 79 58 80 61 81
REMARK SMILES IDX 59 82 38 83 39 84 47 85 40 86 41 87 45 88 48 89 42 90 43 91
REMARK SMILES IDX 46 92 44 93
REMARK H PARENT 5 6 1 9 1 10 1 11 78 20 84 23 9 27 68 46 36 57
REMARK Flexibility Score: inf
ROOT
ATOM      1  C   UNL A   1      33.208  28.985  25.119  1.00  0.00     0.042 C 
ENDROOT
BRANCH   1   2
ATOM      2  C   UNL A   1      33.100  27.483  24.855  1.00  0.00     0.118 C 
BRANCH   2   3
ATOM      3  N   UNL A   1      32.080  26.850  25.675  1.00  0.00    -0.351 N 
ATOM      4  C   UNL A   1      30.886  26.305  25.284  1.00  0.00     0.283 C 
ATOM      5  O   UNL A   1      30.079  25.953  26.151  1.00  0.00    -0.268 OA
ATOM      6  H   UNL A   1      32.272  26.808  26.640  1.00  0.00     0.163 HD
BRANCH   4   7
ATOM      7  C   UNL A   1      30.548  26.169  23.777  1.00  0.00     0.306 C 
BRANCH   7   8
ATOM      8  N   UNL A   1      29.948  24.847  23.503  1.00  0.00    -0.343 N 
ATOM      9  H   UNL A   1      28.954  24.960  23.300  1.00  0.00     0.345 HD
ATOM     10  H   UNL A   1      30.061  24.246  24.320  1.00  0.00     0.345 HD
ATOM     11  H   UNL A   1      30.413  24.422  22.701  1.00  0.00     0.345 HD
ENDBRANCH   7   8
BRANCH   7  12
ATOM     12  C   UNL A   1      29.660  27.319  23.341  1.00  0.00     0.063 A 
ATOM     13  C   UNL A   1      30.286  28.450  22.775  1.00  0.00     0.041 A 
ATOM     14  C   UNL A   1      28.271  27.346  23.536  1.00  0.00     0.126 A 
ATOM     15  C   UNL A   1      29.506  29.571  22.472  1.00  0.00     0.046 A 
ATOM     16  C   UNL A   1      27.489  28.433  23.126  1.00  0.00     0.057 A 
ATOM     17  N   UNL A   1      29.882  30.816  22.022  1.00  0.00    -0.361 N 
ATOM     18  C   UNL A   1      28.121  29.579  22.610  1.00  0.00     0.003 A 
ATOM     19  C   UNL A   1      28.775  31.600  21.832  1.00  0.00     0.083 A 
ATOM     20  H   UNL A   1      30.810  31.102  21.861  1.00  0.00     0.166 HD
ATOM     21  C   UNL A   1      27.668  30.852  22.164  1.00  0.00     0.028 A 
BRANCH  14  22
ATOM     22  O   UNL A   1      27.592  26.328  24.155  1.00  0.00    -0.507 OA
ATOM     23  H   UNL A   1      26.905  25.880  23.705  1.00  0.00     0.293 HD
ENDBRANCH  14  22
ENDBRANCH   7  12
ENDBRANCH   4   7
ENDBRANCH   2   3
ENDBRANCH   1   2
BRANCH   1  24
ATOM     24  C   UNL A   1      32.445  29.465  26.349  1.00  0.00     0.118 C 
BRANCH  24  25
ATOM     25  N   UNL A   1      32.462  30.913  26.479  1.00  0.00    -0.352 N 
ATOM     26  C   UNL A   1      33.256  31.749  27.218  1.00  0.00     0.251 C 
ATOM     27  H   UNL A   1      31.780  31.375  25.939  1.00  0.00     0.163 HD
ATOM     28  O   UNL A   1      32.947  32.936  27.286  1.00  0.00    -0.269 OA
BRANCH  26  29
ATOM     29  C   UNL A   1      34.459  31.270  27.943  1.00  0.00     0.039 A 
ATOM     30  C   UNL A   1      35.510  32.175  28.127  1.00  0.00     0.014 A 
ATOM     31  C   UNL A   1      34.611  29.948  28.372  1.00  0.00     0.014 A 
ATOM     32  C   UNL A   1      36.686  31.770  28.763  1.00  0.00     0.010 A 
ATOM     33  C   UNL A   1      35.756  29.563  29.075  1.00  0.00     0.010 A 
ATOM     34  C   UNL A   1      36.810  30.466  29.267  1.00  0.00    -0.014 A 
BRANCH  34  35
ATOM     35  C   UNL A   1      38.041  30.061  29.997  1.00  0.00     0.031 A 
ATOM     36  C   UNL A   1      38.296  30.532  31.402  1.00  0.00     0.074 A 
ATOM     37  C   UNL A   1      38.939  29.270  29.380  1.00  0.00     0.049 A 
ATOM     38  N   UNL A   1      39.294  30.243  32.202  1.00  0.00    -0.248 NA
ATOM     39  C   UNL A   1      37.318  31.464  31.980  1.00  0.00     0.031 C 
ATOM     40  C   UNL A   1      38.835  28.794  28.000  1.00  0.00     0.029 A 
ATOM     41  N   UNL A   1      40.113  28.721  29.833  1.00  0.00    -0.354 N 
ATOM     42  C   UNL A   1      39.064  30.958  33.370  1.00  0.00     0.074 A 
ATOM     43  C   UNL A   1      37.864  31.738  33.157  1.00  0.00     0.031 C 
ATOM     44  C   UNL A   1      39.880  27.996  27.731  1.00  0.00     0.029 A 
ATOM     45  C   UNL A   1      40.743  27.927  28.906  1.00  0.00     0.049 A 
ATOM     46  H   UNL A   1      40.470  28.883  30.737  1.00  0.00     0.167 HD
ATOM     47  C   UNL A   1      39.777  30.948  34.524  1.00  0.00     0.037 A 
ATOM     48  C   UNL A   1      41.882  27.216  28.996  1.00  0.00     0.037 A 
ATOM     49  C   UNL A   1      40.962  30.159  34.740  1.00  0.00     0.049 A 
ATOM     50  C   UNL A   1      42.645  27.211  30.292  1.00  0.00     0.074 A 
ATOM     51  C   UNL A   1      41.720  30.035  35.893  1.00  0.00     0.029 A 
ATOM     52  N   UNL A   1      41.566  29.361  33.780  1.00  0.00    -0.354 N 
ATOM     53  N   UNL A   1      42.373  27.830  31.415  1.00  0.00    -0.248 NA
ATOM     54  C   UNL A   1      43.868  26.399  30.334  1.00  0.00     0.031 C 
ATOM     55  C   UNL A   1      42.808  29.199  35.616  1.00  0.00     0.029 A 
ATOM     56  C   UNL A   1      42.700  28.761  34.307  1.00  0.00     0.049 A 
ATOM     57  H   UNL A   1      41.239  29.239  32.859  1.00  0.00     0.167 HD
ATOM     58  C   UNL A   1      43.377  27.466  32.302  1.00  0.00     0.074 A 
ATOM     59  C   UNL A   1      44.248  26.552  31.594  1.00  0.00     0.031 C 
ATOM     60  C   UNL A   1      43.563  27.858  33.587  1.00  0.00     0.037 A 
BRANCH  47  61
ATOM     61  C   UNL A   1      39.287  31.814  35.649  1.00  0.00     0.064 A 
ATOM     62  C   UNL A   1      38.373  31.336  36.601  1.00  0.00     0.173 A 
ATOM     63  C   UNL A   1      39.768  33.123  35.805  1.00  0.00     0.173 A 
ATOM     64  F   UNL A   1      37.874  30.095  36.494  1.00  0.00    -0.203 F 
ATOM     65  C   UNL A   1      37.938  32.144  37.649  1.00  0.00     0.198 A 
ATOM     66  C   UNL A   1      39.353  33.919  36.871  1.00  0.00     0.198 A 
ATOM     67  F   UNL A   1      40.649  33.628  34.929  1.00  0.00    -0.203 F 
ATOM     68  F   UNL A   1      37.029  31.680  38.517  1.00  0.00    -0.200 F 
ATOM     69  C   UNL A   1      38.434  33.431  37.787  1.00  0.00     0.200 A 
ATOM     70  F   UNL A   1      39.844  35.158  37.011  1.00  0.00    -0.200 F 
ATOM     71  F   UNL A   1      38.020  34.204  38.800  1.00  0.00    -0.200 F 
ENDBRANCH  47  61
BRANCH  48  72
ATOM     72  C   UNL A   1      42.350  26.419  27.833  1.00  0.00     0.064 A 
ATOM     73  C   UNL A   1      41.841  25.136  27.588  1.00  0.00     0.173 A 
ATOM     74  C   UNL A   1      43.310  26.921  26.944  1.00  0.00     0.173 A 
ATOM     75  F   UNL A   1      40.934  24.605  28.423  1.00  0.00    -0.203 F 
ATOM     76  C   UNL A   1      42.291  24.377  26.510  1.00  0.00     0.198 A 
ATOM     77  C   UNL A   1      43.738  26.174  25.849  1.00  0.00     0.198 A 
ATOM     78  F   UNL A   1      43.822  28.147  27.130  1.00  0.00    -0.203 F 
ATOM     79  F   UNL A   1      41.821  23.136  26.326  1.00  0.00    -0.200 F 
ATOM     80  C   UNL A   1      43.234  24.899  25.638  1.00  0.00     0.200 A 
ATOM     81  F   UNL A   1      44.637  26.687  25.000  1.00  0.00    -0.200 F 
ATOM     82  F   UNL A   1      43.662  24.171  24.598  1.00  0.00    -0.200 F 
ENDBRANCH  48  72
BRANCH  60  83
ATOM     83  C   UNL A   1      44.748  27.284  34.309  1.00  0.00     0.064 A 
ATOM     84  C   UNL A   1      45.992  27.934  34.313  1.00  0.00     0.173 A 
ATOM     85  C   UNL A   1      44.637  26.074  35.011  1.00  0.00     0.173 A 
ATOM     86  F   UNL A   1      46.154  29.085  33.644  1.00  0.00    -0.203 F 
ATOM     87  C   UNL A   1      47.089  27.375  34.961  1.00  0.00     0.198 A 
ATOM     88  C   UNL A   1      45.729  25.535  35.684  1.00  0.00     0.198 A 
ATOM     89  F   UNL A   1      43.469  25.416  35.045  1.00  0.00    -0.203 F 
ATOM     90  F   UNL A   1      48.282  27.984  34.900  1.00  0.00    -0.200 F 
ATOM     91  C   UNL A   1      46.957  26.179  35.650  1.00  0.00     0.200 A 
ATOM     92  F   UNL A   1      45.596  24.385  36.359  1.00  0.00    -0.200 F 
ATOM     93  F   UNL A   1      48.014  25.641  36.272  1.00  0.00    -0.200 F 
ENDBRANCH  60  83
ENDBRANCH  34  35
ENDBRANCH  26  29
ENDBRANCH  24  25
ENDBRANCH   1  24
TORSDOF 13
ENDMDL
MODEL 3
REMARK VINA RESULT:     -12.3      0.150      1.169
REMARK SMILES [NH3+][C@H](C(=O)NCCCNC(=O)c1ccc(-c2c3nc(c(-c4c(F)c(F)c(F)c(F)c4F)c4ccc([nH]4)c(-c4c(F)c(F)c(F)c(F)c4F)c4nc(c(-c5c(F)c(F)c(F)c(F)c5F)c5ccc2[nH]5)C=C4)C=C3)cc1)c1cc2[nH]ccc2cc1O
REMARK SMILES IDX 7 1 6 2 5 3 3 4 4 5 2 7 1 8 75 12 76 13 83 14 77 15 82 16
REMARK SMILES IDX 78 17 81 18 79 19 80 21 84 22 8 24 9 25 10 26 11 28 12 29
REMARK SMILES IDX 13 30 74 31 14 32 73 33 15 34 16 35 17 36 67 37 18 38 72 39
REMARK SMILES IDX 66 40 68 41 19 42 71 43 65 44 64 45 20 47 52 48 32 49 51 50
REMARK SMILES IDX 33 51 36 52 50 53 69 54 34 55 35 56 49 58 70 59 37 60 21 61
REMARK SMILES IDX 22 62 30 63 23 64 24 65 28 66 31 67 25 68 26 69 29 70 27 71
REMARK SMILES IDX 53 72 54 73 62 74 55 75 56 76 60 77 63 78 57 79 58 80 61 81
REMARK SMILES IDX 59 82 38 83 39 84 47 85 40 86 41 87 45 88 48 89 42 90 43 91
REMARK SMILES IDX 46 92 44 93
REMARK H PARENT 5 6 1 9 1 10 1 11 78 20 84 23 9 27 68 46 36 57
REMARK Flexibility Score: inf
ROOT
ATOM      1  C   UNL A   1      32.916  28.996  25.160  1.00  0.00     0.042 C 
ENDROOT
BRANCH   1   2
ATOM      2  C   UNL A   1      32.983  27.471  25.071  1.00  0.00     0.118 C 
BRANCH   2   3
ATOM      3  N   UNL A   1      31.924  26.826  25.828  1.00  0.00    -0.351 N 
ATOM      4  C   UNL A   1      30.753  26.284  25.369  1.00  0.00     0.283 C 
ATOM      5  O   UNL A   1      29.904  25.919  26.188  1.00  0.00    -0.268 OA
ATOM      6  H   UNL A   1      32.066  26.772  26.802  1.00  0.00     0.163 HD
BRANCH   4   7
ATOM      7  C   UNL A   1      30.494  26.166  23.845  1.00  0.00     0.306 C 
BRANCH   7   8
ATOM      8  N   UNL A   1      29.923  24.843  23.522  1.00  0.00    -0.343 N 
ATOM      9  H   UNL A   1      30.631  24.270  23.063  1.00  0.00     0.345 HD
ATOM     10  H   UNL A   1      29.124  24.960  22.898  1.00  0.00     0.345 HD
ATOM     11  H   UNL A   1      29.618  24.385  24.381  1.00  0.00     0.345 HD
ENDBRANCH   7   8
BRANCH   7  12
ATOM     12  C   UNL A   1      29.618  27.314  23.380  1.00  0.00     0.063 A 
ATOM     13  C   UNL A   1      30.256  28.431  22.799  1.00  0.00     0.041 A 
ATOM     14  C   UNL A   1      28.227  27.354  23.562  1.00  0.00     0.126 A 
ATOM     15  C   UNL A   1      29.487  29.551  22.469  1.00  0.00     0.046 A 
ATOM     16  C   UNL A   1      27.456  28.439  23.126  1.00  0.00     0.057 A 
ATOM     17  N   UNL A   1      29.874  30.785  22.000  1.00  0.00    -0.361 N 
ATOM     18  C   UNL A   1      28.100  29.571  22.595  1.00  0.00     0.003 A 
ATOM     19  C   UNL A   1      28.775  31.573  21.786  1.00  0.00     0.083 A 
ATOM     20  H   UNL A   1      30.805  31.062  21.842  1.00  0.00     0.166 HD
ATOM     21  C   UNL A   1      27.660  30.839  22.122  1.00  0.00     0.028 A 
BRANCH  14  22
ATOM     22  O   UNL A   1      27.537  26.352  24.194  1.00  0.00    -0.507 OA
ATOM     23  H   UNL A   1      27.555  26.287  25.128  1.00  0.00     0.293 HD
ENDBRANCH  14  22
ENDBRANCH   7  12
ENDBRANCH   4   7
ENDBRANCH   2   3
ENDBRANCH   1   2
BRANCH   1  24
ATOM     24  C   UNL A   1      32.365  29.526  26.480  1.00  0.00     0.118 C 
BRANCH  24  25
ATOM     25  N   UNL A   1      32.426  30.976  26.561  1.00  0.00    -0.352 N 
ATOM     26  C   UNL A   1      33.264  31.812  27.251  1.00  0.00     0.251 C 
ATOM     27  H   UNL A   1      31.743  31.440  26.025  1.00  0.00     0.163 HD
ATOM     28  O   UNL A   1      32.990  33.010  27.288  1.00  0.00    -0.269 OA
BRANCH  26  29
ATOM     29  C   UNL A   1      34.471  31.322  27.959  1.00  0.00     0.039 A 
ATOM     30  C   UNL A   1      35.439  32.265  28.323  1.00  0.00     0.014 A 
ATOM     31  C   UNL A   1      34.713  29.967  28.202  1.00  0.00     0.014 A 
ATOM     32  C   UNL A   1      36.618  31.860  28.952  1.00  0.00     0.010 A 
ATOM     33  C   UNL A   1      35.856  29.568  28.899  1.00  0.00     0.010 A 
ATOM     34  C   UNL A   1      36.827  30.509  29.270  1.00  0.00    -0.014 A 
BRANCH  34  35
ATOM     35  C   UNL A   1      38.056  30.093  29.996  1.00  0.00     0.031 A 
ATOM     36  C   UNL A   1      38.321  30.560  31.400  1.00  0.00     0.074 A 
ATOM     37  C   UNL A   1      38.946  29.295  29.375  1.00  0.00     0.049 A 
ATOM     38  N   UNL A   1      39.318  30.263  32.197  1.00  0.00    -0.248 NA
ATOM     39  C   UNL A   1      37.352  31.500  31.983  1.00  0.00     0.031 C 
ATOM     40  C   UNL A   1      38.833  28.822  27.995  1.00  0.00     0.029 A 
ATOM     41  N   UNL A   1      40.117  28.737  29.823  1.00  0.00    -0.354 N 
ATOM     42  C   UNL A   1      39.099  30.978  33.366  1.00  0.00     0.074 A 
ATOM     43  C   UNL A   1      37.904  31.768  33.158  1.00  0.00     0.031 C 
ATOM     44  C   UNL A   1      39.871  28.015  27.721  1.00  0.00     0.029 A 
ATOM     45  C   UNL A   1      40.737  27.938  28.893  1.00  0.00     0.049 A 
ATOM     46  H   UNL A   1      40.479  28.894  30.726  1.00  0.00     0.167 HD
ATOM     47  C   UNL A   1      39.815  30.961  34.518  1.00  0.00     0.037 A 
ATOM     48  C   UNL A   1      41.871  27.219  28.979  1.00  0.00     0.037 A 
ATOM     49  C   UNL A   1      40.994  30.162  34.729  1.00  0.00     0.049 A 
ATOM     50  C   UNL A   1      42.638  27.206  30.272  1.00  0.00     0.074 A 
ATOM     51  C   UNL A   1      41.756  30.031  35.879  1.00  0.00     0.029 A 
ATOM     52  N   UNL A   1      41.589  29.360  33.766  1.00  0.00    -0.354 N 
ATOM     53  N   UNL A   1      42.376  27.825  31.397  1.00  0.00    -0.248 NA
ATOM     54  C   UNL A   1      43.855  26.383  30.309  1.00  0.00     0.031 C 
ATOM     55  C   UNL A   1      42.836  29.186  35.598  1.00  0.00     0.029 A 
ATOM     56  C   UNL A   1      42.720  28.750  34.288  1.00  0.00     0.049 A 
ATOM     57  H   UNL A   1      41.258  29.242  32.846  1.00  0.00     0.167 HD
ATOM     58  C   UNL A   1      43.379  27.452  32.280  1.00  0.00     0.074 A 
ATOM     59  C   UNL A   1      44.241  26.532  31.568  1.00  0.00     0.031 C 
ATOM     60  C   UNL A   1      43.573  27.842  33.565  1.00  0.00     0.037 A 
BRANCH  47  61
ATOM     61  C   UNL A   1      39.337  31.830  35.646  1.00  0.00     0.064 A 
ATOM     62  C   UNL A   1      39.760  33.161  35.779  1.00  0.00     0.173 A 
ATOM     63  C   UNL A   1      38.412  31.341  36.582  1.00  0.00     0.173 A 
ATOM     64  F   UNL A   1      40.651  33.675  34.918  1.00  0.00    -0.203 F 
ATOM     65  C   UNL A   1      39.298  33.961  36.822  1.00  0.00     0.198 A 
ATOM     66  C   UNL A   1      37.930  32.153  37.606  1.00  0.00     0.198 A 
ATOM     67  F   UNL A   1      37.968  30.078  36.497  1.00  0.00    -0.203 F 
ATOM     68  F   UNL A   1      39.754  35.214  36.954  1.00  0.00    -0.200 F 
ATOM     69  C   UNL A   1      38.378  33.459  37.729  1.00  0.00     0.200 A 
ATOM     70  F   UNL A   1      37.030  31.670  38.474  1.00  0.00    -0.200 F 
ATOM     71  F   UNL A   1      37.929  34.232  38.727  1.00  0.00    -0.200 F 
ENDBRANCH  47  61
BRANCH  48  72
ATOM     72  C   UNL A   1      42.329  26.418  27.814  1.00  0.00     0.064 A 
ATOM     73  C   UNL A   1      43.298  26.917  26.933  1.00  0.00     0.173 A 
ATOM     74  C   UNL A   1      41.810  25.141  27.558  1.00  0.00     0.173 A 
ATOM     75  F   UNL A   1      43.810  28.142  27.126  1.00  0.00    -0.203 F 
ATOM     76  C   UNL A   1      43.716  26.178  25.829  1.00  0.00     0.198 A 
ATOM     77  C   UNL A   1      42.250  24.390  26.470  1.00  0.00     0.198 A 
ATOM     78  F   UNL A   1      40.886  24.615  28.376  1.00  0.00    -0.203 F 
ATOM     79  F   UNL A   1      44.611  26.698  24.977  1.00  0.00    -0.200 F 
ATOM     80  C   UNL A   1      43.196  24.913  25.602  1.00  0.00     0.200 A 
ATOM     81  F   UNL A   1      41.757  23.162  26.263  1.00  0.00    -0.200 F 
ATOM     82  F   UNL A   1      43.603  24.200  24.542  1.00  0.00    -0.200 F 
ENDBRANCH  48  72
BRANCH  60  83
ATOM     83  C   UNL A   1      44.756  27.257  34.282  1.00  0.00     0.064 A 
ATOM     84  C   UNL A   1      46.002  27.904  34.292  1.00  0.00     0.173 A 
ATOM     85  C   UNL A   1      44.641  26.041  34.972  1.00  0.00     0.173 A 
ATOM     86  F   UNL A   1      46.167  29.061  33.635  1.00  0.00    -0.203 F 
ATOM     87  C   UNL A   1      47.097  27.335  34.936  1.00  0.00     0.198 A 
ATOM     88  C   UNL A   1      45.730  25.492  35.641  1.00  0.00     0.198 A 
ATOM     89  F   UNL A   1      43.471  25.385  34.998  1.00  0.00    -0.203 F 
ATOM     90  F   UNL A   1      48.291  27.941  34.882  1.00  0.00    -0.200 F 
ATOM     91  C   UNL A   1      46.960  26.133  35.614  1.00  0.00     0.200 A 
ATOM     92  F   UNL A   1      45.594  24.336  36.305  1.00  0.00    -0.200 F 
ATOM     93  F   UNL A   1      48.016  25.586  36.231  1.00  0.00    -0.200 F 
ENDBRANCH  60  83
ENDBRANCH  34  35
ENDBRANCH  26  29
ENDBRANCH  24  25
ENDBRANCH   1  24
TORSDOF 13
ENDMDL
