MODEL 1
REMARK VINA RESULT:     -14.2      0.000      0.000
REMARK SMILES C[C@@H]1C(C(=O)NCCCNC(=O)c2ccc(-c3c4nc(c(-c5c(F)c(F)c(F)c(F)c5F)c5ccc([nH]5)c(-c5c(F)c(F)c(F)c(F)c5F)c5nc(c(-c6c(F)c(F)c(F)c(F)c6F)c6ccc3[nH]6)C=C5)C=C4)cc2)=NC2=C1C(=O)C[C@H](c1ccccc1)C2
REMARK SMILES IDX 8 1 7 2 6 3 4 4 5 5 3 7 1 8 2 9 78 10 76 11 77 12 79 13
REMARK SMILES IDX 89 14 80 15 81 16 82 17 83 18 84 19 88 20 85 21 87 22 86 23
REMARK SMILES IDX 9 24 10 25 11 26 12 28 13 29 14 30 75 31 15 32 74 33 16 34
REMARK SMILES IDX 17 35 18 36 68 37 19 38 73 39 67 40 69 41 20 42 72 43 66 44
REMARK SMILES IDX 65 45 21 47 53 48 33 49 52 50 34 51 37 52 51 53 70 54 35 55
REMARK SMILES IDX 36 56 50 58 71 59 38 60 22 61 23 62 31 63 24 64 25 65 29 66
REMARK SMILES IDX 32 67 26 68 27 69 30 70 28 71 54 72 55 73 63 74 56 75 57 76
REMARK SMILES IDX 61 77 64 78 58 79 59 80 62 81 60 82 39 83 40 84 48 85 41 86
REMARK SMILES IDX 42 87 46 88 49 89 43 90 44 91 47 92 45 93
REMARK H PARENT 6 6 10 27 69 46 37 57
REMARK Flexibility Score: inf
ROOT
ATOM      1  C   UNL A   1      32.726  29.507  26.925  1.00  0.00     0.042 C 
ENDROOT
BRANCH   1   2
ATOM      2  C   UNL A   1      33.108  28.025  26.876  1.00  0.00     0.118 C 
BRANCH   2   3
ATOM      3  N   UNL A   1      33.789  27.615  25.655  1.00  0.00    -0.351 N 
ATOM      4  C   UNL A   1      33.317  27.618  24.353  1.00  0.00     0.266 C 
ATOM      5  O   UNL A   1      34.043  28.039  23.458  1.00  0.00    -0.268 OA
ATOM      6  H   UNL A   1      34.712  27.292  25.772  1.00  0.00     0.163 HD
BRANCH   4   7
ATOM      7  C   UNL A   1      32.040  26.870  23.980  1.00  0.00     0.113 C 
ATOM      8  C   UNL A   1      29.887  28.060  23.719  1.00  0.00     0.020 C 
ATOM      9  C   UNL A   1      30.706  27.133  24.617  1.00  0.00     0.076 C 
ATOM     10  C   UNL A   1      30.313  25.702  24.505  1.00  0.00     0.026 C 
ATOM     11  N   UNL A   1      32.047  25.878  23.121  1.00  0.00    -0.251 NA
ATOM     12  C   UNL A   1      30.954  25.120  23.488  1.00  0.00     0.049 C 
ATOM     13  C   UNL A   1      30.143  24.871  25.719  1.00  0.00     0.161 C 
ATOM     14  C   UNL A   1      30.978  23.626  23.362  1.00  0.00     0.065 C 
ATOM     15  O   UNL A   1      29.478  25.315  26.654  1.00  0.00    -0.294 OA
ATOM     16  C   UNL A   1      30.926  23.554  25.851  1.00  0.00     0.089 C 
ATOM     17  C   UNL A   1      31.718  23.069  24.594  1.00  0.00     0.033 C 
BRANCH  17  18
ATOM     18  C   UNL A   1      33.236  23.345  24.568  1.00  0.00    -0.044 A 
ATOM     19  C   UNL A   1      33.866  24.030  25.631  1.00  0.00     0.004 A 
ATOM     20  C   UNL A   1      34.056  22.972  23.494  1.00  0.00     0.004 A 
ATOM     21  C   UNL A   1      35.248  24.205  25.691  1.00  0.00     0.000 A 
ATOM     22  C   UNL A   1      35.445  23.170  23.539  1.00  0.00     0.000 A 
ATOM     23  C   UNL A   1      36.043  23.761  24.649  1.00  0.00     0.000 A 
ENDBRANCH  17  18
ENDBRANCH   4   7
ENDBRANCH   2   3
ENDBRANCH   1   2
BRANCH   1  24
ATOM     24  C   UNL A   1      33.946  30.414  26.976  1.00  0.00     0.118 C 
BRANCH  24  25
ATOM     25  N   UNL A   1      33.915  31.386  28.074  1.00  0.00    -0.352 N 
ATOM     26  C   UNL A   1      34.910  31.667  28.992  1.00  0.00     0.251 C 
ATOM     27  H   UNL A   1      33.083  31.903  28.170  1.00  0.00     0.163 HD
ATOM     28  O   UNL A   1      34.688  32.346  29.988  1.00  0.00    -0.269 OA
BRANCH  26  29
ATOM     29  C   UNL A   1      36.244  31.090  28.761  1.00  0.00     0.039 A 
ATOM     30  C   UNL A   1      37.397  31.802  29.089  1.00  0.00     0.014 A 
ATOM     31  C   UNL A   1      36.314  29.762  28.354  1.00  0.00     0.014 A 
ATOM     32  C   UNL A   1      38.610  31.119  29.127  1.00  0.00     0.010 A 
ATOM     33  C   UNL A   1      37.475  29.058  28.559  1.00  0.00     0.010 A 
ATOM     34  C   UNL A   1      38.641  29.728  28.916  1.00  0.00    -0.014 A 
BRANCH  34  35
ATOM     35  C   UNL A   1      39.866  28.972  29.186  1.00  0.00     0.031 A 
ATOM     36  C   UNL A   1      40.181  28.764  30.629  1.00  0.00     0.074 A 
ATOM     37  C   UNL A   1      40.614  28.352  28.245  1.00  0.00     0.049 A 
ATOM     38  N   UNL A   1      41.172  29.265  31.292  1.00  0.00    -0.248 NA
ATOM     39  C   UNL A   1      39.234  28.003  31.459  1.00  0.00     0.031 C 
ATOM     40  C   UNL A   1      40.346  28.187  26.812  1.00  0.00     0.029 A 
ATOM     41  N   UNL A   1      41.775  27.656  28.412  1.00  0.00    -0.354 N 
ATOM     42  C   UNL A   1      41.080  28.752  32.582  1.00  0.00     0.074 A 
ATOM     43  C   UNL A   1      39.800  28.095  32.665  1.00  0.00     0.031 C 
ATOM     44  C   UNL A   1      41.183  27.263  26.293  1.00  0.00     0.029 A 
ATOM     45  C   UNL A   1      42.169  26.925  27.298  1.00  0.00     0.049 A 
ATOM     46  H   UNL A   1      42.290  27.669  29.251  1.00  0.00     0.167 HD
ATOM     47  C   UNL A   1      42.166  28.731  33.405  1.00  0.00     0.037 A 
ATOM     48  C   UNL A   1      43.246  26.114  27.190  1.00  0.00     0.037 A 
ATOM     49  C   UNL A   1      43.186  29.639  32.942  1.00  0.00     0.049 A 
ATOM     50  C   UNL A   1      44.212  26.526  28.231  1.00  0.00     0.074 A 
ATOM     51  C   UNL A   1      43.260  31.002  32.735  1.00  0.00     0.029 A 
ATOM     52  N   UNL A   1      44.249  29.104  32.261  1.00  0.00    -0.354 N 
ATOM     53  N   UNL A   1      44.856  27.658  28.217  1.00  0.00    -0.248 NA
ATOM     54  C   UNL A   1      44.173  25.842  29.512  1.00  0.00     0.031 C 
ATOM     55  C   UNL A   1      44.062  31.157  31.564  1.00  0.00     0.029 A 
ATOM     56  C   UNL A   1      44.477  29.887  31.159  1.00  0.00     0.049 A 
ATOM     57  H   UNL A   1      44.758  28.301  32.517  1.00  0.00     0.167 HD
ATOM     58  C   UNL A   1      44.909  28.043  29.547  1.00  0.00     0.074 A 
ATOM     59  C   UNL A   1      44.597  26.833  30.301  1.00  0.00     0.031 C 
ATOM     60  C   UNL A   1      44.924  29.364  29.889  1.00  0.00     0.037 A 
BRANCH  47  61
ATOM     61  C   UNL A   1      42.471  27.626  34.392  1.00  0.00     0.064 A 
ATOM     62  C   UNL A   1      43.031  26.418  33.924  1.00  0.00     0.173 A 
ATOM     63  C   UNL A   1      41.946  27.580  35.701  1.00  0.00     0.173 A 
ATOM     64  F   UNL A   1      43.545  26.338  32.686  1.00  0.00    -0.203 F 
ATOM     65  C   UNL A   1      42.985  25.240  34.674  1.00  0.00     0.198 A 
ATOM     66  C   UNL A   1      41.947  26.416  36.467  1.00  0.00     0.198 A 
ATOM     67  F   UNL A   1      41.306  28.620  36.249  1.00  0.00    -0.203 F 
ATOM     68  F   UNL A   1      43.406  24.089  34.134  1.00  0.00    -0.200 F 
ATOM     69  C   UNL A   1      42.435  25.237  35.942  1.00  0.00     0.200 A 
ATOM     70  F   UNL A   1      41.391  26.430  37.687  1.00  0.00    -0.200 F 
ATOM     71  F   UNL A   1      42.325  24.097  36.637  1.00  0.00    -0.200 F 
ENDBRANCH  47  61
BRANCH  48  72
ATOM     72  C   UNL A   1      43.401  24.870  26.408  1.00  0.00     0.064 A 
ATOM     73  C   UNL A   1      44.338  24.784  25.365  1.00  0.00     0.173 A 
ATOM     74  C   UNL A   1      42.854  23.656  26.867  1.00  0.00     0.173 A 
ATOM     75  F   UNL A   1      44.928  25.892  24.896  1.00  0.00    -0.203 F 
ATOM     76  C   UNL A   1      44.740  23.551  24.844  1.00  0.00     0.198 A 
ATOM     77  C   UNL A   1      43.253  22.427  26.342  1.00  0.00     0.198 A 
ATOM     78  F   UNL A   1      42.000  23.636  27.900  1.00  0.00    -0.203 F 
ATOM     79  F   UNL A   1      45.693  23.504  23.902  1.00  0.00    -0.200 F 
ATOM     80  C   UNL A   1      44.209  22.374  25.344  1.00  0.00     0.200 A 
ATOM     81  F   UNL A   1      42.759  21.293  26.858  1.00  0.00    -0.200 F 
ATOM     82  F   UNL A   1      44.650  21.189  24.898  1.00  0.00    -0.200 F 
ENDBRANCH  48  72
BRANCH  60  83
ATOM     83  C   UNL A   1      45.218  30.358  28.798  1.00  0.00     0.064 A 
ATOM     84  C   UNL A   1      44.253  30.899  27.930  1.00  0.00     0.173 A 
ATOM     85  C   UNL A   1      46.524  30.856  28.692  1.00  0.00     0.173 A 
ATOM     86  F   UNL A   1      42.963  30.556  28.029  1.00  0.00    -0.203 F 
ATOM     87  C   UNL A   1      44.595  31.846  26.964  1.00  0.00     0.198 A 
ATOM     88  C   UNL A   1      46.855  31.830  27.753  1.00  0.00     0.198 A 
ATOM     89  F   UNL A   1      47.480  30.420  29.527  1.00  0.00    -0.203 F 
ATOM     90  F   UNL A   1      43.659  32.323  26.129  1.00  0.00    -0.200 F 
ATOM     91  C   UNL A   1      45.895  32.314  26.880  1.00  0.00     0.200 A 
ATOM     92  F   UNL A   1      48.104  32.315  27.709  1.00  0.00    -0.200 F 
ATOM     93  F   UNL A   1      46.219  33.246  25.972  1.00  0.00    -0.200 F 
ENDBRANCH  60  83
ENDBRANCH  34  35
ENDBRANCH  26  29
ENDBRANCH  24  25
ENDBRANCH   1  24
TORSDOF 11
ENDMDL
MODEL 2
REMARK VINA RESULT:     -14.2      3.213      8.638
REMARK SMILES C[C@@H]1C(C(=O)NCCCNC(=O)c2ccc(-c3c4nc(c(-c5c(F)c(F)c(F)c(F)c5F)c5ccc([nH]5)c(-c5c(F)c(F)c(F)c(F)c5F)c5nc(c(-c6c(F)c(F)c(F)c(F)c6F)c6ccc3[nH]6)C=C5)C=C4)cc2)=NC2=C1C(=O)C[C@H](c1ccccc1)C2
REMARK SMILES IDX 8 1 7 2 6 3 4 4 5 5 3 7 1 8 2 9 78 10 76 11 77 12 79 13
REMARK SMILES IDX 89 14 80 15 81 16 82 17 83 18 84 19 88 20 85 21 87 22 86 23
REMARK SMILES IDX 9 24 10 25 11 26 12 28 13 29 14 30 75 31 15 32 74 33 16 34
REMARK SMILES IDX 17 35 18 36 68 37 19 38 73 39 67 40 69 41 20 42 72 43 66 44
REMARK SMILES IDX 65 45 21 47 53 48 33 49 52 50 34 51 37 52 51 53 70 54 35 55
REMARK SMILES IDX 36 56 50 58 71 59 38 60 22 61 23 62 31 63 24 64 25 65 29 66
REMARK SMILES IDX 32 67 26 68 27 69 30 70 28 71 54 72 55 73 63 74 56 75 57 76
REMARK SMILES IDX 61 77 64 78 58 79 59 80 62 81 60 82 39 83 40 84 48 85 41 86
REMARK SMILES IDX 42 87 46 88 49 89 43 90 44 91 47 92 45 93
REMARK H PARENT 6 6 10 27 69 46 37 57
REMARK Flexibility Score: inf
ROOT
ATOM      1  C   UNL A   1      37.169  23.024  25.294  1.00  0.00     0.042 C 
ENDROOT
BRANCH   1   2
ATOM      2  C   UNL A   1      36.050  24.048  25.081  1.00  0.00     0.118 C 
BRANCH   2   3
ATOM      3  N   UNL A   1      35.025  24.047  26.116  1.00  0.00    -0.351 N 
ATOM      4  C   UNL A   1      33.989  23.149  26.314  1.00  0.00     0.266 C 
ATOM      5  O   UNL A   1      33.756  22.750  27.450  1.00  0.00    -0.268 OA
ATOM      6  H   UNL A   1      35.075  24.787  26.764  1.00  0.00     0.163 HD
BRANCH   4   7
ATOM      7  C   UNL A   1      32.977  22.863  25.207  1.00  0.00     0.113 C 
ATOM      8  C   UNL A   1      32.882  20.653  24.099  1.00  0.00     0.020 C 
ATOM      9  C   UNL A   1      33.310  22.113  23.950  1.00  0.00     0.076 C 
ATOM     10  C   UNL A   1      32.359  22.930  23.149  1.00  0.00     0.026 C 
ATOM     11  N   UNL A   1      31.753  23.333  25.252  1.00  0.00    -0.251 NA
ATOM     12  C   UNL A   1      31.380  23.400  23.926  1.00  0.00     0.049 C 
ATOM     13  C   UNL A   1      32.856  23.857  22.106  1.00  0.00     0.161 C 
ATOM     14  C   UNL A   1      30.484  24.498  23.435  1.00  0.00     0.065 C 
ATOM     15  O   UNL A   1      33.689  23.449  21.297  1.00  0.00    -0.294 OA
ATOM     16  C   UNL A   1      32.447  25.339  22.153  1.00  0.00     0.089 C 
ATOM     17  C   UNL A   1      31.362  25.744  23.202  1.00  0.00     0.033 C 
BRANCH  17  18
ATOM     18  C   UNL A   1      31.857  26.393  24.512  1.00  0.00    -0.044 A 
ATOM     19  C   UNL A   1      33.229  26.659  24.715  1.00  0.00     0.004 A 
ATOM     20  C   UNL A   1      30.995  26.717  25.569  1.00  0.00     0.004 A 
ATOM     21  C   UNL A   1      33.699  27.337  25.840  1.00  0.00     0.000 A 
ATOM     22  C   UNL A   1      31.468  27.377  26.714  1.00  0.00     0.000 A 
ATOM     23  C   UNL A   1      32.814  27.712  26.837  1.00  0.00     0.000 A 
ENDBRANCH  17  18
ENDBRANCH   4   7
ENDBRANCH   2   3
ENDBRANCH   1   2
BRANCH   1  24
ATOM     24  C   UNL A   1      38.096  23.415  26.436  1.00  0.00     0.118 C 
BRANCH  24  25
ATOM     25  N   UNL A   1      39.200  22.472  26.649  1.00  0.00    -0.352 N 
ATOM     26  C   UNL A   1      40.538  22.759  26.849  1.00  0.00     0.251 C 
ATOM     27  H   UNL A   1      38.960  21.518  26.649  1.00  0.00     0.163 HD
ATOM     28  O   UNL A   1      41.394  21.882  26.804  1.00  0.00    -0.269 OA
BRANCH  26  29
ATOM     29  C   UNL A   1      40.915  24.162  27.079  1.00  0.00     0.039 A 
ATOM     30  C   UNL A   1      40.462  25.173  26.232  1.00  0.00     0.014 A 
ATOM     31  C   UNL A   1      41.604  24.464  28.250  1.00  0.00     0.014 A 
ATOM     32  C   UNL A   1      40.598  26.496  26.645  1.00  0.00     0.010 A 
ATOM     33  C   UNL A   1      41.580  25.751  28.728  1.00  0.00     0.010 A 
ATOM     34  C   UNL A   1      41.109  26.784  27.925  1.00  0.00    -0.014 A 
BRANCH  34  35
ATOM     35  C   UNL A   1      41.034  28.148  28.454  1.00  0.00     0.031 A 
ATOM     36  C   UNL A   1      42.129  29.061  28.016  1.00  0.00     0.074 A 
ATOM     37  C   UNL A   1      39.996  28.645  29.164  1.00  0.00     0.049 A 
ATOM     38  N   UNL A   1      43.063  29.570  28.752  1.00  0.00    -0.248 NA
ATOM     39  C   UNL A   1      42.273  29.360  26.583  1.00  0.00     0.031 C 
ATOM     40  C   UNL A   1      38.703  28.024  29.470  1.00  0.00     0.029 A 
ATOM     41  N   UNL A   1      39.864  29.888  29.711  1.00  0.00    -0.354 N 
ATOM     42  C   UNL A   1      43.816  30.392  27.919  1.00  0.00     0.074 A 
ATOM     43  C   UNL A   1      43.372  30.120  26.576  1.00  0.00     0.031 C 
ATOM     44  C   UNL A   1      37.847  28.955  29.942  1.00  0.00     0.029 A 
ATOM     45  C   UNL A   1      38.584  30.182  30.162  1.00  0.00     0.049 A 
ATOM     46  H   UNL A   1      40.613  30.523  29.780  1.00  0.00     0.167 HD
ATOM     47  C   UNL A   1      44.594  31.384  28.434  1.00  0.00     0.037 A 
ATOM     48  C   UNL A   1      38.153  31.343  30.704  1.00  0.00     0.037 A 
ATOM     49  C   UNL A   1      44.842  31.174  29.839  1.00  0.00     0.049 A 
ATOM     50  C   UNL A   1      39.342  32.052  31.226  1.00  0.00     0.074 A 
ATOM     51  C   UNL A   1      45.454  30.188  30.587  1.00  0.00     0.029 A 
ATOM     52  N   UNL A   1      44.099  31.905  30.730  1.00  0.00    -0.354 N 
ATOM     53  N   UNL A   1      40.043  31.643  32.245  1.00  0.00    -0.248 NA
ATOM     54  C   UNL A   1      39.997  33.020  30.363  1.00  0.00     0.031 C 
ATOM     55  C   UNL A   1      44.672  30.086  31.777  1.00  0.00     0.029 A 
ATOM     56  C   UNL A   1      43.667  31.052  31.713  1.00  0.00     0.049 A 
ATOM     57  H   UNL A   1      43.908  32.869  30.674  1.00  0.00     0.167 HD
ATOM     58  C   UNL A   1      41.353  31.942  31.908  1.00  0.00     0.074 A 
ATOM     59  C   UNL A   1      41.249  32.901  30.812  1.00  0.00     0.031 C 
ATOM     60  C   UNL A   1      42.382  31.171  32.363  1.00  0.00     0.037 A 
BRANCH  47  61
ATOM     61  C   UNL A   1      44.807  32.731  27.780  1.00  0.00     0.064 A 
ATOM     62  C   UNL A   1      46.087  33.061  27.282  1.00  0.00     0.173 A 
ATOM     63  C   UNL A   1      43.913  33.815  27.911  1.00  0.00     0.173 A 
ATOM     64  F   UNL A   1      47.026  32.114  27.132  1.00  0.00    -0.203 F 
ATOM     65  C   UNL A   1      46.463  34.382  27.025  1.00  0.00     0.198 A 
ATOM     66  C   UNL A   1      44.276  35.125  27.605  1.00  0.00     0.198 A 
ATOM     67  F   UNL A   1      42.696  33.673  28.449  1.00  0.00    -0.203 F 
ATOM     68  F   UNL A   1      47.729  34.660  26.685  1.00  0.00    -0.200 F 
ATOM     69  C   UNL A   1      45.561  35.414  27.195  1.00  0.00     0.200 A 
ATOM     70  F   UNL A   1      43.391  36.114  27.795  1.00  0.00    -0.200 F 
ATOM     71  F   UNL A   1      45.937  36.688  27.017  1.00  0.00    -0.200 F 
ENDBRANCH  47  61
BRANCH  48  72
ATOM     72  C   UNL A   1      36.826  31.986  30.601  1.00  0.00     0.064 A 
ATOM     73  C   UNL A   1      35.937  31.987  31.688  1.00  0.00     0.173 A 
ATOM     74  C   UNL A   1      36.533  32.868  29.544  1.00  0.00     0.173 A 
ATOM     75  F   UNL A   1      36.167  31.199  32.748  1.00  0.00    -0.203 F 
ATOM     76  C   UNL A   1      34.844  32.856  31.736  1.00  0.00     0.198 A 
ATOM     77  C   UNL A   1      35.438  33.731  29.591  1.00  0.00     0.198 A 
ATOM     78  F   UNL A   1      37.360  32.980  28.494  1.00  0.00    -0.203 F 
ATOM     79  F   UNL A   1      34.062  32.884  32.824  1.00  0.00    -0.200 F 
ATOM     80  C   UNL A   1      34.606  33.739  30.695  1.00  0.00     0.200 A 
ATOM     81  F   UNL A   1      35.238  34.606  28.595  1.00  0.00    -0.200 F 
ATOM     82  F   UNL A   1      33.603  34.624  30.776  1.00  0.00    -0.200 F 
ENDBRANCH  48  72
BRANCH  60  83
ATOM     83  C   UNL A   1      42.087  30.215  33.488  1.00  0.00     0.064 A 
ATOM     84  C   UNL A   1      41.691  28.877  33.315  1.00  0.00     0.173 A 
ATOM     85  C   UNL A   1      42.308  30.652  34.801  1.00  0.00     0.173 A 
ATOM     86  F   UNL A   1      41.556  28.348  32.092  1.00  0.00    -0.203 F 
ATOM     87  C   UNL A   1      41.470  28.039  34.407  1.00  0.00     0.198 A 
ATOM     88  C   UNL A   1      42.124  29.802  35.888  1.00  0.00     0.198 A 
ATOM     89  F   UNL A   1      42.738  31.903  35.030  1.00  0.00    -0.203 F 
ATOM     90  F   UNL A   1      41.064  26.774  34.214  1.00  0.00    -0.200 F 
ATOM     91  C   UNL A   1      41.691  28.501  35.693  1.00  0.00     0.200 A 
ATOM     92  F   UNL A   1      42.387  30.241  37.128  1.00  0.00    -0.200 F 
ATOM     93  F   UNL A   1      41.508  27.688  36.743  1.00  0.00    -0.200 F 
ENDBRANCH  60  83
ENDBRANCH  34  35
ENDBRANCH  26  29
ENDBRANCH  24  25
ENDBRANCH   1  24
TORSDOF 11
ENDMDL
MODEL 3
REMARK VINA RESULT:     -14.0      5.212     11.348
REMARK SMILES C[C@@H]1C(C(=O)NCCCNC(=O)c2ccc(-c3c4nc(c(-c5c(F)c(F)c(F)c(F)c5F)c5ccc([nH]5)c(-c5c(F)c(F)c(F)c(F)c5F)c5nc(c(-c6c(F)c(F)c(F)c(F)c6F)c6ccc3[nH]6)C=C5)C=C4)cc2)=NC2=C1C(=O)C[C@H](c1ccccc1)C2
REMARK SMILES IDX 8 1 7 2 6 3 4 4 5 5 3 7 1 8 2 9 78 10 76 11 77 12 79 13
REMARK SMILES IDX 89 14 80 15 81 16 82 17 83 18 84 19 88 20 85 21 87 22 86 23
REMARK SMILES IDX 9 24 10 25 11 26 12 28 13 29 14 30 75 31 15 32 74 33 16 34
REMARK SMILES IDX 17 35 18 36 68 37 19 38 73 39 67 40 69 41 20 42 72 43 66 44
REMARK SMILES IDX 65 45 21 47 53 48 33 49 52 50 34 51 37 52 51 53 70 54 35 55
REMARK SMILES IDX 36 56 50 58 71 59 38 60 22 61 23 62 31 63 24 64 25 65 29 66
REMARK SMILES IDX 32 67 26 68 27 69 30 70 28 71 54 72 55 73 63 74 56 75 57 76
REMARK SMILES IDX 61 77 64 78 58 79 59 80 62 81 60 82 39 83 40 84 48 85 41 86
REMARK SMILES IDX 42 87 46 88 49 89 43 90 44 91 47 92 45 93
REMARK H PARENT 6 6 10 27 69 46 37 57
REMARK Flexibility Score: inf
ROOT
ATOM      1  C   UNL A   1      44.329  21.829  25.366  1.00  0.00     0.042 C 
ENDROOT
BRANCH   1   2
ATOM      2  C   UNL A   1      45.580  22.614  25.771  1.00  0.00     0.118 C 
BRANCH   2   3
ATOM      3  N   UNL A   1      46.058  23.553  24.766  1.00  0.00    -0.351 N 
ATOM      4  C   UNL A   1      46.667  24.784  24.945  1.00  0.00     0.266 C 
ATOM      5  O   UNL A   1      47.651  25.066  24.268  1.00  0.00    -0.268 OA
ATOM      6  H   UNL A   1      45.931  23.274  23.830  1.00  0.00     0.163 HD
BRANCH   4   7
ATOM      7  C   UNL A   1      45.987  25.884  25.756  1.00  0.00     0.113 C 
ATOM      8  C   UNL A   1      43.735  26.715  25.154  1.00  0.00     0.020 C 
ATOM      9  C   UNL A   1      45.232  27.026  25.140  1.00  0.00     0.076 C 
ATOM     10  C   UNL A   1      45.654  27.957  26.222  1.00  0.00     0.026 C 
ATOM     11  N   UNL A   1      46.090  25.943  27.063  1.00  0.00    -0.251 NA
ATOM     12  C   UNL A   1      45.906  27.280  27.346  1.00  0.00     0.049 C 
ATOM     13  C   UNL A   1      46.565  29.086  25.931  1.00  0.00     0.161 C 
ATOM     14  C   UNL A   1      46.643  27.936  28.476  1.00  0.00     0.065 C 
ATOM     15  O   UNL A   1      46.328  29.807  24.962  1.00  0.00    -0.294 OA
ATOM     16  C   UNL A   1      47.866  29.237  26.739  1.00  0.00     0.089 C 
ATOM     17  C   UNL A   1      48.055  28.287  27.965  1.00  0.00     0.033 C 
BRANCH  17  18
ATOM     18  C   UNL A   1      48.955  27.050  27.764  1.00  0.00    -0.044 A 
ATOM     19  C   UNL A   1      49.565  26.792  26.516  1.00  0.00     0.004 A 
ATOM     20  C   UNL A   1      49.186  26.109  28.777  1.00  0.00     0.004 A 
ATOM     21  C   UNL A   1      50.466  25.744  26.328  1.00  0.00     0.000 A 
ATOM     22  C   UNL A   1      50.072  25.037  28.584  1.00  0.00     0.000 A 
ATOM     23  C   UNL A   1      50.732  24.871  27.369  1.00  0.00     0.000 A 
ENDBRANCH  17  18
ENDBRANCH   4   7
ENDBRANCH   2   3
ENDBRANCH   1   2
BRANCH   1  24
ATOM     24  C   UNL A   1      43.094  22.715  25.295  1.00  0.00     0.118 C 
BRANCH  24  25
ATOM     25  N   UNL A   1      41.951  22.197  26.057  1.00  0.00    -0.352 N 
ATOM     26  C   UNL A   1      41.179  22.862  26.991  1.00  0.00     0.251 C 
ATOM     27  H   UNL A   1      41.704  21.261  25.881  1.00  0.00     0.163 HD
ATOM     28  O   UNL A   1      40.389  22.262  27.711  1.00  0.00    -0.269 OA
BRANCH  26  29
ATOM     29  C   UNL A   1      41.361  24.316  27.128  1.00  0.00     0.039 A 
ATOM     30  C   UNL A   1      40.520  25.207  26.464  1.00  0.00     0.014 A 
ATOM     31  C   UNL A   1      42.293  24.767  28.057  1.00  0.00     0.014 A 
ATOM     32  C   UNL A   1      40.539  26.547  26.843  1.00  0.00     0.010 A 
ATOM     33  C   UNL A   1      42.187  26.047  28.544  1.00  0.00     0.010 A 
ATOM     34  C   UNL A   1      41.337  26.959  27.928  1.00  0.00    -0.014 A 
BRANCH  34  35
ATOM     35  C   UNL A   1      41.185  28.307  28.480  1.00  0.00     0.031 A 
ATOM     36  C   UNL A   1      42.241  29.281  28.079  1.00  0.00     0.074 A 
ATOM     37  C   UNL A   1      40.111  28.739  29.177  1.00  0.00     0.049 A 
ATOM     38  N   UNL A   1      43.135  29.822  28.842  1.00  0.00    -0.248 NA
ATOM     39  C   UNL A   1      42.397  29.614  26.655  1.00  0.00     0.031 C 
ATOM     40  C   UNL A   1      38.845  28.049  29.447  1.00  0.00     0.029 A 
ATOM     41  N   UNL A   1      39.907  29.963  29.744  1.00  0.00    -0.354 N 
ATOM     42  C   UNL A   1      43.861  30.695  28.039  1.00  0.00     0.074 A 
ATOM     43  C   UNL A   1      43.456  30.427  26.682  1.00  0.00     0.031 C 
ATOM     44  C   UNL A   1      37.934  28.928  29.918  1.00  0.00     0.029 A 
ATOM     45  C   UNL A   1      38.606  30.185  30.175  1.00  0.00     0.049 A 
ATOM     46  H   UNL A   1      40.622  30.634  29.839  1.00  0.00     0.167 HD
ATOM     47  C   UNL A   1      44.579  31.715  28.586  1.00  0.00     0.037 A 
ATOM     48  C   UNL A   1      38.107  31.314  30.729  1.00  0.00     0.037 A 
ATOM     49  C   UNL A   1      44.811  31.492  29.991  1.00  0.00     0.049 A 
ATOM     50  C   UNL A   1      39.250  32.070  31.286  1.00  0.00     0.074 A 
ATOM     51  C   UNL A   1      45.457  30.523  30.734  1.00  0.00     0.029 A 
ATOM     52  N   UNL A   1      44.016  32.168  30.880  1.00  0.00    -0.354 N 
ATOM     53  N   UNL A   1      39.951  31.678  32.311  1.00  0.00    -0.248 NA
ATOM     54  C   UNL A   1      39.871  33.085  30.453  1.00  0.00     0.031 C 
ATOM     55  C   UNL A   1      44.660  30.361  31.907  1.00  0.00     0.029 A 
ATOM     56  C   UNL A   1      43.609  31.277  31.840  1.00  0.00     0.049 A 
ATOM     57  H   UNL A   1      43.779  33.122  30.838  1.00  0.00     0.167 HD
ATOM     58  C   UNL A   1      41.250  32.047  32.005  1.00  0.00     0.074 A 
ATOM     59  C   UNL A   1      41.119  33.020  30.924  1.00  0.00     0.031 C 
ATOM     60  C   UNL A   1      42.308  31.320  32.466  1.00  0.00     0.037 A 
BRANCH  47  61
ATOM     61  C   UNL A   1      44.737  33.083  27.960  1.00  0.00     0.064 A 
ATOM     62  C   UNL A   1      45.993  33.461  27.436  1.00  0.00     0.173 A 
ATOM     63  C   UNL A   1      43.817  34.138  28.142  1.00  0.00     0.173 A 
ATOM     64  F   UNL A   1      46.953  32.545  27.237  1.00  0.00    -0.203 F 
ATOM     65  C   UNL A   1      46.326  34.797  27.202  1.00  0.00     0.198 A 
ATOM     66  C   UNL A   1      44.136  35.465  27.859  1.00  0.00     0.198 A 
ATOM     67  F   UNL A   1      42.621  33.949  28.709  1.00  0.00    -0.203 F 
ATOM     68  F   UNL A   1      47.573  35.119  26.835  1.00  0.00    -0.200 F 
ATOM     69  C   UNL A   1      45.400  35.800  27.422  1.00  0.00     0.200 A 
ATOM     70  F   UNL A   1      43.230  36.424  28.098  1.00  0.00    -0.200 F 
ATOM     71  F   UNL A   1      45.736  37.087  27.265  1.00  0.00    -0.200 F 
ENDBRANCH  47  61
BRANCH  48  72
ATOM     72  C   UNL A   1      36.752  31.892  30.611  1.00  0.00     0.064 A 
ATOM     73  C   UNL A   1      35.924  32.027  31.737  1.00  0.00     0.173 A 
ATOM     74  C   UNL A   1      36.367  32.597  29.455  1.00  0.00     0.173 A 
ATOM     75  F   UNL A   1      36.242  31.414  32.886  1.00  0.00    -0.203 F 
ATOM     76  C   UNL A   1      34.801  32.859  31.721  1.00  0.00     0.198 A 
ATOM     77  C   UNL A   1      35.243  33.423  29.440  1.00  0.00     0.198 A 
ATOM     78  F   UNL A   1      37.131  32.576  28.353  1.00  0.00    -0.203 F 
ATOM     79  F   UNL A   1      34.079  33.024  32.838  1.00  0.00    -0.200 F 
ATOM     80  C   UNL A   1      34.472  33.568  30.578  1.00  0.00     0.200 A 
ATOM     81  F   UNL A   1      34.955  34.132  28.340  1.00  0.00    -0.200 F 
ATOM     82  F   UNL A   1      33.440  34.424  30.587  1.00  0.00    -0.200 F 
ENDBRANCH  48  72
BRANCH  60  83
ATOM     83  C   UNL A   1      42.040  30.330  33.568  1.00  0.00     0.064 A 
ATOM     84  C   UNL A   1      41.650  28.995  33.364  1.00  0.00     0.173 A 
ATOM     85  C   UNL A   1      42.283  30.730  34.890  1.00  0.00     0.173 A 
ATOM     86  F   UNL A   1      41.495  28.500  32.129  1.00  0.00    -0.203 F 
ATOM     87  C   UNL A   1      41.454  28.123  34.435  1.00  0.00     0.198 A 
ATOM     88  C   UNL A   1      42.124  29.847  35.955  1.00  0.00     0.198 A 
ATOM     89  F   UNL A   1      42.709  31.976  35.146  1.00  0.00    -0.203 F 
ATOM     90  F   UNL A   1      41.053  26.862  34.213  1.00  0.00    -0.200 F 
ATOM     91  C   UNL A   1      41.696  28.550  35.730  1.00  0.00     0.200 A 
ATOM     92  F   UNL A   1      42.407  30.252  37.201  1.00  0.00    -0.200 F 
ATOM     93  F   UNL A   1      41.537  27.706  36.759  1.00  0.00    -0.200 F 
ENDBRANCH  60  83
ENDBRANCH  34  35
ENDBRANCH  26  29
ENDBRANCH  24  25
ENDBRANCH   1  24
TORSDOF 11
ENDMDL
