MODEL 1
REMARK VINA RESULT:     -13.2      0.000      0.000
REMARK SMILES C[C@@H]1CCCC[C@@H]1NC(=O)[C@@H](C)n1cc(C(=O)NCCCNC(=O)c2ccc(-c3c4nc(c(-c5c(F)c(F)c(F)c(F)c5F)c5ccc([nH]5)c(-c5c(F)c(F)c(F)c(F)c5F)c5nc(c(-c6c(F)c(F)c(F)c(F)c6F)c6ccc3[nH]6)C=C5)C=C4)cc2)cn1
REMARK SMILES IDX 19 1 18 2 16 3 17 4 15 6 13 7 14 8 89 9 88 10 11 11 12 12
REMARK SMILES IDX 9 13 8 14 10 16 7 17 1 18 2 19 3 20 4 21 6 22 5 23 20 24
REMARK SMILES IDX 21 25 22 26 23 27 24 29 25 30 26 31 87 32 27 33 86 34 28 35
REMARK SMILES IDX 29 36 30 37 80 38 31 39 85 40 79 41 81 42 32 43 84 44 78 45
REMARK SMILES IDX 77 46 33 48 65 49 45 50 64 51 46 52 49 53 63 54 82 55 47 56
REMARK SMILES IDX 48 57 62 59 83 60 50 61 34 62 35 63 43 64 36 65 37 66 41 67
REMARK SMILES IDX 44 68 38 69 39 70 42 71 40 72 66 73 67 74 75 75 68 76 69 77
REMARK SMILES IDX 73 78 76 79 70 80 71 81 74 82 72 83 51 84 52 85 60 86 53 87
REMARK SMILES IDX 54 88 58 89 61 90 55 91 56 92 59 93 57 94
REMARK H PARENT 18 5 8 15 22 28 81 47 49 58
REMARK Flexibility Score: inf
ROOT
ATOM      1  C   UNL A   1      37.782  22.037  25.719  1.00  0.00     0.118 C 
ENDROOT
BRANCH   1   2
ATOM      2  N   UNL A   1      37.621  22.308  24.306  1.00  0.00    -0.352 N 
ATOM      3  C   UNL A   1      36.557  22.841  23.628  1.00  0.00     0.254 C 
ATOM      4  O   UNL A   1      36.643  22.953  22.407  1.00  0.00    -0.269 OA
ATOM      5  H   UNL A   1      38.395  22.073  23.746  1.00  0.00     0.163 HD
BRANCH   3   6
ATOM      6  C   UNL A   1      35.327  23.149  24.327  1.00  0.00     0.077 A 
ATOM      7  N   UNL A   1      33.266  23.378  25.107  1.00  0.00    -0.260 N 
ATOM      8  C   UNL A   1      34.007  22.791  24.109  1.00  0.00     0.123 A 
ATOM      9  N   UNL A   1      34.016  24.203  25.862  1.00  0.00    -0.180 NA
ATOM     10  C   UNL A   1      35.266  23.950  25.481  1.00  0.00     0.149 A 
BRANCH   7  11
ATOM     11  C   UNL A   1      31.810  23.336  25.258  1.00  0.00     0.193 C 
ATOM     12  C   UNL A   1      31.048  23.702  23.987  1.00  0.00     0.044 C 
BRANCH  11  13
ATOM     13  C   UNL A   1      31.257  24.074  26.484  1.00  0.00     0.244 C 
ATOM     14  N   UNL A   1      31.021  25.423  26.520  1.00  0.00    -0.351 N 
ATOM     15  H   UNL A   1      30.357  25.730  27.178  1.00  0.00     0.163 HD
ATOM     16  O   UNL A   1      30.897  23.423  27.474  1.00  0.00    -0.273 OA
BRANCH  14  17
ATOM     17  C   UNL A   1      31.635  26.455  25.699  1.00  0.00     0.084 C 
ATOM     18  C   UNL A   1      31.720  28.201  27.599  1.00  0.00     0.010 C 
ATOM     19  C   UNL A   1      32.509  27.405  26.549  1.00  0.00     0.008 C 
ATOM     20  C   UNL A   1      33.295  28.357  25.630  1.00  0.00     0.005 C 
ATOM     21  C   UNL A   1      32.429  29.042  24.570  1.00  0.00     0.000 C 
ATOM     22  C   UNL A   1      30.668  27.229  24.807  1.00  0.00     0.025 C 
ATOM     23  C   UNL A   1      31.499  28.076  23.835  1.00  0.00     0.002 C 
ENDBRANCH  14  17
ENDBRANCH  11  13
ENDBRANCH   7  11
ENDBRANCH   3   6
ENDBRANCH   1   2
BRANCH   1  24
ATOM     24  C   UNL A   1      38.879  22.866  26.395  1.00  0.00     0.042 C 
BRANCH  24  25
ATOM     25  C   UNL A   1      40.033  22.000  26.872  1.00  0.00     0.118 C 
BRANCH  25  26
ATOM     26  N   UNL A   1      41.259  22.263  26.105  1.00  0.00    -0.352 N 
ATOM     27  C   UNL A   1      41.965  23.433  25.905  1.00  0.00     0.251 C 
ATOM     28  H   UNL A   1      41.639  21.473  25.659  1.00  0.00     0.163 HD
ATOM     29  O   UNL A   1      42.819  23.509  25.044  1.00  0.00    -0.269 OA
BRANCH  27  30
ATOM     30  C   UNL A   1      41.651  24.594  26.751  1.00  0.00     0.039 A 
ATOM     31  C   UNL A   1      42.193  24.718  28.032  1.00  0.00     0.014 A 
ATOM     32  C   UNL A   1      40.859  25.594  26.205  1.00  0.00     0.014 A 
ATOM     33  C   UNL A   1      41.993  25.909  28.718  1.00  0.00     0.010 A 
ATOM     34  C   UNL A   1      40.870  26.835  26.770  1.00  0.00     0.010 A 
ATOM     35  C   UNL A   1      41.354  26.974  28.061  1.00  0.00    -0.014 A 
BRANCH  35  36
ATOM     36  C   UNL A   1      41.279  28.292  28.666  1.00  0.00     0.031 A 
ATOM     37  C   UNL A   1      42.383  29.184  28.238  1.00  0.00     0.074 A 
ATOM     38  C   UNL A   1      40.206  28.711  29.373  1.00  0.00     0.049 A 
ATOM     39  N   UNL A   1      43.432  29.500  28.918  1.00  0.00    -0.248 NA
ATOM     40  C   UNL A   1      42.447  29.597  26.826  1.00  0.00     0.031 C 
ATOM     41  C   UNL A   1      38.915  28.032  29.550  1.00  0.00     0.029 A 
ATOM     42  N   UNL A   1      40.008  29.895  30.015  1.00  0.00    -0.354 N 
ATOM     43  C   UNL A   1      44.154  30.374  28.109  1.00  0.00     0.074 A 
ATOM     44  C   UNL A   1      43.643  30.192  26.780  1.00  0.00     0.031 C 
ATOM     45  C   UNL A   1      38.002  28.901  30.033  1.00  0.00     0.029 A 
ATOM     46  C   UNL A   1      38.686  30.129  30.383  1.00  0.00     0.049 A 
ATOM     47  H   UNL A   1      40.736  30.530  30.202  1.00  0.00     0.167 HD
ATOM     48  C   UNL A   1      44.845  31.401  28.680  1.00  0.00     0.037 A 
ATOM     49  C   UNL A   1      38.195  31.267  30.928  1.00  0.00     0.037 A 
ATOM     50  C   UNL A   1      44.931  31.191  30.107  1.00  0.00     0.049 A 
ATOM     51  C   UNL A   1      39.343  31.986  31.529  1.00  0.00     0.074 A 
ATOM     52  C   UNL A   1      45.598  30.339  30.958  1.00  0.00     0.029 A 
ATOM     53  N   UNL A   1      43.857  31.696  30.792  1.00  0.00    -0.354 N 
ATOM     54  N   UNL A   1      40.028  31.525  32.541  1.00  0.00    -0.248 NA
ATOM     55  C   UNL A   1      40.002  33.030  30.754  1.00  0.00     0.031 C 
ATOM     56  C   UNL A   1      44.765  30.204  32.111  1.00  0.00     0.029 A 
ATOM     57  C   UNL A   1      43.647  31.025  31.962  1.00  0.00     0.049 A 
ATOM     58  H   UNL A   1      43.305  32.449  30.479  1.00  0.00     0.167 HD
ATOM     59  C   UNL A   1      41.333  31.899  32.276  1.00  0.00     0.074 A 
ATOM     60  C   UNL A   1      41.231  32.952  31.273  1.00  0.00     0.031 C 
ATOM     61  C   UNL A   1      42.372  31.094  32.646  1.00  0.00     0.037 A 
BRANCH  48  62
ATOM     62  C   UNL A   1      44.939  32.814  28.120  1.00  0.00     0.064 A 
ATOM     63  C   UNL A   1      46.223  33.327  27.823  1.00  0.00     0.173 A 
ATOM     64  C   UNL A   1      43.913  33.781  28.184  1.00  0.00     0.173 A 
ATOM     65  F   UNL A   1      47.282  32.507  27.725  1.00  0.00    -0.203 F 
ATOM     66  C   UNL A   1      46.473  34.699  27.721  1.00  0.00     0.198 A 
ATOM     67  C   UNL A   1      44.159  35.146  28.039  1.00  0.00     0.198 A 
ATOM     68  F   UNL A   1      42.650  33.476  28.490  1.00  0.00    -0.203 F 
ATOM     69  F   UNL A   1      47.730  35.139  27.576  1.00  0.00    -0.200 F 
ATOM     70  C   UNL A   1      45.441  35.609  27.845  1.00  0.00     0.200 A 
ATOM     71  F   UNL A   1      43.146  36.014  28.179  1.00  0.00    -0.200 F 
ATOM     72  F   UNL A   1      45.684  36.925  27.820  1.00  0.00    -0.200 F 
ENDBRANCH  48  62
BRANCH  49  73
ATOM     73  C   UNL A   1      36.879  31.903  30.689  1.00  0.00     0.064 A 
ATOM     74  C   UNL A   1      35.908  31.977  31.699  1.00  0.00     0.173 A 
ATOM     75  C   UNL A   1      36.665  32.708  29.553  1.00  0.00     0.173 A 
ATOM     76  F   UNL A   1      36.062  31.276  32.833  1.00  0.00    -0.203 F 
ATOM     77  C   UNL A   1      34.801  32.827  31.593  1.00  0.00     0.198 A 
ATOM     78  C   UNL A   1      35.560  33.555  29.446  1.00  0.00     0.198 A 
ATOM     79  F   UNL A   1      37.575  32.762  28.570  1.00  0.00    -0.203 F 
ATOM     80  F   UNL A   1      33.927  32.918  32.605  1.00  0.00    -0.200 F 
ATOM     81  C   UNL A   1      34.635  33.624  30.472  1.00  0.00     0.200 A 
ATOM     82  F   UNL A   1      35.434  34.352  28.376  1.00  0.00    -0.200 F 
ATOM     83  F   UNL A   1      33.613  34.489  30.399  1.00  0.00    -0.200 F 
ENDBRANCH  49  73
BRANCH  61  84
ATOM     84  C   UNL A   1      42.132  30.110  33.750  1.00  0.00     0.064 A 
ATOM     85  C   UNL A   1      41.695  28.788  33.568  1.00  0.00     0.173 A 
ATOM     86  C   UNL A   1      42.474  30.507  35.049  1.00  0.00     0.173 A 
ATOM     87  F   UNL A   1      41.420  28.313  32.347  1.00  0.00    -0.203 F 
ATOM     88  C   UNL A   1      41.582  27.915  34.650  1.00  0.00     0.198 A 
ATOM     89  C   UNL A   1      42.397  29.626  36.119  1.00  0.00     0.198 A 
ATOM     90  F   UNL A   1      42.936  31.749  35.270  1.00  0.00    -0.203 F 
ATOM     91  F   UNL A   1      41.153  26.659  34.460  1.00  0.00    -0.200 F 
ATOM     92  C   UNL A   1      41.943  28.333  35.922  1.00  0.00     0.200 A 
ATOM     93  F   UNL A   1      42.791  30.024  37.337  1.00  0.00    -0.200 F 
ATOM     94  F   UNL A   1      41.875  27.482  36.956  1.00  0.00    -0.200 F 
ENDBRANCH  61  84
ENDBRANCH  35  36
ENDBRANCH  27  30
ENDBRANCH  25  26
ENDBRANCH  24  25
ENDBRANCH   1  24
TORSDOF 13
ENDMDL
MODEL 2
REMARK VINA RESULT:     -13.1      3.432      8.881
REMARK SMILES C[C@@H]1CCCC[C@@H]1NC(=O)[C@@H](C)n1cc(C(=O)NCCCNC(=O)c2ccc(-c3c4nc(c(-c5c(F)c(F)c(F)c(F)c5F)c5ccc([nH]5)c(-c5c(F)c(F)c(F)c(F)c5F)c5nc(c(-c6c(F)c(F)c(F)c(F)c6F)c6ccc3[nH]6)C=C5)C=C4)cc2)cn1
REMARK SMILES IDX 19 1 18 2 16 3 17 4 15 6 13 7 14 8 89 9 88 10 11 11 12 12
REMARK SMILES IDX 9 13 8 14 10 16 7 17 1 18 2 19 3 20 4 21 6 22 5 23 20 24
REMARK SMILES IDX 21 25 22 26 23 27 24 29 25 30 26 31 87 32 27 33 86 34 28 35
REMARK SMILES IDX 29 36 30 37 80 38 31 39 85 40 79 41 81 42 32 43 84 44 78 45
REMARK SMILES IDX 77 46 33 48 65 49 45 50 64 51 46 52 49 53 63 54 82 55 47 56
REMARK SMILES IDX 48 57 62 59 83 60 50 61 34 62 35 63 43 64 36 65 37 66 41 67
REMARK SMILES IDX 44 68 38 69 39 70 42 71 40 72 66 73 67 74 75 75 68 76 69 77
REMARK SMILES IDX 73 78 76 79 70 80 71 81 74 82 72 83 51 84 52 85 60 86 53 87
REMARK SMILES IDX 54 88 58 89 61 90 55 91 56 92 59 93 57 94
REMARK H PARENT 18 5 8 15 22 28 81 47 49 58
REMARK Flexibility Score: inf
ROOT
ATOM      1  C   UNL A   1      33.350  30.128  27.001  1.00  0.00     0.118 C 
ENDROOT
BRANCH   1   2
ATOM      2  N   UNL A   1      32.368  29.252  27.604  1.00  0.00    -0.352 N 
ATOM      3  C   UNL A   1      31.733  28.154  27.087  1.00  0.00     0.254 C 
ATOM      4  O   UNL A   1      30.907  27.577  27.790  1.00  0.00    -0.269 OA
ATOM      5  H   UNL A   1      32.119  29.479  28.529  1.00  0.00     0.163 HD
BRANCH   3   6
ATOM      6  C   UNL A   1      31.951  27.767  25.709  1.00  0.00     0.077 A 
ATOM      7  N   UNL A   1      32.679  27.111  23.722  1.00  0.00    -0.260 N 
ATOM      8  C   UNL A   1      33.075  27.351  25.016  1.00  0.00     0.123 A 
ATOM      9  N   UNL A   1      31.401  27.486  23.517  1.00  0.00    -0.180 NA
ATOM     10  C   UNL A   1      30.935  27.739  24.738  1.00  0.00     0.149 A 
BRANCH   7  11
ATOM     11  C   UNL A   1      33.534  26.712  22.603  1.00  0.00     0.193 C 
ATOM     12  C   UNL A   1      34.141  27.888  21.842  1.00  0.00     0.044 C 
BRANCH  11  13
ATOM     13  C   UNL A   1      32.925  25.674  21.650  1.00  0.00     0.244 C 
ATOM     14  N   UNL A   1      32.185  24.599  22.066  1.00  0.00    -0.351 N 
ATOM     15  H   UNL A   1      31.562  24.220  21.405  1.00  0.00     0.163 HD
ATOM     16  O   UNL A   1      33.004  25.853  20.427  1.00  0.00    -0.273 OA
BRANCH  14  17
ATOM     17  C   UNL A   1      32.212  23.951  23.367  1.00  0.00     0.084 C 
ATOM     18  C   UNL A   1      32.082  21.559  22.405  1.00  0.00     0.010 C 
ATOM     19  C   UNL A   1      32.859  22.549  23.286  1.00  0.00     0.008 C 
ATOM     20  C   UNL A   1      33.050  21.976  24.701  1.00  0.00     0.005 C 
ATOM     21  C   UNL A   1      31.796  22.065  25.575  1.00  0.00     0.000 C 
ATOM     22  C   UNL A   1      30.871  23.909  24.094  1.00  0.00     0.025 C 
ATOM     23  C   UNL A   1      31.129  23.441  25.532  1.00  0.00     0.002 C 
ENDBRANCH  14  17
ENDBRANCH  11  13
ENDBRANCH   7  11
ENDBRANCH   3   6
ENDBRANCH   1   2
BRANCH   1  24
ATOM     24  C   UNL A   1      34.789  29.872  27.464  1.00  0.00     0.042 C 
BRANCH  24  25
ATOM     25  C   UNL A   1      35.568  31.165  27.636  1.00  0.00     0.118 C 
BRANCH  25  26
ATOM     26  N   UNL A   1      35.151  31.890  28.844  1.00  0.00    -0.352 N 
ATOM     27  C   UNL A   1      35.569  31.774  30.156  1.00  0.00     0.251 C 
ATOM     28  H   UNL A   1      34.458  32.572  28.693  1.00  0.00     0.163 HD
ATOM     29  O   UNL A   1      34.939  32.287  31.060  1.00  0.00    -0.269 OA
BRANCH  27  30
ATOM     30  C   UNL A   1      36.787  31.002  30.438  1.00  0.00     0.039 A 
ATOM     31  C   UNL A   1      36.722  29.640  30.738  1.00  0.00     0.014 A 
ATOM     32  C   UNL A   1      38.006  31.656  30.323  1.00  0.00     0.014 A 
ATOM     33  C   UNL A   1      37.912  28.930  30.833  1.00  0.00     0.010 A 
ATOM     34  C   UNL A   1      39.145  30.920  30.177  1.00  0.00     0.010 A 
ATOM     35  C   UNL A   1      39.119  29.578  30.519  1.00  0.00    -0.014 A 
BRANCH  35  36
ATOM     36  C   UNL A   1      40.366  28.839  30.431  1.00  0.00     0.031 A 
ATOM     37  C   UNL A   1      41.026  28.668  31.747  1.00  0.00     0.074 A 
ATOM     38  C   UNL A   1      40.762  28.206  29.305  1.00  0.00     0.049 A 
ATOM     39  N   UNL A   1      42.045  29.321  32.194  1.00  0.00    -0.248 NA
ATOM     40  C   UNL A   1      40.358  27.845  32.768  1.00  0.00     0.031 C 
ATOM     41  C   UNL A   1      40.007  28.017  28.058  1.00  0.00     0.029 A 
ATOM     42  N   UNL A   1      41.905  27.507  29.067  1.00  0.00    -0.354 N 
ATOM     43  C   UNL A   1      42.307  28.790  33.455  1.00  0.00     0.074 A 
ATOM     44  C   UNL A   1      41.114  28.091  33.842  1.00  0.00     0.031 C 
ATOM     45  C   UNL A   1      40.599  27.066  27.304  1.00  0.00     0.029 A 
ATOM     46  C   UNL A   1      41.867  26.726  27.916  1.00  0.00     0.049 A 
ATOM     47  H   UNL A   1      42.691  27.549  29.659  1.00  0.00     0.167 HD
ATOM     48  C   UNL A   1      43.596  28.686  33.884  1.00  0.00     0.037 A 
ATOM     49  C   UNL A   1      42.817  25.852  27.508  1.00  0.00     0.037 A 
ATOM     50  C   UNL A   1      44.458  29.458  33.017  1.00  0.00     0.049 A 
ATOM     51  C   UNL A   1      44.078  26.243  28.181  1.00  0.00     0.074 A 
ATOM     52  C   UNL A   1      44.703  30.790  32.773  1.00  0.00     0.029 A 
ATOM     53  N   UNL A   1      44.895  28.754  31.926  1.00  0.00    -0.354 N 
ATOM     54  N   UNL A   1      44.694  27.371  27.951  1.00  0.00    -0.248 NA
ATOM     55  C   UNL A   1      44.453  25.568  29.417  1.00  0.00     0.031 C 
ATOM     56  C   UNL A   1      45.120  30.869  31.409  1.00  0.00     0.029 A 
ATOM     57  C   UNL A   1      45.182  29.580  30.878  1.00  0.00     0.049 A 
ATOM     58  H   UNL A   1      44.990  27.774  31.900  1.00  0.00     0.167 HD
ATOM     59  C   UNL A   1      45.193  27.751  29.184  1.00  0.00     0.074 A 
ATOM     60  C   UNL A   1      45.166  26.539  29.995  1.00  0.00     0.031 C 
ATOM     61  C   UNL A   1      45.266  29.072  29.524  1.00  0.00     0.037 A 
BRANCH  48  62
ATOM     62  C   UNL A   1      44.170  27.510  34.662  1.00  0.00     0.064 A 
ATOM     63  C   UNL A   1      43.993  26.211  34.130  1.00  0.00     0.173 A 
ATOM     64  C   UNL A   1      44.559  27.549  36.019  1.00  0.00     0.173 A 
ATOM     65  F   UNL A   1      43.632  26.040  32.849  1.00  0.00    -0.203 F 
ATOM     66  C   UNL A   1      44.082  25.063  34.923  1.00  0.00     0.198 A 
ATOM     67  C   UNL A   1      44.688  26.397  36.795  1.00  0.00     0.198 A 
ATOM     68  F   UNL A   1      44.733  28.690  36.689  1.00  0.00    -0.203 F 
ATOM     69  F   UNL A   1      43.770  23.868  34.402  1.00  0.00    -0.200 F 
ATOM     70  C   UNL A   1      44.415  25.158  36.260  1.00  0.00     0.200 A 
ATOM     71  F   UNL A   1      44.997  26.514  38.095  1.00  0.00    -0.200 F 
ATOM     72  F   UNL A   1      44.431  24.070  37.040  1.00  0.00    -0.200 F 
ENDBRANCH  48  62
BRANCH  49  73
ATOM     73  C   UNL A   1      42.631  24.545  26.837  1.00  0.00     0.064 A 
ATOM     74  C   UNL A   1      43.138  24.304  25.551  1.00  0.00     0.173 A 
ATOM     75  C   UNL A   1      42.205  23.416  27.565  1.00  0.00     0.173 A 
ATOM     76  F   UNL A   1      43.607  25.320  24.812  1.00  0.00    -0.203 F 
ATOM     77  C   UNL A   1      43.241  23.007  25.034  1.00  0.00     0.198 A 
ATOM     78  C   UNL A   1      42.306  22.123  27.048  1.00  0.00     0.198 A 
ATOM     79  F   UNL A   1      41.777  23.539  28.829  1.00  0.00    -0.203 F 
ATOM     80  F   UNL A   1      43.789  22.809  23.827  1.00  0.00    -0.200 F 
ATOM     81  C   UNL A   1      42.836  21.918  25.788  1.00  0.00     0.200 A 
ATOM     82  F   UNL A   1      41.952  21.075  27.805  1.00  0.00    -0.200 F 
ATOM     83  F   UNL A   1      42.998  20.671  25.321  1.00  0.00    -0.200 F 
ENDBRANCH  49  73
BRANCH  61  84
ATOM     84  C   UNL A   1      45.293  30.076  28.414  1.00  0.00     0.064 A 
ATOM     85  C   UNL A   1      44.165  30.731  27.893  1.00  0.00     0.173 A 
ATOM     86  C   UNL A   1      46.550  30.471  27.937  1.00  0.00     0.173 A 
ATOM     87  F   UNL A   1      42.936  30.460  28.353  1.00  0.00    -0.203 F 
ATOM     88  C   UNL A   1      44.296  31.718  26.917  1.00  0.00     0.198 A 
ATOM     89  C   UNL A   1      46.681  31.480  26.992  1.00  0.00     0.198 A 
ATOM     90  F   UNL A   1      47.662  29.904  28.432  1.00  0.00    -0.203 F 
ATOM     91  F   UNL A   1      43.207  32.325  26.423  1.00  0.00    -0.200 F 
ATOM     92  C   UNL A   1      45.555  32.098  26.475  1.00  0.00     0.200 A 
ATOM     93  F   UNL A   1      47.902  31.872  26.604  1.00  0.00    -0.200 F 
ATOM     94  F   UNL A   1      45.684  33.075  25.567  1.00  0.00    -0.200 F 
ENDBRANCH  61  84
ENDBRANCH  35  36
ENDBRANCH  27  30
ENDBRANCH  25  26
ENDBRANCH  24  25
ENDBRANCH   1  24
TORSDOF 13
ENDMDL
MODEL 3
REMARK VINA RESULT:     -13.0      2.914      7.488
REMARK SMILES C[C@@H]1CCCC[C@@H]1NC(=O)[C@@H](C)n1cc(C(=O)NCCCNC(=O)c2ccc(-c3c4nc(c(-c5c(F)c(F)c(F)c(F)c5F)c5ccc([nH]5)c(-c5c(F)c(F)c(F)c(F)c5F)c5nc(c(-c6c(F)c(F)c(F)c(F)c6F)c6ccc3[nH]6)C=C5)C=C4)cc2)cn1
REMARK SMILES IDX 19 1 18 2 16 3 17 4 15 6 13 7 14 8 89 9 88 10 11 11 12 12
REMARK SMILES IDX 9 13 8 14 10 16 7 17 1 18 2 19 3 20 4 21 6 22 5 23 20 24
REMARK SMILES IDX 21 25 22 26 23 27 24 29 25 30 26 31 87 32 27 33 86 34 28 35
REMARK SMILES IDX 29 36 30 37 80 38 31 39 85 40 79 41 81 42 32 43 84 44 78 45
REMARK SMILES IDX 77 46 33 48 65 49 45 50 64 51 46 52 49 53 63 54 82 55 47 56
REMARK SMILES IDX 48 57 62 59 83 60 50 61 34 62 35 63 43 64 36 65 37 66 41 67
REMARK SMILES IDX 44 68 38 69 39 70 42 71 40 72 66 73 67 74 75 75 68 76 69 77
REMARK SMILES IDX 73 78 76 79 70 80 71 81 74 82 72 83 51 84 52 85 60 86 53 87
REMARK SMILES IDX 54 88 58 89 61 90 55 91 56 92 59 93 57 94
REMARK H PARENT 18 5 8 15 22 28 81 47 49 58
REMARK Flexibility Score: inf
ROOT
ATOM      1  C   UNL A   1      36.875  21.109  24.523  1.00  0.00     0.118 C 
ENDROOT
BRANCH   1   2
ATOM      2  N   UNL A   1      37.278  22.398  25.043  1.00  0.00    -0.352 N 
ATOM      3  C   UNL A   1      36.553  23.337  25.728  1.00  0.00     0.254 C 
ATOM      4  O   UNL A   1      37.113  24.382  26.049  1.00  0.00    -0.269 OA
ATOM      5  H   UNL A   1      38.219  22.636  24.881  1.00  0.00     0.163 HD
BRANCH   3   6
ATOM      6  C   UNL A   1      35.137  23.141  25.956  1.00  0.00     0.077 A 
ATOM      7  N   UNL A   1      32.925  23.012  25.925  1.00  0.00    -0.260 N 
ATOM      8  C   UNL A   1      34.014  23.436  25.201  1.00  0.00     0.123 A 
ATOM      9  N   UNL A   1      33.280  22.596  27.157  1.00  0.00    -0.180 NA
ATOM     10  C   UNL A   1      34.609  22.541  27.113  1.00  0.00     0.149 A 
BRANCH   7  11
ATOM     11  C   UNL A   1      31.515  23.167  25.562  1.00  0.00     0.193 C 
ATOM     12  C   UNL A   1      31.290  23.445  24.078  1.00  0.00     0.044 C 
BRANCH  11  13
ATOM     13  C   UNL A   1      30.712  24.129  26.447  1.00  0.00     0.244 C 
ATOM     14  N   UNL A   1      30.752  25.492  26.325  1.00  0.00    -0.351 N 
ATOM     15  H   UNL A   1      29.969  25.982  26.666  1.00  0.00     0.163 HD
ATOM     16  O   UNL A   1      29.895  23.669  27.256  1.00  0.00    -0.273 OA
BRANCH  14  17
ATOM     17  C   UNL A   1      31.814  26.302  25.750  1.00  0.00     0.084 C 
ATOM     18  C   UNL A   1      31.647  28.155  27.541  1.00  0.00     0.010 C 
ATOM     19  C   UNL A   1      32.544  27.126  26.835  1.00  0.00     0.008 C 
ATOM     20  C   UNL A   1      33.779  27.815  26.228  1.00  0.00     0.005 C 
ATOM     21  C   UNL A   1      33.487  28.566  24.927  1.00  0.00     0.000 C 
ATOM     22  C   UNL A   1      31.393  27.176  24.571  1.00  0.00     0.025 C 
ATOM     23  C   UNL A   1      32.664  27.747  23.931  1.00  0.00     0.002 C 
ENDBRANCH  14  17
ENDBRANCH  11  13
ENDBRANCH   7  11
ENDBRANCH   3   6
ENDBRANCH   1   2
BRANCH   1  24
ATOM     24  C   UNL A   1      37.746  19.940  24.995  1.00  0.00     0.042 C 
BRANCH  24  25
ATOM     25  C   UNL A   1      38.956  20.416  25.782  1.00  0.00     0.118 C 
BRANCH  25  26
ATOM     26  N   UNL A   1      40.062  19.452  25.708  1.00  0.00    -0.352 N 
ATOM     27  C   UNL A   1      41.419  19.617  25.912  1.00  0.00     0.251 C 
ATOM     28  H   UNL A   1      39.791  18.536  25.474  1.00  0.00     0.163 HD
ATOM     29  O   UNL A   1      42.211  18.762  25.569  1.00  0.00    -0.269 OA
BRANCH  27  30
ATOM     30  C   UNL A   1      41.887  20.861  26.540  1.00  0.00     0.039 A 
ATOM     31  C   UNL A   1      42.223  21.975  25.768  1.00  0.00     0.014 A 
ATOM     32  C   UNL A   1      41.912  20.913  27.927  1.00  0.00     0.014 A 
ATOM     33  C   UNL A   1      42.501  23.168  26.421  1.00  0.00     0.010 A 
ATOM     34  C   UNL A   1      41.944  22.128  28.547  1.00  0.00     0.010 A 
ATOM     35  C   UNL A   1      42.327  23.239  27.814  1.00  0.00    -0.014 A 
BRANCH  35  36
ATOM     36  C   UNL A   1      42.431  24.504  28.520  1.00  0.00     0.031 A 
ATOM     37  C   UNL A   1      41.280  25.402  28.260  1.00  0.00     0.074 A 
ATOM     38  C   UNL A   1      43.368  24.739  29.463  1.00  0.00     0.049 A 
ATOM     39  N   UNL A   1      41.258  26.430  27.482  1.00  0.00    -0.248 NA
ATOM     40  C   UNL A   1      39.948  24.995  28.738  1.00  0.00     0.031 C 
ATOM     41  C   UNL A   1      44.328  23.790  30.045  1.00  0.00     0.029 A 
ATOM     42  N   UNL A   1      43.603  25.872  30.180  1.00  0.00    -0.354 N 
ATOM     43  C   UNL A   1      39.973  26.955  27.589  1.00  0.00     0.074 A 
ATOM     44  C   UNL A   1      39.168  25.910  28.155  1.00  0.00     0.031 C 
ATOM     45  C   UNL A   1      44.860  24.309  31.172  1.00  0.00     0.029 A 
ATOM     46  C   UNL A   1      44.435  25.690  31.280  1.00  0.00     0.049 A 
ATOM     47  H   UNL A   1      43.216  26.746  29.941  1.00  0.00     0.167 HD
ATOM     48  C   UNL A   1      39.794  28.305  27.530  1.00  0.00     0.037 A 
ATOM     49  C   UNL A   1      44.737  26.616  32.220  1.00  0.00     0.037 A 
ATOM     50  C   UNL A   1      41.003  28.933  27.049  1.00  0.00     0.049 A 
ATOM     51  C   UNL A   1      44.473  27.943  31.615  1.00  0.00     0.074 A 
ATOM     52  C   UNL A   1      41.680  29.025  25.854  1.00  0.00     0.029 A 
ATOM     53  N   UNL A   1      41.895  29.220  28.049  1.00  0.00    -0.354 N 
ATOM     54  N   UNL A   1      45.148  28.417  30.602  1.00  0.00    -0.248 NA
ATOM     55  C   UNL A   1      43.190  28.587  31.865  1.00  0.00     0.031 C 
ATOM     56  C   UNL A   1      43.058  29.182  26.195  1.00  0.00     0.029 A 
ATOM     57  C   UNL A   1      43.178  29.248  27.584  1.00  0.00     0.049 A 
ATOM     58  H   UNL A   1      41.642  29.386  28.987  1.00  0.00     0.167 HD
ATOM     59  C   UNL A   1      44.210  29.099  29.849  1.00  0.00     0.074 A 
ATOM     60  C   UNL A   1      43.082  29.313  30.748  1.00  0.00     0.031 C 
ATOM     61  C   UNL A   1      44.304  29.127  28.487  1.00  0.00     0.037 A 
BRANCH  48  62
ATOM     62  C   UNL A   1      38.824  29.100  28.395  1.00  0.00     0.064 A 
ATOM     63  C   UNL A   1      38.919  28.960  29.799  1.00  0.00     0.173 A 
ATOM     64  C   UNL A   1      37.629  29.694  27.936  1.00  0.00     0.173 A 
ATOM     65  F   UNL A   1      40.011  28.418  30.361  1.00  0.00    -0.203 F 
ATOM     66  C   UNL A   1      37.859  29.278  30.653  1.00  0.00     0.198 A 
ATOM     67  C   UNL A   1      36.590  30.049  28.796  1.00  0.00     0.198 A 
ATOM     68  F   UNL A   1      37.358  29.867  26.640  1.00  0.00    -0.203 F 
ATOM     69  F   UNL A   1      37.949  28.998  31.960  1.00  0.00    -0.200 F 
ATOM     70  C   UNL A   1      36.688  29.809  30.149  1.00  0.00     0.200 A 
ATOM     71  F   UNL A   1      35.455  30.548  28.283  1.00  0.00    -0.200 F 
ATOM     72  F   UNL A   1      35.643  30.048  30.951  1.00  0.00    -0.200 F 
ENDBRANCH  48  62
BRANCH  49  73
ATOM     73  C   UNL A   1      44.934  26.416  33.674  1.00  0.00     0.064 A 
ATOM     74  C   UNL A   1      43.859  26.111  34.522  1.00  0.00     0.173 A 
ATOM     75  C   UNL A   1      46.225  26.232  34.207  1.00  0.00     0.173 A 
ATOM     76  F   UNL A   1      42.599  26.216  34.075  1.00  0.00    -0.203 F 
ATOM     77  C   UNL A   1      44.062  25.625  35.819  1.00  0.00     0.198 A 
ATOM     78  C   UNL A   1      46.428  25.748  35.501  1.00  0.00     0.198 A 
ATOM     79  F   UNL A   1      47.313  26.424  33.447  1.00  0.00    -0.203 F 
ATOM     80  F   UNL A   1      43.011  25.285  36.579  1.00  0.00    -0.200 F 
ATOM     81  C   UNL A   1      45.346  25.432  36.302  1.00  0.00     0.200 A 
ATOM     82  F   UNL A   1      47.674  25.525  35.940  1.00  0.00    -0.200 F 
ATOM     83  F   UNL A   1      45.542  24.900  37.517  1.00  0.00    -0.200 F 
ENDBRANCH  49  73
BRANCH  61  84
ATOM     84  C   UNL A   1      45.648  28.875  27.876  1.00  0.00     0.064 A 
ATOM     85  C   UNL A   1      46.086  27.639  27.375  1.00  0.00     0.173 A 
ATOM     86  C   UNL A   1      46.488  29.982  27.694  1.00  0.00     0.173 A 
ATOM     87  F   UNL A   1      45.307  26.551  27.445  1.00  0.00    -0.203 F 
ATOM     88  C   UNL A   1      47.324  27.518  26.744  1.00  0.00     0.198 A 
ATOM     89  C   UNL A   1      47.703  29.867  27.033  1.00  0.00     0.198 A 
ATOM     90  F   UNL A   1      46.099  31.195  28.120  1.00  0.00    -0.203 F 
ATOM     91  F   UNL A   1      47.729  26.327  26.280  1.00  0.00    -0.200 F 
ATOM     92  C   UNL A   1      48.126  28.635  26.565  1.00  0.00     0.200 A 
ATOM     93  F   UNL A   1      48.452  30.960  26.824  1.00  0.00    -0.200 F 
ATOM     94  F   UNL A   1      49.297  28.528  25.921  1.00  0.00    -0.200 F 
ENDBRANCH  61  84
ENDBRANCH  35  36
ENDBRANCH  27  30
ENDBRANCH  25  26
ENDBRANCH  24  25
ENDBRANCH   1  24
TORSDOF 13
ENDMDL
