MODEL 1
REMARK VINA RESULT:     -11.7      0.000      0.000
REMARK SMILES O=C(CC[C@H]1CC[C@@H](O)CC1)NCCCNC(=O)c1ccc(-c2c3nc(c(-c4c(F)c(F)c(F)c(F)c4F)c4ccc([nH]4)c(-c4c(F)c(F)c(F)c(F)c4F)c4nc(c(-c5c(F)c(F)c(F)c(F)c5F)c5ccc2[nH]5)C=C4)C=C3)cc1
REMARK SMILES IDX 13 1 12 2 1 3 2 4 3 6 4 7 5 8 6 9 11 10 7 11 10 12 8 13 9 14
REMARK SMILES IDX 14 16 15 17 16 18 17 19 18 21 19 22 20 23 81 24 21 25 80 26
REMARK SMILES IDX 22 27 23 28 24 29 74 30 25 31 79 32 73 33 75 34 26 35 78 36
REMARK SMILES IDX 72 37 71 38 27 40 59 41 39 42 58 43 40 44 43 45 57 46 76 47
REMARK SMILES IDX 41 48 42 49 56 51 77 52 44 53 28 54 29 55 37 56 30 57 31 58
REMARK SMILES IDX 35 59 38 60 32 61 33 62 36 63 34 64 60 65 61 66 69 67 62 68
REMARK SMILES IDX 63 69 67 70 70 71 64 72 65 73 68 74 66 75 45 76 46 77 54 78
REMARK SMILES IDX 47 79 48 80 52 81 55 82 49 83 50 84 53 85 51 86
REMARK H PARENT 12 5 9 15 16 20 75 39 43 50
REMARK Flexibility Score: inf
ROOT
ATOM      1  C   UNL A   1      32.301  30.069  25.857  1.00  0.00     0.117 C 
ENDROOT
BRANCH   1   2
ATOM      2  N   UNL A   1      31.595  29.609  24.677  1.00  0.00    -0.356 N 
ATOM      3  O   UNL A   1      31.429  27.466  25.462  1.00  0.00    -0.275 OA
ATOM      4  C   UNL A   1      31.131  28.313  24.625  1.00  0.00     0.220 C 
ATOM      5  H   UNL A   1      31.449  30.218  23.918  1.00  0.00     0.163 HD
BRANCH   4   6
ATOM      6  C   UNL A   1      30.147  28.025  23.507  1.00  0.00     0.100 C 
BRANCH   6   7
ATOM      7  C   UNL A   1      29.919  29.299  22.683  1.00  0.00     0.013 C 
BRANCH   7   8
ATOM      8  C   UNL A   1      28.465  29.637  22.269  1.00  0.00    -0.010 C 
ATOM      9  C   UNL A   1      28.282  30.551  21.049  1.00  0.00     0.006 C 
ATOM     10  C   UNL A   1      27.699  30.236  23.470  1.00  0.00     0.006 C 
ATOM     11  C   UNL A   1      28.650  32.002  21.316  1.00  0.00     0.032 C 
ATOM     12  C   UNL A   1      28.094  31.686  23.762  1.00  0.00     0.032 C 
ATOM     13  C   UNL A   1      27.940  32.578  22.534  1.00  0.00     0.114 C 
BRANCH  13  14
ATOM     14  O   UNL A   1      28.477  33.868  22.809  1.00  0.00    -0.393 OA
ATOM     15  H   UNL A   1      28.876  34.231  22.003  1.00  0.00     0.210 HD
ENDBRANCH  13  14
ENDBRANCH   7   8
ENDBRANCH   6   7
ENDBRANCH   4   6
ENDBRANCH   1   2
BRANCH   1  16
ATOM     16  C   UNL A   1      31.785  31.382  26.429  1.00  0.00     0.042 C 
BRANCH  16  17
ATOM     17  C   UNL A   1      32.799  32.212  27.206  1.00  0.00     0.118 C 
BRANCH  17  18
ATOM     18  N   UNL A   1      32.393  33.581  27.479  1.00  0.00    -0.352 N 
ATOM     19  C   UNL A   1      32.974  34.510  28.314  1.00  0.00     0.251 C 
ATOM     20  H   UNL A   1      31.590  33.886  26.999  1.00  0.00     0.163 HD
ATOM     21  O   UNL A   1      32.479  35.622  28.437  1.00  0.00    -0.269 OA
BRANCH  19  22
ATOM     22  C   UNL A   1      34.160  34.152  29.127  1.00  0.00     0.039 A 
ATOM     23  C   UNL A   1      33.948  33.457  30.323  1.00  0.00     0.014 A 
ATOM     24  C   UNL A   1      35.462  34.455  28.720  1.00  0.00     0.014 A 
ATOM     25  C   UNL A   1      35.038  32.975  31.050  1.00  0.00     0.010 A 
ATOM     26  C   UNL A   1      36.548  33.918  29.411  1.00  0.00     0.010 A 
ATOM     27  C   UNL A   1      36.345  33.153  30.569  1.00  0.00    -0.014 A 
BRANCH  27  28
ATOM     28  C   UNL A   1      37.492  32.487  31.235  1.00  0.00     0.031 A 
ATOM     29  C   UNL A   1      38.223  31.359  30.569  1.00  0.00     0.074 A 
ATOM     30  C   UNL A   1      37.836  32.869  32.481  1.00  0.00     0.049 A 
ATOM     31  N   UNL A   1      39.227  30.646  31.016  1.00  0.00    -0.248 NA
ATOM     32  C   UNL A   1      37.752  30.964  29.233  1.00  0.00     0.031 C 
ATOM     33  C   UNL A   1      37.166  33.914  33.259  1.00  0.00     0.029 A 
ATOM     34  N   UNL A   1      38.830  32.421  33.315  1.00  0.00    -0.354 N 
ATOM     35  C   UNL A   1      39.502  29.716  30.023  1.00  0.00     0.074 A 
ATOM     36  C   UNL A   1      38.531  29.924  28.969  1.00  0.00     0.031 C 
ATOM     37  C   UNL A   1      37.782  34.043  34.445  1.00  0.00     0.029 A 
ATOM     38  C   UNL A   1      38.871  33.074  34.523  1.00  0.00     0.049 A 
ATOM     39  H   UNL A   1      39.454  31.700  33.071  1.00  0.00     0.167 HD
ATOM     40  C   UNL A   1      40.487  28.788  29.987  1.00  0.00     0.037 A 
ATOM     41  C   UNL A   1      39.694  32.911  35.576  1.00  0.00     0.037 A 
ATOM     42  C   UNL A   1      41.465  28.594  31.026  1.00  0.00     0.049 A 
ATOM     43  C   UNL A   1      40.789  31.885  35.500  1.00  0.00     0.074 A 
ATOM     44  C   UNL A   1      42.533  27.714  31.056  1.00  0.00     0.029 A 
ATOM     45  N   UNL A   1      41.493  29.295  32.224  1.00  0.00    -0.354 N 
ATOM     46  N   UNL A   1      41.083  31.058  34.527  1.00  0.00    -0.248 NA
ATOM     47  C   UNL A   1      41.676  31.777  36.668  1.00  0.00     0.031 C 
ATOM     48  C   UNL A   1      43.186  27.857  32.286  1.00  0.00     0.029 A 
ATOM     49  C   UNL A   1      42.549  28.855  33.006  1.00  0.00     0.049 A 
ATOM     50  H   UNL A   1      40.855  30.000  32.481  1.00  0.00     0.167 HD
ATOM     51  C   UNL A   1      42.200  30.352  34.950  1.00  0.00     0.074 A 
ATOM     52  C   UNL A   1      42.541  30.856  36.265  1.00  0.00     0.031 C 
ATOM     53  C   UNL A   1      42.881  29.373  34.308  1.00  0.00     0.037 A 
BRANCH  40  54
ATOM     54  C   UNL A   1      40.561  27.908  28.774  1.00  0.00     0.064 A 
ATOM     55  C   UNL A   1      39.865  26.692  28.709  1.00  0.00     0.173 A 
ATOM     56  C   UNL A   1      41.305  28.301  27.651  1.00  0.00     0.173 A 
ATOM     57  F   UNL A   1      39.149  26.267  29.761  1.00  0.00    -0.203 F 
ATOM     58  C   UNL A   1      39.932  25.888  27.574  1.00  0.00     0.198 A 
ATOM     59  C   UNL A   1      41.349  27.507  26.508  1.00  0.00     0.198 A 
ATOM     60  F   UNL A   1      41.984  29.457  27.660  1.00  0.00    -0.203 F 
ATOM     61  F   UNL A   1      39.295  24.709  27.551  1.00  0.00    -0.200 F 
ATOM     62  C   UNL A   1      40.668  26.298  26.473  1.00  0.00     0.200 A 
ATOM     63  F   UNL A   1      42.052  27.909  25.441  1.00  0.00    -0.200 F 
ATOM     64  F   UNL A   1      40.729  25.525  25.380  1.00  0.00    -0.200 F 
ENDBRANCH  40  54
BRANCH  41  65
ATOM     65  C   UNL A   1      39.536  33.768  36.778  1.00  0.00     0.064 A 
ATOM     66  C   UNL A   1      38.763  33.342  37.867  1.00  0.00     0.173 A 
ATOM     67  C   UNL A   1      40.149  35.026  36.864  1.00  0.00     0.173 A 
ATOM     68  F   UNL A   1      38.141  32.154  37.822  1.00  0.00    -0.203 F 
ATOM     69  C   UNL A   1      38.594  34.150  38.989  1.00  0.00     0.198 A 
ATOM     70  C   UNL A   1      40.000  35.822  37.997  1.00  0.00     0.198 A 
ATOM     71  F   UNL A   1      40.904  35.475  35.849  1.00  0.00    -0.203 F 
ATOM     72  F   UNL A   1      37.816  33.737  39.998  1.00  0.00    -0.200 F 
ATOM     73  C   UNL A   1      39.218  35.387  39.055  1.00  0.00     0.200 A 
ATOM     74  F   UNL A   1      40.613  37.012  38.061  1.00  0.00    -0.200 F 
ATOM     75  F   UNL A   1      39.056  36.163  40.135  1.00  0.00    -0.200 F 
ENDBRANCH  41  65
BRANCH  53  76
ATOM     76  C   UNL A   1      44.082  28.805  35.005  1.00  0.00     0.064 A 
ATOM     77  C   UNL A   1      43.985  27.684  35.842  1.00  0.00     0.173 A 
ATOM     78  C   UNL A   1      45.350  29.376  34.811  1.00  0.00     0.173 A 
ATOM     79  F   UNL A   1      42.792  27.115  36.071  1.00  0.00    -0.203 F 
ATOM     80  C   UNL A   1      45.110  27.170  36.481  1.00  0.00     0.198 A 
ATOM     81  C   UNL A   1      46.476  28.843  35.430  1.00  0.00     0.198 A 
ATOM     82  F   UNL A   1      45.495  30.445  34.016  1.00  0.00    -0.203 F 
ATOM     83  F   UNL A   1      44.987  26.127  37.314  1.00  0.00    -0.200 F 
ATOM     84  C   UNL A   1      46.355  27.746  36.271  1.00  0.00     0.200 A 
ATOM     85  F   UNL A   1      47.680  29.393  35.219  1.00  0.00    -0.200 F 
ATOM     86  F   UNL A   1      47.437  27.247  36.885  1.00  0.00    -0.200 F 
ENDBRANCH  53  76
ENDBRANCH  27  28
ENDBRANCH  19  22
ENDBRANCH  17  18
ENDBRANCH  16  17
ENDBRANCH   1  16
TORSDOF 13
ENDMDL
MODEL 2
REMARK VINA RESULT:     -11.6      6.978     11.105
REMARK SMILES O=C(CC[C@H]1CC[C@@H](O)CC1)NCCCNC(=O)c1ccc(-c2c3nc(c(-c4c(F)c(F)c(F)c(F)c4F)c4ccc([nH]4)c(-c4c(F)c(F)c(F)c(F)c4F)c4nc(c(-c5c(F)c(F)c(F)c(F)c5F)c5ccc2[nH]5)C=C4)C=C3)cc1
REMARK SMILES IDX 13 1 12 2 1 3 2 4 3 6 4 7 5 8 6 9 11 10 7 11 10 12 8 13 9 14
REMARK SMILES IDX 14 16 15 17 16 18 17 19 18 21 19 22 20 23 81 24 21 25 80 26
REMARK SMILES IDX 22 27 23 28 24 29 74 30 25 31 79 32 73 33 75 34 26 35 78 36
REMARK SMILES IDX 72 37 71 38 27 40 59 41 39 42 58 43 40 44 43 45 57 46 76 47
REMARK SMILES IDX 41 48 42 49 56 51 77 52 44 53 28 54 29 55 37 56 30 57 31 58
REMARK SMILES IDX 35 59 38 60 32 61 33 62 36 63 34 64 60 65 61 66 69 67 62 68
REMARK SMILES IDX 63 69 67 70 70 71 64 72 65 73 68 74 66 75 45 76 46 77 54 78
REMARK SMILES IDX 47 79 48 80 52 81 55 82 49 83 50 84 53 85 51 86
REMARK H PARENT 12 5 9 15 16 20 75 39 43 50
REMARK Flexibility Score: inf
ROOT
ATOM      1  C   UNL A   1      36.755  20.942  25.218  1.00  0.00     0.117 C 
ENDROOT
BRANCH   1   2
ATOM      2  N   UNL A   1      35.431  20.365  25.087  1.00  0.00    -0.356 N 
ATOM      3  O   UNL A   1      34.397  22.401  25.226  1.00  0.00    -0.275 OA
ATOM      4  C   UNL A   1      34.333  21.194  25.016  1.00  0.00     0.220 C 
ATOM      5  H   UNL A   1      35.318  19.388  25.050  1.00  0.00     0.163 HD
BRANCH   4   6
ATOM      6  C   UNL A   1      33.047  20.524  24.568  1.00  0.00     0.100 C 
BRANCH   6   7
ATOM      7  C   UNL A   1      32.880  19.190  25.308  1.00  0.00     0.013 C 
BRANCH   7   8
ATOM      8  C   UNL A   1      32.421  17.962  24.481  1.00  0.00    -0.010 C 
ATOM      9  C   UNL A   1      32.138  16.668  25.255  1.00  0.00     0.006 C 
ATOM     10  C   UNL A   1      33.443  17.669  23.360  1.00  0.00     0.006 C 
ATOM     11  C   UNL A   1      33.393  15.979  25.769  1.00  0.00     0.032 C 
ATOM     12  C   UNL A   1      34.723  17.008  23.881  1.00  0.00     0.032 C 
ATOM     13  C   UNL A   1      34.426  15.741  24.677  1.00  0.00     0.114 C 
BRANCH  13  14
ATOM     14  O   UNL A   1      35.625  15.261  25.278  1.00  0.00    -0.393 OA
ATOM     15  H   UNL A   1      36.273  15.055  24.586  1.00  0.00     0.210 HD
ENDBRANCH  13  14
ENDBRANCH   7   8
ENDBRANCH   6   7
ENDBRANCH   4   6
ENDBRANCH   1   2
BRANCH   1  16
ATOM     16  C   UNL A   1      37.895  19.959  24.993  1.00  0.00     0.042 C 
BRANCH  16  17
ATOM     17  C   UNL A   1      39.200  20.280  25.713  1.00  0.00     0.118 C 
BRANCH  17  18
ATOM     18  N   UNL A   1      40.166  19.195  25.747  1.00  0.00    -0.352 N 
ATOM     19  C   UNL A   1      41.504  19.231  26.076  1.00  0.00     0.251 C 
ATOM     20  H   UNL A   1      39.815  18.309  25.499  1.00  0.00     0.163 HD
ATOM     21  O   UNL A   1      42.177  18.210  26.030  1.00  0.00    -0.269 OA
BRANCH  19  22
ATOM     22  C   UNL A   1      42.158  20.516  26.420  1.00  0.00     0.039 A 
ATOM     23  C   UNL A   1      42.618  21.317  25.369  1.00  0.00     0.014 A 
ATOM     24  C   UNL A   1      42.294  20.954  27.739  1.00  0.00     0.014 A 
ATOM     25  C   UNL A   1      43.112  22.596  25.633  1.00  0.00     0.010 A 
ATOM     26  C   UNL A   1      42.726  22.254  27.997  1.00  0.00     0.010 A 
ATOM     27  C   UNL A   1      43.116  23.095  26.945  1.00  0.00    -0.014 A 
BRANCH  27  28
ATOM     28  C   UNL A   1      43.465  24.513  27.212  1.00  0.00     0.031 A 
ATOM     29  C   UNL A   1      44.852  25.026  26.963  1.00  0.00     0.074 A 
ATOM     30  C   UNL A   1      42.530  25.328  27.741  1.00  0.00     0.049 A 
ATOM     31  N   UNL A   1      45.338  26.226  27.166  1.00  0.00    -0.248 NA
ATOM     32  C   UNL A   1      45.829  24.063  26.436  1.00  0.00     0.031 C 
ATOM     33  C   UNL A   1      41.162  24.933  28.083  1.00  0.00     0.029 A 
ATOM     34  N   UNL A   1      42.589  26.654  28.090  1.00  0.00    -0.354 N 
ATOM     35  C   UNL A   1      46.676  26.159  26.801  1.00  0.00     0.074 A 
ATOM     36  C   UNL A   1      46.937  24.790  26.408  1.00  0.00     0.031 C 
ATOM     37  C   UNL A   1      40.505  25.998  28.569  1.00  0.00     0.029 A 
ATOM     38  C   UNL A   1      41.410  27.142  28.599  1.00  0.00     0.049 A 
ATOM     39  H   UNL A   1      43.399  27.203  27.986  1.00  0.00     0.167 HD
ATOM     40  C   UNL A   1      47.595  27.153  26.779  1.00  0.00     0.037 A 
ATOM     41  C   UNL A   1      41.094  28.374  29.040  1.00  0.00     0.037 A 
ATOM     42  C   UNL A   1      47.330  28.518  27.152  1.00  0.00     0.049 A 
ATOM     43  C   UNL A   1      42.130  29.463  28.986  1.00  0.00     0.074 A 
ATOM     44  C   UNL A   1      48.183  29.607  27.112  1.00  0.00     0.029 A 
ATOM     45  N   UNL A   1      46.115  28.983  27.635  1.00  0.00    -0.354 N 
ATOM     46  N   UNL A   1      43.372  29.403  28.573  1.00  0.00    -0.248 NA
ATOM     47  C   UNL A   1      41.714  30.794  29.450  1.00  0.00     0.031 C 
ATOM     48  C   UNL A   1      47.496  30.723  27.604  1.00  0.00     0.029 A 
ATOM     49  C   UNL A   1      46.202  30.338  27.912  1.00  0.00     0.049 A 
ATOM     50  H   UNL A   1      45.310  28.430  27.763  1.00  0.00     0.167 HD
ATOM     51  C   UNL A   1      43.878  30.688  28.702  1.00  0.00     0.074 A 
ATOM     52  C   UNL A   1      42.805  31.512  29.219  1.00  0.00     0.031 C 
ATOM     53  C   UNL A   1      45.122  31.145  28.418  1.00  0.00     0.037 A 
BRANCH  40  54
ATOM     54  C   UNL A   1      48.982  26.799  26.327  1.00  0.00     0.064 A 
ATOM     55  C   UNL A   1      49.923  26.256  27.214  1.00  0.00     0.173 A 
ATOM     56  C   UNL A   1      49.362  26.971  24.988  1.00  0.00     0.173 A 
ATOM     57  F   UNL A   1      49.611  26.082  28.507  1.00  0.00    -0.203 F 
ATOM     58  C   UNL A   1      51.204  25.922  26.782  1.00  0.00     0.198 A 
ATOM     59  C   UNL A   1      50.636  26.612  24.554  1.00  0.00     0.198 A 
ATOM     60  F   UNL A   1      48.498  27.483  24.099  1.00  0.00    -0.203 F 
ATOM     61  F   UNL A   1      52.101  25.446  27.656  1.00  0.00    -0.200 F 
ATOM     62  C   UNL A   1      51.558  26.094  25.452  1.00  0.00     0.200 A 
ATOM     63  F   UNL A   1      50.973  26.770  23.267  1.00  0.00    -0.200 F 
ATOM     64  F   UNL A   1      52.789  25.770  25.038  1.00  0.00    -0.200 F 
ENDBRANCH  40  54
BRANCH  41  65
ATOM     65  C   UNL A   1      39.723  28.653  29.535  1.00  0.00     0.064 A 
ATOM     66  C   UNL A   1      39.386  28.435  30.878  1.00  0.00     0.173 A 
ATOM     67  C   UNL A   1      38.722  29.140  28.681  1.00  0.00     0.173 A 
ATOM     68  F   UNL A   1      40.304  27.951  31.728  1.00  0.00    -0.203 F 
ATOM     69  C   UNL A   1      38.095  28.675  31.344  1.00  0.00     0.198 A 
ATOM     70  C   UNL A   1      37.440  29.403  29.154  1.00  0.00     0.198 A 
ATOM     71  F   UNL A   1      38.997  29.370  27.388  1.00  0.00    -0.203 F 
ATOM     72  F   UNL A   1      37.789  28.417  32.623  1.00  0.00    -0.200 F 
ATOM     73  C   UNL A   1      37.125  29.164  30.483  1.00  0.00     0.200 A 
ATOM     74  F   UNL A   1      36.507  29.886  28.321  1.00  0.00    -0.200 F 
ATOM     75  F   UNL A   1      35.884  29.396  30.933  1.00  0.00    -0.200 F 
ENDBRANCH  41  65
BRANCH  53  76
ATOM     76  C   UNL A   1      45.378  32.608  28.631  1.00  0.00     0.064 A 
ATOM     77  C   UNL A   1      45.903  33.094  29.837  1.00  0.00     0.173 A 
ATOM     78  C   UNL A   1      45.118  33.530  27.606  1.00  0.00     0.173 A 
ATOM     79  F   UNL A   1      46.152  32.253  30.852  1.00  0.00    -0.203 F 
ATOM     80  C   UNL A   1      46.136  34.455  30.018  1.00  0.00     0.198 A 
ATOM     81  C   UNL A   1      45.377  34.886  27.781  1.00  0.00     0.198 A 
ATOM     82  F   UNL A   1      44.620  33.114  26.432  1.00  0.00    -0.203 F 
ATOM     83  F   UNL A   1      46.593  34.904  31.195  1.00  0.00    -0.200 F 
ATOM     84  C   UNL A   1      45.878  35.348  28.988  1.00  0.00     0.200 A 
ATOM     85  F   UNL A   1      45.137  35.747  26.782  1.00  0.00    -0.200 F 
ATOM     86  F   UNL A   1      46.105  36.658  29.164  1.00  0.00    -0.200 F 
ENDBRANCH  53  76
ENDBRANCH  27  28
ENDBRANCH  19  22
ENDBRANCH  17  18
ENDBRANCH  16  17
ENDBRANCH   1  16
TORSDOF 13
ENDMDL
MODEL 3
REMARK VINA RESULT:     -11.5      7.019     12.309
REMARK SMILES O=C(CC[C@H]1CC[C@@H](O)CC1)NCCCNC(=O)c1ccc(-c2c3nc(c(-c4c(F)c(F)c(F)c(F)c4F)c4ccc([nH]4)c(-c4c(F)c(F)c(F)c(F)c4F)c4nc(c(-c5c(F)c(F)c(F)c(F)c5F)c5ccc2[nH]5)C=C4)C=C3)cc1
REMARK SMILES IDX 13 1 12 2 1 3 2 4 3 6 4 7 5 8 6 9 11 10 7 11 10 12 8 13 9 14
REMARK SMILES IDX 14 16 15 17 16 18 17 19 18 21 19 22 20 23 81 24 21 25 80 26
REMARK SMILES IDX 22 27 23 28 24 29 74 30 25 31 79 32 73 33 75 34 26 35 78 36
REMARK SMILES IDX 72 37 71 38 27 40 59 41 39 42 58 43 40 44 43 45 57 46 76 47
REMARK SMILES IDX 41 48 42 49 56 51 77 52 44 53 28 54 29 55 37 56 30 57 31 58
REMARK SMILES IDX 35 59 38 60 32 61 33 62 36 63 34 64 60 65 61 66 69 67 62 68
REMARK SMILES IDX 63 69 67 70 70 71 64 72 65 73 68 74 66 75 45 76 46 77 54 78
REMARK SMILES IDX 47 79 48 80 52 81 55 82 49 83 50 84 53 85 51 86
REMARK H PARENT 12 5 9 15 16 20 75 39 43 50
REMARK Flexibility Score: inf
ROOT
ATOM      1  C   UNL A   1      36.745  21.208  25.085  1.00  0.00     0.117 C 
ENDROOT
BRANCH   1   2
ATOM      2  N   UNL A   1      35.393  20.712  25.253  1.00  0.00    -0.356 N 
ATOM      3  O   UNL A   1      34.454  22.672  24.538  1.00  0.00    -0.275 OA
ATOM      4  C   UNL A   1      34.328  21.497  24.868  1.00  0.00     0.220 C 
ATOM      5  H   UNL A   1      35.237  19.821  25.641  1.00  0.00     0.163 HD
BRANCH   4   6
ATOM      6  C   UNL A   1      32.994  20.779  24.788  1.00  0.00     0.100 C 
BRANCH   6   7
ATOM      7  C   UNL A   1      33.143  19.356  25.342  1.00  0.00     0.013 C 
BRANCH   7   8
ATOM      8  C   UNL A   1      32.557  18.193  24.503  1.00  0.00    -0.010 C 
ATOM      9  C   UNL A   1      32.147  16.924  25.263  1.00  0.00     0.006 C 
ATOM     10  C   UNL A   1      33.537  17.811  23.371  1.00  0.00     0.006 C 
ATOM     11  C   UNL A   1      33.328  16.104  25.759  1.00  0.00     0.032 C 
ATOM     12  C   UNL A   1      34.745  17.017  23.875  1.00  0.00     0.032 C 
ATOM     13  C   UNL A   1      34.326  15.776  24.657  1.00  0.00     0.114 C 
BRANCH  13  14
ATOM     14  O   UNL A   1      35.473  15.169  25.243  1.00  0.00    -0.393 OA
ATOM     15  H   UNL A   1      35.317  15.032  26.190  1.00  0.00     0.210 HD
ENDBRANCH  13  14
ENDBRANCH   7   8
ENDBRANCH   6   7
ENDBRANCH   4   6
ENDBRANCH   1   2
BRANCH   1  16
ATOM     16  C   UNL A   1      37.805  20.122  24.975  1.00  0.00     0.042 C 
BRANCH  16  17
ATOM     17  C   UNL A   1      39.093  20.369  25.754  1.00  0.00     0.118 C 
BRANCH  17  18
ATOM     18  N   UNL A   1      40.006  19.239  25.805  1.00  0.00    -0.352 N 
ATOM     19  C   UNL A   1      41.346  19.218  26.127  1.00  0.00     0.251 C 
ATOM     20  H   UNL A   1      39.612  18.367  25.576  1.00  0.00     0.163 HD
ATOM     21  O   UNL A   1      41.969  18.166  26.099  1.00  0.00    -0.269 OA
BRANCH  19  22
ATOM     22  C   UNL A   1      42.062  20.477  26.442  1.00  0.00     0.039 A 
ATOM     23  C   UNL A   1      42.569  21.225  25.374  1.00  0.00     0.014 A 
ATOM     24  C   UNL A   1      42.211  20.942  27.751  1.00  0.00     0.014 A 
ATOM     25  C   UNL A   1      43.126  22.484  25.608  1.00  0.00     0.010 A 
ATOM     26  C   UNL A   1      42.708  22.226  27.978  1.00  0.00     0.010 A 
ATOM     27  C   UNL A   1      43.147  23.018  26.907  1.00  0.00    -0.014 A 
BRANCH  27  28
ATOM     28  C   UNL A   1      43.566  24.423  27.139  1.00  0.00     0.031 A 
ATOM     29  C   UNL A   1      42.594  25.441  27.659  1.00  0.00     0.074 A 
ATOM     30  C   UNL A   1      44.821  24.793  26.818  1.00  0.00     0.049 A 
ATOM     31  N   UNL A   1      42.780  26.716  27.893  1.00  0.00    -0.248 NA
ATOM     32  C   UNL A   1      41.228  24.972  27.933  1.00  0.00     0.031 C 
ATOM     33  C   UNL A   1      45.842  23.910  26.250  1.00  0.00     0.029 A 
ATOM     34  N   UNL A   1      45.452  26.008  26.918  1.00  0.00    -0.354 N 
ATOM     35  C   UNL A   1      41.557  27.202  28.333  1.00  0.00     0.074 A 
ATOM     36  C   UNL A   1      40.623  26.096  28.290  1.00  0.00     0.031 C 
ATOM     37  C   UNL A   1      46.977  24.605  26.074  1.00  0.00     0.029 A 
ATOM     38  C   UNL A   1      46.758  25.986  26.491  1.00  0.00     0.049 A 
ATOM     39  H   UNL A   1      45.011  26.817  27.263  1.00  0.00     0.167 HD
ATOM     40  C   UNL A   1      41.247  28.452  28.753  1.00  0.00     0.037 A 
ATOM     41  C   UNL A   1      47.676  26.970  26.441  1.00  0.00     0.037 A 
ATOM     42  C   UNL A   1      42.180  29.547  28.814  1.00  0.00     0.049 A 
ATOM     43  C   UNL A   1      47.309  28.343  26.930  1.00  0.00     0.074 A 
ATOM     44  C   UNL A   1      41.973  30.836  29.274  1.00  0.00     0.029 A 
ATOM     45  N   UNL A   1      43.503  29.481  28.400  1.00  0.00    -0.354 N 
ATOM     46  N   UNL A   1      46.168  28.773  27.409  1.00  0.00    -0.248 NA
ATOM     47  C   UNL A   1      48.364  29.366  26.882  1.00  0.00     0.031 C 
ATOM     48  C   UNL A   1      43.160  31.559  29.107  1.00  0.00     0.029 A 
ATOM     49  C   UNL A   1      44.118  30.709  28.580  1.00  0.00     0.049 A 
ATOM     50  H   UNL A   1      43.940  28.678  28.032  1.00  0.00     0.167 HD
ATOM     51  C   UNL A   1      46.372  30.105  27.743  1.00  0.00     0.074 A 
ATOM     52  C   UNL A   1      47.752  30.409  27.425  1.00  0.00     0.031 C 
ATOM     53  C   UNL A   1      45.494  30.995  28.266  1.00  0.00     0.037 A 
BRANCH  40  54
ATOM     54  C   UNL A   1      39.833  28.703  29.187  1.00  0.00     0.064 A 
ATOM     55  C   UNL A   1      39.429  28.504  30.516  1.00  0.00     0.173 A 
ATOM     56  C   UNL A   1      38.880  29.180  28.275  1.00  0.00     0.173 A 
ATOM     57  F   UNL A   1      40.300  28.037  31.423  1.00  0.00    -0.203 F 
ATOM     58  C   UNL A   1      38.116  28.749  30.910  1.00  0.00     0.198 A 
ATOM     59  C   UNL A   1      37.575  29.449  28.678  1.00  0.00     0.198 A 
ATOM     60  F   UNL A   1      39.216  29.392  26.994  1.00  0.00    -0.203 F 
ATOM     61  F   UNL A   1      37.742  28.509  32.174  1.00  0.00    -0.200 F 
ATOM     62  C   UNL A   1      37.192  29.227  29.993  1.00  0.00     0.200 A 
ATOM     63  F   UNL A   1      36.685  29.921  27.794  1.00  0.00    -0.200 F 
ATOM     64  F   UNL A   1      35.930  29.465  30.375  1.00  0.00    -0.200 F 
ENDBRANCH  40  54
BRANCH  41  65
ATOM     65  C   UNL A   1      49.044  26.680  25.943  1.00  0.00     0.064 A 
ATOM     66  C   UNL A   1      50.004  26.095  26.781  1.00  0.00     0.173 A 
ATOM     67  C   UNL A   1      49.422  26.982  24.627  1.00  0.00     0.173 A 
ATOM     68  F   UNL A   1      49.695  25.808  28.054  1.00  0.00    -0.203 F 
ATOM     69  C   UNL A   1      51.296  25.840  26.326  1.00  0.00     0.198 A 
ATOM     70  C   UNL A   1      50.706  26.703  24.166  1.00  0.00     0.198 A 
ATOM     71  F   UNL A   1      48.536  27.537  23.785  1.00  0.00    -0.203 F 
ATOM     72  F   UNL A   1      52.206  25.320  27.160  1.00  0.00    -0.200 F 
ATOM     73  C   UNL A   1      51.644  26.140  25.018  1.00  0.00     0.200 A 
ATOM     74  F   UNL A   1      51.035  26.984  22.898  1.00  0.00    -0.200 F 
ATOM     75  F   UNL A   1      52.886  25.892  24.581  1.00  0.00    -0.200 F 
ENDBRANCH  41  65
BRANCH  53  76
ATOM     76  C   UNL A   1      46.010  32.374  28.555  1.00  0.00     0.064 A 
ATOM     77  C   UNL A   1      45.928  33.403  27.606  1.00  0.00     0.173 A 
ATOM     78  C   UNL A   1      46.569  32.673  29.807  1.00  0.00     0.173 A 
ATOM     79  F   UNL A   1      45.416  33.160  26.390  1.00  0.00    -0.203 F 
ATOM     80  C   UNL A   1      46.411  34.677  27.892  1.00  0.00     0.198 A 
ATOM     81  C   UNL A   1      47.027  33.955  30.097  1.00  0.00     0.198 A 
ATOM     82  F   UNL A   1      46.666  31.724  30.749  1.00  0.00    -0.203 F 
ATOM     83  F   UNL A   1      46.366  35.634  26.954  1.00  0.00    -0.200 F 
ATOM     84  C   UNL A   1      46.955  34.954  29.138  1.00  0.00     0.200 A 
ATOM     85  F   UNL A   1      47.543  34.224  31.305  1.00  0.00    -0.200 F 
ATOM     86  F   UNL A   1      47.417  36.182  29.410  1.00  0.00    -0.200 F 
ENDBRANCH  53  76
ENDBRANCH  27  28
ENDBRANCH  19  22
ENDBRANCH  17  18
ENDBRANCH  16  17
ENDBRANCH   1  16
TORSDOF 13
ENDMDL
