MODEL 1
REMARK VINA RESULT:     -12.7      0.000      0.000
REMARK SMILES C[C@H]1[C@H](C(=O)NCCCNC(=O)c2ccc(-c3c4nc(c(-c5c(F)c(F)c(F)c(F)c5F)c5ccc([nH]5)c(-c5c(F)c(F)c(F)c(F)c5F)c5nc(c(-c6c(F)c(F)c(F)c(F)c6F)c6ccc3[nH]6)C=C5)C=C4)cc2)CCN1C(=O)Nc1ccc(F)c(Cl)c1
REMARK SMILES IDX 8 1 7 2 6 3 4 4 5 5 3 7 1 8 2 9 78 10 76 11 77 12 79 13
REMARK SMILES IDX 80 14 81 15 82 17 83 18 89 19 84 20 87 21 85 22 88 23 86 24
REMARK SMILES IDX 9 25 10 26 11 27 12 29 13 30 14 31 75 32 15 33 74 34 16 35
REMARK SMILES IDX 17 36 18 37 68 38 19 39 73 40 67 41 69 42 20 43 72 44 66 45
REMARK SMILES IDX 65 46 21 48 53 49 33 50 52 51 34 52 37 53 51 54 70 55 35 56
REMARK SMILES IDX 36 57 50 59 71 60 38 61 22 62 23 63 31 64 24 65 25 66 29 67
REMARK SMILES IDX 32 68 26 69 27 70 30 71 28 72 54 73 55 74 63 75 56 76 57 77
REMARK SMILES IDX 61 78 64 79 58 80 59 81 62 82 60 83 39 84 40 85 48 86 41 87
REMARK SMILES IDX 42 88 46 89 49 90 43 91 44 92 47 93 45 94
REMARK H PARENT 6 6 81 16 10 28 69 47 37 58
REMARK Flexibility Score: inf
ROOT
ATOM      1  C   UNL A   1      31.808  28.209  26.805  1.00  0.00     0.042 C 
ENDROOT
BRANCH   1   2
ATOM      2  C   UNL A   1      31.038  27.232  25.922  1.00  0.00     0.117 C 
BRANCH   2   3
ATOM      3  N   UNL A   1      30.810  25.943  26.560  1.00  0.00    -0.356 N 
ATOM      4  C   UNL A   1      31.462  24.754  26.510  1.00  0.00     0.225 C 
ATOM      5  O   UNL A   1      31.027  23.864  27.251  1.00  0.00    -0.275 OA
ATOM      6  H   UNL A   1      30.021  25.933  27.149  1.00  0.00     0.163 HD
BRANCH   4   7
ATOM      7  C   UNL A   1      32.622  24.438  25.576  1.00  0.00     0.102 C 
ATOM      8  C   UNL A   1      32.526  23.032  23.477  1.00  0.00     0.032 C 
ATOM      9  C   UNL A   1      32.175  24.381  24.108  1.00  0.00     0.096 C 
ATOM     10  N   UNL A   1      32.867  25.491  23.446  1.00  0.00    -0.321 N 
ATOM     11  C   UNL A   1      33.820  25.374  25.646  1.00  0.00     0.037 C 
ATOM     12  C   UNL A   1      34.028  25.886  24.229  1.00  0.00     0.122 C 
BRANCH  10  13
ATOM     13  C   UNL A   1      32.782  25.973  22.164  1.00  0.00     0.322 C 
ATOM     14  O   UNL A   1      33.576  25.593  21.296  1.00  0.00    -0.248 OA
ATOM     15  N   UNL A   1      31.758  26.754  21.737  1.00  0.00    -0.308 N 
ATOM     16  H   UNL A   1      31.536  26.605  20.790  1.00  0.00     0.171 HD
BRANCH  15  17
ATOM     17  C   UNL A   1      30.946  27.722  22.337  1.00  0.00     0.044 A 
ATOM     18  C   UNL A   1      31.521  28.953  22.668  1.00  0.00     0.029 A 
ATOM     19  C   UNL A   1      29.618  27.486  22.671  1.00  0.00     0.049 A 
ATOM     20  C   UNL A   1      30.734  29.976  23.203  1.00  0.00     0.043 A 
ATOM     21  C   UNL A   1      28.822  28.506  23.194  1.00  0.00     0.078 A 
ATOM     22  C   UNL A   1      29.381  29.754  23.441  1.00  0.00     0.141 A 
ATOM     23  Cl  UNL A   1      27.155  28.202  23.501  1.00  0.00    -0.081 Cl
ATOM     24  F   UNL A   1      28.633  30.760  23.915  1.00  0.00    -0.205 F 
ENDBRANCH  15  17
ENDBRANCH  10  13
ENDBRANCH   4   7
ENDBRANCH   2   3
ENDBRANCH   1   2
BRANCH   1  25
ATOM     25  C   UNL A   1      32.865  29.044  26.096  1.00  0.00     0.118 C 
BRANCH  25  26
ATOM     26  N   UNL A   1      32.692  30.469  26.311  1.00  0.00    -0.352 N 
ATOM     27  C   UNL A   1      33.378  31.356  27.103  1.00  0.00     0.251 C 
ATOM     28  H   UNL A   1      31.953  30.869  25.798  1.00  0.00     0.163 HD
ATOM     29  O   UNL A   1      32.916  32.486  27.251  1.00  0.00    -0.269 OA
BRANCH  27  30
ATOM     30  C   UNL A   1      34.637  30.996  27.807  1.00  0.00     0.039 A 
ATOM     31  C   UNL A   1      34.731  29.719  28.375  1.00  0.00     0.014 A 
ATOM     32  C   UNL A   1      35.685  31.898  28.001  1.00  0.00     0.014 A 
ATOM     33  C   UNL A   1      35.874  29.340  29.087  1.00  0.00     0.010 A 
ATOM     34  C   UNL A   1      36.865  31.491  28.633  1.00  0.00     0.010 A 
ATOM     35  C   UNL A   1      36.967  30.213  29.201  1.00  0.00    -0.014 A 
BRANCH  35  36
ATOM     36  C   UNL A   1      38.196  29.810  29.939  1.00  0.00     0.031 A 
ATOM     37  C   UNL A   1      38.460  30.323  31.331  1.00  0.00     0.074 A 
ATOM     38  C   UNL A   1      39.100  29.004  29.349  1.00  0.00     0.049 A 
ATOM     39  N   UNL A   1      39.487  30.103  32.117  1.00  0.00    -0.248 NA
ATOM     40  C   UNL A   1      37.449  31.221  31.909  1.00  0.00     0.031 C 
ATOM     41  C   UNL A   1      39.000  28.476  27.987  1.00  0.00     0.029 A 
ATOM     42  N   UNL A   1      40.286  28.492  29.817  1.00  0.00    -0.354 N 
ATOM     43  C   UNL A   1      39.252  30.846  33.267  1.00  0.00     0.074 A 
ATOM     44  C   UNL A   1      38.013  31.563  33.059  1.00  0.00     0.031 C 
ATOM     45  C   UNL A   1      40.064  27.695  27.740  1.00  0.00     0.029 A 
ATOM     46  C   UNL A   1      40.936  27.690  28.910  1.00  0.00     0.049 A 
ATOM     47  H   UNL A   1      40.636  28.681  30.717  1.00  0.00     0.167 HD
ATOM     48  C   UNL A   1      39.986  30.909  34.404  1.00  0.00     0.037 A 
ATOM     49  C   UNL A   1      42.102  27.024  29.010  1.00  0.00     0.037 A 
ATOM     50  C   UNL A   1      41.202  30.172  34.632  1.00  0.00     0.049 A 
ATOM     51  C   UNL A   1      42.886  27.087  30.292  1.00  0.00     0.074 A 
ATOM     52  C   UNL A   1      41.984  30.126  35.774  1.00  0.00     0.029 A 
ATOM     53  N   UNL A   1      41.812  29.348  33.698  1.00  0.00    -0.354 N 
ATOM     54  N   UNL A   1      42.619  27.745  31.393  1.00  0.00    -0.248 NA
ATOM     55  C   UNL A   1      44.129  26.302  30.348  1.00  0.00     0.031 C 
ATOM     56  C   UNL A   1      43.085  29.300  35.520  1.00  0.00     0.029 A 
ATOM     57  C   UNL A   1      42.967  28.800  34.234  1.00  0.00     0.049 A 
ATOM     58  H   UNL A   1      41.474  29.177  32.790  1.00  0.00     0.167 HD
ATOM     59  C   UNL A   1      43.647  27.442  32.276  1.00  0.00     0.074 A 
ATOM     60  C   UNL A   1      44.532  26.524  31.590  1.00  0.00     0.031 C 
ATOM     61  C   UNL A   1      43.841  27.888  33.541  1.00  0.00     0.037 A 
BRANCH  48  62
ATOM     62  C   UNL A   1      39.484  31.801  35.503  1.00  0.00     0.064 A 
ATOM     63  C   UNL A   1      38.583  31.334  36.472  1.00  0.00     0.173 A 
ATOM     64  C   UNL A   1      39.934  33.125  35.609  1.00  0.00     0.173 A 
ATOM     65  F   UNL A   1      38.116  30.078  36.409  1.00  0.00    -0.203 F 
ATOM     66  C   UNL A   1      38.127  32.169  37.488  1.00  0.00     0.198 A 
ATOM     67  C   UNL A   1      39.497  33.950  36.643  1.00  0.00     0.198 A 
ATOM     68  F   UNL A   1      40.801  33.620  34.713  1.00  0.00    -0.203 F 
ATOM     69  F   UNL A   1      37.230  31.716  38.374  1.00  0.00    -0.200 F 
ATOM     70  C   UNL A   1      38.589  33.474  37.577  1.00  0.00     0.200 A 
ATOM     71  F   UNL A   1      39.953  35.207  36.735  1.00  0.00    -0.200 F 
ATOM     72  F   UNL A   1      38.153  34.276  38.558  1.00  0.00    -0.200 F 
ENDBRANCH  48  62
BRANCH  49  73
ATOM     73  C   UNL A   1      42.585  26.211  27.864  1.00  0.00     0.064 A 
ATOM     74  C   UNL A   1      43.502  26.738  26.945  1.00  0.00     0.173 A 
ATOM     75  C   UNL A   1      42.143  24.895  27.667  1.00  0.00     0.173 A 
ATOM     76  F   UNL A   1      43.935  28.001  27.081  1.00  0.00    -0.203 F 
ATOM     77  C   UNL A   1      43.948  25.985  25.861  1.00  0.00     0.198 A 
ATOM     78  C   UNL A   1      42.609  24.134  26.597  1.00  0.00     0.198 A 
ATOM     79  F   UNL A   1      41.268  24.345  28.522  1.00  0.00    -0.203 F 
ATOM     80  F   UNL A   1      44.794  26.526  24.974  1.00  0.00    -0.200 F 
ATOM     81  C   UNL A   1      43.506  24.681  25.691  1.00  0.00     0.200 A 
ATOM     82  F   UNL A   1      42.188  22.871  26.443  1.00  0.00    -0.200 F 
ATOM     83  F   UNL A   1      43.938  23.955  24.653  1.00  0.00    -0.200 F 
ENDBRANCH  49  73
BRANCH  61  84
ATOM     84  C   UNL A   1      45.046  27.375  34.272  1.00  0.00     0.064 A 
ATOM     85  C   UNL A   1      46.272  28.055  34.234  1.00  0.00     0.173 A 
ATOM     86  C   UNL A   1      44.967  26.204  35.042  1.00  0.00     0.173 A 
ATOM     87  F   UNL A   1      46.402  29.170  33.499  1.00  0.00    -0.203 F 
ATOM     88  C   UNL A   1      47.382  27.568  34.917  1.00  0.00     0.198 A 
ATOM     89  C   UNL A   1      46.072  25.734  35.746  1.00  0.00     0.198 A 
ATOM     90  F   UNL A   1      43.815  25.520  35.116  1.00  0.00    -0.203 F 
ATOM     91  F   UNL A   1      48.556  28.208  34.829  1.00  0.00    -0.200 F 
ATOM     92  C   UNL A   1      47.280  26.411  35.677  1.00  0.00     0.200 A 
ATOM     93  F   UNL A   1      45.969  24.622  36.486  1.00  0.00    -0.200 F 
ATOM     94  F   UNL A   1      48.349  25.944  36.336  1.00  0.00    -0.200 F 
ENDBRANCH  61  84
ENDBRANCH  35  36
ENDBRANCH  27  30
ENDBRANCH  25  26
ENDBRANCH   1  25
TORSDOF 12
ENDMDL
MODEL 2
REMARK VINA RESULT:     -12.6      4.240      9.050
REMARK SMILES C[C@H]1[C@H](C(=O)NCCCNC(=O)c2ccc(-c3c4nc(c(-c5c(F)c(F)c(F)c(F)c5F)c5ccc([nH]5)c(-c5c(F)c(F)c(F)c(F)c5F)c5nc(c(-c6c(F)c(F)c(F)c(F)c6F)c6ccc3[nH]6)C=C5)C=C4)cc2)CCN1C(=O)Nc1ccc(F)c(Cl)c1
REMARK SMILES IDX 8 1 7 2 6 3 4 4 5 5 3 7 1 8 2 9 78 10 76 11 77 12 79 13
REMARK SMILES IDX 80 14 81 15 82 17 83 18 89 19 84 20 87 21 85 22 88 23 86 24
REMARK SMILES IDX 9 25 10 26 11 27 12 29 13 30 14 31 75 32 15 33 74 34 16 35
REMARK SMILES IDX 17 36 18 37 68 38 19 39 73 40 67 41 69 42 20 43 72 44 66 45
REMARK SMILES IDX 65 46 21 48 53 49 33 50 52 51 34 52 37 53 51 54 70 55 35 56
REMARK SMILES IDX 36 57 50 59 71 60 38 61 22 62 23 63 31 64 24 65 25 66 29 67
REMARK SMILES IDX 32 68 26 69 27 70 30 71 28 72 54 73 55 74 63 75 56 76 57 77
REMARK SMILES IDX 61 78 64 79 58 80 59 81 62 82 60 83 39 84 40 85 48 86 41 87
REMARK SMILES IDX 42 88 46 89 49 90 43 91 44 92 47 93 45 94
REMARK H PARENT 6 6 81 16 10 28 69 47 37 58
REMARK Flexibility Score: inf
ROOT
ATOM      1  C   UNL A   1      36.195  23.247  23.547  1.00  0.00     0.042 C 
ENDROOT
BRANCH   1   2
ATOM      2  C   UNL A   1      34.677  23.382  23.493  1.00  0.00     0.117 C 
BRANCH   2   3
ATOM      3  N   UNL A   1      34.221  24.307  22.465  1.00  0.00    -0.356 N 
ATOM      4  C   UNL A   1      33.517  25.465  22.504  1.00  0.00     0.225 C 
ATOM      5  O   UNL A   1      33.361  26.045  21.423  1.00  0.00    -0.275 OA
ATOM      6  H   UNL A   1      34.477  24.035  21.554  1.00  0.00     0.163 HD
BRANCH   4   7
ATOM      7  C   UNL A   1      32.869  26.047  23.755  1.00  0.00     0.102 C 
ATOM      8  C   UNL A   1      30.398  26.099  24.285  1.00  0.00     0.032 C 
ATOM      9  C   UNL A   1      31.651  25.225  24.201  1.00  0.00     0.096 C 
ATOM     10  N   UNL A   1      32.016  24.666  25.507  1.00  0.00    -0.321 N 
ATOM     11  C   UNL A   1      33.772  26.211  24.969  1.00  0.00     0.037 C 
ATOM     12  C   UNL A   1      33.093  25.447  26.095  1.00  0.00     0.122 C 
BRANCH  10  13
ATOM     13  C   UNL A   1      31.357  23.788  26.330  1.00  0.00     0.322 C 
ATOM     14  O   UNL A   1      30.593  24.204  27.209  1.00  0.00    -0.248 OA
ATOM     15  N   UNL A   1      31.374  22.445  26.140  1.00  0.00    -0.308 N 
ATOM     16  H   UNL A   1      30.535  22.011  26.416  1.00  0.00     0.171 HD
BRANCH  15  17
ATOM     17  C   UNL A   1      32.314  21.537  25.641  1.00  0.00     0.044 A 
ATOM     18  C   UNL A   1      33.604  21.559  26.180  1.00  0.00     0.029 A 
ATOM     19  C   UNL A   1      32.033  20.664  24.598  1.00  0.00     0.049 A 
ATOM     20  C   UNL A   1      34.556  20.625  25.765  1.00  0.00     0.043 A 
ATOM     21  C   UNL A   1      32.974  19.720  24.185  1.00  0.00     0.078 A 
ATOM     22  C   UNL A   1      34.227  19.693  24.785  1.00  0.00     0.141 A 
ATOM     23  Cl  UNL A   1      32.553  18.589  22.956  1.00  0.00    -0.081 Cl
ATOM     24  F   UNL A   1      35.140  18.777  24.430  1.00  0.00    -0.205 F 
ENDBRANCH  15  17
ENDBRANCH  10  13
ENDBRANCH   4   7
ENDBRANCH   2   3
ENDBRANCH   1   2
BRANCH   1  25
ATOM     25  C   UNL A   1      36.846  23.654  24.863  1.00  0.00     0.118 C 
BRANCH  25  26
ATOM     26  N   UNL A   1      37.787  22.664  25.352  1.00  0.00    -0.352 N 
ATOM     27  C   UNL A   1      38.928  22.792  26.106  1.00  0.00     0.251 C 
ATOM     28  H   UNL A   1      37.569  21.737  25.100  1.00  0.00     0.163 HD
ATOM     29  O   UNL A   1      39.657  21.810  26.236  1.00  0.00    -0.269 OA
BRANCH  27  30
ATOM     30  C   UNL A   1      39.327  24.074  26.745  1.00  0.00     0.039 A 
ATOM     31  C   UNL A   1      40.068  24.986  25.984  1.00  0.00     0.014 A 
ATOM     32  C   UNL A   1      39.074  24.365  28.088  1.00  0.00     0.014 A 
ATOM     33  C   UNL A   1      40.509  26.189  26.547  1.00  0.00     0.010 A 
ATOM     34  C   UNL A   1      39.434  25.606  28.625  1.00  0.00     0.010 A 
ATOM     35  C   UNL A   1      40.174  26.525  27.868  1.00  0.00    -0.014 A 
BRANCH  35  36
ATOM     36  C   UNL A   1      40.620  27.813  28.468  1.00  0.00     0.031 A 
ATOM     37  C   UNL A   1      42.067  28.032  28.826  1.00  0.00     0.074 A 
ATOM     38  C   UNL A   1      39.721  28.783  28.723  1.00  0.00     0.049 A 
ATOM     39  N   UNL A   1      42.637  29.075  29.381  1.00  0.00    -0.248 NA
ATOM     40  C   UNL A   1      42.994  26.925  28.548  1.00  0.00     0.031 C 
ATOM     41  C   UNL A   1      38.281  28.687  28.476  1.00  0.00     0.029 A 
ATOM     42  N   UNL A   1      39.884  30.040  29.252  1.00  0.00    -0.354 N 
ATOM     43  C   UNL A   1      43.977  28.742  29.532  1.00  0.00     0.074 A 
ATOM     44  C   UNL A   1      44.128  27.383  29.059  1.00  0.00     0.031 C 
ATOM     45  C   UNL A   1      37.698  29.844  28.828  1.00  0.00     0.029 A 
ATOM     46  C   UNL A   1      38.713  30.751  29.353  1.00  0.00     0.049 A 
ATOM     47  H   UNL A   1      40.757  30.397  29.532  1.00  0.00     0.167 HD
ATOM     48  C   UNL A   1      44.996  29.504  29.998  1.00  0.00     0.037 A 
ATOM     49  C   UNL A   1      38.483  31.996  29.816  1.00  0.00     0.037 A 
ATOM     50  C   UNL A   1      44.860  30.868  30.438  1.00  0.00     0.049 A 
ATOM     51  C   UNL A   1      39.633  32.832  30.303  1.00  0.00     0.074 A 
ATOM     52  C   UNL A   1      45.845  31.739  30.872  1.00  0.00     0.029 A 
ATOM     53  N   UNL A   1      43.661  31.562  30.498  1.00  0.00    -0.354 N 
ATOM     54  N   UNL A   1      40.904  32.524  30.382  1.00  0.00    -0.248 NA
ATOM     55  C   UNL A   1      39.317  34.195  30.754  1.00  0.00     0.031 C 
ATOM     56  C   UNL A   1      45.237  32.949  31.226  1.00  0.00     0.029 A 
ATOM     57  C   UNL A   1      43.879  32.845  30.974  1.00  0.00     0.049 A 
ATOM     58  H   UNL A   1      42.784  31.197  30.240  1.00  0.00     0.167 HD
ATOM     59  C   UNL A   1      41.541  33.657  30.872  1.00  0.00     0.074 A 
ATOM     60  C   UNL A   1      40.518  34.666  31.054  1.00  0.00     0.031 C 
ATOM     61  C   UNL A   1      42.854  33.841  31.151  1.00  0.00     0.037 A 
BRANCH  48  62
ATOM     62  C   UNL A   1      46.361  28.880  30.045  1.00  0.00     0.064 A 
ATOM     63  C   UNL A   1      47.236  28.950  28.950  1.00  0.00     0.173 A 
ATOM     64  C   UNL A   1      46.812  28.235  31.206  1.00  0.00     0.173 A 
ATOM     65  F   UNL A   1      46.849  29.547  27.814  1.00  0.00    -0.203 F 
ATOM     66  C   UNL A   1      48.501  28.370  29.006  1.00  0.00     0.198 A 
ATOM     67  C   UNL A   1      48.088  27.680  31.267  1.00  0.00     0.198 A 
ATOM     68  F   UNL A   1      46.018  28.146  32.283  1.00  0.00    -0.203 F 
ATOM     69  F   UNL A   1      49.301  28.408  27.932  1.00  0.00    -0.200 F 
ATOM     70  C   UNL A   1      48.928  27.742  30.166  1.00  0.00     0.200 A 
ATOM     71  F   UNL A   1      48.505  27.084  32.394  1.00  0.00    -0.200 F 
ATOM     72  F   UNL A   1      50.148  27.188  30.220  1.00  0.00    -0.200 F 
ENDBRANCH  48  62
BRANCH  49  73
ATOM     73  C   UNL A   1      37.100  32.537  29.810  1.00  0.00     0.064 A 
ATOM     74  C   UNL A   1      36.247  32.344  30.907  1.00  0.00     0.173 A 
ATOM     75  C   UNL A   1      36.603  33.257  28.714  1.00  0.00     0.173 A 
ATOM     76  F   UNL A   1      36.672  31.642  31.968  1.00  0.00    -0.203 F 
ATOM     77  C   UNL A   1      34.945  32.838  30.901  1.00  0.00     0.198 A 
ATOM     78  C   UNL A   1      35.309  33.772  28.721  1.00  0.00     0.198 A 
ATOM     79  F   UNL A   1      37.381  33.471  27.643  1.00  0.00    -0.203 F 
ATOM     80  F   UNL A   1      34.138  32.606  31.945  1.00  0.00    -0.200 F 
ATOM     81  C   UNL A   1      34.479  33.558  29.811  1.00  0.00     0.200 A 
ATOM     82  F   UNL A   1      34.866  34.477  27.670  1.00  0.00    -0.200 F 
ATOM     83  F   UNL A   1      33.228  34.037  29.808  1.00  0.00    -0.200 F 
ENDBRANCH  49  73
BRANCH  61  84
ATOM     84  C   UNL A   1      43.263  35.190  31.664  1.00  0.00     0.064 A 
ATOM     85  C   UNL A   1      43.714  36.197  30.799  1.00  0.00     0.173 A 
ATOM     86  C   UNL A   1      43.177  35.487  33.033  1.00  0.00     0.173 A 
ATOM     87  F   UNL A   1      43.829  35.957  29.485  1.00  0.00    -0.203 F 
ATOM     88  C   UNL A   1      44.090  37.445  31.289  1.00  0.00     0.198 A 
ATOM     89  C   UNL A   1      43.529  36.745  33.516  1.00  0.00     0.198 A 
ATOM     90  F   UNL A   1      42.747  34.559  33.901  1.00  0.00    -0.203 F 
ATOM     91  F   UNL A   1      44.562  38.378  30.450  1.00  0.00    -0.200 F 
ATOM     92  C   UNL A   1      43.991  37.720  32.645  1.00  0.00     0.200 A 
ATOM     93  F   UNL A   1      43.425  37.011  34.825  1.00  0.00    -0.200 F 
ATOM     94  F   UNL A   1      44.352  38.922  33.115  1.00  0.00    -0.200 F 
ENDBRANCH  61  84
ENDBRANCH  35  36
ENDBRANCH  27  30
ENDBRANCH  25  26
ENDBRANCH   1  25
TORSDOF 12
ENDMDL
MODEL 3
REMARK VINA RESULT:     -12.6      2.117      2.973
REMARK SMILES C[C@H]1[C@H](C(=O)NCCCNC(=O)c2ccc(-c3c4nc(c(-c5c(F)c(F)c(F)c(F)c5F)c5ccc([nH]5)c(-c5c(F)c(F)c(F)c(F)c5F)c5nc(c(-c6c(F)c(F)c(F)c(F)c6F)c6ccc3[nH]6)C=C5)C=C4)cc2)CCN1C(=O)Nc1ccc(F)c(Cl)c1
REMARK SMILES IDX 8 1 7 2 6 3 4 4 5 5 3 7 1 8 2 9 78 10 76 11 77 12 79 13
REMARK SMILES IDX 80 14 81 15 82 17 83 18 89 19 84 20 87 21 85 22 88 23 86 24
REMARK SMILES IDX 9 25 10 26 11 27 12 29 13 30 14 31 75 32 15 33 74 34 16 35
REMARK SMILES IDX 17 36 18 37 68 38 19 39 73 40 67 41 69 42 20 43 72 44 66 45
REMARK SMILES IDX 65 46 21 48 53 49 33 50 52 51 34 52 37 53 51 54 70 55 35 56
REMARK SMILES IDX 36 57 50 59 71 60 38 61 22 62 23 63 31 64 24 65 25 66 29 67
REMARK SMILES IDX 32 68 26 69 27 70 30 71 28 72 54 73 55 74 63 75 56 76 57 77
REMARK SMILES IDX 61 78 64 79 58 80 59 81 62 82 60 83 39 84 40 85 48 86 41 87
REMARK SMILES IDX 42 88 46 89 49 90 43 91 44 92 47 93 45 94
REMARK H PARENT 6 6 81 16 10 28 69 47 37 58
REMARK Flexibility Score: inf
ROOT
ATOM      1  C   UNL A   1      32.020  27.836  27.383  1.00  0.00     0.042 C 
ENDROOT
BRANCH   1   2
ATOM      2  C   UNL A   1      31.391  26.990  26.280  1.00  0.00     0.117 C 
BRANCH   2   3
ATOM      3  N   UNL A   1      30.945  25.685  26.744  1.00  0.00    -0.356 N 
ATOM      4  C   UNL A   1      31.415  24.425  26.564  1.00  0.00     0.225 C 
ATOM      5  O   UNL A   1      30.819  23.529  27.174  1.00  0.00    -0.275 OA
ATOM      6  H   UNL A   1      30.136  25.725  27.305  1.00  0.00     0.163 HD
BRANCH   4   7
ATOM      7  C   UNL A   1      32.558  24.049  25.630  1.00  0.00     0.102 C 
ATOM      8  C   UNL A   1      32.374  22.743  23.473  1.00  0.00     0.032 C 
ATOM      9  C   UNL A   1      32.129  24.091  24.156  1.00  0.00     0.096 C 
ATOM     10  N   UNL A   1      32.922  25.164  23.549  1.00  0.00    -0.321 N 
ATOM     11  C   UNL A   1      33.830  24.877  25.753  1.00  0.00     0.037 C 
ATOM     12  C   UNL A   1      34.101  25.426  24.361  1.00  0.00     0.122 C 
BRANCH  10  13
ATOM     13  C   UNL A   1      32.898  25.704  22.288  1.00  0.00     0.322 C 
ATOM     14  O   UNL A   1      33.634  25.259  21.400  1.00  0.00    -0.248 OA
ATOM     15  N   UNL A   1      31.982  26.626  21.899  1.00  0.00    -0.308 N 
ATOM     16  H   UNL A   1      31.741  26.545  20.949  1.00  0.00     0.171 HD
BRANCH  15  17
ATOM     17  C   UNL A   1      31.303  27.666  22.543  1.00  0.00     0.044 A 
ATOM     18  C   UNL A   1      32.057  28.612  23.243  1.00  0.00     0.029 A 
ATOM     19  C   UNL A   1      29.917  27.758  22.563  1.00  0.00     0.049 A 
ATOM     20  C   UNL A   1      31.430  29.709  23.842  1.00  0.00     0.043 A 
ATOM     21  C   UNL A   1      29.284  28.855  23.148  1.00  0.00     0.078 A 
ATOM     22  C   UNL A   1      30.046  29.836  23.769  1.00  0.00     0.141 A 
ATOM     23  Cl  UNL A   1      27.568  28.982  23.066  1.00  0.00    -0.081 Cl
ATOM     24  F   UNL A   1      29.466  30.916  24.313  1.00  0.00    -0.205 F 
ENDBRANCH  15  17
ENDBRANCH  10  13
ENDBRANCH   4   7
ENDBRANCH   2   3
ENDBRANCH   1   2
BRANCH   1  25
ATOM     25  C   UNL A   1      33.402  28.396  27.077  1.00  0.00     0.118 C 
BRANCH  25  26
ATOM     26  N   UNL A   1      33.441  29.846  27.117  1.00  0.00    -0.352 N 
ATOM     27  C   UNL A   1      34.363  30.714  27.649  1.00  0.00     0.251 C 
ATOM     28  H   UNL A   1      32.672  30.284  26.687  1.00  0.00     0.163 HD
ATOM     29  O   UNL A   1      34.075  31.907  27.715  1.00  0.00    -0.269 OA
BRANCH  27  30
ATOM     30  C   UNL A   1      35.681  30.263  28.170  1.00  0.00     0.039 A 
ATOM     31  C   UNL A   1      36.788  30.337  27.314  1.00  0.00     0.014 A 
ATOM     32  C   UNL A   1      35.844  29.690  29.434  1.00  0.00     0.014 A 
ATOM     33  C   UNL A   1      38.043  29.885  27.735  1.00  0.00     0.010 A 
ATOM     34  C   UNL A   1      37.115  29.323  29.888  1.00  0.00     0.010 A 
ATOM     35  C   UNL A   1      38.228  29.397  29.038  1.00  0.00    -0.014 A 
BRANCH  35  36
ATOM     36  C   UNL A   1      39.565  28.935  29.501  1.00  0.00     0.031 A 
ATOM     37  C   UNL A   1      40.358  29.748  30.492  1.00  0.00     0.074 A 
ATOM     38  C   UNL A   1      40.090  27.796  29.010  1.00  0.00     0.049 A 
ATOM     39  N   UNL A   1      41.550  29.520  30.989  1.00  0.00    -0.248 NA
ATOM     40  C   UNL A   1      39.742  30.995  30.969  1.00  0.00     0.031 C 
ATOM     41  C   UNL A   1      39.458  26.937  28.007  1.00  0.00     0.029 A 
ATOM     42  N   UNL A   1      41.280  27.166  29.283  1.00  0.00    -0.354 N 
ATOM     43  C   UNL A   1      41.830  30.598  31.819  1.00  0.00     0.074 A 
ATOM     44  C   UNL A   1      40.707  31.506  31.721  1.00  0.00     0.031 C 
ATOM     45  C   UNL A   1      40.252  25.882  27.769  1.00  0.00     0.029 A 
ATOM     46  C   UNL A   1      41.462  26.001  28.577  1.00  0.00     0.049 A 
ATOM     47  H   UNL A   1      41.939  27.515  29.925  1.00  0.00     0.167 HD
ATOM     48  C   UNL A   1      42.909  30.805  32.611  1.00  0.00     0.037 A 
ATOM     49  C   UNL A   1      42.486  25.127  28.581  1.00  0.00     0.037 A 
ATOM     50  C   UNL A   1      44.013  29.890  32.741  1.00  0.00     0.049 A 
ATOM     51  C   UNL A   1      43.662  25.364  29.489  1.00  0.00     0.074 A 
ATOM     52  C   UNL A   1      45.124  29.987  33.563  1.00  0.00     0.029 A 
ATOM     53  N   UNL A   1      44.145  28.707  32.029  1.00  0.00    -0.354 N 
ATOM     54  N   UNL A   1      43.882  26.357  30.313  1.00  0.00    -0.248 NA
ATOM     55  C   UNL A   1      44.725  24.348  29.473  1.00  0.00     0.031 C 
ATOM     56  C   UNL A   1      45.944  28.878  33.324  1.00  0.00     0.029 A 
ATOM     57  C   UNL A   1      45.325  28.071  32.384  1.00  0.00     0.049 A 
ATOM     58  H   UNL A   1      43.497  28.369  31.371  1.00  0.00     0.167 HD
ATOM     59  C   UNL A   1      45.096  26.080  30.927  1.00  0.00     0.074 A 
ATOM     60  C   UNL A   1      45.555  24.814  30.395  1.00  0.00     0.031 C 
ATOM     61  C   UNL A   1      45.772  26.812  31.847  1.00  0.00     0.037 A 
BRANCH  48  62
ATOM     62  C   UNL A   1      42.944  32.072  33.416  1.00  0.00     0.064 A 
ATOM     63  C   UNL A   1      42.392  32.137  34.705  1.00  0.00     0.173 A 
ATOM     64  C   UNL A   1      43.564  33.224  32.909  1.00  0.00     0.173 A 
ATOM     65  F   UNL A   1      41.780  31.066  35.231  1.00  0.00    -0.203 F 
ATOM     66  C   UNL A   1      42.433  33.316  35.443  1.00  0.00     0.198 A 
ATOM     67  C   UNL A   1      43.626  34.394  33.661  1.00  0.00     0.198 A 
ATOM     68  F   UNL A   1      44.113  33.214  31.685  1.00  0.00    -0.203 F 
ATOM     69  F   UNL A   1      41.857  33.369  36.652  1.00  0.00    -0.200 F 
ATOM     70  C   UNL A   1      43.055  34.442  34.924  1.00  0.00     0.200 A 
ATOM     71  F   UNL A   1      44.239  35.478  33.163  1.00  0.00    -0.200 F 
ATOM     72  F   UNL A   1      43.098  35.576  35.638  1.00  0.00    -0.200 F 
ENDBRANCH  48  62
BRANCH  49  73
ATOM     73  C   UNL A   1      42.429  23.924  27.711  1.00  0.00     0.064 A 
ATOM     74  C   UNL A   1      41.955  22.701  28.205  1.00  0.00     0.173 A 
ATOM     75  C   UNL A   1      42.842  23.974  26.372  1.00  0.00     0.173 A 
ATOM     76  F   UNL A   1      41.570  22.601  29.486  1.00  0.00    -0.203 F 
ATOM     77  C   UNL A   1      41.911  21.567  27.397  1.00  0.00     0.198 A 
ATOM     78  C   UNL A   1      42.775  22.845  25.558  1.00  0.00     0.198 A 
ATOM     79  F   UNL A   1      43.301  25.122  25.852  1.00  0.00    -0.203 F 
ATOM     80  F   UNL A   1      41.492  20.401  27.904  1.00  0.00    -0.200 F 
ATOM     81  C   UNL A   1      42.316  21.642  26.072  1.00  0.00     0.200 A 
ATOM     82  F   UNL A   1      43.155  22.924  24.275  1.00  0.00    -0.200 F 
ATOM     83  F   UNL A   1      42.269  20.553  25.294  1.00  0.00    -0.200 F 
ENDBRANCH  49  73
BRANCH  61  84
ATOM     84  C   UNL A   1      47.070  26.252  32.350  1.00  0.00     0.064 A 
ATOM     85  C   UNL A   1      48.291  26.569  31.738  1.00  0.00     0.173 A 
ATOM     86  C   UNL A   1      47.094  25.411  33.472  1.00  0.00     0.173 A 
ATOM     87  F   UNL A   1      48.318  27.357  30.653  1.00  0.00    -0.203 F 
ATOM     88  C   UNL A   1      49.488  26.043  32.216  1.00  0.00     0.198 A 
ATOM     89  C   UNL A   1      48.296  24.908  33.964  1.00  0.00     0.198 A 
ATOM     90  F   UNL A   1      45.953  25.082  34.097  1.00  0.00    -0.203 F 
ATOM     91  F   UNL A   1      50.639  26.322  31.588  1.00  0.00    -0.200 F 
ATOM     92  C   UNL A   1      49.491  25.218  33.331  1.00  0.00     0.200 A 
ATOM     93  F   UNL A   1      48.297  24.118  35.046  1.00  0.00    -0.200 F 
ATOM     94  F   UNL A   1      50.643  24.713  33.791  1.00  0.00    -0.200 F 
ENDBRANCH  61  84
ENDBRANCH  35  36
ENDBRANCH  27  30
ENDBRANCH  25  26
ENDBRANCH   1  25
TORSDOF 12
ENDMDL
