MODEL 1
REMARK VINA RESULT:      -9.8      0.000      0.000
REMARK SMILES Cc1cc(C)cc(C[N@@H+]2CCO[C@@H](CC(=O)NCCCNC(=O)c3ccc(-c4c5nc(c(-c6c(F)c(F)c(F)c(F)c6F)c6ccc([nH]6)c(-c6c(F)c(F)c(F)c(F)c6F)c6nc(c(-c7c(F)c(F)c(F)c(F)c7F)c7ccc4[nH]7)C=C6)C=C5)cc3)C2)c1
REMARK SMILES IDX 18 1 17 2 15 3 16 4 14 6 13 7 9 8 10 9 87 10 11 12 12 13
REMARK SMILES IDX 8 14 7 15 1 16 2 17 3 18 88 19 4 20 5 21 6 22 19 23 20 24
REMARK SMILES IDX 21 25 22 26 23 28 24 29 25 30 86 31 26 32 85 33 27 34 28 35
REMARK SMILES IDX 29 36 79 37 30 38 84 39 78 40 80 41 31 42 83 43 77 44 76 45
REMARK SMILES IDX 32 47 64 48 44 49 63 50 45 51 48 52 62 53 81 54 46 55 47 56
REMARK SMILES IDX 61 58 82 59 49 60 33 61 34 62 42 63 35 64 36 65 40 66 43 67
REMARK SMILES IDX 37 68 38 69 41 70 39 71 65 72 66 73 74 74 67 75 68 76 72 77
REMARK SMILES IDX 75 78 69 79 70 80 73 81 71 82 50 83 51 84 59 85 52 86 53 87
REMARK SMILES IDX 57 88 60 89 54 90 55 91 58 92 56 93
REMARK H PARENT 17 5 9 11 21 27 80 46 48 57
REMARK Flexibility Score: inf
ROOT
ATOM      1  C   UNL A   1      35.558  33.945  30.867  1.00  0.00     0.117 C 
ENDROOT
BRANCH   1   2
ATOM      2  N   UNL A   1      35.224  35.033  31.780  1.00  0.00    -0.356 N 
ATOM      3  C   UNL A   1      35.157  35.062  33.144  1.00  0.00     0.222 C 
ATOM      4  O   UNL A   1      34.800  36.111  33.683  1.00  0.00    -0.275 OA
ATOM      5  H   UNL A   1      35.014  35.888  31.340  1.00  0.00     0.163 HD
BRANCH   3   6
ATOM      6  C   UNL A   1      35.475  33.828  33.958  1.00  0.00     0.138 C 
BRANCH   6   7
ATOM      7  C   UNL A   1      36.958  33.716  34.314  1.00  0.00     0.182 C 
ATOM      8  N   UNL A   1      39.168  32.684  33.511  1.00  0.00    -0.327 N 
ATOM      9  C   UNL A   1      39.736  34.026  33.678  1.00  0.00     0.291 C 
ATOM     10  C   UNL A   1      37.710  32.746  33.381  1.00  0.00     0.295 C 
ATOM     11  H   UNL A   1      39.541  32.349  32.623  1.00  0.00     0.348 HD
ATOM     12  C   UNL A   1      38.918  35.010  34.540  1.00  0.00     0.222 C 
ATOM     13  O   UNL A   1      37.531  35.033  34.178  1.00  0.00    -0.366 OA
BRANCH   8  14
ATOM     14  C   UNL A   1      39.674  31.626  34.391  1.00  0.00     0.299 C 
BRANCH  14  15
ATOM     15  C   UNL A   1      40.155  30.374  33.702  1.00  0.00     0.007 A 
ATOM     16  C   UNL A   1      38.689  27.240  32.101  1.00  0.00     0.044 C 
ATOM     17  C   UNL A   1      39.672  28.233  32.648  1.00  0.00    -0.050 A 
ATOM     18  C   UNL A   1      41.022  27.883  32.777  1.00  0.00     0.006 A 
ATOM     19  C   UNL A   1      39.245  29.479  33.118  1.00  0.00     0.013 A 
ATOM     20  C   UNL A   1      41.947  28.777  33.330  1.00  0.00    -0.050 A 
ATOM     21  C   UNL A   1      43.367  28.358  33.559  1.00  0.00     0.044 C 
ATOM     22  C   UNL A   1      41.511  30.039  33.741  1.00  0.00     0.013 A 
ENDBRANCH  14  15
ENDBRANCH   8  14
ENDBRANCH   6   7
ENDBRANCH   3   6
ENDBRANCH   1   2
BRANCH   1  23
ATOM     23  C   UNL A   1      34.362  33.502  30.022  1.00  0.00     0.042 C 
BRANCH  23  24
ATOM     24  C   UNL A   1      34.735  32.954  28.653  1.00  0.00     0.118 C 
BRANCH  24  25
ATOM     25  N   UNL A   1      34.001  31.738  28.351  1.00  0.00    -0.352 N 
ATOM     26  C   UNL A   1      34.466  30.491  28.017  1.00  0.00     0.251 C 
ATOM     27  H   UNL A   1      33.022  31.821  28.392  1.00  0.00     0.163 HD
ATOM     28  O   UNL A   1      33.685  29.677  27.522  1.00  0.00    -0.269 OA
BRANCH  26  29
ATOM     29  C   UNL A   1      35.882  30.098  28.231  1.00  0.00     0.039 A 
ATOM     30  C   UNL A   1      36.267  29.651  29.500  1.00  0.00     0.014 A 
ATOM     31  C   UNL A   1      36.852  30.254  27.237  1.00  0.00     0.014 A 
ATOM     32  C   UNL A   1      37.605  29.336  29.761  1.00  0.00     0.010 A 
ATOM     33  C   UNL A   1      38.173  29.867  27.475  1.00  0.00     0.010 A 
ATOM     34  C   UNL A   1      38.569  29.428  28.746  1.00  0.00    -0.014 A 
BRANCH  34  35
ATOM     35  C   UNL A   1      40.000  29.117  29.012  1.00  0.00     0.031 A 
ATOM     36  C   UNL A   1      40.874  30.122  29.716  1.00  0.00     0.074 A 
ATOM     37  C   UNL A   1      40.529  27.954  28.587  1.00  0.00     0.049 A 
ATOM     38  N   UNL A   1      42.156  30.066  29.982  1.00  0.00    -0.248 NA
ATOM     39  C   UNL A   1      40.227  31.367  30.157  1.00  0.00     0.031 C 
ATOM     40  C   UNL A   1      39.804  26.911  27.862  1.00  0.00     0.029 A 
ATOM     41  N   UNL A   1      41.805  27.459  28.695  1.00  0.00    -0.354 N 
ATOM     42  C   UNL A   1      42.469  31.270  30.599  1.00  0.00     0.074 A 
ATOM     43  C   UNL A   1      41.254  32.057  30.628  1.00  0.00     0.031 C 
ATOM     44  C   UNL A   1      40.640  25.891  27.607  1.00  0.00     0.029 A 
ATOM     45  C   UNL A   1      41.966  26.221  28.121  1.00  0.00     0.049 A 
ATOM     46  H   UNL A   1      42.535  27.944  29.143  1.00  0.00     0.167 HD
ATOM     47  C   UNL A   1      43.654  31.677  31.114  1.00  0.00     0.037 A 
ATOM     48  C   UNL A   1      43.061  25.444  28.014  1.00  0.00     0.037 A 
ATOM     49  C   UNL A   1      44.853  30.881  31.122  1.00  0.00     0.049 A 
ATOM     50  C   UNL A   1      44.362  25.914  28.604  1.00  0.00     0.074 A 
ATOM     51  C   UNL A   1      46.085  31.180  31.679  1.00  0.00     0.029 A 
ATOM     52  N   UNL A   1      44.970  29.623  30.548  1.00  0.00    -0.354 N 
ATOM     53  N   UNL A   1      44.630  27.030  29.235  1.00  0.00    -0.248 NA
ATOM     54  C   UNL A   1      45.514  25.009  28.471  1.00  0.00     0.031 C 
ATOM     55  C   UNL A   1      46.957  30.119  31.410  1.00  0.00     0.029 A 
ATOM     56  C   UNL A   1      46.257  29.142  30.722  1.00  0.00     0.049 A 
ATOM     57  H   UNL A   1      44.245  29.144  30.086  1.00  0.00     0.167 HD
ATOM     58  C   UNL A   1      45.969  26.954  29.594  1.00  0.00     0.074 A 
ATOM     59  C   UNL A   1      46.457  25.675  29.123  1.00  0.00     0.031 C 
ATOM     60  C   UNL A   1      46.726  27.863  30.255  1.00  0.00     0.037 A 
BRANCH  47  61
ATOM     61  C   UNL A   1      43.714  33.049  31.720  1.00  0.00     0.064 A 
ATOM     62  C   UNL A   1      43.652  33.240  33.109  1.00  0.00     0.173 A 
ATOM     63  C   UNL A   1      43.874  34.180  30.907  1.00  0.00     0.173 A 
ATOM     64  F   UNL A   1      43.488  32.192  33.929  1.00  0.00    -0.203 F 
ATOM     65  C   UNL A   1      43.720  34.518  33.658  1.00  0.00     0.198 A 
ATOM     66  C   UNL A   1      43.970  35.454  31.461  1.00  0.00     0.198 A 
ATOM     67  F   UNL A   1      43.947  34.050  29.573  1.00  0.00    -0.203 F 
ATOM     68  F   UNL A   1      43.612  34.682  34.984  1.00  0.00    -0.200 F 
ATOM     69  C   UNL A   1      43.885  35.622  32.835  1.00  0.00     0.200 A 
ATOM     70  F   UNL A   1      44.141  36.518  30.667  1.00  0.00    -0.200 F 
ATOM     71  F   UNL A   1      43.957  36.851  33.367  1.00  0.00    -0.200 F 
ENDBRANCH  47  61
BRANCH  48  72
ATOM     72  C   UNL A   1      42.965  24.123  27.341  1.00  0.00     0.064 A 
ATOM     73  C   UNL A   1      42.560  22.985  28.049  1.00  0.00     0.173 A 
ATOM     74  C   UNL A   1      43.276  23.973  25.982  1.00  0.00     0.173 A 
ATOM     75  F   UNL A   1      42.274  23.076  29.357  1.00  0.00    -0.203 F 
ATOM     76  C   UNL A   1      42.484  21.740  27.428  1.00  0.00     0.198 A 
ATOM     77  C   UNL A   1      43.176  22.733  25.355  1.00  0.00     0.198 A 
ATOM     78  F   UNL A   1      43.667  25.034  25.261  1.00  0.00    -0.203 F 
ATOM     79  F   UNL A   1      42.133  20.660  28.137  1.00  0.00    -0.200 F 
ATOM     80  C   UNL A   1      42.786  21.616  26.080  1.00  0.00     0.200 A 
ATOM     81  F   UNL A   1      43.458  22.619  24.050  1.00  0.00    -0.200 F 
ATOM     82  F   UNL A   1      42.709  20.420  25.481  1.00  0.00    -0.200 F 
ENDBRANCH  48  72
BRANCH  60  83
ATOM     83  C   UNL A   1      48.154  27.498  30.533  1.00  0.00     0.064 A 
ATOM     84  C   UNL A   1      48.518  26.786  31.685  1.00  0.00     0.173 A 
ATOM     85  C   UNL A   1      49.163  27.831  29.617  1.00  0.00     0.173 A 
ATOM     86  F   UNL A   1      47.590  26.459  32.598  1.00  0.00    -0.203 F 
ATOM     87  C   UNL A   1      49.845  26.438  31.920  1.00  0.00     0.198 A 
ATOM     88  C   UNL A   1      50.485  27.458  29.842  1.00  0.00     0.198 A 
ATOM     89  F   UNL A   1      48.865  28.507  28.498  1.00  0.00    -0.203 F 
ATOM     90  F   UNL A   1      50.177  25.793  33.047  1.00  0.00    -0.200 F 
ATOM     91  C   UNL A   1      50.827  26.768  30.996  1.00  0.00     0.200 A 
ATOM     92  F   UNL A   1      51.430  27.769  28.944  1.00  0.00    -0.200 F 
ATOM     93  F   UNL A   1      52.102  26.427  31.222  1.00  0.00    -0.200 F 
ENDBRANCH  60  83
ENDBRANCH  34  35
ENDBRANCH  26  29
ENDBRANCH  24  25
ENDBRANCH  23  24
ENDBRANCH   1  23
TORSDOF 13
ENDMDL
MODEL 2
REMARK VINA RESULT:      -9.8      3.880     10.538
REMARK SMILES Cc1cc(C)cc(C[N@@H+]2CCO[C@@H](CC(=O)NCCCNC(=O)c3ccc(-c4c5nc(c(-c6c(F)c(F)c(F)c(F)c6F)c6ccc([nH]6)c(-c6c(F)c(F)c(F)c(F)c6F)c6nc(c(-c7c(F)c(F)c(F)c(F)c7F)c7ccc4[nH]7)C=C6)C=C5)cc3)C2)c1
REMARK SMILES IDX 18 1 17 2 15 3 16 4 14 6 13 7 9 8 10 9 87 10 11 12 12 13
REMARK SMILES IDX 8 14 7 15 1 16 2 17 3 18 88 19 4 20 5 21 6 22 19 23 20 24
REMARK SMILES IDX 21 25 22 26 23 28 24 29 25 30 86 31 26 32 85 33 27 34 28 35
REMARK SMILES IDX 29 36 79 37 30 38 84 39 78 40 80 41 31 42 83 43 77 44 76 45
REMARK SMILES IDX 32 47 64 48 44 49 63 50 45 51 48 52 62 53 81 54 46 55 47 56
REMARK SMILES IDX 61 58 82 59 49 60 33 61 34 62 42 63 35 64 36 65 40 66 43 67
REMARK SMILES IDX 37 68 38 69 41 70 39 71 65 72 66 73 74 74 67 75 68 76 72 77
REMARK SMILES IDX 75 78 69 79 70 80 73 81 71 82 50 83 51 84 59 85 52 86 53 87
REMARK SMILES IDX 57 88 60 89 54 90 55 91 58 92 56 93
REMARK H PARENT 17 5 9 11 21 27 80 46 48 57
REMARK Flexibility Score: inf
ROOT
ATOM      1  C   UNL A   1      43.342  21.872  26.311  1.00  0.00     0.117 C 
ENDROOT
BRANCH   1   2
ATOM      2  N   UNL A   1      44.553  21.129  25.981  1.00  0.00    -0.356 N 
ATOM      3  C   UNL A   1      45.593  21.443  25.153  1.00  0.00     0.222 C 
ATOM      4  O   UNL A   1      46.488  20.609  25.008  1.00  0.00    -0.275 OA
ATOM      5  H   UNL A   1      44.634  20.256  26.429  1.00  0.00     0.163 HD
BRANCH   3   6
ATOM      6  C   UNL A   1      45.619  22.760  24.412  1.00  0.00     0.138 C 
BRANCH   6   7
ATOM      7  C   UNL A   1      46.165  23.911  25.260  1.00  0.00     0.182 C 
ATOM      8  N   UNL A   1      45.425  25.941  26.647  1.00  0.00    -0.327 N 
ATOM      9  C   UNL A   1      46.291  25.404  27.703  1.00  0.00     0.291 C 
ATOM     10  C   UNL A   1      45.058  24.894  25.691  1.00  0.00     0.295 C 
ATOM     11  H   UNL A   1      44.573  26.230  27.127  1.00  0.00     0.348 HD
ATOM     12  C   UNL A   1      47.328  24.351  27.264  1.00  0.00     0.222 C 
ATOM     13  O   UNL A   1      46.756  23.328  26.440  1.00  0.00    -0.366 OA
BRANCH   8  14
ATOM     14  C   UNL A   1      45.807  27.225  26.054  1.00  0.00     0.299 C 
BRANCH  14  15
ATOM     15  C   UNL A   1      44.839  28.361  26.270  1.00  0.00     0.007 A 
ATOM     16  C   UNL A   1      44.570  31.541  28.357  1.00  0.00     0.044 C 
ATOM     17  C   UNL A   1      44.225  30.413  27.428  1.00  0.00    -0.050 A 
ATOM     18  C   UNL A   1      42.909  30.256  26.975  1.00  0.00     0.006 A 
ATOM     19  C   UNL A   1      45.184  29.458  27.076  1.00  0.00     0.013 A 
ATOM     20  C   UNL A   1      42.557  29.184  26.148  1.00  0.00    -0.050 A 
ATOM     21  C   UNL A   1      41.128  28.965  25.751  1.00  0.00     0.044 C 
ATOM     22  C   UNL A   1      43.541  28.272  25.759  1.00  0.00     0.013 A 
ENDBRANCH  14  15
ENDBRANCH   8  14
ENDBRANCH   6   7
ENDBRANCH   3   6
ENDBRANCH   1   2
BRANCH   1  23
ATOM     23  C   UNL A   1      42.079  21.017  26.197  1.00  0.00     0.042 C 
BRANCH  23  24
ATOM     24  C   UNL A   1      40.894  21.544  26.992  1.00  0.00     0.118 C 
BRANCH  24  25
ATOM     25  N   UNL A   1      39.771  21.855  26.126  1.00  0.00    -0.352 N 
ATOM     26  C   UNL A   1      38.936  22.944  26.126  1.00  0.00     0.251 C 
ATOM     27  H   UNL A   1      39.580  21.183  25.433  1.00  0.00     0.163 HD
ATOM     28  O   UNL A   1      37.877  22.882  25.500  1.00  0.00    -0.269 OA
BRANCH  26  29
ATOM     29  C   UNL A   1      39.272  24.189  26.861  1.00  0.00     0.039 A 
ATOM     30  C   UNL A   1      40.073  25.145  26.226  1.00  0.00     0.014 A 
ATOM     31  C   UNL A   1      38.893  24.389  28.192  1.00  0.00     0.014 A 
ATOM     32  C   UNL A   1      40.468  26.301  26.909  1.00  0.00     0.010 A 
ATOM     33  C   UNL A   1      39.222  25.578  28.847  1.00  0.00     0.010 A 
ATOM     34  C   UNL A   1      40.034  26.535  28.222  1.00  0.00    -0.014 A 
BRANCH  34  35
ATOM     35  C   UNL A   1      40.461  27.748  28.970  1.00  0.00     0.031 A 
ATOM     36  C   UNL A   1      41.861  27.847  29.517  1.00  0.00     0.074 A 
ATOM     37  C   UNL A   1      39.584  28.745  29.198  1.00  0.00     0.049 A 
ATOM     38  N   UNL A   1      42.403  28.789  30.247  1.00  0.00    -0.248 NA
ATOM     39  C   UNL A   1      42.766  26.723  29.224  1.00  0.00     0.031 C 
ATOM     40  C   UNL A   1      38.190  28.761  28.757  1.00  0.00     0.029 A 
ATOM     41  N   UNL A   1      39.735  29.935  29.866  1.00  0.00    -0.354 N 
ATOM     42  C   UNL A   1      43.697  28.364  30.517  1.00  0.00     0.074 A 
ATOM     43  C   UNL A   1      43.847  27.058  29.911  1.00  0.00     0.031 C 
ATOM     44  C   UNL A   1      37.618  29.911  29.149  1.00  0.00     0.029 A 
ATOM     45  C   UNL A   1      38.594  30.698  29.896  1.00  0.00     0.049 A 
ATOM     46  H   UNL A   1      40.582  30.214  30.284  1.00  0.00     0.167 HD
ATOM     47  C   UNL A   1      44.680  29.009  31.190  1.00  0.00     0.037 A 
ATOM     48  C   UNL A   1      38.359  31.895  30.468  1.00  0.00     0.037 A 
ATOM     49  C   UNL A   1      44.548  30.325  31.760  1.00  0.00     0.049 A 
ATOM     50  C   UNL A   1      39.470  32.597  31.201  1.00  0.00     0.074 A 
ATOM     51  C   UNL A   1      45.506  31.088  32.403  1.00  0.00     0.029 A 
ATOM     52  N   UNL A   1      43.380  31.074  31.751  1.00  0.00    -0.354 N 
ATOM     53  N   UNL A   1      40.706  32.208  31.399  1.00  0.00    -0.248 NA
ATOM     54  C   UNL A   1      39.153  33.909  31.784  1.00  0.00     0.031 C 
ATOM     55  C   UNL A   1      44.910  32.284  32.815  1.00  0.00     0.029 A 
ATOM     56  C   UNL A   1      43.591  32.283  32.393  1.00  0.00     0.049 A 
ATOM     57  H   UNL A   1      42.529  30.788  31.348  1.00  0.00     0.167 HD
ATOM     58  C   UNL A   1      41.319  33.233  32.107  1.00  0.00     0.074 A 
ATOM     59  C   UNL A   1      40.324  34.268  32.292  1.00  0.00     0.031 C 
ATOM     60  C   UNL A   1      42.593  33.308  32.563  1.00  0.00     0.037 A 
BRANCH  47  61
ATOM     61  C   UNL A   1      45.996  28.303  31.345  1.00  0.00     0.064 A 
ATOM     62  C   UNL A   1      47.086  28.590  30.510  1.00  0.00     0.173 A 
ATOM     63  C   UNL A   1      46.181  27.357  32.364  1.00  0.00     0.173 A 
ATOM     64  F   UNL A   1      46.957  29.479  29.513  1.00  0.00    -0.203 F 
ATOM     65  C   UNL A   1      48.304  27.936  30.672  1.00  0.00     0.198 A 
ATOM     66  C   UNL A   1      47.408  26.725  32.542  1.00  0.00     0.198 A 
ATOM     67  F   UNL A   1      45.172  27.052  33.195  1.00  0.00    -0.203 F 
ATOM     68  F   UNL A   1      49.317  28.192  29.833  1.00  0.00    -0.200 F 
ATOM     69  C   UNL A   1      48.466  27.009  31.690  1.00  0.00     0.200 A 
ATOM     70  F   UNL A   1      47.567  25.839  33.533  1.00  0.00    -0.200 F 
ATOM     71  F   UNL A   1      49.642  26.384  31.849  1.00  0.00    -0.200 F 
ENDBRANCH  47  61
BRANCH  48  72
ATOM     72  C   UNL A   1      37.017  32.520  30.347  1.00  0.00     0.064 A 
ATOM     73  C   UNL A   1      36.684  33.290  29.225  1.00  0.00     0.173 A 
ATOM     74  C   UNL A   1      36.045  32.362  31.345  1.00  0.00     0.173 A 
ATOM     75  F   UNL A   1      37.588  33.488  28.255  1.00  0.00    -0.203 F 
ATOM     76  C   UNL A   1      35.432  33.893  29.112  1.00  0.00     0.198 A 
ATOM     77  C   UNL A   1      34.786  32.944  31.220  1.00  0.00     0.198 A 
ATOM     78  F   UNL A   1      36.317  31.633  32.437  1.00  0.00    -0.203 F 
ATOM     79  F   UNL A   1      35.152  34.657  28.048  1.00  0.00    -0.200 F 
ATOM     80  C   UNL A   1      34.482  33.714  30.107  1.00  0.00     0.200 A 
ATOM     81  F   UNL A   1      33.867  32.761  32.178  1.00  0.00    -0.200 F 
ATOM     82  F   UNL A   1      33.278  34.290  29.997  1.00  0.00    -0.200 F 
ENDBRANCH  48  72
BRANCH  60  83
ATOM     83  C   UNL A   1      42.994  34.562  33.282  1.00  0.00     0.064 A 
ATOM     84  C   UNL A   1      43.404  35.707  32.586  1.00  0.00     0.173 A 
ATOM     85  C   UNL A   1      42.929  34.628  34.682  1.00  0.00     0.173 A 
ATOM     86  F   UNL A   1      43.498  35.686  31.247  1.00  0.00    -0.203 F 
ATOM     87  C   UNL A   1      43.755  36.869  33.267  1.00  0.00     0.198 A 
ATOM     88  C   UNL A   1      43.255  35.800  35.358  1.00  0.00     0.198 A 
ATOM     89  F   UNL A   1      42.537  33.561  35.393  1.00  0.00    -0.203 F 
ATOM     90  F   UNL A   1      44.184  37.940  32.584  1.00  0.00    -0.200 F 
ATOM     91  C   UNL A   1      43.674  36.918  34.651  1.00  0.00     0.200 A 
ATOM     92  F   UNL A   1      43.166  35.849  36.694  1.00  0.00    -0.200 F 
ATOM     93  F   UNL A   1      44.007  38.039  35.303  1.00  0.00    -0.200 F 
ENDBRANCH  60  83
ENDBRANCH  34  35
ENDBRANCH  26  29
ENDBRANCH  24  25
ENDBRANCH  23  24
ENDBRANCH   1  23
TORSDOF 13
ENDMDL
MODEL 3
REMARK VINA RESULT:      -9.7      4.183     10.426
REMARK SMILES Cc1cc(C)cc(C[N@@H+]2CCO[C@@H](CC(=O)NCCCNC(=O)c3ccc(-c4c5nc(c(-c6c(F)c(F)c(F)c(F)c6F)c6ccc([nH]6)c(-c6c(F)c(F)c(F)c(F)c6F)c6nc(c(-c7c(F)c(F)c(F)c(F)c7F)c7ccc4[nH]7)C=C6)C=C5)cc3)C2)c1
REMARK SMILES IDX 18 1 17 2 15 3 16 4 14 6 13 7 9 8 10 9 87 10 11 12 12 13
REMARK SMILES IDX 8 14 7 15 1 16 2 17 3 18 88 19 4 20 5 21 6 22 19 23 20 24
REMARK SMILES IDX 21 25 22 26 23 28 24 29 25 30 86 31 26 32 85 33 27 34 28 35
REMARK SMILES IDX 29 36 79 37 30 38 84 39 78 40 80 41 31 42 83 43 77 44 76 45
REMARK SMILES IDX 32 47 64 48 44 49 63 50 45 51 48 52 62 53 81 54 46 55 47 56
REMARK SMILES IDX 61 58 82 59 49 60 33 61 34 62 42 63 35 64 36 65 40 66 43 67
REMARK SMILES IDX 37 68 38 69 41 70 39 71 65 72 66 73 74 74 67 75 68 76 72 77
REMARK SMILES IDX 75 78 69 79 70 80 73 81 71 82 50 83 51 84 59 85 52 86 53 87
REMARK SMILES IDX 57 88 60 89 54 90 55 91 58 92 56 93
REMARK H PARENT 17 5 9 11 21 27 80 46 48 57
REMARK Flexibility Score: inf
ROOT
ATOM      1  C   UNL A   1      31.394  30.871  26.410  1.00  0.00     0.117 C 
ENDROOT
BRANCH   1   2
ATOM      2  N   UNL A   1      32.495  30.227  27.118  1.00  0.00    -0.356 N 
ATOM      3  C   UNL A   1      33.398  29.293  26.698  1.00  0.00     0.222 C 
ATOM      4  O   UNL A   1      34.215  28.869  27.518  1.00  0.00    -0.275 OA
ATOM      5  H   UNL A   1      32.605  30.514  28.053  1.00  0.00     0.163 HD
BRANCH   3   6
ATOM      6  C   UNL A   1      33.367  28.772  25.280  1.00  0.00     0.138 C 
BRANCH   6   7
ATOM      7  C   UNL A   1      32.685  27.407  25.162  1.00  0.00     0.182 C 
ATOM      8  N   UNL A   1      33.075  24.900  25.558  1.00  0.00    -0.327 N 
ATOM      9  C   UNL A   1      31.803  24.923  26.287  1.00  0.00     0.291 C 
ATOM     10  C   UNL A   1      33.650  26.245  25.469  1.00  0.00     0.295 C 
ATOM     11  H   UNL A   1      33.700  24.338  26.136  1.00  0.00     0.348 HD
ATOM     12  C   UNL A   1      30.895  26.144  26.036  1.00  0.00     0.222 C 
ATOM     13  O   UNL A   1      31.608  27.384  26.122  1.00  0.00    -0.366 OA
BRANCH   8  14
ATOM     14  C   UNL A   1      33.127  24.114  24.322  1.00  0.00     0.299 C 
BRANCH  14  15
ATOM     15  C   UNL A   1      33.819  22.778  24.424  1.00  0.00     0.007 A 
ATOM     16  C   UNL A   1      32.925  19.128  25.069  1.00  0.00     0.044 C 
ATOM     17  C   UNL A   1      33.719  20.381  24.842  1.00  0.00    -0.050 A 
ATOM     18  C   UNL A   1      35.111  20.367  25.000  1.00  0.00     0.006 A 
ATOM     19  C   UNL A   1      33.079  21.592  24.559  1.00  0.00     0.013 A 
ATOM     20  C   UNL A   1      35.864  21.536  24.840  1.00  0.00    -0.050 A 
ATOM     21  C   UNL A   1      37.338  21.535  25.112  1.00  0.00     0.044 C 
ATOM     22  C   UNL A   1      35.214  22.724  24.501  1.00  0.00     0.013 A 
ENDBRANCH  14  15
ENDBRANCH   8  14
ENDBRANCH   6   7
ENDBRANCH   3   6
ENDBRANCH   1   2
BRANCH   1  23
ATOM     23  C   UNL A   1      31.404  32.392  26.570  1.00  0.00     0.042 C 
BRANCH  23  24
ATOM     24  C   UNL A   1      32.690  32.950  27.158  1.00  0.00     0.118 C 
BRANCH  24  25
ATOM     25  N   UNL A   1      32.512  34.312  27.629  1.00  0.00    -0.352 N 
ATOM     26  C   UNL A   1      33.024  34.931  28.741  1.00  0.00     0.251 C 
ATOM     27  H   UNL A   1      31.936  34.876  27.065  1.00  0.00     0.163 HD
ATOM     28  O   UNL A   1      32.526  35.995  29.113  1.00  0.00    -0.269 OA
BRANCH  26  29
ATOM     29  C   UNL A   1      34.157  34.355  29.508  1.00  0.00     0.039 A 
ATOM     30  C   UNL A   1      35.455  34.531  29.017  1.00  0.00     0.014 A 
ATOM     31  C   UNL A   1      33.957  33.566  30.645  1.00  0.00     0.014 A 
ATOM     32  C   UNL A   1      36.544  33.946  29.673  1.00  0.00     0.010 A 
ATOM     33  C   UNL A   1      35.049  33.047  31.344  1.00  0.00     0.010 A 
ATOM     34  C   UNL A   1      36.352  33.209  30.852  1.00  0.00    -0.014 A 
BRANCH  34  35
ATOM     35  C   UNL A   1      37.495  32.563  31.551  1.00  0.00     0.031 A 
ATOM     36  C   UNL A   1      38.222  31.411  30.908  1.00  0.00     0.074 A 
ATOM     37  C   UNL A   1      37.856  32.977  32.780  1.00  0.00     0.049 A 
ATOM     38  N   UNL A   1      39.198  30.676  31.381  1.00  0.00    -0.248 NA
ATOM     39  C   UNL A   1      37.777  31.017  29.562  1.00  0.00     0.031 C 
ATOM     40  C   UNL A   1      37.214  34.055  33.532  1.00  0.00     0.029 A 
ATOM     41  N   UNL A   1      38.849  32.533  33.619  1.00  0.00    -0.354 N 
ATOM     42  C   UNL A   1      39.466  29.726  30.405  1.00  0.00     0.074 A 
ATOM     43  C   UNL A   1      38.521  29.947  29.331  1.00  0.00     0.031 C 
ATOM     44  C   UNL A   1      37.839  34.201  34.711  1.00  0.00     0.029 A 
ATOM     45  C   UNL A   1      38.904  33.208  34.813  1.00  0.00     0.049 A 
ATOM     46  H   UNL A   1      39.463  31.799  33.386  1.00  0.00     0.167 HD
ATOM     47  C   UNL A   1      40.424  28.768  30.393  1.00  0.00     0.037 A 
ATOM     48  C   UNL A   1      39.718  33.042  35.874  1.00  0.00     0.037 A 
ATOM     49  C   UNL A   1      41.391  28.571  31.442  1.00  0.00     0.049 A 
ATOM     50  C   UNL A   1      40.781  31.978  35.832  1.00  0.00     0.074 A 
ATOM     51  C   UNL A   1      42.441  27.671  31.490  1.00  0.00     0.029 A 
ATOM     52  N   UNL A   1      41.426  29.291  32.627  1.00  0.00    -0.354 N 
ATOM     53  N   UNL A   1      41.060  31.124  34.878  1.00  0.00    -0.248 NA
ATOM     54  C   UNL A   1      41.648  31.862  37.014  1.00  0.00     0.031 C 
ATOM     55  C   UNL A   1      43.090  27.821  32.720  1.00  0.00     0.029 A 
ATOM     56  C   UNL A   1      42.470  28.842  33.420  1.00  0.00     0.049 A 
ATOM     57  H   UNL A   1      40.802  30.013  32.868  1.00  0.00     0.167 HD
ATOM     58  C   UNL A   1      42.145  30.386  35.332  1.00  0.00     0.074 A 
ATOM     59  C   UNL A   1      42.484  30.902  36.642  1.00  0.00     0.031 C 
ATOM     60  C   UNL A   1      42.800  29.371  34.718  1.00  0.00     0.037 A 
BRANCH  47  61
ATOM     61  C   UNL A   1      40.482  27.857  29.201  1.00  0.00     0.064 A 
ATOM     62  C   UNL A   1      39.697  26.696  29.128  1.00  0.00     0.173 A 
ATOM     63  C   UNL A   1      41.300  28.168  28.106  1.00  0.00     0.173 A 
ATOM     64  F   UNL A   1      38.907  26.348  30.154  1.00  0.00    -0.203 F 
ATOM     65  C   UNL A   1      39.752  25.865  28.011  1.00  0.00     0.198 A 
ATOM     66  C   UNL A   1      41.331  27.350  26.979  1.00  0.00     0.198 A 
ATOM     67  F   UNL A   1      42.064  29.271  28.123  1.00  0.00    -0.203 F 
ATOM     68  F   UNL A   1      39.029  24.737  27.981  1.00  0.00    -0.200 F 
ATOM     69  C   UNL A   1      40.563  26.196  26.936  1.00  0.00     0.200 A 
ATOM     70  F   UNL A   1      42.106  27.677  25.937  1.00  0.00    -0.200 F 
ATOM     71  F   UNL A   1      40.609  25.399  25.859  1.00  0.00    -0.200 F 
ENDBRANCH  47  61
BRANCH  48  72
ATOM     72  C   UNL A   1      39.574  33.924  37.061  1.00  0.00     0.064 A 
ATOM     73  C   UNL A   1      38.790  33.532  38.154  1.00  0.00     0.173 A 
ATOM     74  C   UNL A   1      40.213  35.170  37.126  1.00  0.00     0.173 A 
ATOM     75  F   UNL A   1      38.142  32.358  38.128  1.00  0.00    -0.203 F 
ATOM     76  C   UNL A   1      38.638  34.361  39.264  1.00  0.00     0.198 A 
ATOM     77  C   UNL A   1      40.079  35.988  38.246  1.00  0.00     0.198 A 
ATOM     78  F   UNL A   1      40.974  35.588  36.105  1.00  0.00    -0.203 F 
ATOM     79  F   UNL A   1      37.851  33.980  40.278  1.00  0.00    -0.200 F 
ATOM     80  C   UNL A   1      39.287  35.585  39.311  1.00  0.00     0.200 A 
ATOM     81  F   UNL A   1      40.717  37.165  38.293  1.00  0.00    -0.200 F 
ATOM     82  F   UNL A   1      39.144  36.381  40.379  1.00  0.00    -0.200 F 
ENDBRANCH  48  72
BRANCH  60  83
ATOM     83  C   UNL A   1      43.968  28.769  35.441  1.00  0.00     0.064 A 
ATOM     84  C   UNL A   1      45.270  29.257  35.267  1.00  0.00     0.173 A 
ATOM     85  C   UNL A   1      43.775  27.717  36.349  1.00  0.00     0.173 A 
ATOM     86  F   UNL A   1      45.507  30.252  34.398  1.00  0.00    -0.203 F 
ATOM     87  C   UNL A   1      46.342  28.700  35.960  1.00  0.00     0.198 A 
ATOM     88  C   UNL A   1      44.844  27.179  37.059  1.00  0.00     0.198 A 
ATOM     89  F   UNL A   1      42.547  27.217  36.555  1.00  0.00    -0.203 F 
ATOM     90  F   UNL A   1      47.585  29.155  35.747  1.00  0.00    -0.200 F 
ATOM     91  C   UNL A   1      46.128  27.667  36.861  1.00  0.00     0.200 A 
ATOM     92  F   UNL A   1      44.634  26.188  37.937  1.00  0.00    -0.200 F 
ATOM     93  F   UNL A   1      47.159  27.136  37.530  1.00  0.00    -0.200 F 
ENDBRANCH  60  83
ENDBRANCH  34  35
ENDBRANCH  26  29
ENDBRANCH  24  25
ENDBRANCH  23  24
ENDBRANCH   1  23
TORSDOF 13
ENDMDL
