MODEL 1
REMARK VINA RESULT:     -12.5      0.000      0.000
REMARK SMILES O=C(NCCCNC(=O)c1noc(-c2ccccc2Cl)n1)c1ccc(-c2c3nc(c(-c4c(F)c(F)c(F)c(F)c4F)c4ccc([nH]4)c(-c4c(F)c(F)c(F)c(F)c4F)c4nc(c(-c5c(F)c(F)c(F)c(F)c5F)c5ccc2[nH]5)C=C4)C=C3)cc1
REMARK SMILES IDX 4 1 3 2 1 3 2 4 22 6 23 7 84 8 24 9 83 10 25 11 26 12 27 13
REMARK SMILES IDX 77 14 28 15 82 16 76 17 78 18 29 19 81 20 75 21 74 22 30 24
REMARK SMILES IDX 62 25 42 26 61 27 43 28 46 29 60 30 79 31 44 32 45 33 59 35
REMARK SMILES IDX 80 36 47 37 31 38 32 39 40 40 33 41 34 42 38 43 41 44 35 45
REMARK SMILES IDX 36 46 39 47 37 48 63 49 64 50 72 51 65 52 66 53 70 54 73 55
REMARK SMILES IDX 67 56 68 57 71 58 69 59 48 60 49 61 57 62 50 63 51 64 55 65
REMARK SMILES IDX 58 66 52 67 53 68 56 69 54 70 5 71 6 72 7 73 8 74 9 76 10 77
REMARK SMILES IDX 11 78 21 79 12 80 13 81 14 82 15 83 19 84 16 85 18 86 20 87
REMARK SMILES IDX 17 88
REMARK H PARENT 3 5 78 23 46 34 7 75
REMARK Flexibility Score: inf
ROOT
ATOM      1  C   UNL A   1      33.274  29.000  25.438  1.00  0.00     0.118 C 
ENDROOT
BRANCH   1   2
ATOM      2  N   UNL A   1      32.788  30.302  25.879  1.00  0.00    -0.352 N 
ATOM      3  O   UNL A   1      32.545  32.090  27.220  1.00  0.00    -0.269 OA
ATOM      4  C   UNL A   1      33.217  31.114  26.899  1.00  0.00     0.251 C 
ATOM      5  H   UNL A   1      32.029  30.656  25.361  1.00  0.00     0.163 HD
BRANCH   4   6
ATOM      6  C   UNL A   1      34.472  30.819  27.626  1.00  0.00     0.039 A 
ATOM      7  C   UNL A   1      34.712  29.555  28.164  1.00  0.00     0.014 A 
ATOM      8  C   UNL A   1      35.450  31.815  27.727  1.00  0.00     0.014 A 
ATOM      9  C   UNL A   1      35.854  29.332  28.926  1.00  0.00     0.010 A 
ATOM     10  C   UNL A   1      36.641  31.562  28.416  1.00  0.00     0.010 A 
ATOM     11  C   UNL A   1      36.839  30.326  29.048  1.00  0.00    -0.014 A 
BRANCH  11  12
ATOM     12  C   UNL A   1      38.083  30.012  29.796  1.00  0.00     0.031 A 
ATOM     13  C   UNL A   1      38.302  30.513  31.195  1.00  0.00     0.074 A 
ATOM     14  C   UNL A   1      38.996  29.211  29.214  1.00  0.00     0.049 A 
ATOM     15  N   UNL A   1      39.296  30.264  32.013  1.00  0.00    -0.248 NA
ATOM     16  C   UNL A   1      37.284  31.417  31.750  1.00  0.00     0.031 C 
ATOM     17  C   UNL A   1      38.905  28.688  27.849  1.00  0.00     0.029 A 
ATOM     18  N   UNL A   1      40.159  28.671  29.699  1.00  0.00    -0.354 N 
ATOM     19  C   UNL A   1      39.026  30.981  33.171  1.00  0.00     0.074 A 
ATOM     20  C   UNL A   1      37.793  31.703  32.941  1.00  0.00     0.031 C 
ATOM     21  C   UNL A   1      39.935  27.858  27.626  1.00  0.00     0.029 A 
ATOM     22  C   UNL A   1      40.783  27.827  28.812  1.00  0.00     0.049 A 
ATOM     23  H   UNL A   1      40.512  28.867  30.597  1.00  0.00     0.167 HD
ATOM     24  C   UNL A   1      39.738  31.022  34.323  1.00  0.00     0.037 A 
ATOM     25  C   UNL A   1      41.913  27.109  28.938  1.00  0.00     0.037 A 
ATOM     26  C   UNL A   1      40.960  30.294  34.552  1.00  0.00     0.049 A 
ATOM     27  C   UNL A   1      42.670  27.162  30.233  1.00  0.00     0.074 A 
ATOM     28  C   UNL A   1      41.751  30.269  35.688  1.00  0.00     0.029 A 
ATOM     29  N   UNL A   1      41.566  29.458  33.626  1.00  0.00    -0.354 N 
ATOM     30  N   UNL A   1      42.392  27.828  31.326  1.00  0.00    -0.248 NA
ATOM     31  C   UNL A   1      43.900  26.362  30.312  1.00  0.00     0.031 C 
ATOM     32  C   UNL A   1      42.851  29.440  35.438  1.00  0.00     0.029 A 
ATOM     33  C   UNL A   1      42.725  28.919  34.162  1.00  0.00     0.049 A 
ATOM     34  H   UNL A   1      41.224  29.275  32.721  1.00  0.00     0.167 HD
ATOM     35  C   UNL A   1      43.405  27.528  32.223  1.00  0.00     0.074 A 
ATOM     36  C   UNL A   1      44.288  26.592  31.558  1.00  0.00     0.031 C 
ATOM     37  C   UNL A   1      43.595  27.995  33.481  1.00  0.00     0.037 A 
BRANCH  24  38
ATOM     38  C   UNL A   1      39.213  31.883  35.434  1.00  0.00     0.064 A 
ATOM     39  C   UNL A   1      38.388  31.360  36.439  1.00  0.00     0.173 A 
ATOM     40  C   UNL A   1      39.586  33.233  35.527  1.00  0.00     0.173 A 
ATOM     41  F   UNL A   1      37.994  30.078  36.389  1.00  0.00    -0.203 F 
ATOM     42  C   UNL A   1      37.942  32.158  37.489  1.00  0.00     0.198 A 
ATOM     43  C   UNL A   1      39.158  34.023  36.591  1.00  0.00     0.198 A 
ATOM     44  F   UNL A   1      40.378  33.782  34.594  1.00  0.00    -0.203 F 
ATOM     45  F   UNL A   1      37.128  31.644  38.421  1.00  0.00    -0.200 F 
ATOM     46  C   UNL A   1      38.333  33.486  37.568  1.00  0.00     0.200 A 
ATOM     47  F   UNL A   1      39.543  35.304  36.671  1.00  0.00    -0.200 F 
ATOM     48  F   UNL A   1      37.911  34.251  38.585  1.00  0.00    -0.200 F 
ENDBRANCH  24  38
BRANCH  25  49
ATOM     49  C   UNL A   1      42.386  26.276  27.803  1.00  0.00     0.064 A 
ATOM     50  C   UNL A   1      41.859  24.998  27.575  1.00  0.00     0.173 A 
ATOM     51  C   UNL A   1      43.362  26.752  26.915  1.00  0.00     0.173 A 
ATOM     52  F   UNL A   1      40.937  24.495  28.408  1.00  0.00    -0.203 F 
ATOM     53  C   UNL A   1      42.304  24.219  26.509  1.00  0.00     0.198 A 
ATOM     54  C   UNL A   1      43.785  25.983  25.834  1.00  0.00     0.198 A 
ATOM     55  F   UNL A   1      43.890  27.972  27.089  1.00  0.00    -0.203 F 
ATOM     56  F   UNL A   1      41.814  22.984  26.335  1.00  0.00    -0.200 F 
ATOM     57  C   UNL A   1      43.261  24.715  25.636  1.00  0.00     0.200 A 
ATOM     58  F   UNL A   1      44.697  26.472  24.984  1.00  0.00    -0.200 F 
ATOM     59  F   UNL A   1      43.682  23.968  24.606  1.00  0.00    -0.200 F 
ENDBRANCH  25  49
BRANCH  37  60
ATOM     60  C   UNL A   1      44.801  27.491  34.213  1.00  0.00     0.064 A 
ATOM     61  C   UNL A   1      44.749  26.320  34.984  1.00  0.00     0.173 A 
ATOM     62  C   UNL A   1      46.022  28.177  34.135  1.00  0.00     0.173 A 
ATOM     63  F   UNL A   1      43.599  25.640  35.103  1.00  0.00    -0.203 F 
ATOM     64  C   UNL A   1      45.871  25.870  35.676  1.00  0.00     0.198 A 
ATOM     65  C   UNL A   1      47.147  27.710  34.808  1.00  0.00     0.198 A 
ATOM     66  F   UNL A   1      46.122  29.298  33.407  1.00  0.00    -0.203 F 
ATOM     67  F   UNL A   1      45.787  24.777  36.447  1.00  0.00    -0.200 F 
ATOM     68  C   UNL A   1      47.069  26.563  35.583  1.00  0.00     0.200 A 
ATOM     69  F   UNL A   1      48.307  28.376  34.712  1.00  0.00    -0.200 F 
ATOM     70  F   UNL A   1      48.147  26.130  36.251  1.00  0.00    -0.200 F 
ENDBRANCH  37  60
ENDBRANCH  11  12
ENDBRANCH   4   6
ENDBRANCH   1   2
BRANCH   1  71
ATOM     71  C   UNL A   1      32.220  27.908  25.577  1.00  0.00     0.042 C 
BRANCH  71  72
ATOM     72  C   UNL A   1      31.719  27.379  24.236  1.00  0.00     0.118 C 
BRANCH  72  73
ATOM     73  N   UNL A   1      32.459  27.957  23.124  1.00  0.00    -0.349 N 
ATOM     74  C   UNL A   1      33.436  27.375  22.335  1.00  0.00     0.292 C 
ATOM     75  H   UNL A   1      32.233  28.889  22.903  1.00  0.00     0.163 HD
ATOM     76  O   UNL A   1      34.118  28.118  21.626  1.00  0.00    -0.266 OA
BRANCH  74  77
ATOM     77  C   UNL A   1      33.621  25.921  22.391  1.00  0.00     0.260 A 
ATOM     78  N   UNL A   1      33.198  25.088  21.421  1.00  0.00    -0.051 NA
ATOM     79  N   UNL A   1      34.265  25.280  23.431  1.00  0.00    -0.182 NA
ATOM     80  O   UNL A   1      33.653  23.833  21.844  1.00  0.00    -0.333 OA
ATOM     81  C   UNL A   1      34.269  24.030  23.043  1.00  0.00     0.259 A 
BRANCH  81  82
ATOM     82  C   UNL A   1      34.932  22.893  23.650  1.00  0.00     0.058 A 
ATOM     83  C   UNL A   1      36.338  22.842  23.644  1.00  0.00     0.015 A 
ATOM     84  C   UNL A   1      34.222  21.894  24.332  1.00  0.00     0.053 A 
ATOM     85  C   UNL A   1      37.017  21.828  24.319  1.00  0.00     0.001 A 
ATOM     86  C   UNL A   1      34.907  20.874  25.001  1.00  0.00     0.021 A 
ATOM     87  Cl  UNL A   1      32.494  21.854  24.376  1.00  0.00    -0.083 Cl
ATOM     88  C   UNL A   1      36.302  20.846  25.001  1.00  0.00     0.002 A 
ENDBRANCH  81  82
ENDBRANCH  74  77
ENDBRANCH  72  73
ENDBRANCH  71  72
ENDBRANCH   1  71
TORSDOF 11
ENDMDL
MODEL 2
REMARK VINA RESULT:     -12.5      0.294      1.195
REMARK SMILES O=C(NCCCNC(=O)c1noc(-c2ccccc2Cl)n1)c1ccc(-c2c3nc(c(-c4c(F)c(F)c(F)c(F)c4F)c4ccc([nH]4)c(-c4c(F)c(F)c(F)c(F)c4F)c4nc(c(-c5c(F)c(F)c(F)c(F)c5F)c5ccc2[nH]5)C=C4)C=C3)cc1
REMARK SMILES IDX 4 1 3 2 1 3 2 4 22 6 23 7 84 8 24 9 83 10 25 11 26 12 27 13
REMARK SMILES IDX 77 14 28 15 82 16 76 17 78 18 29 19 81 20 75 21 74 22 30 24
REMARK SMILES IDX 62 25 42 26 61 27 43 28 46 29 60 30 79 31 44 32 45 33 59 35
REMARK SMILES IDX 80 36 47 37 31 38 32 39 40 40 33 41 34 42 38 43 41 44 35 45
REMARK SMILES IDX 36 46 39 47 37 48 63 49 64 50 72 51 65 52 66 53 70 54 73 55
REMARK SMILES IDX 67 56 68 57 71 58 69 59 48 60 49 61 57 62 50 63 51 64 55 65
REMARK SMILES IDX 58 66 52 67 53 68 56 69 54 70 5 71 6 72 7 73 8 74 9 76 10 77
REMARK SMILES IDX 11 78 21 79 12 80 13 81 14 82 15 83 19 84 16 85 18 86 20 87
REMARK SMILES IDX 17 88
REMARK H PARENT 3 5 78 23 46 34 7 75
REMARK Flexibility Score: inf
ROOT
ATOM      1  C   UNL A   1      33.257  29.074  25.454  1.00  0.00     0.118 C 
ENDROOT
BRANCH   1   2
ATOM      2  N   UNL A   1      32.747  30.365  25.899  1.00  0.00    -0.352 N 
ATOM      3  O   UNL A   1      32.480  32.149  27.240  1.00  0.00    -0.269 OA
ATOM      4  C   UNL A   1      33.171  31.189  26.912  1.00  0.00     0.251 C 
ATOM      5  H   UNL A   1      31.972  30.699  25.391  1.00  0.00     0.163 HD
BRANCH   4   6
ATOM      6  C   UNL A   1      34.443  30.925  27.621  1.00  0.00     0.039 A 
ATOM      7  C   UNL A   1      34.740  29.658  28.120  1.00  0.00     0.014 A 
ATOM      8  C   UNL A   1      35.380  31.959  27.744  1.00  0.00     0.014 A 
ATOM      9  C   UNL A   1      35.896  29.461  28.867  1.00  0.00     0.010 A 
ATOM     10  C   UNL A   1      36.585  31.736  28.417  1.00  0.00     0.010 A 
ATOM     11  C   UNL A   1      36.840  30.492  29.012  1.00  0.00    -0.014 A 
BRANCH  11  12
ATOM     12  C   UNL A   1      38.102  30.208  29.741  1.00  0.00     0.031 A 
ATOM     13  C   UNL A   1      38.321  30.700  31.144  1.00  0.00     0.074 A 
ATOM     14  C   UNL A   1      39.033  29.443  29.139  1.00  0.00     0.049 A 
ATOM     15  N   UNL A   1      39.332  30.473  31.948  1.00  0.00    -0.248 NA
ATOM     16  C   UNL A   1      37.282  31.564  31.721  1.00  0.00     0.031 C 
ATOM     17  C   UNL A   1      38.942  28.933  27.769  1.00  0.00     0.029 A 
ATOM     18  N   UNL A   1      40.218  28.934  29.605  1.00  0.00    -0.354 N 
ATOM     19  C   UNL A   1      39.053  31.168  33.117  1.00  0.00     0.074 A 
ATOM     20  C   UNL A   1      37.795  31.853  32.910  1.00  0.00     0.031 C 
ATOM     21  C   UNL A   1      39.995  28.139  27.525  1.00  0.00     0.029 A 
ATOM     22  C   UNL A   1      40.857  28.121  28.701  1.00  0.00     0.049 A 
ATOM     23  H   UNL A   1      40.575  29.131  30.501  1.00  0.00     0.167 HD
ATOM     24  C   UNL A   1      39.777  31.217  34.261  1.00  0.00     0.037 A 
ATOM     25  C   UNL A   1      42.011  27.438  28.805  1.00  0.00     0.037 A 
ATOM     26  C   UNL A   1      41.024  30.526  34.468  1.00  0.00     0.049 A 
ATOM     27  C   UNL A   1      42.781  27.500  30.092  1.00  0.00     0.074 A 
ATOM     28  C   UNL A   1      41.829  30.512  35.594  1.00  0.00     0.029 A 
ATOM     29  N   UNL A   1      41.646  29.720  33.524  1.00  0.00    -0.354 N 
ATOM     30  N   UNL A   1      42.495  28.144  31.196  1.00  0.00    -0.248 NA
ATOM     31  C   UNL A   1      44.037  26.738  30.147  1.00  0.00     0.031 C 
ATOM     32  C   UNL A   1      42.951  29.722  35.322  1.00  0.00     0.029 A 
ATOM     33  C   UNL A   1      42.827  29.212  34.041  1.00  0.00     0.049 A 
ATOM     34  H   UNL A   1      41.298  29.537  32.621  1.00  0.00     0.167 HD
ATOM     35  C   UNL A   1      43.527  27.866  32.078  1.00  0.00     0.074 A 
ATOM     36  C   UNL A   1      44.432  26.966  31.391  1.00  0.00     0.031 C 
ATOM     37  C   UNL A   1      43.717  28.323  33.339  1.00  0.00     0.037 A 
BRANCH  24  38
ATOM     38  C   UNL A   1      39.239  32.049  35.388  1.00  0.00     0.064 A 
ATOM     39  C   UNL A   1      38.440  31.488  36.395  1.00  0.00     0.173 A 
ATOM     40  C   UNL A   1      39.572  33.408  35.495  1.00  0.00     0.173 A 
ATOM     41  F   UNL A   1      38.082  30.197  36.331  1.00  0.00    -0.203 F 
ATOM     42  C   UNL A   1      37.981  32.260  37.459  1.00  0.00     0.198 A 
ATOM     43  C   UNL A   1      39.132  34.171  36.573  1.00  0.00     0.198 A 
ATOM     44  F   UNL A   1      40.339  33.991  34.561  1.00  0.00    -0.203 F 
ATOM     45  F   UNL A   1      37.191  31.710  38.392  1.00  0.00    -0.200 F 
ATOM     46  C   UNL A   1      38.334  33.598  37.551  1.00  0.00     0.200 A 
ATOM     47  F   UNL A   1      39.481  35.461  36.667  1.00  0.00    -0.200 F 
ATOM     48  F   UNL A   1      37.899  34.337  38.582  1.00  0.00    -0.200 F 
ENDBRANCH  24  38
BRANCH  25  49
ATOM     49  C   UNL A   1      42.496  26.634  27.655  1.00  0.00     0.064 A 
ATOM     50  C   UNL A   1      43.460  27.141  26.773  1.00  0.00     0.173 A 
ATOM     51  C   UNL A   1      42.017  25.336  27.427  1.00  0.00     0.173 A 
ATOM     52  F   UNL A   1      43.934  28.384  26.942  1.00  0.00    -0.203 F 
ATOM     53  C   UNL A   1      43.914  26.384  25.695  1.00  0.00     0.198 A 
ATOM     54  C   UNL A   1      42.492  24.570  26.366  1.00  0.00     0.198 A 
ATOM     55  F   UNL A   1      41.099  24.805  28.248  1.00  0.00    -0.203 F 
ATOM     56  F   UNL A   1      44.806  26.906  24.843  1.00  0.00    -0.200 F 
ATOM     57  C   UNL A   1      43.435  25.097  25.496  1.00  0.00     0.200 A 
ATOM     58  F   UNL A   1      42.040  23.322  26.188  1.00  0.00    -0.200 F 
ATOM     59  F   UNL A   1      43.879  24.368  24.464  1.00  0.00    -0.200 F 
ENDBRANCH  25  49
BRANCH  37  60
ATOM     60  C   UNL A   1      44.947  27.850  34.051  1.00  0.00     0.064 A 
ATOM     61  C   UNL A   1      44.941  26.669  34.808  1.00  0.00     0.173 A 
ATOM     62  C   UNL A   1      46.145  28.575  33.968  1.00  0.00     0.173 A 
ATOM     63  F   UNL A   1      43.815  25.951  34.931  1.00  0.00    -0.203 F 
ATOM     64  C   UNL A   1      46.085  26.247  35.481  1.00  0.00     0.198 A 
ATOM     65  C   UNL A   1      47.292  28.137  34.623  1.00  0.00     0.198 A 
ATOM     66  F   UNL A   1      46.200  29.708  33.253  1.00  0.00    -0.203 F 
ATOM     67  F   UNL A   1      46.045  25.142  36.239  1.00  0.00    -0.200 F 
ATOM     68  C   UNL A   1      47.260  26.979  35.384  1.00  0.00     0.200 A 
ATOM     69  F   UNL A   1      48.428  28.840  34.522  1.00  0.00    -0.200 F 
ATOM     70  F   UNL A   1      48.358  26.572  36.035  1.00  0.00    -0.200 F 
ENDBRANCH  37  60
ENDBRANCH  11  12
ENDBRANCH   4   6
ENDBRANCH   1   2
BRANCH   1  71
ATOM     71  C   UNL A   1      32.242  27.951  25.638  1.00  0.00     0.042 C 
BRANCH  71  72
ATOM     72  C   UNL A   1      31.796  27.320  24.322  1.00  0.00     0.118 C 
BRANCH  72  73
ATOM     73  N   UNL A   1      32.512  27.886  23.188  1.00  0.00    -0.349 N 
ATOM     74  C   UNL A   1      33.459  27.290  22.374  1.00  0.00     0.292 C 
ATOM     75  H   UNL A   1      32.292  28.820  22.971  1.00  0.00     0.163 HD
ATOM     76  O   UNL A   1      34.130  28.023  21.644  1.00  0.00    -0.266 OA
BRANCH  74  77
ATOM     77  C   UNL A   1      33.627  25.834  22.428  1.00  0.00     0.260 A 
ATOM     78  N   UNL A   1      33.188  25.007  21.461  1.00  0.00    -0.051 NA
ATOM     79  N   UNL A   1      34.271  25.185  23.463  1.00  0.00    -0.182 NA
ATOM     80  O   UNL A   1      33.630  23.746  21.880  1.00  0.00    -0.333 OA
ATOM     81  C   UNL A   1      34.257  23.935  23.075  1.00  0.00     0.259 A 
BRANCH  81  82
ATOM     82  C   UNL A   1      34.911  22.790  23.675  1.00  0.00     0.058 A 
ATOM     83  C   UNL A   1      36.316  22.719  23.652  1.00  0.00     0.015 A 
ATOM     84  C   UNL A   1      34.195  21.804  24.369  1.00  0.00     0.053 A 
ATOM     85  C   UNL A   1      36.988  21.696  24.321  1.00  0.00     0.001 A 
ATOM     86  C   UNL A   1      34.874  20.775  25.033  1.00  0.00     0.021 A 
ATOM     87  Cl  UNL A   1      32.467  21.790  24.436  1.00  0.00    -0.083 Cl
ATOM     88  C   UNL A   1      36.268  20.727  25.015  1.00  0.00     0.002 A 
ENDBRANCH  81  82
ENDBRANCH  74  77
ENDBRANCH  72  73
ENDBRANCH  71  72
ENDBRANCH   1  71
TORSDOF 11
ENDMDL
MODEL 3
REMARK VINA RESULT:     -12.5      3.957      7.005
REMARK SMILES O=C(NCCCNC(=O)c1noc(-c2ccccc2Cl)n1)c1ccc(-c2c3nc(c(-c4c(F)c(F)c(F)c(F)c4F)c4ccc([nH]4)c(-c4c(F)c(F)c(F)c(F)c4F)c4nc(c(-c5c(F)c(F)c(F)c(F)c5F)c5ccc2[nH]5)C=C4)C=C3)cc1
REMARK SMILES IDX 4 1 3 2 1 3 2 4 22 6 23 7 84 8 24 9 83 10 25 11 26 12 27 13
REMARK SMILES IDX 77 14 28 15 82 16 76 17 78 18 29 19 81 20 75 21 74 22 30 24
REMARK SMILES IDX 62 25 42 26 61 27 43 28 46 29 60 30 79 31 44 32 45 33 59 35
REMARK SMILES IDX 80 36 47 37 31 38 32 39 40 40 33 41 34 42 38 43 41 44 35 45
REMARK SMILES IDX 36 46 39 47 37 48 63 49 64 50 72 51 65 52 66 53 70 54 73 55
REMARK SMILES IDX 67 56 68 57 71 58 69 59 48 60 49 61 57 62 50 63 51 64 55 65
REMARK SMILES IDX 58 66 52 67 53 68 56 69 54 70 5 71 6 72 7 73 8 74 9 76 10 77
REMARK SMILES IDX 11 78 21 79 12 80 13 81 14 82 15 83 19 84 16 85 18 86 20 87
REMARK SMILES IDX 17 88
REMARK H PARENT 3 5 78 23 46 34 7 75
REMARK Flexibility Score: inf
ROOT
ATOM      1  C   UNL A   1      34.805  33.962  29.008  1.00  0.00     0.118 C 
ENDROOT
BRANCH   1   2
ATOM      2  N   UNL A   1      34.170  32.877  28.270  1.00  0.00    -0.352 N 
ATOM      3  O   UNL A   1      34.014  30.949  27.123  1.00  0.00    -0.269 OA
ATOM      4  C   UNL A   1      34.652  31.642  27.910  1.00  0.00     0.251 C 
ATOM      5  H   UNL A   1      33.246  33.060  27.981  1.00  0.00     0.163 HD
BRANCH   4   6
ATOM      6  C   UNL A   1      35.936  31.144  28.449  1.00  0.00     0.039 A 
ATOM      7  C   UNL A   1      37.097  31.913  28.370  1.00  0.00     0.014 A 
ATOM      8  C   UNL A   1      35.968  29.901  29.093  1.00  0.00     0.014 A 
ATOM      9  C   UNL A   1      38.311  31.382  28.795  1.00  0.00     0.010 A 
ATOM     10  C   UNL A   1      37.173  29.406  29.603  1.00  0.00     0.010 A 
ATOM     11  C   UNL A   1      38.361  30.130  29.430  1.00  0.00    -0.014 A 
BRANCH  11  12
ATOM     12  C   UNL A   1      39.665  29.643  29.949  1.00  0.00     0.031 A 
ATOM     13  C   UNL A   1      40.268  30.211  31.202  1.00  0.00     0.074 A 
ATOM     14  C   UNL A   1      40.274  28.630  29.303  1.00  0.00     0.049 A 
ATOM     15  N   UNL A   1      41.358  29.844  31.831  1.00  0.00    -0.248 NA
ATOM     16  C   UNL A   1      39.569  31.342  31.830  1.00  0.00     0.031 C 
ATOM     17  C   UNL A   1      39.797  28.019  28.061  1.00  0.00     0.029 A 
ATOM     18  N   UNL A   1      41.403  27.916  29.612  1.00  0.00    -0.354 N 
ATOM     19  C   UNL A   1      41.477  30.698  32.919  1.00  0.00     0.074 A 
ATOM     20  C   UNL A   1      40.368  31.625  32.850  1.00  0.00     0.031 C 
ATOM     21  C   UNL A   1      40.593  26.986  27.746  1.00  0.00     0.029 A 
ATOM     22  C   UNL A   1      41.661  26.893  28.734  1.00  0.00     0.049 A 
ATOM     23  H   UNL A   1      41.973  28.116  30.390  1.00  0.00     0.167 HD
ATOM     24  C   UNL A   1      42.420  30.698  33.892  1.00  0.00     0.037 A 
ATOM     25  C   UNL A   1      42.649  25.980  28.722  1.00  0.00     0.037 A 
ATOM     26  C   UNL A   1      43.517  29.766  33.965  1.00  0.00     0.049 A 
ATOM     27  C   UNL A   1      43.669  25.996  29.823  1.00  0.00     0.074 A 
ATOM     28  C   UNL A   1      44.521  29.685  34.914  1.00  0.00     0.029 A 
ATOM     29  N   UNL A   1      43.751  28.750  33.049  1.00  0.00    -0.354 N 
ATOM     30  N   UNL A   1      43.757  26.796  30.857  1.00  0.00    -0.248 NA
ATOM     31  C   UNL A   1      44.728  24.979  29.757  1.00  0.00     0.031 C 
ATOM     32  C   UNL A   1      45.378  28.637  34.558  1.00  0.00     0.029 A 
ATOM     33  C   UNL A   1      44.887  28.042  33.408  1.00  0.00     0.049 A 
ATOM     34  H   UNL A   1      43.192  28.560  32.261  1.00  0.00     0.167 HD
ATOM     35  C   UNL A   1      44.873  26.382  31.565  1.00  0.00     0.074 A 
ATOM     36  C   UNL A   1      45.413  25.236  30.861  1.00  0.00     0.031 C 
ATOM     37  C   UNL A   1      45.412  26.909  32.691  1.00  0.00     0.037 A 
BRANCH  24  38
ATOM     38  C   UNL A   1      42.309  31.739  34.967  1.00  0.00     0.064 A 
ATOM     39  C   UNL A   1      43.063  32.920  34.922  1.00  0.00     0.173 A 
ATOM     40  C   UNL A   1      41.399  31.580  36.023  1.00  0.00     0.173 A 
ATOM     41  F   UNL A   1      43.955  33.114  33.939  1.00  0.00    -0.203 F 
ATOM     42  C   UNL A   1      42.921  33.899  35.902  1.00  0.00     0.198 A 
ATOM     43  C   UNL A   1      41.243  32.571  36.990  1.00  0.00     0.198 A 
ATOM     44  F   UNL A   1      40.650  30.471  36.110  1.00  0.00    -0.203 F 
ATOM     45  F   UNL A   1      43.675  35.006  35.856  1.00  0.00    -0.200 F 
ATOM     46  C   UNL A   1      42.006  33.727  36.930  1.00  0.00     0.200 A 
ATOM     47  F   UNL A   1      40.352  32.409  37.977  1.00  0.00    -0.200 F 
ATOM     48  F   UNL A   1      41.864  34.675  37.867  1.00  0.00    -0.200 F 
ENDBRANCH  24  38
BRANCH  25  49
ATOM     49  C   UNL A   1      42.710  24.976  27.631  1.00  0.00     0.064 A 
ATOM     50  C   UNL A   1      43.495  25.192  26.490  1.00  0.00     0.173 A 
ATOM     51  C   UNL A   1      41.996  23.771  27.716  1.00  0.00     0.173 A 
ATOM     52  F   UNL A   1      44.181  26.337  26.357  1.00  0.00    -0.203 F 
ATOM     53  C   UNL A   1      43.551  24.247  25.468  1.00  0.00     0.198 A 
ATOM     54  C   UNL A   1      42.075  22.816  26.706  1.00  0.00     0.198 A 
ATOM     55  F   UNL A   1      41.236  23.516  28.791  1.00  0.00    -0.203 F 
ATOM     56  F   UNL A   1      44.278  24.495  24.369  1.00  0.00    -0.200 F 
ATOM     57  C   UNL A   1      42.846  23.057  25.580  1.00  0.00     0.200 A 
ATOM     58  F   UNL A   1      41.407  21.661  26.826  1.00  0.00    -0.200 F 
ATOM     59  F   UNL A   1      42.907  22.146  24.599  1.00  0.00    -0.200 F 
ENDBRANCH  25  49
BRANCH  37  60
ATOM     60  C   UNL A   1      46.644  26.244  33.226  1.00  0.00     0.064 A 
ATOM     61  C   UNL A   1      47.925  26.684  32.864  1.00  0.00     0.173 A 
ATOM     62  C   UNL A   1      46.542  25.167  34.118  1.00  0.00     0.173 A 
ATOM     63  F   UNL A   1      48.072  27.700  32.000  1.00  0.00    -0.203 F 
ATOM     64  C   UNL A   1      49.063  26.048  33.353  1.00  0.00     0.198 A 
ATOM     65  C   UNL A   1      47.683  24.549  34.624  1.00  0.00     0.198 A 
ATOM     66  F   UNL A   1      45.338  24.714  34.497  1.00  0.00    -0.203 F 
ATOM     67  F   UNL A   1      50.278  26.451  32.955  1.00  0.00    -0.200 F 
ATOM     68  C   UNL A   1      48.940  24.984  34.236  1.00  0.00     0.200 A 
ATOM     69  F   UNL A   1      47.563  23.526  35.482  1.00  0.00    -0.200 F 
ATOM     70  F   UNL A   1      50.037  24.372  34.703  1.00  0.00    -0.200 F 
ENDBRANCH  37  60
ENDBRANCH  11  12
ENDBRANCH   4   6
ENDBRANCH   1   2
BRANCH   1  71
ATOM     71  C   UNL A   1      34.228  35.327  28.650  1.00  0.00     0.042 C 
BRANCH  71  72
ATOM     72  C   UNL A   1      32.952  35.662  29.416  1.00  0.00     0.118 C 
BRANCH  72  73
ATOM     73  N   UNL A   1      33.106  36.874  30.206  1.00  0.00    -0.349 N 
ATOM     74  C   UNL A   1      33.309  37.002  31.569  1.00  0.00     0.292 C 
ATOM     75  H   UNL A   1      33.061  37.718  29.702  1.00  0.00     0.163 HD
ATOM     76  O   UNL A   1      33.148  38.116  32.070  1.00  0.00    -0.266 OA
BRANCH  74  77
ATOM     77  C   UNL A   1      33.687  35.816  32.346  1.00  0.00     0.260 A 
ATOM     78  N   UNL A   1      32.896  34.733  32.467  1.00  0.00    -0.051 NA
ATOM     79  N   UNL A   1      34.896  35.696  33.003  1.00  0.00    -0.182 NA
ATOM     80  O   UNL A   1      33.677  33.836  33.206  1.00  0.00    -0.333 OA
ATOM     81  C   UNL A   1      34.843  34.483  33.489  1.00  0.00     0.259 A 
BRANCH  81  82
ATOM     82  C   UNL A   1      35.882  33.726  34.159  1.00  0.00     0.058 A 
ATOM     83  C   UNL A   1      36.296  34.127  35.442  1.00  0.00     0.015 A 
ATOM     84  C   UNL A   1      36.413  32.548  33.614  1.00  0.00     0.053 A 
ATOM     85  C   UNL A   1      37.205  33.359  36.169  1.00  0.00     0.001 A 
ATOM     86  C   UNL A   1      37.331  31.785  34.344  1.00  0.00     0.021 A 
ATOM     87  Cl  UNL A   1      35.986  31.984  32.036  1.00  0.00    -0.083 Cl
ATOM     88  C   UNL A   1      37.720  32.186  35.622  1.00  0.00     0.002 A 
ENDBRANCH  81  82
ENDBRANCH  74  77
ENDBRANCH  72  73
ENDBRANCH  71  72
ENDBRANCH   1  71
TORSDOF 11
ENDMDL
