MODEL 1
REMARK VINA RESULT:     -12.9      0.000      0.000
REMARK SMILES O=C(NCCCNC(=O)c1cn(C2C[NH+](CCC[C@@H]3CCCO3)C2)nn1)c1ccc(-c2c3nc(c(-c4c(F)c(F)c(F)c(F)c4F)c4ccc([nH]4)c(-c4c(F)c(F)c(F)c(F)c4F)c4nc(c(-c5c(F)c(F)c(F)c(F)c5F)c5ccc2[nH]5)C=C4)C=C3)cc1
REMARK SMILES IDX 7 1 8 2 9 3 6 5 5 6 4 7 3 8 1 9 2 10 27 12 28 13 89 14 29 15
REMARK SMILES IDX 88 16 30 17 31 18 32 19 82 20 33 21 87 22 81 23 83 24 34 25
REMARK SMILES IDX 86 26 80 27 79 28 35 30 67 31 47 32 66 33 48 34 51 35 65 36
REMARK SMILES IDX 84 37 49 38 50 39 64 41 85 42 52 43 36 44 37 45 45 46 38 47
REMARK SMILES IDX 39 48 43 49 46 50 40 51 41 52 44 53 42 54 68 55 69 56 77 57
REMARK SMILES IDX 70 58 71 59 75 60 78 61 72 62 73 63 76 64 74 65 53 66 54 67
REMARK SMILES IDX 62 68 55 69 56 70 60 71 63 72 57 73 58 74 61 75 59 76 10 77
REMARK SMILES IDX 11 78 26 79 12 80 25 81 13 82 14 83 24 84 15 85 16 87 17 88
REMARK SMILES IDX 18 89 19 90 20 91 23 92 21 93 22 94
REMARK H PARENT 7 4 3 11 83 29 51 40 15 86
REMARK Flexibility Score: inf
ROOT
ATOM      1  N   UNL A   1      31.661  29.383  23.787  1.00  0.00    -0.351 N 
ATOM      2  C   UNL A   1      31.294  28.610  22.706  1.00  0.00     0.273 C 
ATOM      3  O   UNL A   1      30.359  28.985  22.011  1.00  0.00    -0.267 OA
ATOM      4  H   UNL A   1      31.029  30.103  24.013  1.00  0.00     0.163 HD
ENDROOT
BRANCH   1   5
ATOM      5  C   UNL A   1      32.832  29.305  24.645  1.00  0.00     0.118 C 
BRANCH   5   6
ATOM      6  C   UNL A   1      32.633  30.023  25.982  1.00  0.00     0.042 C 
BRANCH   6   7
ATOM      7  C   UNL A   1      33.869  30.052  26.881  1.00  0.00     0.118 C 
BRANCH   7   8
ATOM      8  N   UNL A   1      33.822  31.052  27.927  1.00  0.00    -0.352 N 
ATOM      9  O   UNL A   1      34.348  32.605  29.394  1.00  0.00    -0.269 OA
ATOM     10  C   UNL A   1      34.736  31.614  28.770  1.00  0.00     0.251 C 
ATOM     11  H   UNL A   1      32.915  31.410  28.064  1.00  0.00     0.163 HD
BRANCH  10  12
ATOM     12  C   UNL A   1      36.101  31.090  29.049  1.00  0.00     0.039 A 
ATOM     13  C   UNL A   1      37.288  31.824  29.036  1.00  0.00     0.014 A 
ATOM     14  C   UNL A   1      36.174  29.698  29.265  1.00  0.00     0.014 A 
ATOM     15  C   UNL A   1      38.516  31.173  29.131  1.00  0.00     0.010 A 
ATOM     16  C   UNL A   1      37.394  29.044  29.362  1.00  0.00     0.010 A 
ATOM     17  C   UNL A   1      38.567  29.779  29.247  1.00  0.00    -0.014 A 
BRANCH  17  18
ATOM     18  C   UNL A   1      39.866  29.131  29.414  1.00  0.00     0.031 A 
ATOM     19  C   UNL A   1      40.285  28.982  30.839  1.00  0.00     0.074 A 
ATOM     20  C   UNL A   1      40.554  28.573  28.395  1.00  0.00     0.049 A 
ATOM     21  N   UNL A   1      41.348  29.441  31.415  1.00  0.00    -0.248 NA
ATOM     22  C   UNL A   1      39.338  28.341  31.769  1.00  0.00     0.031 C 
ATOM     23  C   UNL A   1      40.123  28.397  27.006  1.00  0.00     0.029 A 
ATOM     24  N   UNL A   1      41.770  27.953  28.410  1.00  0.00    -0.354 N 
ATOM     25  C   UNL A   1      41.293  29.003  32.739  1.00  0.00     0.074 A 
ATOM     26  C   UNL A   1      39.975  28.466  32.934  1.00  0.00     0.031 C 
ATOM     27  C   UNL A   1      40.953  27.528  26.382  1.00  0.00     0.029 A 
ATOM     28  C   UNL A   1      42.043  27.187  27.279  1.00  0.00     0.049 A 
ATOM     29  H   UNL A   1      42.403  28.040  29.159  1.00  0.00     0.167 HD
ATOM     30  C   UNL A   1      42.423  28.909  33.496  1.00  0.00     0.037 A 
ATOM     31  C   UNL A   1      43.059  26.296  27.122  1.00  0.00     0.037 A 
ATOM     32  C   UNL A   1      43.465  29.750  32.966  1.00  0.00     0.049 A 
ATOM     33  C   UNL A   1      44.082  26.600  28.152  1.00  0.00     0.074 A 
ATOM     34  C   UNL A   1      43.611  31.107  32.756  1.00  0.00     0.029 A 
ATOM     35  N   UNL A   1      44.460  29.157  32.231  1.00  0.00    -0.354 N 
ATOM     36  N   UNL A   1      44.810  27.682  28.153  1.00  0.00    -0.248 NA
ATOM     37  C   UNL A   1      43.962  25.920  29.432  1.00  0.00     0.031 C 
ATOM     38  C   UNL A   1      44.340  31.214  31.534  1.00  0.00     0.029 A 
ATOM     39  C   UNL A   1      44.652  29.923  31.112  1.00  0.00     0.049 A 
ATOM     40  H   UNL A   1      44.947  28.334  32.464  1.00  0.00     0.167 HD
ATOM     41  C   UNL A   1      44.864  28.060  29.484  1.00  0.00     0.074 A 
ATOM     42  C   UNL A   1      44.382  26.902  30.235  1.00  0.00     0.031 C 
ATOM     43  C   UNL A   1      45.020  29.370  29.834  1.00  0.00     0.037 A 
BRANCH  30  44
ATOM     44  C   UNL A   1      42.722  27.757  34.437  1.00  0.00     0.064 A 
ATOM     45  C   UNL A   1      43.185  26.541  33.888  1.00  0.00     0.173 A 
ATOM     46  C   UNL A   1      42.259  27.673  35.769  1.00  0.00     0.173 A 
ATOM     47  F   UNL A   1      43.669  26.495  32.636  1.00  0.00    -0.203 F 
ATOM     48  C   UNL A   1      43.056  25.324  34.562  1.00  0.00     0.198 A 
ATOM     49  C   UNL A   1      42.176  26.463  36.456  1.00  0.00     0.198 A 
ATOM     50  F   UNL A   1      41.768  28.727  36.428  1.00  0.00    -0.203 F 
ATOM     51  F   UNL A   1      43.364  24.181  33.935  1.00  0.00    -0.200 F 
ATOM     52  C   UNL A   1      42.533  25.284  35.840  1.00  0.00     0.200 A 
ATOM     53  F   UNL A   1      41.660  26.445  37.694  1.00  0.00    -0.200 F 
ATOM     54  F   UNL A   1      42.329  24.114  36.458  1.00  0.00    -0.200 F 
ENDBRANCH  30  44
BRANCH  31  55
ATOM     55  C   UNL A   1      43.054  25.003  26.389  1.00  0.00     0.064 A 
ATOM     56  C   UNL A   1      43.910  24.775  25.297  1.00  0.00     0.173 A 
ATOM     57  C   UNL A   1      42.420  23.867  26.928  1.00  0.00     0.173 A 
ATOM     58  F   UNL A   1      44.599  25.791  24.755  1.00  0.00    -0.203 F 
ATOM     59  C   UNL A   1      44.132  23.487  24.791  1.00  0.00     0.198 A 
ATOM     60  C   UNL A   1      42.638  22.586  26.420  1.00  0.00     0.198 A 
ATOM     61  F   UNL A   1      41.654  23.966  28.023  1.00  0.00    -0.203 F 
ATOM     62  F   UNL A   1      45.004  23.303  23.788  1.00  0.00    -0.200 F 
ATOM     63  C   UNL A   1      43.503  22.394  25.359  1.00  0.00     0.200 A 
ATOM     64  F   UNL A   1      42.055  21.530  27.008  1.00  0.00    -0.200 F 
ATOM     65  F   UNL A   1      43.761  21.154  24.917  1.00  0.00    -0.200 F 
ENDBRANCH  31  55
BRANCH  43  66
ATOM     66  C   UNL A   1      45.380  30.347  28.752  1.00  0.00     0.064 A 
ATOM     67  C   UNL A   1      44.442  30.986  27.923  1.00  0.00     0.173 A 
ATOM     68  C   UNL A   1      46.714  30.763  28.658  1.00  0.00     0.173 A 
ATOM     69  F   UNL A   1      43.135  30.717  28.023  1.00  0.00    -0.203 F 
ATOM     70  C   UNL A   1      44.832  31.971  27.017  1.00  0.00     0.198 A 
ATOM     71  C   UNL A   1      47.095  31.771  27.779  1.00  0.00     0.198 A 
ATOM     72  F   UNL A   1      47.643  30.227  29.466  1.00  0.00    -0.203 F 
ATOM     73  F   UNL A   1      43.920  32.567  26.235  1.00  0.00    -0.200 F 
ATOM     74  C   UNL A   1      46.158  32.369  26.953  1.00  0.00     0.200 A 
ATOM     75  F   UNL A   1      48.369  32.189  27.759  1.00  0.00    -0.200 F 
ATOM     76  F   UNL A   1      46.526  33.350  26.117  1.00  0.00    -0.200 F 
ENDBRANCH  43  66
ENDBRANCH  17  18
ENDBRANCH  10  12
ENDBRANCH   7   8
ENDBRANCH   6   7
ENDBRANCH   5   6
ENDBRANCH   1   5
BRANCH   2  77
ATOM     77  C   UNL A   1      32.035  27.394  22.433  1.00  0.00     0.170 A 
ATOM     78  C   UNL A   1      31.739  26.097  22.811  1.00  0.00     0.145 A 
ATOM     79  N   UNL A   1      33.197  27.393  21.707  1.00  0.00    -0.125 NA
ATOM     80  N   UNL A   1      32.834  25.388  22.412  1.00  0.00    -0.237 N 
ATOM     81  N   UNL A   1      33.681  26.161  21.709  1.00  0.00    -0.066 NA
BRANCH  80  82
ATOM     82  C   UNL A   1      33.253  24.094  22.839  1.00  0.00     0.218 C 
ATOM     83  C   UNL A   1      34.119  24.107  24.130  1.00  0.00     0.295 C 
ATOM     84  C   UNL A   1      32.268  23.280  23.701  1.00  0.00     0.295 C 
ATOM     85  N   UNL A   1      33.391  22.921  24.598  1.00  0.00    -0.331 N 
ATOM     86  H   UNL A   1      33.231  22.763  25.593  1.00  0.00     0.348 HD
BRANCH  85  87
ATOM     87  C   UNL A   1      34.049  21.639  24.279  1.00  0.00     0.262 C 
BRANCH  87  88
ATOM     88  C   UNL A   1      34.256  20.498  25.299  1.00  0.00     0.064 C 
BRANCH  88  89
ATOM     89  C   UNL A   1      33.067  19.573  25.625  1.00  0.00     0.038 C 
BRANCH  89  90
ATOM     90  C   UNL A   1      33.039  18.264  24.843  1.00  0.00     0.118 C 
ATOM     91  C   UNL A   1      34.406  17.833  24.330  1.00  0.00     0.034 C 
ATOM     92  O   UNL A   1      32.197  18.384  23.689  1.00  0.00    -0.378 OA
ATOM     93  C   UNL A   1      34.019  16.962  23.161  1.00  0.00     0.031 C 
ATOM     94  C   UNL A   1      32.826  17.703  22.596  1.00  0.00     0.160 C 
ENDBRANCH  89  90
ENDBRANCH  88  89
ENDBRANCH  87  88
ENDBRANCH  85  87
ENDBRANCH  80  82
ENDBRANCH   2  77
TORSDOF 15
ENDMDL
MODEL 2
REMARK VINA RESULT:     -12.9      3.002      9.168
REMARK SMILES O=C(NCCCNC(=O)c1cn(C2C[NH+](CCC[C@@H]3CCCO3)C2)nn1)c1ccc(-c2c3nc(c(-c4c(F)c(F)c(F)c(F)c4F)c4ccc([nH]4)c(-c4c(F)c(F)c(F)c(F)c4F)c4nc(c(-c5c(F)c(F)c(F)c(F)c5F)c5ccc2[nH]5)C=C4)C=C3)cc1
REMARK SMILES IDX 7 1 8 2 9 3 6 5 5 6 4 7 3 8 1 9 2 10 27 12 28 13 89 14 29 15
REMARK SMILES IDX 88 16 30 17 31 18 32 19 82 20 33 21 87 22 81 23 83 24 34 25
REMARK SMILES IDX 86 26 80 27 79 28 35 30 67 31 47 32 66 33 48 34 51 35 65 36
REMARK SMILES IDX 84 37 49 38 50 39 64 41 85 42 52 43 36 44 37 45 45 46 38 47
REMARK SMILES IDX 39 48 43 49 46 50 40 51 41 52 44 53 42 54 68 55 69 56 77 57
REMARK SMILES IDX 70 58 71 59 75 60 78 61 72 62 73 63 76 64 74 65 53 66 54 67
REMARK SMILES IDX 62 68 55 69 56 70 60 71 63 72 57 73 58 74 61 75 59 76 10 77
REMARK SMILES IDX 11 78 26 79 12 80 25 81 13 82 14 83 24 84 15 85 16 87 17 88
REMARK SMILES IDX 18 89 19 90 20 91 23 92 21 93 22 94
REMARK H PARENT 7 4 3 11 83 29 51 40 15 86
REMARK Flexibility Score: inf
ROOT
ATOM      1  N   UNL A   1      34.124  20.325  25.479  1.00  0.00    -0.351 N 
ATOM      2  C   UNL A   1      32.754  20.404  25.348  1.00  0.00     0.273 C 
ATOM      3  O   UNL A   1      32.108  19.365  25.347  1.00  0.00    -0.267 OA
ATOM      4  H   UNL A   1      34.495  19.416  25.397  1.00  0.00     0.163 HD
ENDROOT
BRANCH   1   5
ATOM      5  C   UNL A   1      35.108  21.367  25.720  1.00  0.00     0.118 C 
BRANCH   5   6
ATOM      6  C   UNL A   1      36.353  21.220  24.842  1.00  0.00     0.042 C 
BRANCH   6   7
ATOM      7  C   UNL A   1      37.463  22.228  25.135  1.00  0.00     0.118 C 
BRANCH   7   8
ATOM      8  N   UNL A   1      38.704  21.632  25.588  1.00  0.00    -0.352 N 
ATOM      9  O   UNL A   1      40.481  21.083  26.762  1.00  0.00    -0.269 OA
ATOM     10  C   UNL A   1      39.660  21.966  26.503  1.00  0.00     0.251 C 
ATOM     11  H   UNL A   1      38.905  20.787  25.126  1.00  0.00     0.163 HD
BRANCH  10  12
ATOM     12  C   UNL A   1      39.832  23.303  27.133  1.00  0.00     0.039 A 
ATOM     13  C   UNL A   1      38.994  24.408  26.972  1.00  0.00     0.014 A 
ATOM     14  C   UNL A   1      41.007  23.457  27.897  1.00  0.00     0.014 A 
ATOM     15  C   UNL A   1      39.373  25.653  27.470  1.00  0.00     0.010 A 
ATOM     16  C   UNL A   1      41.388  24.694  28.397  1.00  0.00     0.010 A 
ATOM     17  C   UNL A   1      40.592  25.802  28.141  1.00  0.00    -0.014 A 
BRANCH  17  18
ATOM     18  C   UNL A   1      40.929  27.104  28.711  1.00  0.00     0.031 A 
ATOM     19  C   UNL A   1      42.158  27.718  28.127  1.00  0.00     0.074 A 
ATOM     20  C   UNL A   1      40.125  27.770  29.569  1.00  0.00     0.049 A 
ATOM     21  N   UNL A   1      43.242  28.077  28.735  1.00  0.00    -0.248 NA
ATOM     22  C   UNL A   1      42.235  27.835  26.660  1.00  0.00     0.031 C 
ATOM     23  C   UNL A   1      38.769  27.414  29.994  1.00  0.00     0.029 A 
ATOM     24  N   UNL A   1      40.321  28.975  30.179  1.00  0.00    -0.354 N 
ATOM     25  C   UNL A   1      44.072  28.625  27.756  1.00  0.00     0.074 A 
ATOM     26  C   UNL A   1      43.468  28.313  26.490  1.00  0.00     0.031 C 
ATOM     27  C   UNL A   1      38.191  28.477  30.600  1.00  0.00     0.029 A 
ATOM     28  C   UNL A   1      39.171  29.543  30.722  1.00  0.00     0.049 A 
ATOM     29  H   UNL A   1      41.204  29.408  30.232  1.00  0.00     0.167 HD
ATOM     30  C   UNL A   1      45.070  29.493  28.086  1.00  0.00     0.037 A 
ATOM     31  C   UNL A   1      39.027  30.815  31.181  1.00  0.00     0.037 A 
ATOM     32  C   UNL A   1      45.441  29.344  29.470  1.00  0.00     0.049 A 
ATOM     33  C   UNL A   1      40.384  31.353  31.436  1.00  0.00     0.074 A 
ATOM     34  C   UNL A   1      45.959  28.318  30.235  1.00  0.00     0.029 A 
ATOM     35  N   UNL A   1      44.966  30.267  30.367  1.00  0.00    -0.354 N 
ATOM     36  N   UNL A   1      41.169  30.923  32.385  1.00  0.00    -0.248 NA
ATOM     37  C   UNL A   1      41.044  32.046  30.340  1.00  0.00     0.031 C 
ATOM     38  C   UNL A   1      45.318  28.445  31.503  1.00  0.00     0.029 A 
ATOM     39  C   UNL A   1      44.504  29.576  31.455  1.00  0.00     0.049 A 
ATOM     40  H   UNL A   1      44.960  31.244  30.251  1.00  0.00     0.167 HD
ATOM     41  C   UNL A   1      42.427  30.889  31.806  1.00  0.00     0.074 A 
ATOM     42  C   UNL A   1      42.301  31.656  30.567  1.00  0.00     0.031 C 
ATOM     43  C   UNL A   1      43.372  30.004  32.236  1.00  0.00     0.037 A 
BRANCH  30  44
ATOM     44  C   UNL A   1      45.403  30.746  27.296  1.00  0.00     0.064 A 
ATOM     45  C   UNL A   1      46.755  31.003  26.979  1.00  0.00     0.173 A 
ATOM     46  C   UNL A   1      44.532  31.847  27.144  1.00  0.00     0.173 A 
ATOM     47  F   UNL A   1      47.676  30.031  27.066  1.00  0.00    -0.203 F 
ATOM     48  C   UNL A   1      47.216  32.289  26.681  1.00  0.00     0.198 A 
ATOM     49  C   UNL A   1      44.990  33.118  26.799  1.00  0.00     0.198 A 
ATOM     50  F   UNL A   1      43.227  31.778  27.421  1.00  0.00    -0.203 F 
ATOM     51  F   UNL A   1      48.530  32.507  26.545  1.00  0.00    -0.200 F 
ATOM     52  C   UNL A   1      46.334  33.349  26.610  1.00  0.00     0.200 A 
ATOM     53  F   UNL A   1      44.118  34.136  26.741  1.00  0.00    -0.200 F 
ATOM     54  F   UNL A   1      46.781  34.595  26.408  1.00  0.00    -0.200 F 
ENDBRANCH  30  44
BRANCH  31  55
ATOM     55  C   UNL A   1      37.842  31.706  31.087  1.00  0.00     0.064 A 
ATOM     56  C   UNL A   1      37.372  32.175  29.846  1.00  0.00     0.173 A 
ATOM     57  C   UNL A   1      36.974  31.876  32.183  1.00  0.00     0.173 A 
ATOM     58  F   UNL A   1      38.109  32.005  28.738  1.00  0.00    -0.203 F 
ATOM     59  C   UNL A   1      36.105  32.759  29.711  1.00  0.00     0.198 A 
ATOM     60  C   UNL A   1      35.714  32.462  32.047  1.00  0.00     0.198 A 
ATOM     61  F   UNL A   1      37.290  31.386  33.389  1.00  0.00    -0.203 F 
ATOM     62  F   UNL A   1      35.669  33.138  28.500  1.00  0.00    -0.200 F 
ATOM     63  C   UNL A   1      35.275  32.892  30.809  1.00  0.00     0.200 A 
ATOM     64  F   UNL A   1      34.902  32.546  33.111  1.00  0.00    -0.200 F 
ATOM     65  F   UNL A   1      34.039  33.394  30.670  1.00  0.00    -0.200 F 
ENDBRANCH  31  55
BRANCH  43  66
ATOM     66  C   UNL A   1      43.102  29.251  33.507  1.00  0.00     0.064 A 
ATOM     67  C   UNL A   1      43.427  29.727  34.789  1.00  0.00     0.173 A 
ATOM     68  C   UNL A   1      42.349  28.073  33.427  1.00  0.00     0.173 A 
ATOM     69  F   UNL A   1      44.057  30.897  34.952  1.00  0.00    -0.203 F 
ATOM     70  C   UNL A   1      43.043  29.033  35.935  1.00  0.00     0.198 A 
ATOM     71  C   UNL A   1      41.937  27.401  34.573  1.00  0.00     0.198 A 
ATOM     72  F   UNL A   1      41.963  27.603  32.230  1.00  0.00    -0.203 F 
ATOM     73  F   UNL A   1      43.365  29.506  37.148  1.00  0.00    -0.200 F 
ATOM     74  C   UNL A   1      42.290  27.875  35.825  1.00  0.00     0.200 A 
ATOM     75  F   UNL A   1      41.164  26.312  34.462  1.00  0.00    -0.200 F 
ATOM     76  F   UNL A   1      41.879  27.233  36.928  1.00  0.00    -0.200 F 
ENDBRANCH  43  66
ENDBRANCH  17  18
ENDBRANCH  10  12
ENDBRANCH   7   8
ENDBRANCH   6   7
ENDBRANCH   5   6
ENDBRANCH   1   5
BRANCH   2  77
ATOM     77  C   UNL A   1      32.138  21.710  25.228  1.00  0.00     0.170 A 
ATOM     78  C   UNL A   1      31.834  22.422  24.083  1.00  0.00     0.145 A 
ATOM     79  N   UNL A   1      31.750  22.439  26.322  1.00  0.00    -0.125 NA
ATOM     80  N   UNL A   1      31.406  23.628  24.556  1.00  0.00    -0.237 N 
ATOM     81  N   UNL A   1      31.312  23.614  25.898  1.00  0.00    -0.066 NA
BRANCH  80  82
ATOM     82  C   UNL A   1      31.298  24.865  23.857  1.00  0.00     0.218 C 
ATOM     83  C   UNL A   1      30.058  25.711  24.264  1.00  0.00     0.295 C 
ATOM     84  C   UNL A   1      32.095  26.062  24.411  1.00  0.00     0.295 C 
ATOM     85  N   UNL A   1      30.898  26.914  24.219  1.00  0.00    -0.331 N 
ATOM     86  H   UNL A   1      30.717  27.703  24.840  1.00  0.00     0.348 HD
BRANCH  85  87
ATOM     87  C   UNL A   1      30.856  27.637  22.933  1.00  0.00     0.262 C 
BRANCH  87  88
ATOM     88  C   UNL A   1      30.144  28.992  22.728  1.00  0.00     0.064 C 
BRANCH  88  89
ATOM     89  C   UNL A   1      28.604  29.020  22.687  1.00  0.00     0.038 C 
BRANCH  89  90
ATOM     90  C   UNL A   1      27.992  30.401  22.473  1.00  0.00     0.118 C 
ATOM     91  C   UNL A   1      28.087  30.889  21.034  1.00  0.00     0.034 C 
ATOM     92  O   UNL A   1      28.664  31.380  23.274  1.00  0.00    -0.378 OA
ATOM     93  C   UNL A   1      28.014  32.383  21.227  1.00  0.00     0.031 C 
ATOM     94  C   UNL A   1      28.811  32.577  22.500  1.00  0.00     0.160 C 
ENDBRANCH  89  90
ENDBRANCH  88  89
ENDBRANCH  87  88
ENDBRANCH  85  87
ENDBRANCH  80  82
ENDBRANCH   2  77
TORSDOF 15
ENDMDL
MODEL 3
REMARK VINA RESULT:     -12.8      3.290      9.356
REMARK SMILES O=C(NCCCNC(=O)c1cn(C2C[NH+](CCC[C@@H]3CCCO3)C2)nn1)c1ccc(-c2c3nc(c(-c4c(F)c(F)c(F)c(F)c4F)c4ccc([nH]4)c(-c4c(F)c(F)c(F)c(F)c4F)c4nc(c(-c5c(F)c(F)c(F)c(F)c5F)c5ccc2[nH]5)C=C4)C=C3)cc1
REMARK SMILES IDX 7 1 8 2 9 3 6 5 5 6 4 7 3 8 1 9 2 10 27 12 28 13 89 14 29 15
REMARK SMILES IDX 88 16 30 17 31 18 32 19 82 20 33 21 87 22 81 23 83 24 34 25
REMARK SMILES IDX 86 26 80 27 79 28 35 30 67 31 47 32 66 33 48 34 51 35 65 36
REMARK SMILES IDX 84 37 49 38 50 39 64 41 85 42 52 43 36 44 37 45 45 46 38 47
REMARK SMILES IDX 39 48 43 49 46 50 40 51 41 52 44 53 42 54 68 55 69 56 77 57
REMARK SMILES IDX 70 58 71 59 75 60 78 61 72 62 73 63 76 64 74 65 53 66 54 67
REMARK SMILES IDX 62 68 55 69 56 70 60 71 63 72 57 73 58 74 61 75 59 76 10 77
REMARK SMILES IDX 11 78 26 79 12 80 25 81 13 82 14 83 24 84 15 85 16 87 17 88
REMARK SMILES IDX 18 89 19 90 20 91 23 92 21 93 22 94
REMARK H PARENT 7 4 3 11 83 29 51 40 15 86
REMARK Flexibility Score: inf
ROOT
ATOM      1  N   UNL A   1      35.296  19.665  24.952  1.00  0.00    -0.351 N 
ATOM      2  C   UNL A   1      33.988  19.407  24.601  1.00  0.00     0.273 C 
ATOM      3  O   UNL A   1      33.686  18.267  24.275  1.00  0.00    -0.267 OA
ATOM      4  H   UNL A   1      35.929  18.937  24.752  1.00  0.00     0.163 HD
ENDROOT
BRANCH   1   5
ATOM      5  C   UNL A   1      35.891  20.840  25.568  1.00  0.00     0.118 C 
BRANCH   5   6
ATOM      6  C   UNL A   1      37.275  21.167  25.004  1.00  0.00     0.042 C 
BRANCH   6   7
ATOM      7  C   UNL A   1      38.030  22.261  25.760  1.00  0.00     0.118 C 
BRANCH   7   8
ATOM      8  N   UNL A   1      39.465  22.069  25.809  1.00  0.00    -0.352 N 
ATOM      9  O   UNL A   1      41.578  22.064  26.422  1.00  0.00    -0.269 OA
ATOM     10  C   UNL A   1      40.496  22.653  26.487  1.00  0.00     0.251 C 
ATOM     11  H   UNL A   1      39.768  21.347  25.213  1.00  0.00     0.163 HD
BRANCH  10  12
ATOM     12  C   UNL A   1      40.437  23.952  27.210  1.00  0.00     0.039 A 
ATOM     13  C   UNL A   1      39.399  24.883  27.154  1.00  0.00     0.014 A 
ATOM     14  C   UNL A   1      41.592  24.278  27.950  1.00  0.00     0.014 A 
ATOM     15  C   UNL A   1      39.555  26.142  27.732  1.00  0.00     0.010 A 
ATOM     16  C   UNL A   1      41.752  25.528  28.529  1.00  0.00     0.010 A 
ATOM     17  C   UNL A   1      40.750  26.477  28.378  1.00  0.00    -0.014 A 
BRANCH  17  18
ATOM     18  C   UNL A   1      40.858  27.778  29.035  1.00  0.00     0.031 A 
ATOM     19  C   UNL A   1      41.907  28.663  28.448  1.00  0.00     0.074 A 
ATOM     20  C   UNL A   1      39.989  28.209  29.975  1.00  0.00     0.049 A 
ATOM     21  N   UNL A   1      42.932  29.189  29.036  1.00  0.00    -0.248 NA
ATOM     22  C   UNL A   1      41.876  28.893  26.993  1.00  0.00     0.031 C 
ATOM     23  C   UNL A   1      38.756  27.561  30.429  1.00  0.00     0.029 A 
ATOM     24  N   UNL A   1      39.979  29.384  30.669  1.00  0.00    -0.354 N 
ATOM     25  C   UNL A   1      43.582  29.958  28.068  1.00  0.00     0.074 A 
ATOM     26  C   UNL A   1      42.979  29.619  26.809  1.00  0.00     0.031 C 
ATOM     27  C   UNL A   1      38.017  28.444  31.140  1.00  0.00     0.029 A 
ATOM     28  C   UNL A   1      38.773  29.673  31.303  1.00  0.00     0.049 A 
ATOM     29  H   UNL A   1      40.762  29.981  30.718  1.00  0.00     0.167 HD
ATOM     30  C   UNL A   1      44.407  30.984  28.423  1.00  0.00     0.037 A 
ATOM     31  C   UNL A   1      38.409  30.856  31.867  1.00  0.00     0.037 A 
ATOM     32  C   UNL A   1      44.879  30.817  29.774  1.00  0.00     0.049 A 
ATOM     33  C   UNL A   1      39.647  31.636  32.105  1.00  0.00     0.074 A 
ATOM     34  C   UNL A   1      45.631  29.865  30.434  1.00  0.00     0.029 A 
ATOM     35  N   UNL A   1      44.284  31.563  30.760  1.00  0.00    -0.354 N 
ATOM     36  N   UNL A   1      40.554  31.307  32.983  1.00  0.00    -0.248 NA
ATOM     37  C   UNL A   1      40.094  32.520  31.040  1.00  0.00     0.031 C 
ATOM     38  C   UNL A   1      45.051  29.774  31.734  1.00  0.00     0.029 A 
ATOM     39  C   UNL A   1      44.030  30.721  31.809  1.00  0.00     0.049 A 
ATOM     40  H   UNL A   1      44.080  32.525  30.721  1.00  0.00     0.167 HD
ATOM     41  C   UNL A   1      41.758  31.565  32.350  1.00  0.00     0.074 A 
ATOM     42  C   UNL A   1      41.414  32.374  31.181  1.00  0.00     0.031 C 
ATOM     43  C   UNL A   1      42.882  30.859  32.669  1.00  0.00     0.037 A 
BRANCH  30  44
ATOM     44  C   UNL A   1      44.442  32.328  27.720  1.00  0.00     0.064 A 
ATOM     45  C   UNL A   1      45.514  32.602  26.843  1.00  0.00     0.173 A 
ATOM     46  C   UNL A   1      43.691  33.456  28.119  1.00  0.00     0.173 A 
ATOM     47  F   UNL A   1      46.290  31.611  26.378  1.00  0.00    -0.203 F 
ATOM     48  C   UNL A   1      45.890  33.908  26.516  1.00  0.00     0.198 A 
ATOM     49  C   UNL A   1      44.042  34.754  27.751  1.00  0.00     0.198 A 
ATOM     50  F   UNL A   1      42.658  33.373  28.962  1.00  0.00    -0.203 F 
ATOM     51  F   UNL A   1      47.009  34.119  25.810  1.00  0.00    -0.200 F 
ATOM     52  C   UNL A   1      45.164  34.984  26.987  1.00  0.00     0.200 A 
ATOM     53  F   UNL A   1      43.327  35.786  28.224  1.00  0.00    -0.200 F 
ATOM     54  F   UNL A   1      45.568  36.238  26.746  1.00  0.00    -0.200 F 
ENDBRANCH  30  44
BRANCH  31  55
ATOM     55  C   UNL A   1      37.069  31.497  31.893  1.00  0.00     0.064 A 
ATOM     56  C   UNL A   1      36.485  31.929  33.098  1.00  0.00     0.173 A 
ATOM     57  C   UNL A   1      36.465  31.962  30.709  1.00  0.00     0.173 A 
ATOM     58  F   UNL A   1      37.026  31.580  34.274  1.00  0.00    -0.203 F 
ATOM     59  C   UNL A   1      35.379  32.789  33.113  1.00  0.00     0.198 A 
ATOM     60  C   UNL A   1      35.361  32.815  30.726  1.00  0.00     0.198 A 
ATOM     61  F   UNL A   1      36.997  31.680  29.512  1.00  0.00    -0.203 F 
ATOM     62  F   UNL A   1      34.888  33.228  34.282  1.00  0.00    -0.200 F 
ATOM     63  C   UNL A   1      34.824  33.239  31.928  1.00  0.00     0.200 A 
ATOM     64  F   UNL A   1      34.861  33.278  29.570  1.00  0.00    -0.200 F 
ATOM     65  F   UNL A   1      33.805  34.111  31.940  1.00  0.00    -0.200 F 
ENDBRANCH  31  55
BRANCH  43  66
ATOM     66  C   UNL A   1      42.838  29.983  33.887  1.00  0.00     0.064 A 
ATOM     67  C   UNL A   1      42.370  28.657  33.887  1.00  0.00     0.173 A 
ATOM     68  C   UNL A   1      43.435  30.457  35.061  1.00  0.00     0.173 A 
ATOM     69  F   UNL A   1      41.878  28.098  32.776  1.00  0.00    -0.203 F 
ATOM     70  C   UNL A   1      42.465  27.859  35.026  1.00  0.00     0.198 A 
ATOM     71  C   UNL A   1      43.562  29.647  36.185  1.00  0.00     0.198 A 
ATOM     72  F   UNL A   1      43.950  31.696  35.099  1.00  0.00    -0.203 F 
ATOM     73  F   UNL A   1      42.011  26.597  35.004  1.00  0.00    -0.200 F 
ATOM     74  C   UNL A   1      43.070  28.352  36.171  1.00  0.00     0.200 A 
ATOM     75  F   UNL A   1      44.195  30.112  37.271  1.00  0.00    -0.200 F 
ATOM     76  F   UNL A   1      43.207  27.569  37.250  1.00  0.00    -0.200 F 
ENDBRANCH  43  66
ENDBRANCH  17  18
ENDBRANCH  10  12
ENDBRANCH   7   8
ENDBRANCH   6   7
ENDBRANCH   5   6
ENDBRANCH   1   5
BRANCH   2  77
ATOM     77  C   UNL A   1      33.026  20.491  24.644  1.00  0.00     0.170 A 
ATOM     78  C   UNL A   1      33.002  21.656  23.901  1.00  0.00     0.145 A 
ATOM     79  N   UNL A   1      31.945  20.475  25.485  1.00  0.00    -0.125 NA
ATOM     80  N   UNL A   1      31.972  22.365  24.446  1.00  0.00    -0.237 N 
ATOM     81  N   UNL A   1      31.312  21.632  25.361  1.00  0.00    -0.066 NA
BRANCH  80  82
ATOM     82  C   UNL A   1      31.701  23.759  24.335  1.00  0.00     0.218 C 
ATOM     83  C   UNL A   1      30.653  24.113  23.242  1.00  0.00     0.295 C 
ATOM     84  C   UNL A   1      30.657  24.356  25.300  1.00  0.00     0.295 C 
ATOM     85  N   UNL A   1      30.066  25.096  24.161  1.00  0.00    -0.331 N 
ATOM     86  H   UNL A   1      29.067  25.303  24.138  1.00  0.00     0.348 HD
BRANCH  85  87
ATOM     87  C   UNL A   1      30.575  26.469  23.987  1.00  0.00     0.262 C 
BRANCH  87  88
ATOM     88  C   UNL A   1      29.982  27.491  22.991  1.00  0.00     0.064 C 
BRANCH  88  89
ATOM     89  C   UNL A   1      28.576  28.058  23.264  1.00  0.00     0.038 C 
BRANCH  89  90
ATOM     90  C   UNL A   1      28.386  29.521  22.876  1.00  0.00     0.118 C 
ATOM     91  C   UNL A   1      29.435  30.447  23.475  1.00  0.00     0.034 C 
ATOM     92  O   UNL A   1      27.117  30.003  23.333  1.00  0.00    -0.378 OA
ATOM     93  C   UNL A   1      28.698  31.764  23.472  1.00  0.00     0.031 C 
ATOM     94  C   UNL A   1      27.288  31.337  23.826  1.00  0.00     0.160 C 
ENDBRANCH  89  90
ENDBRANCH  88  89
ENDBRANCH  87  88
ENDBRANCH  85  87
ENDBRANCH  80  82
ENDBRANCH   2  77
TORSDOF 15
ENDMDL
