MODEL 1
REMARK VINA RESULT:     -11.6      0.000      0.000
REMARK SMILES CC[NH2+][C@]1(C(=O)NCCCNC(=O)c2ccc(-c3c4nc(c(-c5c(F)c(F)c(F)c(F)c5F)c5ccc([nH]5)c(-c5c(F)c(F)c(F)c(F)c5F)c5nc(c(-c6c(F)c(F)c(F)c(F)c6F)c6ccc3[nH]6)C=C5)C=C4)cc2)CCC[C@H]1CCSc1ccc(Cl)cc1
REMARK SMILES IDX 8 1 7 2 5 3 6 4 4 6 77 7 80 8 78 9 79 10 3 11 2 14 1 15
REMARK SMILES IDX 81 16 82 17 83 18 84 19 85 20 90 21 86 22 89 23 87 24 88 25
REMARK SMILES IDX 9 26 10 27 11 28 12 29 13 31 14 32 15 33 76 34 16 35 75 36
REMARK SMILES IDX 17 37 18 38 19 39 69 40 20 41 74 42 68 43 70 44 21 45 73 46
REMARK SMILES IDX 67 47 66 48 22 50 54 51 34 52 53 53 35 54 38 55 52 56 71 57
REMARK SMILES IDX 36 58 37 59 51 61 72 62 39 63 23 64 24 65 32 66 25 67 26 68
REMARK SMILES IDX 30 69 33 70 27 71 28 72 31 73 29 74 55 75 56 76 64 77 57 78
REMARK SMILES IDX 58 79 62 80 65 81 59 82 60 83 63 84 61 85 40 86 41 87 49 88
REMARK SMILES IDX 42 89 43 90 47 91 50 92 44 93 45 94 48 95 46 96
REMARK H PARENT 7 5 3 12 3 13 11 30 70 49 38 60
REMARK Flexibility Score: inf
ROOT
ATOM      1  C   UNL A   1      31.261  30.520  25.723  1.00  0.00     0.118 C 
ENDROOT
BRANCH   1   2
ATOM      2  N   UNL A   1      32.607  29.965  25.721  1.00  0.00    -0.351 N 
ATOM      3  C   UNL A   1      33.162  28.960  24.975  1.00  0.00     0.281 C 
ATOM      4  O   UNL A   1      34.306  28.622  25.279  1.00  0.00    -0.268 OA
ATOM      5  H   UNL A   1      33.223  30.385  26.364  1.00  0.00     0.163 HD
BRANCH   3   6
ATOM      6  C   UNL A   1      32.340  28.282  23.839  1.00  0.00     0.178 C 
ATOM      7  C   UNL A   1      33.287  27.322  23.071  1.00  0.00     0.079 C 
ATOM      8  C   UNL A   1      31.170  27.299  24.218  1.00  0.00     0.061 C 
ATOM      9  C   UNL A   1      32.385  26.412  22.268  1.00  0.00     0.008 C 
ATOM     10  C   UNL A   1      31.265  26.102  23.234  1.00  0.00     0.011 C 
BRANCH   6  11
ATOM     11  N   UNL A   1      31.802  29.337  22.908  1.00  0.00    -0.334 N 
ATOM     12  H   UNL A   1      31.843  30.239  23.382  1.00  0.00     0.347 HD
ATOM     13  H   UNL A   1      32.377  29.317  22.065  1.00  0.00     0.347 HD
BRANCH  11  14
ATOM     14  C   UNL A   1      30.410  29.093  22.490  1.00  0.00     0.257 C 
ATOM     15  C   UNL A   1      29.617  30.394  22.487  1.00  0.00     0.071 C 
ENDBRANCH  11  14
ENDBRANCH   6  11
BRANCH   8  16
ATOM     16  C   UNL A   1      31.000  26.772  25.653  1.00  0.00     0.022 C 
BRANCH  16  17
ATOM     17  C   UNL A   1      30.378  25.368  25.757  1.00  0.00     0.075 C 
BRANCH  17  18
ATOM     18  S   UNL A   1      31.453  24.099  26.574  1.00  0.00    -0.126 SA
BRANCH  18  19
ATOM     19  C   UNL A   1      32.845  23.878  25.473  1.00  0.00     0.007 A 
ATOM     20  C   UNL A   1      32.841  22.874  24.498  1.00  0.00     0.016 A 
ATOM     21  C   UNL A   1      34.037  24.580  25.698  1.00  0.00     0.016 A 
ATOM     22  C   UNL A   1      33.995  22.607  23.743  1.00  0.00     0.021 A 
ATOM     23  C   UNL A   1      35.169  24.360  24.910  1.00  0.00     0.021 A 
ATOM     24  C   UNL A   1      35.149  23.361  23.943  1.00  0.00     0.041 A 
ATOM     25  Cl  UNL A   1      36.567  23.038  23.024  1.00  0.00    -0.084 Cl
ENDBRANCH  18  19
ENDBRANCH  17  18
ENDBRANCH  16  17
ENDBRANCH   8  16
ENDBRANCH   3   6
ENDBRANCH   1   2
BRANCH   1  26
ATOM     26  C   UNL A   1      31.185  31.924  26.300  1.00  0.00     0.042 C 
BRANCH  26  27
ATOM     27  C   UNL A   1      32.472  32.386  26.951  1.00  0.00     0.118 C 
BRANCH  27  28
ATOM     28  N   UNL A   1      32.396  33.779  27.371  1.00  0.00    -0.352 N 
ATOM     29  C   UNL A   1      33.052  34.423  28.387  1.00  0.00     0.251 C 
ATOM     30  H   UNL A   1      31.781  34.340  26.846  1.00  0.00     0.163 HD
ATOM     31  O   UNL A   1      32.659  35.517  28.773  1.00  0.00    -0.269 OA
BRANCH  29  32
ATOM     32  C   UNL A   1      34.230  33.794  29.017  1.00  0.00     0.039 A 
ATOM     33  C   UNL A   1      35.506  34.255  28.685  1.00  0.00     0.014 A 
ATOM     34  C   UNL A   1      34.078  32.727  29.906  1.00  0.00     0.014 A 
ATOM     35  C   UNL A   1      36.625  33.665  29.273  1.00  0.00     0.010 A 
ATOM     36  C   UNL A   1      35.182  32.220  30.576  1.00  0.00     0.010 A 
ATOM     37  C   UNL A   1      36.470  32.655  30.237  1.00  0.00    -0.014 A 
BRANCH  37  38
ATOM     38  C   UNL A   1      37.643  31.982  30.847  1.00  0.00     0.031 A 
ATOM     39  C   UNL A   1      38.084  32.373  32.233  1.00  0.00     0.074 A 
ATOM     40  C   UNL A   1      38.333  31.066  30.145  1.00  0.00     0.049 A 
ATOM     41  N   UNL A   1      39.114  31.956  32.924  1.00  0.00    -0.248 NA
ATOM     42  C   UNL A   1      37.281  33.398  32.920  1.00  0.00     0.031 C 
ATOM     43  C   UNL A   1      38.031  30.640  28.779  1.00  0.00     0.029 A 
ATOM     44  N   UNL A   1      39.437  30.327  30.488  1.00  0.00    -0.354 N 
ATOM     45  C   UNL A   1      39.088  32.680  34.110  1.00  0.00     0.074 A 
ATOM     46  C   UNL A   1      37.989  33.613  34.016  1.00  0.00     0.031 C 
ATOM     47  C   UNL A   1      38.907  29.692  28.410  1.00  0.00     0.029 A 
ATOM     48  C   UNL A   1      39.854  29.471  29.499  1.00  0.00     0.049 A 
ATOM     49  H   UNL A   1      39.887  30.404  31.359  1.00  0.00     0.167 HD
ATOM     50  C   UNL A   1      39.888  32.555  35.196  1.00  0.00     0.037 A 
ATOM     51  C   UNL A   1      40.883  28.604  29.480  1.00  0.00     0.037 A 
ATOM     52  C   UNL A   1      40.962  31.603  35.296  1.00  0.00     0.049 A 
ATOM     53  C   UNL A   1      41.755  28.478  30.701  1.00  0.00     0.074 A 
ATOM     54  C   UNL A   1      41.807  31.360  36.364  1.00  0.00     0.029 A 
ATOM     55  N   UNL A   1      41.334  30.730  34.283  1.00  0.00    -0.354 N 
ATOM     56  N   UNL A   1      41.685  29.124  31.840  1.00  0.00    -0.248 NA
ATOM     57  C   UNL A   1      42.838  27.489  30.637  1.00  0.00     0.031 C 
ATOM     58  C   UNL A   1      42.720  30.373  35.982  1.00  0.00     0.029 A 
ATOM     59  C   UNL A   1      42.405  29.955  34.699  1.00  0.00     0.049 A 
ATOM     60  H   UNL A   1      40.902  30.669  33.401  1.00  0.00     0.167 HD
ATOM     61  C   UNL A   1      42.686  28.592  32.643  1.00  0.00     0.074 A 
ATOM     62  C   UNL A   1      43.341  27.563  31.861  1.00  0.00     0.031 C 
ATOM     63  C   UNL A   1      43.030  28.921  33.913  1.00  0.00     0.037 A 
BRANCH  50  64
ATOM     64  C   UNL A   1      39.624  33.468  36.359  1.00  0.00     0.064 A 
ATOM     65  C   UNL A   1      38.796  33.083  37.427  1.00  0.00     0.173 A 
ATOM     66  C   UNL A   1      40.214  34.740  36.418  1.00  0.00     0.173 A 
ATOM     67  F   UNL A   1      38.194  31.884  37.416  1.00  0.00    -0.203 F 
ATOM     68  C   UNL A   1      38.540  33.949  38.487  1.00  0.00     0.198 A 
ATOM     69  C   UNL A   1      39.985  35.590  37.497  1.00  0.00     0.198 A 
ATOM     70  F   UNL A   1      41.016  35.159  35.428  1.00  0.00    -0.203 F 
ATOM     71  F   UNL A   1      37.695  33.582  39.460  1.00  0.00    -0.200 F 
ATOM     72  C   UNL A   1      39.140  35.199  38.524  1.00  0.00     0.200 A 
ATOM     73  F   UNL A   1      40.577  36.791  37.538  1.00  0.00    -0.200 F 
ATOM     74  F   UNL A   1      38.896  36.030  39.547  1.00  0.00    -0.200 F 
ENDBRANCH  50  64
BRANCH  51  75
ATOM     75  C   UNL A   1      41.119  27.755  28.283  1.00  0.00     0.064 A 
ATOM     76  C   UNL A   1      41.922  28.209  27.226  1.00  0.00     0.173 A 
ATOM     77  C   UNL A   1      40.545  26.482  28.164  1.00  0.00     0.173 A 
ATOM     78  F   UNL A   1      42.480  29.427  27.286  1.00  0.00    -0.203 F 
ATOM     79  C   UNL A   1      42.118  27.433  26.086  1.00  0.00     0.198 A 
ATOM     80  C   UNL A   1      40.765  25.694  27.036  1.00  0.00     0.198 A 
ATOM     81  F   UNL A   1      39.775  25.997  29.151  1.00  0.00    -0.203 F 
ATOM     82  F   UNL A   1      42.847  27.913  25.070  1.00  0.00    -0.200 F 
ATOM     83  C   UNL A   1      41.543  26.174  25.993  1.00  0.00     0.200 A 
ATOM     84  F   UNL A   1      40.223  24.471  26.958  1.00  0.00    -0.200 F 
ATOM     85  F   UNL A   1      41.733  25.428  24.898  1.00  0.00    -0.200 F 
ENDBRANCH  51  75
BRANCH  63  86
ATOM     86  C   UNL A   1      44.119  28.115  34.560  1.00  0.00     0.064 A 
ATOM     87  C   UNL A   1      43.851  26.930  35.261  1.00  0.00     0.173 A 
ATOM     88  C   UNL A   1      45.457  28.527  34.453  1.00  0.00     0.173 A 
ATOM     89  F   UNL A   1      42.589  26.500  35.404  1.00  0.00    -0.203 F 
ATOM     90  C   UNL A   1      44.879  26.210  35.865  1.00  0.00     0.198 A 
ATOM     91  C   UNL A   1      46.484  27.784  35.026  1.00  0.00     0.198 A 
ATOM     92  F   UNL A   1      45.769  29.647  33.783  1.00  0.00    -0.203 F 
ATOM     93  F   UNL A   1      44.593  25.114  36.584  1.00  0.00    -0.200 F 
ATOM     94  C   UNL A   1      46.193  26.633  35.742  1.00  0.00     0.200 A 
ATOM     95  F   UNL A   1      47.756  28.185  34.891  1.00  0.00    -0.200 F 
ATOM     96  F   UNL A   1      47.181  25.936  36.321  1.00  0.00    -0.200 F 
ENDBRANCH  63  86
ENDBRANCH  37  38
ENDBRANCH  29  32
ENDBRANCH  27  28
ENDBRANCH  26  27
ENDBRANCH   1  26
TORSDOF 16
ENDMDL
MODEL 2
REMARK VINA RESULT:     -11.4      5.473      9.443
REMARK SMILES CC[NH2+][C@]1(C(=O)NCCCNC(=O)c2ccc(-c3c4nc(c(-c5c(F)c(F)c(F)c(F)c5F)c5ccc([nH]5)c(-c5c(F)c(F)c(F)c(F)c5F)c5nc(c(-c6c(F)c(F)c(F)c(F)c6F)c6ccc3[nH]6)C=C5)C=C4)cc2)CCC[C@H]1CCSc1ccc(Cl)cc1
REMARK SMILES IDX 8 1 7 2 5 3 6 4 4 6 77 7 80 8 78 9 79 10 3 11 2 14 1 15
REMARK SMILES IDX 81 16 82 17 83 18 84 19 85 20 90 21 86 22 89 23 87 24 88 25
REMARK SMILES IDX 9 26 10 27 11 28 12 29 13 31 14 32 15 33 76 34 16 35 75 36
REMARK SMILES IDX 17 37 18 38 19 39 69 40 20 41 74 42 68 43 70 44 21 45 73 46
REMARK SMILES IDX 67 47 66 48 22 50 54 51 34 52 53 53 35 54 38 55 52 56 71 57
REMARK SMILES IDX 36 58 37 59 51 61 72 62 39 63 23 64 24 65 32 66 25 67 26 68
REMARK SMILES IDX 30 69 33 70 27 71 28 72 31 73 29 74 55 75 56 76 64 77 57 78
REMARK SMILES IDX 58 79 62 80 65 81 59 82 60 83 63 84 61 85 40 86 41 87 49 88
REMARK SMILES IDX 42 89 43 90 47 91 50 92 44 93 45 94 48 95 46 96
REMARK H PARENT 7 5 3 12 3 13 11 30 70 49 38 60
REMARK Flexibility Score: inf
ROOT
ATOM      1  C   UNL A   1      36.766  20.608  24.589  1.00  0.00     0.118 C 
ENDROOT
BRANCH   1   2
ATOM      2  N   UNL A   1      36.676  21.732  25.509  1.00  0.00    -0.351 N 
ATOM      3  C   UNL A   1      35.588  22.377  26.034  1.00  0.00     0.281 C 
ATOM      4  O   UNL A   1      35.821  23.385  26.702  1.00  0.00    -0.268 OA
ATOM      5  H   UNL A   1      37.545  22.089  25.806  1.00  0.00     0.163 HD
BRANCH   3   6
ATOM      6  C   UNL A   1      34.151  21.852  25.743  1.00  0.00     0.178 C 
ATOM      7  C   UNL A   1      33.158  22.669  26.612  1.00  0.00     0.079 C 
ATOM      8  C   UNL A   1      33.530  22.062  24.312  1.00  0.00     0.061 C 
ATOM      9  C   UNL A   1      31.791  22.417  26.019  1.00  0.00     0.008 C 
ATOM     10  C   UNL A   1      32.048  22.471  24.531  1.00  0.00     0.011 C 
BRANCH   6  11
ATOM     11  N   UNL A   1      34.068  20.390  26.096  1.00  0.00    -0.334 N 
ATOM     12  H   UNL A   1      34.977  20.089  26.446  1.00  0.00     0.347 HD
ATOM     13  H   UNL A   1      33.332  20.289  26.796  1.00  0.00     0.347 HD
BRANCH  11  14
ATOM     14  C   UNL A   1      33.701  19.533  24.955  1.00  0.00     0.257 C 
ATOM     15  C   UNL A   1      32.592  18.565  25.347  1.00  0.00     0.071 C 
ENDBRANCH  11  14
ENDBRANCH   6  11
BRANCH   8  16
ATOM     16  C   UNL A   1      34.179  23.010  23.289  1.00  0.00     0.022 C 
BRANCH  16  17
ATOM     17  C   UNL A   1      33.216  23.575  22.230  1.00  0.00     0.075 C 
BRANCH  17  18
ATOM     18  S   UNL A   1      33.190  25.424  22.108  1.00  0.00    -0.126 SA
BRANCH  18  19
ATOM     19  C   UNL A   1      32.739  25.999  23.741  1.00  0.00     0.007 A 
ATOM     20  C   UNL A   1      31.406  26.287  24.062  1.00  0.00     0.016 A 
ATOM     21  C   UNL A   1      33.734  26.355  24.661  1.00  0.00     0.016 A 
ATOM     22  C   UNL A   1      31.080  26.882  25.291  1.00  0.00     0.021 A 
ATOM     23  C   UNL A   1      33.411  26.892  25.909  1.00  0.00     0.021 A 
ATOM     24  C   UNL A   1      32.083  27.170  26.214  1.00  0.00     0.041 A 
ATOM     25  Cl  UNL A   1      31.692  27.901  27.721  1.00  0.00    -0.084 Cl
ENDBRANCH  18  19
ENDBRANCH  17  18
ENDBRANCH  16  17
ENDBRANCH   8  16
ENDBRANCH   3   6
ENDBRANCH   1   2
BRANCH   1  26
ATOM     26  C   UNL A   1      37.821  19.586  24.982  1.00  0.00     0.042 C 
BRANCH  26  27
ATOM     27  C   UNL A   1      39.003  20.181  25.719  1.00  0.00     0.118 C 
BRANCH  27  28
ATOM     28  N   UNL A   1      40.055  19.199  25.936  1.00  0.00    -0.352 N 
ATOM     29  C   UNL A   1      41.403  19.382  26.101  1.00  0.00     0.251 C 
ATOM     30  H   UNL A   1      39.752  18.263  25.970  1.00  0.00     0.163 HD
ATOM     31  O   UNL A   1      42.169  18.432  25.990  1.00  0.00    -0.269 OA
BRANCH  29  32
ATOM     32  C   UNL A   1      41.930  20.727  26.406  1.00  0.00     0.039 A 
ATOM     33  C   UNL A   1      42.248  21.049  27.727  1.00  0.00     0.014 A 
ATOM     34  C   UNL A   1      42.076  21.683  25.397  1.00  0.00     0.014 A 
ATOM     35  C   UNL A   1      42.743  22.319  28.026  1.00  0.00     0.010 A 
ATOM     36  C   UNL A   1      42.676  22.901  25.676  1.00  0.00     0.010 A 
ATOM     37  C   UNL A   1      42.978  23.248  26.999  1.00  0.00    -0.014 A 
BRANCH  37  38
ATOM     38  C   UNL A   1      43.465  24.618  27.293  1.00  0.00     0.031 A 
ATOM     39  C   UNL A   1      42.514  25.637  27.864  1.00  0.00     0.074 A 
ATOM     40  C   UNL A   1      44.735  24.957  27.006  1.00  0.00     0.049 A 
ATOM     41  N   UNL A   1      42.717  26.900  28.136  1.00  0.00    -0.248 NA
ATOM     42  C   UNL A   1      41.139  25.183  28.131  1.00  0.00     0.031 C 
ATOM     43  C   UNL A   1      45.734  24.072  26.407  1.00  0.00     0.029 A 
ATOM     44  N   UNL A   1      45.401  26.144  27.177  1.00  0.00    -0.354 N 
ATOM     45  C   UNL A   1      41.496  27.389  28.585  1.00  0.00     0.074 A 
ATOM     46  C   UNL A   1      40.541  26.310  28.478  1.00  0.00     0.031 C 
ATOM     47  C   UNL A   1      46.895  24.735  26.291  1.00  0.00     0.029 A 
ATOM     48  C   UNL A   1      46.712  26.101  26.772  1.00  0.00     0.049 A 
ATOM     49  H   UNL A   1      44.978  26.948  27.555  1.00  0.00     0.167 HD
ATOM     50  C   UNL A   1      41.203  28.617  29.074  1.00  0.00     0.037 A 
ATOM     51  C   UNL A   1      47.656  27.060  26.791  1.00  0.00     0.037 A 
ATOM     52  C   UNL A   1      42.166  29.678  29.206  1.00  0.00     0.049 A 
ATOM     53  C   UNL A   1      47.309  28.416  27.345  1.00  0.00     0.074 A 
ATOM     54  C   UNL A   1      41.990  30.947  29.728  1.00  0.00     0.029 A 
ATOM     55  N   UNL A   1      43.494  29.587  28.812  1.00  0.00    -0.354 N 
ATOM     56  N   UNL A   1      46.167  28.850  27.823  1.00  0.00    -0.248 NA
ATOM     57  C   UNL A   1      48.390  29.410  27.378  1.00  0.00     0.031 C 
ATOM     58  C   UNL A   1      43.199  31.640  29.608  1.00  0.00     0.029 A 
ATOM     59  C   UNL A   1      44.146  30.783  29.070  1.00  0.00     0.049 A 
ATOM     60  H   UNL A   1      43.912  28.792  28.410  1.00  0.00     0.167 HD
ATOM     61  C   UNL A   1      46.402  30.151  28.251  1.00  0.00     0.074 A 
ATOM     62  C   UNL A   1      47.798  30.429  27.984  1.00  0.00     0.031 C 
ATOM     63  C   UNL A   1      45.542  31.033  28.816  1.00  0.00     0.037 A 
BRANCH  50  64
ATOM     64  C   UNL A   1      39.787  28.872  29.504  1.00  0.00     0.064 A 
ATOM     65  C   UNL A   1      39.355  28.610  30.816  1.00  0.00     0.173 A 
ATOM     66  C   UNL A   1      38.849  29.397  28.602  1.00  0.00     0.173 A 
ATOM     67  F   UNL A   1      40.206  28.094  31.716  1.00  0.00    -0.203 F 
ATOM     68  C   UNL A   1      38.033  28.827  31.194  1.00  0.00     0.198 A 
ATOM     69  C   UNL A   1      37.537  29.647  28.994  1.00  0.00     0.198 A 
ATOM     70  F   UNL A   1      39.206  29.669  27.338  1.00  0.00    -0.203 F 
ATOM     71  F   UNL A   1      37.632  28.508  32.432  1.00  0.00    -0.200 F 
ATOM     72  C   UNL A   1      37.127  29.352  30.285  1.00  0.00     0.200 A 
ATOM     73  F   UNL A   1      36.666  30.168  28.119  1.00  0.00    -0.200 F 
ATOM     74  F   UNL A   1      35.856  29.565  30.653  1.00  0.00    -0.200 F 
ENDBRANCH  50  64
BRANCH  51  75
ATOM     75  C   UNL A   1      49.032  26.759  26.314  1.00  0.00     0.064 A 
ATOM     76  C   UNL A   1      49.995  26.231  27.186  1.00  0.00     0.173 A 
ATOM     77  C   UNL A   1      49.414  26.997  24.987  1.00  0.00     0.173 A 
ATOM     78  F   UNL A   1      49.682  26.002  28.469  1.00  0.00    -0.203 F 
ATOM     79  C   UNL A   1      51.296  25.981  26.755  1.00  0.00     0.198 A 
ATOM     80  C   UNL A   1      50.708  26.718  24.549  1.00  0.00     0.198 A 
ATOM     81  F   UNL A   1      48.528  27.493  24.110  1.00  0.00    -0.203 F 
ATOM     82  F   UNL A   1      52.210  25.527  27.622  1.00  0.00    -0.200 F 
ATOM     83  C   UNL A   1      51.650  26.220  25.436  1.00  0.00     0.200 A 
ATOM     84  F   UNL A   1      51.041  26.933  23.269  1.00  0.00    -0.200 F 
ATOM     85  F   UNL A   1      52.901  25.977  25.021  1.00  0.00    -0.200 F 
ENDBRANCH  51  75
BRANCH  63  86
ATOM     86  C   UNL A   1      46.102  32.358  29.247  1.00  0.00     0.064 A 
ATOM     87  C   UNL A   1      46.637  32.558  30.529  1.00  0.00     0.173 A 
ATOM     88  C   UNL A   1      46.124  33.439  28.351  1.00  0.00     0.173 A 
ATOM     89  F   UNL A   1      46.628  31.563  31.427  1.00  0.00    -0.203 F 
ATOM     90  C   UNL A   1      47.137  33.801  30.908  1.00  0.00     0.198 A 
ATOM     91  C   UNL A   1      46.658  34.668  28.722  1.00  0.00     0.198 A 
ATOM     92  F   UNL A   1      45.635  33.297  27.109  1.00  0.00    -0.203 F 
ATOM     93  F   UNL A   1      47.585  33.987  32.158  1.00  0.00    -0.200 F 
ATOM     94  C   UNL A   1      47.153  34.852  30.004  1.00  0.00     0.200 A 
ATOM     95  F   UNL A   1      46.689  35.677  27.840  1.00  0.00    -0.200 F 
ATOM     96  F   UNL A   1      47.637  36.047  30.370  1.00  0.00    -0.200 F 
ENDBRANCH  63  86
ENDBRANCH  37  38
ENDBRANCH  29  32
ENDBRANCH  27  28
ENDBRANCH  26  27
ENDBRANCH   1  26
TORSDOF 16
ENDMDL
MODEL 3
REMARK VINA RESULT:     -11.4      5.406     10.750
REMARK SMILES CC[NH2+][C@]1(C(=O)NCCCNC(=O)c2ccc(-c3c4nc(c(-c5c(F)c(F)c(F)c(F)c5F)c5ccc([nH]5)c(-c5c(F)c(F)c(F)c(F)c5F)c5nc(c(-c6c(F)c(F)c(F)c(F)c6F)c6ccc3[nH]6)C=C5)C=C4)cc2)CCC[C@H]1CCSc1ccc(Cl)cc1
REMARK SMILES IDX 8 1 7 2 5 3 6 4 4 6 77 7 80 8 78 9 79 10 3 11 2 14 1 15
REMARK SMILES IDX 81 16 82 17 83 18 84 19 85 20 90 21 86 22 89 23 87 24 88 25
REMARK SMILES IDX 9 26 10 27 11 28 12 29 13 31 14 32 15 33 76 34 16 35 75 36
REMARK SMILES IDX 17 37 18 38 19 39 69 40 20 41 74 42 68 43 70 44 21 45 73 46
REMARK SMILES IDX 67 47 66 48 22 50 54 51 34 52 53 53 35 54 38 55 52 56 71 57
REMARK SMILES IDX 36 58 37 59 51 61 72 62 39 63 23 64 24 65 32 66 25 67 26 68
REMARK SMILES IDX 30 69 33 70 27 71 28 72 31 73 29 74 55 75 56 76 64 77 57 78
REMARK SMILES IDX 58 79 62 80 65 81 59 82 60 83 63 84 61 85 40 86 41 87 49 88
REMARK SMILES IDX 42 89 43 90 47 91 50 92 44 93 45 94 48 95 46 96
REMARK H PARENT 7 5 3 12 3 13 11 30 70 49 38 60
REMARK Flexibility Score: inf
ROOT
ATOM      1  C   UNL A   1      37.101  20.656  24.403  1.00  0.00     0.118 C 
ENDROOT
BRANCH   1   2
ATOM      2  N   UNL A   1      37.126  21.904  25.152  1.00  0.00    -0.351 N 
ATOM      3  C   UNL A   1      36.108  22.659  25.670  1.00  0.00     0.281 C 
ATOM      4  O   UNL A   1      36.426  23.744  26.159  1.00  0.00    -0.268 OA
ATOM      5  H   UNL A   1      38.027  22.266  25.315  1.00  0.00     0.163 HD
BRANCH   3   6
ATOM      6  C   UNL A   1      34.637  22.153  25.589  1.00  0.00     0.178 C 
ATOM      7  C   UNL A   1      33.777  23.026  26.541  1.00  0.00     0.079 C 
ATOM      8  C   UNL A   1      33.840  22.317  24.241  1.00  0.00     0.061 C 
ATOM      9  C   UNL A   1      32.341  22.779  26.139  1.00  0.00     0.008 C 
ATOM     10  C   UNL A   1      32.406  22.765  24.630  1.00  0.00     0.011 C 
BRANCH   6  11
ATOM     11  N   UNL A   1      34.577  20.709  26.013  1.00  0.00    -0.334 N 
ATOM     12  H   UNL A   1      35.522  20.398  26.238  1.00  0.00     0.347 HD
ATOM     13  H   UNL A   1      33.951  20.655  26.816  1.00  0.00     0.347 HD
BRANCH  11  14
ATOM     14  C   UNL A   1      34.029  19.817  24.975  1.00  0.00     0.257 C 
ATOM     15  C   UNL A   1      32.895  18.972  25.541  1.00  0.00     0.071 C 
ENDBRANCH  11  14
ENDBRANCH   6  11
BRANCH   8  16
ATOM     16  C   UNL A   1      34.367  23.208  23.104  1.00  0.00     0.022 C 
BRANCH  16  17
ATOM     17  C   UNL A   1      33.279  23.799  22.189  1.00  0.00     0.075 C 
BRANCH  17  18
ATOM     18  S   UNL A   1      33.244  25.650  22.115  1.00  0.00    -0.126 SA
BRANCH  18  19
ATOM     19  C   UNL A   1      32.770  26.180  23.757  1.00  0.00     0.007 A 
ATOM     20  C   UNL A   1      31.437  26.480  24.061  1.00  0.00     0.016 A 
ATOM     21  C   UNL A   1      33.753  26.488  24.707  1.00  0.00     0.016 A 
ATOM     22  C   UNL A   1      31.096  27.041  25.303  1.00  0.00     0.021 A 
ATOM     23  C   UNL A   1      33.414  26.990  25.966  1.00  0.00     0.021 A 
ATOM     24  C   UNL A   1      32.085  27.281  26.253  1.00  0.00     0.041 A 
ATOM     25  Cl  UNL A   1      31.677  27.970  27.776  1.00  0.00    -0.084 Cl
ENDBRANCH  18  19
ENDBRANCH  17  18
ENDBRANCH  16  17
ENDBRANCH   8  16
ENDBRANCH   3   6
ENDBRANCH   1   2
BRANCH   1  26
ATOM     26  C   UNL A   1      38.004  19.581  24.987  1.00  0.00     0.042 C 
BRANCH  26  27
ATOM     27  C   UNL A   1      39.061  20.119  25.930  1.00  0.00     0.118 C 
BRANCH  27  28
ATOM     28  N   UNL A   1      40.214  19.232  26.011  1.00  0.00    -0.352 N 
ATOM     29  C   UNL A   1      41.548  19.537  26.079  1.00  0.00     0.251 C 
ATOM     30  H   UNL A   1      40.002  18.272  26.018  1.00  0.00     0.163 HD
ATOM     31  O   UNL A   1      42.386  18.671  25.858  1.00  0.00    -0.269 OA
BRANCH  29  32
ATOM     32  C   UNL A   1      41.972  20.911  26.414  1.00  0.00     0.039 A 
ATOM     33  C   UNL A   1      42.248  21.232  27.745  1.00  0.00     0.014 A 
ATOM     34  C   UNL A   1      42.063  21.891  25.422  1.00  0.00     0.014 A 
ATOM     35  C   UNL A   1      42.647  22.528  28.072  1.00  0.00     0.010 A 
ATOM     36  C   UNL A   1      42.570  23.145  25.730  1.00  0.00     0.010 A 
ATOM     37  C   UNL A   1      42.828  23.490  27.063  1.00  0.00    -0.014 A 
BRANCH  37  38
ATOM     38  C   UNL A   1      43.211  24.886  27.387  1.00  0.00     0.031 A 
ATOM     39  C   UNL A   1      44.621  25.347  27.127  1.00  0.00     0.074 A 
ATOM     40  C   UNL A   1      42.316  25.715  27.953  1.00  0.00     0.049 A 
ATOM     41  N   UNL A   1      45.179  26.501  27.392  1.00  0.00    -0.248 NA
ATOM     42  C   UNL A   1      45.538  24.367  26.523  1.00  0.00     0.031 C 
ATOM     43  C   UNL A   1      40.937  25.368  28.296  1.00  0.00     0.029 A 
ATOM     44  N   UNL A   1      42.437  27.025  28.343  1.00  0.00    -0.354 N 
ATOM     45  C   UNL A   1      46.507  26.374  27.003  1.00  0.00     0.074 A 
ATOM     46  C   UNL A   1      46.692  25.013  26.557  1.00  0.00     0.031 C 
ATOM     47  C   UNL A   1      40.328  26.447  28.814  1.00  0.00     0.029 A 
ATOM     48  C   UNL A   1      41.284  27.548  28.875  1.00  0.00     0.049 A 
ATOM     49  H   UNL A   1      43.270  27.540  28.249  1.00  0.00     0.167 HD
ATOM     50  C   UNL A   1      47.478  27.318  26.989  1.00  0.00     0.037 A 
ATOM     51  C   UNL A   1      41.033  28.780  29.354  1.00  0.00     0.037 A 
ATOM     52  C   UNL A   1      47.280  28.680  27.407  1.00  0.00     0.049 A 
ATOM     53  C   UNL A   1      42.127  29.814  29.321  1.00  0.00     0.074 A 
ATOM     54  C   UNL A   1      48.181  29.730  27.393  1.00  0.00     0.029 A 
ATOM     55  N   UNL A   1      46.088  29.181  27.912  1.00  0.00    -0.354 N 
ATOM     56  N   UNL A   1      43.362  29.702  28.896  1.00  0.00    -0.248 NA
ATOM     57  C   UNL A   1      41.783  31.152  29.820  1.00  0.00     0.031 C 
ATOM     58  C   UNL A   1      47.549  30.855  27.933  1.00  0.00     0.029 A 
ATOM     59  C   UNL A   1      46.235  30.523  28.224  1.00  0.00     0.049 A 
ATOM     60  H   UNL A   1      45.261  28.661  28.031  1.00  0.00     0.167 HD
ATOM     61  C   UNL A   1      43.931  30.962  29.037  1.00  0.00     0.074 A 
ATOM     62  C   UNL A   1      42.899  31.824  29.577  1.00  0.00     0.031 C 
ATOM     63  C   UNL A   1      45.190  31.369  28.742  1.00  0.00     0.037 A 
BRANCH  50  64
ATOM     64  C   UNL A   1      48.838  26.905  26.501  1.00  0.00     0.064 A 
ATOM     65  C   UNL A   1      49.803  26.370  27.371  1.00  0.00     0.173 A 
ATOM     66  C   UNL A   1      49.179  27.030  25.145  1.00  0.00     0.173 A 
ATOM     67  F   UNL A   1      49.535  26.242  28.679  1.00  0.00    -0.203 F 
ATOM     68  C   UNL A   1      51.068  26.015  26.909  1.00  0.00     0.198 A 
ATOM     69  C   UNL A   1      50.432  26.640  24.681  1.00  0.00     0.198 A 
ATOM     70  F   UNL A   1      48.295  27.531  24.270  1.00  0.00    -0.203 F 
ATOM     71  F   UNL A   1      51.992  25.569  27.771  1.00  0.00    -0.200 F 
ATOM     72  C   UNL A   1      51.379  26.143  25.564  1.00  0.00     0.200 A 
ATOM     73  F   UNL A   1      50.726  26.751  23.378  1.00  0.00    -0.200 F 
ATOM     74  F   UNL A   1      52.595  25.796  25.120  1.00  0.00    -0.200 F 
ENDBRANCH  50  64
BRANCH  51  75
ATOM     75  C   UNL A   1      39.677  29.119  29.861  1.00  0.00     0.064 A 
ATOM     76  C   UNL A   1      39.369  28.996  31.224  1.00  0.00     0.173 A 
ATOM     77  C   UNL A   1      38.663  29.563  29.001  1.00  0.00     0.173 A 
ATOM     78  F   UNL A   1      40.301  28.559  32.083  1.00  0.00    -0.203 F 
ATOM     79  C   UNL A   1      38.091  29.276  31.701  1.00  0.00     0.198 A 
ATOM     80  C   UNL A   1      37.393  29.872  29.485  1.00  0.00     0.198 A 
ATOM     81  F   UNL A   1      38.909  29.706  27.690  1.00  0.00    -0.203 F 
ATOM     82  F   UNL A   1      37.810  29.099  32.999  1.00  0.00    -0.200 F 
ATOM     83  C   UNL A   1      37.105  29.719  30.832  1.00  0.00     0.200 A 
ATOM     84  F   UNL A   1      36.449  30.317  28.645  1.00  0.00    -0.200 F 
ATOM     85  F   UNL A   1      35.876  29.991  31.292  1.00  0.00    -0.200 F 
ENDBRANCH  51  75
BRANCH  63  86
ATOM     86  C   UNL A   1      45.502  32.826  28.933  1.00  0.00     0.064 A 
ATOM     87  C   UNL A   1      46.049  33.319  30.127  1.00  0.00     0.173 A 
ATOM     88  C   UNL A   1      45.272  33.738  27.891  1.00  0.00     0.173 A 
ATOM     89  F   UNL A   1      46.277  32.492  31.158  1.00  0.00    -0.203 F 
ATOM     90  C   UNL A   1      46.316  34.676  30.284  1.00  0.00     0.198 A 
ATOM     91  C   UNL A   1      45.574  35.087  28.039  1.00  0.00     0.198 A 
ATOM     92  F   UNL A   1      44.761  33.317  26.724  1.00  0.00    -0.203 F 
ATOM     93  F   UNL A   1      46.779  35.135  31.456  1.00  0.00    -0.200 F 
ATOM     94  C   UNL A   1      46.084  35.558  29.239  1.00  0.00     0.200 A 
ATOM     95  F   UNL A   1      45.366  35.935  27.021  1.00  0.00    -0.200 F 
ATOM     96  F   UNL A   1      46.345  36.864  29.391  1.00  0.00    -0.200 F 
ENDBRANCH  63  86
ENDBRANCH  37  38
ENDBRANCH  29  32
ENDBRANCH  27  28
ENDBRANCH  26  27
ENDBRANCH   1  26
TORSDOF 16
ENDMDL
