MODEL 1
REMARK VINA RESULT:     -13.1      0.000      0.000
REMARK SMILES O=C(Cc1cncnc1N1CCC2(CC1)OCCC[C@@H]2O)NCCCNC(=O)c1ccc(-c2c3nc(c(-c4c(F)c(F)c(F)c(F)c4F)c4ccc([nH]4)c(-c4c(F)c(F)c(F)c(F)c4F)c4nc(c(-c5c(F)c(F)c(F)c(F)c5F)c5ccc2[nH]5)C=C4)C=C3)cc1
REMARK SMILES IDX 23 1 22 2 1 3 2 4 3 6 4 7 5 8 9 9 6 10 8 11 7 12 10 13 11 14
REMARK SMILES IDX 15 15 12 16 14 17 13 18 16 19 20 20 17 21 19 22 18 23 21 24
REMARK SMILES IDX 24 26 25 27 26 28 27 29 28 31 29 32 30 33 91 34 31 35 90 36
REMARK SMILES IDX 32 37 33 38 34 39 84 40 35 41 89 42 83 43 85 44 36 45 88 46
REMARK SMILES IDX 82 47 81 48 37 50 69 51 49 52 68 53 50 54 53 55 67 56 86 57
REMARK SMILES IDX 51 58 52 59 66 61 87 62 54 63 38 64 39 65 47 66 40 67 41 68
REMARK SMILES IDX 45 69 48 70 42 71 43 72 46 73 44 74 70 75 71 76 79 77 72 78
REMARK SMILES IDX 73 79 77 80 80 81 74 82 75 83 78 84 76 85 55 86 56 87 64 88
REMARK SMILES IDX 57 89 58 90 62 91 65 92 59 93 60 94 63 95 61 96
REMARK H PARENT 22 5 21 25 26 30 85 49 53 60
REMARK Flexibility Score: inf
ROOT
ATOM      1  C   UNL A   1      31.813  30.627  26.402  1.00  0.00     0.117 C 
ENDROOT
BRANCH   1   2
ATOM      2  N   UNL A   1      31.452  30.328  25.027  1.00  0.00    -0.356 N 
ATOM      3  O   UNL A   1      33.290  29.055  24.613  1.00  0.00    -0.275 OA
ATOM      4  C   UNL A   1      32.137  29.370  24.319  1.00  0.00     0.224 C 
ATOM      5  H   UNL A   1      30.711  30.815  24.600  1.00  0.00     0.163 HD
BRANCH   4   6
ATOM      6  C   UNL A   1      31.423  28.701  23.158  1.00  0.00     0.141 C 
BRANCH   6   7
ATOM      7  C   UNL A   1      30.004  28.230  23.363  1.00  0.00     0.022 A 
ATOM      8  C   UNL A   1      28.963  29.079  23.024  1.00  0.00     0.121 A 
ATOM      9  C   UNL A   1      29.633  26.944  23.767  1.00  0.00     0.135 A 
ATOM     10  N   UNL A   1      27.667  28.742  23.081  1.00  0.00    -0.244 NA
ATOM     11  N   UNL A   1      28.341  26.573  23.815  1.00  0.00    -0.219 NA
ATOM     12  C   UNL A   1      27.423  27.488  23.472  1.00  0.00     0.224 A 
BRANCH   9  13
ATOM     13  N   UNL A   1      30.578  25.987  24.059  1.00  0.00    -0.356 N 
ATOM     14  C   UNL A   1      30.610  24.743  23.306  1.00  0.00     0.121 C 
ATOM     15  C   UNL A   1      31.002  25.788  25.433  1.00  0.00     0.121 C 
ATOM     16  C   UNL A   1      32.087  24.338  23.193  1.00  0.00     0.060 C 
ATOM     17  C   UNL A   1      32.513  25.610  25.377  1.00  0.00     0.060 C 
ATOM     18  C   UNL A   1      32.864  24.356  24.548  1.00  0.00     0.097 C 
ATOM     19  O   UNL A   1      32.496  23.255  25.410  1.00  0.00    -0.372 OA
ATOM     20  C   UNL A   1      34.398  24.322  24.282  1.00  0.00     0.146 C 
ATOM     21  C   UNL A   1      32.868  21.957  24.961  1.00  0.00     0.161 C 
ATOM     22  C   UNL A   1      34.843  22.956  23.766  1.00  0.00     0.037 C 
ATOM     23  C   UNL A   1      34.362  21.848  24.697  1.00  0.00     0.031 C 
BRANCH  20  24
ATOM     24  O   UNL A   1      35.139  24.598  25.476  1.00  0.00    -0.390 OA
ATOM     25  H   UNL A   1      34.534  24.907  26.169  1.00  0.00     0.211 HD
ENDBRANCH  20  24
ENDBRANCH   9  13
ENDBRANCH   6   7
ENDBRANCH   4   6
ENDBRANCH   1   2
BRANCH   1  26
ATOM     26  C   UNL A   1      31.471  32.027  26.857  1.00  0.00     0.042 C 
BRANCH  26  27
ATOM     27  C   UNL A   1      32.690  32.860  27.200  1.00  0.00     0.118 C 
BRANCH  27  28
ATOM     28  N   UNL A   1      32.374  34.207  27.658  1.00  0.00    -0.352 N 
ATOM     29  C   UNL A   1      32.982  34.973  28.624  1.00  0.00     0.251 C 
ATOM     30  H   UNL A   1      31.608  34.633  27.208  1.00  0.00     0.163 HD
ATOM     31  O   UNL A   1      32.503  36.052  28.944  1.00  0.00    -0.269 OA
BRANCH  29  32
ATOM     32  C   UNL A   1      34.193  34.466  29.306  1.00  0.00     0.039 A 
ATOM     33  C   UNL A   1      34.043  33.780  30.513  1.00  0.00     0.014 A 
ATOM     34  C   UNL A   1      35.462  34.634  28.749  1.00  0.00     0.014 A 
ATOM     35  C   UNL A   1      35.158  33.201  31.117  1.00  0.00     0.010 A 
ATOM     36  C   UNL A   1      36.550  33.959  29.289  1.00  0.00     0.010 A 
ATOM     37  C   UNL A   1      36.414  33.245  30.485  1.00  0.00    -0.014 A 
BRANCH  37  38
ATOM     38  C   UNL A   1      37.581  32.540  31.070  1.00  0.00     0.031 A 
ATOM     39  C   UNL A   1      38.090  32.910  32.436  1.00  0.00     0.074 A 
ATOM     40  C   UNL A   1      38.204  31.588  30.350  1.00  0.00     0.049 A 
ATOM     41  N   UNL A   1      39.074  32.384  33.122  1.00  0.00    -0.248 NA
ATOM     42  C   UNL A   1      37.430  34.039  33.111  1.00  0.00     0.031 C 
ATOM     43  C   UNL A   1      37.856  31.198  28.982  1.00  0.00     0.029 A 
ATOM     44  N   UNL A   1      39.258  30.768  30.669  1.00  0.00    -0.354 N 
ATOM     45  C   UNL A   1      39.150  33.119  34.298  1.00  0.00     0.074 A 
ATOM     46  C   UNL A   1      38.165  34.173  34.203  1.00  0.00     0.031 C 
ATOM     47  C   UNL A   1      38.645  30.182  28.599  1.00  0.00     0.029 A 
ATOM     48  C   UNL A   1      39.577  29.872  29.678  1.00  0.00     0.049 A 
ATOM     49  H   UNL A   1      39.738  30.817  31.526  1.00  0.00     0.167 HD
ATOM     50  C   UNL A   1      39.946  32.912  35.375  1.00  0.00     0.037 A 
ATOM     51  C   UNL A   1      40.510  28.902  29.649  1.00  0.00     0.037 A 
ATOM     52  C   UNL A   1      40.915  31.851  35.468  1.00  0.00     0.049 A 
ATOM     53  C   UNL A   1      41.367  28.682  30.865  1.00  0.00     0.074 A 
ATOM     54  C   UNL A   1      41.733  31.519  36.533  1.00  0.00     0.029 A 
ATOM     55  N   UNL A   1      41.198  30.950  34.451  1.00  0.00    -0.354 N 
ATOM     56  N   UNL A   1      41.369  29.325  32.008  1.00  0.00    -0.248 NA
ATOM     57  C   UNL A   1      42.342  27.585  30.792  1.00  0.00     0.031 C 
ATOM     58  C   UNL A   1      42.549  30.452  36.143  1.00  0.00     0.029 A 
ATOM     59  C   UNL A   1      42.195  30.075  34.857  1.00  0.00     0.049 A 
ATOM     60  H   UNL A   1      40.757  30.934  33.571  1.00  0.00     0.167 HD
ATOM     61  C   UNL A   1      42.320  28.695  32.799  1.00  0.00     0.074 A 
ATOM     62  C   UNL A   1      42.854  27.601  32.013  1.00  0.00     0.031 C 
ATOM     63  C   UNL A   1      42.717  28.994  34.062  1.00  0.00     0.037 A 
BRANCH  50  64
ATOM     64  C   UNL A   1      39.797  33.850  36.538  1.00  0.00     0.064 A 
ATOM     65  C   UNL A   1      40.452  35.093  36.572  1.00  0.00     0.173 A 
ATOM     66  C   UNL A   1      38.967  33.521  37.620  1.00  0.00     0.173 A 
ATOM     67  F   UNL A   1      41.269  35.454  35.571  1.00  0.00    -0.203 F 
ATOM     68  C   UNL A   1      40.305  35.954  37.657  1.00  0.00     0.198 A 
ATOM     69  C   UNL A   1      38.796  34.399  38.688  1.00  0.00     0.198 A 
ATOM     70  F   UNL A   1      38.315  32.350  37.640  1.00  0.00    -0.203 F 
ATOM     71  F   UNL A   1      40.984  37.108  37.691  1.00  0.00    -0.200 F 
ATOM     72  C   UNL A   1      39.471  35.610  38.709  1.00  0.00     0.200 A 
ATOM     73  F   UNL A   1      37.977  34.072  39.697  1.00  0.00    -0.200 F 
ATOM     74  F   UNL A   1      39.324  36.443  39.750  1.00  0.00    -0.200 F 
ENDBRANCH  50  64
BRANCH  51  75
ATOM     75  C   UNL A   1      40.649  28.038  28.447  1.00  0.00     0.064 A 
ATOM     76  C   UNL A   1      40.008  26.793  28.374  1.00  0.00     0.173 A 
ATOM     77  C   UNL A   1      41.430  28.433  27.351  1.00  0.00     0.173 A 
ATOM     78  F   UNL A   1      39.264  26.362  29.404  1.00  0.00    -0.203 F 
ATOM     79  C   UNL A   1      40.166  25.964  27.266  1.00  0.00     0.198 A 
ATOM     80  C   UNL A   1      41.560  27.617  26.229  1.00  0.00     0.198 A 
ATOM     81  F   UNL A   1      42.058  29.618  27.365  1.00  0.00    -0.203 F 
ATOM     82  F   UNL A   1      39.586  24.756  27.248  1.00  0.00    -0.200 F 
ATOM     83  C   UNL A   1      40.938  26.379  26.191  1.00  0.00     0.200 A 
ATOM     84  F   UNL A   1      42.292  28.030  25.185  1.00  0.00    -0.200 F 
ATOM     85  F   UNL A   1      41.086  25.583  25.124  1.00  0.00    -0.200 F 
ENDBRANCH  51  75
BRANCH  63  86
ATOM     86  C   UNL A   1      43.754  28.096  34.679  1.00  0.00     0.064 A 
ATOM     87  C   UNL A   1      45.123  28.395  34.618  1.00  0.00     0.173 A 
ATOM     88  C   UNL A   1      43.368  26.919  35.338  1.00  0.00     0.173 A 
ATOM     89  F   UNL A   1      45.546  29.503  33.989  1.00  0.00    -0.203 F 
ATOM     90  C   UNL A   1      46.071  27.523  35.148  1.00  0.00     0.198 A 
ATOM     91  C   UNL A   1      44.316  26.070  35.901  1.00  0.00     0.198 A 
ATOM     92  F   UNL A   1      42.071  26.590  35.436  1.00  0.00    -0.203 F 
ATOM     93  F   UNL A   1      47.376  27.791  35.010  1.00  0.00    -0.200 F 
ATOM     94  C   UNL A   1      45.666  26.364  35.793  1.00  0.00     0.200 A 
ATOM     95  F   UNL A   1      43.922  24.959  36.540  1.00  0.00    -0.200 F 
ATOM     96  F   UNL A   1      46.579  25.523  36.298  1.00  0.00    -0.200 F 
ENDBRANCH  63  86
ENDBRANCH  37  38
ENDBRANCH  29  32
ENDBRANCH  27  28
ENDBRANCH  26  27
ENDBRANCH   1  26
TORSDOF 13
ENDMDL
MODEL 2
REMARK VINA RESULT:     -13.0      1.324      3.420
REMARK SMILES O=C(Cc1cncnc1N1CCC2(CC1)OCCC[C@@H]2O)NCCCNC(=O)c1ccc(-c2c3nc(c(-c4c(F)c(F)c(F)c(F)c4F)c4ccc([nH]4)c(-c4c(F)c(F)c(F)c(F)c4F)c4nc(c(-c5c(F)c(F)c(F)c(F)c5F)c5ccc2[nH]5)C=C4)C=C3)cc1
REMARK SMILES IDX 23 1 22 2 1 3 2 4 3 6 4 7 5 8 9 9 6 10 8 11 7 12 10 13 11 14
REMARK SMILES IDX 15 15 12 16 14 17 13 18 16 19 20 20 17 21 19 22 18 23 21 24
REMARK SMILES IDX 24 26 25 27 26 28 27 29 28 31 29 32 30 33 91 34 31 35 90 36
REMARK SMILES IDX 32 37 33 38 34 39 84 40 35 41 89 42 83 43 85 44 36 45 88 46
REMARK SMILES IDX 82 47 81 48 37 50 69 51 49 52 68 53 50 54 53 55 67 56 86 57
REMARK SMILES IDX 51 58 52 59 66 61 87 62 54 63 38 64 39 65 47 66 40 67 41 68
REMARK SMILES IDX 45 69 48 70 42 71 43 72 46 73 44 74 70 75 71 76 79 77 72 78
REMARK SMILES IDX 73 79 77 80 80 81 74 82 75 83 78 84 76 85 55 86 56 87 64 88
REMARK SMILES IDX 57 89 58 90 62 91 65 92 59 93 60 94 63 95 61 96
REMARK H PARENT 22 5 21 25 26 30 85 49 53 60
REMARK Flexibility Score: inf
ROOT
ATOM      1  C   UNL A   1      32.031  30.089  26.893  1.00  0.00     0.117 C 
ENDROOT
BRANCH   1   2
ATOM      2  N   UNL A   1      33.063  29.696  25.951  1.00  0.00    -0.356 N 
ATOM      3  O   UNL A   1      33.207  27.552  26.697  1.00  0.00    -0.275 OA
ATOM      4  C   UNL A   1      33.403  28.373  25.800  1.00  0.00     0.224 C 
ATOM      5  H   UNL A   1      33.522  30.382  25.414  1.00  0.00     0.163 HD
BRANCH   4   6
ATOM      6  C   UNL A   1      34.027  27.946  24.483  1.00  0.00     0.141 C 
BRANCH   6   7
ATOM      7  C   UNL A   1      33.516  26.691  23.820  1.00  0.00     0.022 A 
ATOM      8  C   UNL A   1      34.293  25.545  23.870  1.00  0.00     0.121 A 
ATOM      9  C   UNL A   1      32.251  26.543  23.244  1.00  0.00     0.135 A 
ATOM     10  N   UNL A   1      33.910  24.352  23.393  1.00  0.00    -0.244 NA
ATOM     11  N   UNL A   1      31.832  25.353  22.774  1.00  0.00    -0.219 NA
ATOM     12  C   UNL A   1      32.680  24.319  22.870  1.00  0.00     0.224 A 
BRANCH   9  13
ATOM     13  N   UNL A   1      31.358  27.590  23.202  1.00  0.00    -0.356 N 
ATOM     14  C   UNL A   1      31.785  28.890  22.709  1.00  0.00     0.121 C 
ATOM     15  C   UNL A   1      30.349  27.718  24.238  1.00  0.00     0.121 C 
ATOM     16  C   UNL A   1      30.576  29.501  21.988  1.00  0.00     0.060 C 
ATOM     17  C   UNL A   1      29.065  28.105  23.517  1.00  0.00     0.060 C 
ATOM     18  C   UNL A   1      29.249  29.466  22.812  1.00  0.00     0.097 C 
ATOM     19  O   UNL A   1      29.247  30.423  23.895  1.00  0.00    -0.372 OA
ATOM     20  C   UNL A   1      28.034  29.734  21.875  1.00  0.00     0.146 C 
ATOM     21  C   UNL A   1      29.235  31.795  23.520  1.00  0.00     0.161 C 
ATOM     22  C   UNL A   1      27.995  31.190  21.417  1.00  0.00     0.037 C 
ATOM     23  C   UNL A   1      28.060  32.131  22.614  1.00  0.00     0.031 C 
BRANCH  20  24
ATOM     24  O   UNL A   1      26.795  29.454  22.538  1.00  0.00    -0.390 OA
ATOM     25  H   UNL A   1      26.250  30.257  22.559  1.00  0.00     0.211 HD
ENDBRANCH  20  24
ENDBRANCH   9  13
ENDBRANCH   6   7
ENDBRANCH   4   6
ENDBRANCH   1   2
BRANCH   1  26
ATOM     26  C   UNL A   1      31.654  31.551  26.847  1.00  0.00     0.042 C 
BRANCH  26  27
ATOM     27  C   UNL A   1      32.834  32.482  27.046  1.00  0.00     0.118 C 
BRANCH  27  28
ATOM     28  N   UNL A   1      32.464  33.816  27.501  1.00  0.00    -0.352 N 
ATOM     29  C   UNL A   1      33.014  34.591  28.494  1.00  0.00     0.251 C 
ATOM     30  H   UNL A   1      31.703  34.223  27.026  1.00  0.00     0.163 HD
ATOM     31  O   UNL A   1      32.494  35.653  28.803  1.00  0.00    -0.269 OA
BRANCH  29  32
ATOM     32  C   UNL A   1      34.214  34.113  29.217  1.00  0.00     0.039 A 
ATOM     33  C   UNL A   1      34.042  33.237  30.290  1.00  0.00     0.014 A 
ATOM     34  C   UNL A   1      35.497  34.495  28.822  1.00  0.00     0.014 A 
ATOM     35  C   UNL A   1      35.162  32.690  30.915  1.00  0.00     0.010 A 
ATOM     36  C   UNL A   1      36.607  33.861  29.368  1.00  0.00     0.010 A 
ATOM     37  C   UNL A   1      36.453  32.960  30.428  1.00  0.00    -0.014 A 
BRANCH  37  38
ATOM     38  C   UNL A   1      37.641  32.299  31.023  1.00  0.00     0.031 A 
ATOM     39  C   UNL A   1      38.118  32.679  32.397  1.00  0.00     0.074 A 
ATOM     40  C   UNL A   1      38.310  31.377  30.304  1.00  0.00     0.049 A 
ATOM     41  N   UNL A   1      39.114  32.187  33.092  1.00  0.00    -0.248 NA
ATOM     42  C   UNL A   1      37.407  33.775  33.072  1.00  0.00     0.031 C 
ATOM     43  C   UNL A   1      37.993  30.983  28.929  1.00  0.00     0.029 A 
ATOM     44  N   UNL A   1      39.391  30.597  30.630  1.00  0.00    -0.354 N 
ATOM     45  C   UNL A   1      39.148  32.916  34.274  1.00  0.00     0.074 A 
ATOM     46  C   UNL A   1      38.123  33.930  34.174  1.00  0.00     0.031 C 
ATOM     47  C   UNL A   1      38.827  30.002  28.549  1.00  0.00     0.029 A 
ATOM     48  C   UNL A   1      39.757  29.721  29.637  1.00  0.00     0.049 A 
ATOM     49  H   UNL A   1      39.858  30.659  31.494  1.00  0.00     0.167 HD
ATOM     50  C   UNL A   1      39.939  32.733  35.358  1.00  0.00     0.037 A 
ATOM     51  C   UNL A   1      40.728  28.790  29.613  1.00  0.00     0.037 A 
ATOM     52  C   UNL A   1      40.947  31.710  35.456  1.00  0.00     0.049 A 
ATOM     53  C   UNL A   1      41.579  28.595  30.837  1.00  0.00     0.074 A 
ATOM     54  C   UNL A   1      41.766  31.404  36.528  1.00  0.00     0.029 A 
ATOM     55  N   UNL A   1      41.278  30.829  34.436  1.00  0.00    -0.354 N 
ATOM     56  N   UNL A   1      41.542  29.229  31.984  1.00  0.00    -0.248 NA
ATOM     57  C   UNL A   1      42.597  27.538  30.769  1.00  0.00     0.031 C 
ATOM     58  C   UNL A   1      42.628  30.372  36.140  1.00  0.00     0.029 A 
ATOM     59  C   UNL A   1      42.304  29.991  34.848  1.00  0.00     0.049 A 
ATOM     60  H   UNL A   1      40.849  30.802  33.551  1.00  0.00     0.167 HD
ATOM     61  C   UNL A   1      42.508  28.632  32.782  1.00  0.00     0.074 A 
ATOM     62  C   UNL A   1      43.094  27.565  31.996  1.00  0.00     0.031 C 
ATOM     63  C   UNL A   1      42.878  28.937  34.052  1.00  0.00     0.037 A 
BRANCH  50  64
ATOM     64  C   UNL A   1      39.739  33.656  36.526  1.00  0.00     0.064 A 
ATOM     65  C   UNL A   1      40.369  34.911  36.590  1.00  0.00     0.173 A 
ATOM     66  C   UNL A   1      38.884  33.301  37.580  1.00  0.00     0.173 A 
ATOM     67  F   UNL A   1      41.208  35.297  35.617  1.00  0.00    -0.203 F 
ATOM     68  C   UNL A   1      40.176  35.757  37.679  1.00  0.00     0.198 A 
ATOM     69  C   UNL A   1      38.666  34.165  38.651  1.00  0.00     0.198 A 
ATOM     70  F   UNL A   1      38.253  32.118  37.569  1.00  0.00    -0.203 F 
ATOM     71  F   UNL A   1      40.832  36.923  37.744  1.00  0.00    -0.200 F 
ATOM     72  C   UNL A   1      39.318  35.388  38.704  1.00  0.00     0.200 A 
ATOM     73  F   UNL A   1      37.825  33.812  39.633  1.00  0.00    -0.200 F 
ATOM     74  F   UNL A   1      39.126  36.207  39.747  1.00  0.00    -0.200 F 
ENDBRANCH  50  64
BRANCH  51  75
ATOM     75  C   UNL A   1      40.916  27.940  28.407  1.00  0.00     0.064 A 
ATOM     76  C   UNL A   1      41.739  28.357  27.351  1.00  0.00     0.173 A 
ATOM     77  C   UNL A   1      40.272  26.701  28.280  1.00  0.00     0.173 A 
ATOM     78  F   UNL A   1      42.363  29.543  27.416  1.00  0.00    -0.203 F 
ATOM     79  C   UNL A   1      41.889  27.581  26.203  1.00  0.00     0.198 A 
ATOM     80  C   UNL A   1      40.449  25.911  27.146  1.00  0.00     0.198 A 
ATOM     81  F   UNL A   1      39.480  26.251  29.265  1.00  0.00    -0.203 F 
ATOM     82  F   UNL A   1      42.638  28.031  25.187  1.00  0.00    -0.200 F 
ATOM     83  C   UNL A   1      41.248  26.356  26.104  1.00  0.00     0.200 A 
ATOM     84  F   UNL A   1      39.843  24.719  27.062  1.00  0.00    -0.200 F 
ATOM     85  F   UNL A   1      41.395  25.608  25.002  1.00  0.00    -0.200 F 
ENDBRANCH  51  75
BRANCH  63  86
ATOM     86  C   UNL A   1      43.942  28.077  34.675  1.00  0.00     0.064 A 
ATOM     87  C   UNL A   1      45.304  28.402  34.586  1.00  0.00     0.173 A 
ATOM     88  C   UNL A   1      43.591  26.909  35.371  1.00  0.00     0.173 A 
ATOM     89  F   UNL A   1      45.694  29.501  33.923  1.00  0.00    -0.203 F 
ATOM     90  C   UNL A   1      46.277  27.563  35.123  1.00  0.00     0.198 A 
ATOM     91  C   UNL A   1      44.565  26.094  35.941  1.00  0.00     0.198 A 
ATOM     92  F   UNL A   1      42.303  26.557  35.497  1.00  0.00    -0.203 F 
ATOM     93  F   UNL A   1      47.574  27.854  34.958  1.00  0.00    -0.200 F 
ATOM     94  C   UNL A   1      45.907  26.413  35.803  1.00  0.00     0.200 A 
ATOM     95  F   UNL A   1      44.203  24.993  36.613  1.00  0.00    -0.200 F 
ATOM     96  F   UNL A   1      46.844  25.604  36.315  1.00  0.00    -0.200 F 
ENDBRANCH  63  86
ENDBRANCH  37  38
ENDBRANCH  29  32
ENDBRANCH  27  28
ENDBRANCH  26  27
ENDBRANCH   1  26
TORSDOF 13
ENDMDL
MODEL 3
REMARK VINA RESULT:     -13.0      0.101      1.931
REMARK SMILES O=C(Cc1cncnc1N1CCC2(CC1)OCCC[C@@H]2O)NCCCNC(=O)c1ccc(-c2c3nc(c(-c4c(F)c(F)c(F)c(F)c4F)c4ccc([nH]4)c(-c4c(F)c(F)c(F)c(F)c4F)c4nc(c(-c5c(F)c(F)c(F)c(F)c5F)c5ccc2[nH]5)C=C4)C=C3)cc1
REMARK SMILES IDX 23 1 22 2 1 3 2 4 3 6 4 7 5 8 9 9 6 10 8 11 7 12 10 13 11 14
REMARK SMILES IDX 15 15 12 16 14 17 13 18 16 19 20 20 17 21 19 22 18 23 21 24
REMARK SMILES IDX 24 26 25 27 26 28 27 29 28 31 29 32 30 33 91 34 31 35 90 36
REMARK SMILES IDX 32 37 33 38 34 39 84 40 35 41 89 42 83 43 85 44 36 45 88 46
REMARK SMILES IDX 82 47 81 48 37 50 69 51 49 52 68 53 50 54 53 55 67 56 86 57
REMARK SMILES IDX 51 58 52 59 66 61 87 62 54 63 38 64 39 65 47 66 40 67 41 68
REMARK SMILES IDX 45 69 48 70 42 71 43 72 46 73 44 74 70 75 71 76 79 77 72 78
REMARK SMILES IDX 73 79 77 80 80 81 74 82 75 83 78 84 76 85 55 86 56 87 64 88
REMARK SMILES IDX 57 89 58 90 62 91 65 92 59 93 60 94 63 95 61 96
REMARK H PARENT 22 5 21 25 26 30 85 49 53 60
REMARK Flexibility Score: inf
ROOT
ATOM      1  C   UNL A   1      31.805  30.621  26.377  1.00  0.00     0.117 C 
ENDROOT
BRANCH   1   2
ATOM      2  N   UNL A   1      31.448  30.345  24.996  1.00  0.00    -0.356 N 
ATOM      3  O   UNL A   1      33.185  28.926  24.621  1.00  0.00    -0.275 OA
ATOM      4  C   UNL A   1      32.067  29.331  24.304  1.00  0.00     0.224 C 
ATOM      5  H   UNL A   1      30.756  30.887  24.552  1.00  0.00     0.163 HD
BRANCH   4   6
ATOM      6  C   UNL A   1      31.323  28.716  23.132  1.00  0.00     0.141 C 
BRANCH   6   7
ATOM      7  C   UNL A   1      29.901  28.261  23.343  1.00  0.00     0.022 A 
ATOM      8  C   UNL A   1      28.868  29.120  23.008  1.00  0.00     0.121 A 
ATOM      9  C   UNL A   1      29.518  26.979  23.749  1.00  0.00     0.135 A 
ATOM     10  N   UNL A   1      27.568  28.798  23.071  1.00  0.00    -0.244 NA
ATOM     11  N   UNL A   1      28.222  26.622  23.804  1.00  0.00    -0.219 NA
ATOM     12  C   UNL A   1      27.312  27.546  23.464  1.00  0.00     0.224 A 
BRANCH   9  13
ATOM     13  N   UNL A   1      30.454  26.011  24.038  1.00  0.00    -0.356 N 
ATOM     14  C   UNL A   1      30.524  24.803  23.231  1.00  0.00     0.121 C 
ATOM     15  C   UNL A   1      30.819  25.751  25.418  1.00  0.00     0.121 C 
ATOM     16  C   UNL A   1      32.005  24.408  23.164  1.00  0.00     0.060 C 
ATOM     17  C   UNL A   1      32.331  25.580  25.420  1.00  0.00     0.060 C 
ATOM     18  C   UNL A   1      32.724  24.366  24.550  1.00  0.00     0.097 C 
ATOM     19  O   UNL A   1      32.325  23.226  25.344  1.00  0.00    -0.372 OA
ATOM     20  C   UNL A   1      34.268  24.348  24.349  1.00  0.00     0.146 C 
ATOM     21  C   UNL A   1      32.721  21.951  24.854  1.00  0.00     0.161 C 
ATOM     22  C   UNL A   1      34.741  23.008  23.791  1.00  0.00     0.037 C 
ATOM     23  C   UNL A   1      34.225  21.858  24.649  1.00  0.00     0.031 C 
BRANCH  20  24
ATOM     24  O   UNL A   1      34.956  24.571  25.586  1.00  0.00    -0.390 OA
ATOM     25  H   UNL A   1      35.910  24.633  25.419  1.00  0.00     0.211 HD
ENDBRANCH  20  24
ENDBRANCH   9  13
ENDBRANCH   6   7
ENDBRANCH   4   6
ENDBRANCH   1   2
BRANCH   1  26
ATOM     26  C   UNL A   1      31.462  32.012  26.854  1.00  0.00     0.042 C 
BRANCH  26  27
ATOM     27  C   UNL A   1      32.679  32.843  27.208  1.00  0.00     0.118 C 
BRANCH  27  28
ATOM     28  N   UNL A   1      32.362  34.192  27.659  1.00  0.00    -0.352 N 
ATOM     29  C   UNL A   1      32.965  34.962  28.624  1.00  0.00     0.251 C 
ATOM     30  H   UNL A   1      31.599  34.616  27.203  1.00  0.00     0.163 HD
ATOM     31  O   UNL A   1      32.487  36.043  28.936  1.00  0.00    -0.269 OA
BRANCH  29  32
ATOM     32  C   UNL A   1      34.173  34.457  29.315  1.00  0.00     0.039 A 
ATOM     33  C   UNL A   1      34.014  33.752  30.510  1.00  0.00     0.014 A 
ATOM     34  C   UNL A   1      35.448  34.646  28.777  1.00  0.00     0.014 A 
ATOM     35  C   UNL A   1      35.127  33.175  31.119  1.00  0.00     0.010 A 
ATOM     36  C   UNL A   1      36.535  33.974  29.321  1.00  0.00     0.010 A 
ATOM     37  C   UNL A   1      36.390  33.241  30.505  1.00  0.00    -0.014 A 
BRANCH  37  38
ATOM     38  C   UNL A   1      37.557  32.540  31.095  1.00  0.00     0.031 A 
ATOM     39  C   UNL A   1      38.062  32.915  32.461  1.00  0.00     0.074 A 
ATOM     40  C   UNL A   1      38.183  31.585  30.379  1.00  0.00     0.049 A 
ATOM     41  N   UNL A   1      39.045  32.392  33.151  1.00  0.00    -0.248 NA
ATOM     42  C   UNL A   1      37.400  34.045  33.131  1.00  0.00     0.031 C 
ATOM     43  C   UNL A   1      37.839  31.191  29.012  1.00  0.00     0.029 A 
ATOM     44  N   UNL A   1      39.236  30.768  30.704  1.00  0.00    -0.354 N 
ATOM     45  C   UNL A   1      39.118  33.130  34.325  1.00  0.00     0.074 A 
ATOM     46  C   UNL A   1      38.132  34.183  34.224  1.00  0.00     0.031 C 
ATOM     47  C   UNL A   1      38.630  30.174  28.634  1.00  0.00     0.029 A 
ATOM     48  C   UNL A   1      39.559  29.869  29.716  1.00  0.00     0.049 A 
ATOM     49  H   UNL A   1      39.714  30.820  31.562  1.00  0.00     0.167 HD
ATOM     50  C   UNL A   1      39.911  32.928  35.404  1.00  0.00     0.037 A 
ATOM     51  C   UNL A   1      40.493  28.900  29.693  1.00  0.00     0.037 A 
ATOM     52  C   UNL A   1      40.881  31.868  35.504  1.00  0.00     0.049 A 
ATOM     53  C   UNL A   1      41.348  28.685  30.912  1.00  0.00     0.074 A 
ATOM     54  C   UNL A   1      41.697  31.541  36.571  1.00  0.00     0.029 A 
ATOM     55  N   UNL A   1      41.168  30.964  34.490  1.00  0.00    -0.354 N 
ATOM     56  N   UNL A   1      41.346  29.331  32.052  1.00  0.00    -0.248 NA
ATOM     57  C   UNL A   1      42.324  27.589  30.845  1.00  0.00     0.031 C 
ATOM     58  C   UNL A   1      42.515  30.473  36.186  1.00  0.00     0.029 A 
ATOM     59  C   UNL A   1      42.164  30.092  34.901  1.00  0.00     0.049 A 
ATOM     60  H   UNL A   1      40.729  30.945  33.609  1.00  0.00     0.167 HD
ATOM     61  C   UNL A   1      42.296  28.705  32.848  1.00  0.00     0.074 A 
ATOM     62  C   UNL A   1      42.833  27.609  32.067  1.00  0.00     0.031 C 
ATOM     63  C   UNL A   1      42.689  29.008  34.111  1.00  0.00     0.037 A 
BRANCH  50  64
ATOM     64  C   UNL A   1      39.758  33.870  36.564  1.00  0.00     0.064 A 
ATOM     65  C   UNL A   1      38.944  33.557  37.666  1.00  0.00     0.173 A 
ATOM     66  C   UNL A   1      40.456  35.087  36.593  1.00  0.00     0.173 A 
ATOM     67  F   UNL A   1      38.242  32.413  37.685  1.00  0.00    -0.203 F 
ATOM     68  C   UNL A   1      38.810  34.440  38.734  1.00  0.00     0.198 A 
ATOM     69  C   UNL A   1      40.347  35.951  37.680  1.00  0.00     0.198 A 
ATOM     70  F   UNL A   1      41.250  35.435  35.571  1.00  0.00    -0.203 F 
ATOM     71  F   UNL A   1      37.983  34.145  39.747  1.00  0.00    -0.200 F 
ATOM     72  C   UNL A   1      39.518  35.632  38.745  1.00  0.00     0.200 A 
ATOM     73  F   UNL A   1      41.043  37.097  37.695  1.00  0.00    -0.200 F 
ATOM     74  F   UNL A   1      39.395  36.477  39.778  1.00  0.00    -0.200 F 
ENDBRANCH  50  64
BRANCH  51  75
ATOM     75  C   UNL A   1      40.636  28.032  28.494  1.00  0.00     0.064 A 
ATOM     76  C   UNL A   1      41.410  28.437  27.397  1.00  0.00     0.173 A 
ATOM     77  C   UNL A   1      39.999  26.786  28.415  1.00  0.00     0.173 A 
ATOM     78  F   UNL A   1      42.027  29.629  27.417  1.00  0.00    -0.203 F 
ATOM     79  C   UNL A   1      41.518  27.644  26.257  1.00  0.00     0.198 A 
ATOM     80  C   UNL A   1      40.134  25.978  27.288  1.00  0.00     0.198 A 
ATOM     81  F   UNL A   1      39.254  26.346  29.440  1.00  0.00    -0.203 F 
ATOM     82  F   UNL A   1      42.220  28.082  25.203  1.00  0.00    -0.200 F 
ATOM     83  C   UNL A   1      40.884  26.412  26.206  1.00  0.00     0.200 A 
ATOM     84  F   UNL A   1      39.535  24.780  27.249  1.00  0.00    -0.200 F 
ATOM     85  F   UNL A   1      40.990  25.647  25.110  1.00  0.00    -0.200 F 
ENDBRANCH  51  75
BRANCH  63  86
ATOM     86  C   UNL A   1      43.725  28.114  34.733  1.00  0.00     0.064 A 
ATOM     87  C   UNL A   1      43.380  26.915  35.376  1.00  0.00     0.173 A 
ATOM     88  C   UNL A   1      45.084  28.465  34.685  1.00  0.00     0.173 A 
ATOM     89  F   UNL A   1      42.095  26.539  35.460  1.00  0.00    -0.203 F 
ATOM     90  C   UNL A   1      44.349  26.129  35.994  1.00  0.00     0.198 A 
ATOM     91  C   UNL A   1      46.054  27.656  35.270  1.00  0.00     0.198 A 
ATOM     92  F   UNL A   1      45.471  29.594  34.073  1.00  0.00    -0.203 F 
ATOM     93  F   UNL A   1      43.987  25.030  36.668  1.00  0.00    -0.200 F 
ATOM     94  C   UNL A   1      45.685  26.498  35.936  1.00  0.00     0.200 A 
ATOM     95  F   UNL A   1      47.346  28.004  35.197  1.00  0.00    -0.200 F 
ATOM     96  F   UNL A   1      46.616  25.743  36.535  1.00  0.00    -0.200 F 
ENDBRANCH  63  86
ENDBRANCH  37  38
ENDBRANCH  29  32
ENDBRANCH  27  28
ENDBRANCH  26  27
ENDBRANCH   1  26
TORSDOF 13
ENDMDL
